data_oav-159
_audit_creation_date               2023-08-28
_audit_creation_method
;
Olex2 1.5
(compiled 2023.03.06 svn.rbb2c1857 for OlexSys, GUI svn.r6748)
;
_shelx_SHELXL_version_number       '2014/7'
_audit_contact_author_address      ?
_audit_contact_author_email        ?
_audit_contact_author_name         ''
_audit_contact_author_phone        ?
_publ_contact_author_id_orcid      ?
_publ_section_references
;
Dolomanov, O.V., Bourhis, L.J., Gildea, R.J, Howard, J.A.K. & Puschmann, H.
 (2009), J. Appl. Cryst. 42, 339-341.

Sheldrick, G.M. (2015). Acta Cryst. A71, 3-8.

Sheldrick, G.M. (2015). Acta Cryst. C71, 3-8.
;
_chemical_name_common              ?
_chemical_name_systematic          ?
_chemical_formula_moiety           'C6 H7 Eu0.5 N5 O3.5, 0.5(N O3)'
_chemical_formula_sum              'C6 H7 Eu0.50 N5.50 O5'
_chemical_formula_weight           312.15
_chemical_melting_point            ?
loop_
  _atom_type_symbol
  _atom_type_description
  _atom_type_scat_dispersion_real
  _atom_type_scat_dispersion_imag
  _atom_type_scat_source
 'C' 'C' 0.0033 0.0016 'International Tables Vol C Tables 4.2.6.8 and 6.1.1.4'
 'H' 'H' 0.0000 0.0000 'International Tables Vol C Tables 4.2.6.8 and 6.1.1.4'
 'Eu' 'Eu' -0.1578 3.6682
 'International Tables Vol C Tables 4.2.6.8 and 6.1.1.4'
 'N' 'N' 0.0061 0.0033 'International Tables Vol C Tables 4.2.6.8 and 6.1.1.4'
 'O' 'O' 0.0106 0.0060 'International Tables Vol C Tables 4.2.6.8 and 6.1.1.4'

_shelx_space_group_comment
;
The symmetry employed for this shelxl refinement is uniquely defined
by the following loop, which should always be used as a source of
symmetry information in preference to the above space-group names.
They are only intended as comments.
;
_space_group_crystal_system        'triclinic'
_space_group_IT_number             2
_space_group_name_H-M_alt          'P -1'
_space_group_name_Hall             '-P 1'
loop_
  _space_group_symop_operation_xyz
 'x, y, z'
 '-x, -y, -z'

_cell_length_a                     8.2568(2)
_cell_length_b                     9.4387(2)
_cell_length_c                     14.1145(2)
_cell_angle_alpha                  95.9070(10)
_cell_angle_beta                   104.8930(10)
_cell_angle_gamma                  110.1820(10)
_cell_volume                       975.26(4)
_cell_formula_units_Z              4
_cell_measurement_reflns_used      9924
_cell_measurement_temperature      150.00
_cell_measurement_theta_max        33.20
_cell_measurement_theta_min        2.71
_shelx_estimated_absorpt_T_max     ?
_shelx_estimated_absorpt_T_min     ?
_exptl_absorpt_coefficient_mu      3.299
_exptl_absorpt_correction_T_max    0.7465
_exptl_absorpt_correction_T_min    0.5953
_exptl_absorpt_correction_type     none
_exptl_absorpt_process_details
;
SADABS-2016/2 (Bruker,2016/2) was used for absorption correction.
wR2(int) was 0.0768 before and 0.0343 after correction.
The Ratio of minimum to maximum transmission is 0.7975.
The \l/2 correction factor is Not present.
;
_exptl_absorpt_special_details     ?
_exptl_crystal_colour              ?
_exptl_crystal_density_diffrn      2.126
_exptl_crystal_density_meas        ?
_exptl_crystal_density_method      ?
_exptl_crystal_description         ?
_exptl_crystal_F_000               612
_exptl_crystal_size_max            ?
_exptl_crystal_size_mid            ?
_exptl_crystal_size_min            ?
_exptl_transmission_factor_max     ?
_exptl_transmission_factor_min     ?
_diffrn_reflns_av_R_equivalents    0.0237
_diffrn_reflns_av_unetI/netI       0.0317
_diffrn_reflns_Laue_measured_fraction_full  0.997
_diffrn_reflns_Laue_measured_fraction_max  0.993
_diffrn_reflns_limit_h_max         12
_diffrn_reflns_limit_h_min         -12
_diffrn_reflns_limit_k_max         14
_diffrn_reflns_limit_k_min         -14
_diffrn_reflns_limit_l_max         21
_diffrn_reflns_limit_l_min         -21
_diffrn_reflns_number              18078
_diffrn_reflns_point_group_measured_fraction_full  0.997
_diffrn_reflns_point_group_measured_fraction_max  0.993
_diffrn_reflns_theta_full          25.242
_diffrn_reflns_theta_max           33.225
_diffrn_reflns_theta_min           2.710
_diffrn_ambient_temperature        150.00
_diffrn_detector_area_resol_mean   ?
_diffrn_measured_fraction_theta_full  0.997
_diffrn_measured_fraction_theta_max  0.993
_diffrn_measurement_device_type    'Bruker APEX-II CCD'
_diffrn_measurement_method         '\f and \w scans'
_diffrn_radiation_type             MoK\a
_diffrn_radiation_wavelength       0.71073
_diffrn_source                     ?
_diffrn_source_current             1.4
_diffrn_source_power               0.07
_diffrn_source_voltage             50.0
_diffrn_standards_number           0
_reflns_Friedel_coverage           0.000
_reflns_Friedel_fraction_full      .
_reflns_Friedel_fraction_max       .
_reflns_number_gt                  6964
_reflns_number_total               7446
_reflns_special_details
;
 Reflections were merged by SHELXL according to the crystal
 class for the calculation of statistics and refinement.
 
 _reflns_Friedel_fraction is defined as the number of unique
 Friedel pairs measured divided by the number that would be
 possible theoretically, ignoring centric projections and
 systematic absences.
;
_reflns_threshold_expression       'I > 2\s(I)'
_computing_cell_refinement         ?
_computing_data_collection         ?
_computing_data_reduction          ?
_computing_molecular_graphics      'Olex2 1.5 (Dolomanov et al., 2009)'
_computing_publication_material    'Olex2 1.5 (Dolomanov et al., 2009)'
_computing_structure_refinement    'SHELXL 2014/7 (Sheldrick, 2015)'
_computing_structure_solution      'SHELXT 2014/5 (Sheldrick, 2014)'
_refine_diff_density_max           0.728
_refine_diff_density_min           -0.636
_refine_diff_density_rms           0.102
_refine_ls_extinction_coef         .
_refine_ls_extinction_method       none
_refine_ls_goodness_of_fit_ref     1.045
_refine_ls_hydrogen_treatment      constr
_refine_ls_matrix_type             full
_refine_ls_number_parameters       310
_refine_ls_number_reflns           7446
_refine_ls_number_restraints       0
_refine_ls_R_factor_all            0.0219
_refine_ls_R_factor_gt             0.0194
_refine_ls_restrained_S_all        1.045
_refine_ls_shift/su_max            0.003
_refine_ls_shift/su_mean           0.000
_refine_ls_structure_factor_coef   Fsqd
_refine_ls_weighting_details      
 'w=1/[\s^2^(Fo^2^)+(0.0147P)^2^+0.4218P] where P=(Fo^2^+2Fc^2^)/3'
_refine_ls_weighting_scheme        calc
_refine_ls_wR_factor_gt            0.0430
_refine_ls_wR_factor_ref           0.0438
_refine_special_details            ?
_olex2_refinement_description
;
1. Fixed Uiso
 At 1.2 times of:
  All C(H) groups, All N(H) groups
 At 1.5 times of:
  All O(H,H) groups
2.a Rotating group:
 O005(H00A,H00B), O007(H00C,H00D), O008(H00E,H00F)
2.b Aromatic/amide H refined with riding coordinates:
 N10(H10), N3(H3), C00R(H00R), C00S(H00S), C00V(H00V), C00W(H00W), C2(H2),
 C1(H1)
;
_atom_sites_solution_hydrogens     mixed
_atom_sites_solution_primary       dual
_atom_sites_solution_secondary     ?
loop_
  _atom_site_label
  _atom_site_type_symbol
  _atom_site_fract_x
  _atom_site_fract_y
  _atom_site_fract_z
  _atom_site_U_iso_or_equiv
  _atom_site_adp_type
  _atom_site_occupancy
  _atom_site_site_symmetry_order
  _atom_site_calc_flag
  _atom_site_refinement_flags_posn
  _atom_site_refinement_flags_adp
  _atom_site_refinement_flags_occupancy
  _atom_site_disorder_assembly
  _atom_site_disorder_group
 Eu01 Eu 0.73174(2) 0.45913(2) 0.93379(2) 0.00984(2) Uani 1 1 d . . . . .
 O002 O 0.43698(16) 0.39450(15) 0.83517(9) 0.0184(2) Uani 1 1 d . . . . .
 O003 O 1.03572(15) 0.56776(13) 0.91550(8) 0.0121(2) Uani 1 1 d . . . . .
 O004 O 0.24312(17) 0.38025(14) 0.92243(8) 0.0157(2) Uani 1 1 d . . . . .
 O005 O 0.54999(17) 0.27172(14) 1.00560(9) 0.0171(2) Uani 1 1 d . . . . .
 H00A H 0.6184 0.2641 1.0618 0.026 Uiso 1 1 d R U . . .
 H00B H 0.5087 0.1803 0.9669 0.026 Uiso 1 1 d R U . . .
 O006 O 1.21255(16) 0.65134(14) 0.81857(8) 0.0161(2) Uani 1 1 d . . . . .
 O007 O 0.76022(18) 0.22299(14) 0.87774(9) 0.0184(2) Uani 1 1 d . . . . .
 H00C H 0.8531 0.2429 0.8548 0.028 Uiso 1 1 d R U . . .
 H00D H 0.7888 0.1814 0.9290 0.028 Uiso 1 1 d R U . . .
 O008 O 0.7447(2) 0.70761(15) 0.89757(9) 0.0211(3) Uani 1 1 d . . . . .
 H00E H 0.8561 0.7651 0.9011 0.032 Uiso 1 1 d R U . . .
 H00F H 0.7223 0.7585 0.9449 0.032 Uiso 1 1 d R U . . .
 O009 O 0.0193(2) -0.11816(16) 0.83793(10) 0.0251(3) Uani 1 1 d . . . . .
 N00A N 0.61323(19) 0.38752(16) 0.65855(9) 0.0132(2) Uani 1 1 d . . . . .
 N00B N -0.04888(19) 0.20266(16) 0.74841(10) 0.0144(2) Uani 1 1 d . . . . .
 N00C N 0.73277(18) 0.44600(15) 0.74851(9) 0.0120(2) Uani 1 1 d . . . . .
 O00D O 0.1842(2) -0.02305(16) 0.99469(10) 0.0267(3) Uani 1 1 d . . . . .
 N7 N 0.1711(2) -0.04051(16) 0.90488(11) 0.0191(3) Uani 1 1 d . . . . .
 N8 N 0.70875(18) 0.42323(15) 0.59340(9) 0.0110(2) Uani 1 1 d . . . . .
 N2 N -0.1541(2) 0.14157(16) 0.65566(10) 0.0156(3) Uani 1 1 d . . . . .
 N10 N 0.6030(2) 0.33768(17) 0.33644(10) 0.0187(3) Uani 1 1 d . . . . .
 H10 H 0.6328 0.3399 0.2809 0.022 Uiso 1 1 calc R U . . .
 O00I O 0.3061(2) 0.0158(2) 0.87627(11) 0.0413(5) Uani 1 1 d . . . . .
 N1 N -0.04335(19) 0.17012(16) 0.59748(10) 0.0130(2) Uani 1 1 d . . . . .
 N3 N -0.1377(2) 0.09826(17) 0.34099(10) 0.0181(3) Uani 1 1 d . . . . .
 H3 H -0.1074 0.1082 0.2859 0.022 Uiso 1 1 calc R U . . .
 N9 N 0.7245(2) 0.40350(17) 0.42901(10) 0.0162(3) Uani 1 1 d . . . . .
 C00M C 0.2796(2) 0.35402(18) 0.84304(11) 0.0118(3) Uani 1 1 d . . . . .
 N4 N -0.0189(2) 0.16513(17) 0.43422(10) 0.0166(3) Uani 1 1 d . . . . .
 C00O C 0.1270(2) 0.26980(18) 0.74976(11) 0.0118(3) Uani 1 1 d . . . . .
 C00P C 1.0627(2) 0.58540(18) 0.83016(11) 0.0114(3) Uani 1 1 d . . . . .
 C00Q C 0.9008(2) 0.51769(17) 0.74040(11) 0.0112(3) Uani 1 1 d . . . . .
 C00R C 0.8873(2) 0.50426(18) 0.64046(11) 0.0121(3) Uani 1 1 d . . . . .
 H00R H 0.9814 0.5429 0.6115 0.015 Uiso 1 1 calc R U . . .
 C00S C 0.1317(2) 0.24925(18) 0.65273(11) 0.0128(3) Uani 1 1 d . . . . .
 H00S H 0.2347 0.2831 0.6300 0.015 Uiso 1 1 calc R U . . .
 C00T C -0.1222(2) 0.11920(18) 0.49207(11) 0.0134(3) Uani 1 1 d . . . . .
 C00U C 0.6209(2) 0.37225(18) 0.48853(11) 0.0121(3) Uani 1 1 d . . . . .
 C00V C -0.3069(2) 0.0150(2) 0.34087(12) 0.0186(3) Uani 1 1 d . . . . .
 H00V H -0.4097 -0.0405 0.2835 0.022 Uiso 1 1 calc R U . . .
 C00W C -0.3030(2) 0.0252(2) 0.43935(12) 0.0172(3) Uani 1 1 d . . . . .
 H00W H -0.3998 -0.0205 0.4652 0.021 Uiso 1 1 calc R U . . .
 C2 C 0.4371(2) 0.2886(2) 0.43716(12) 0.0158(3) Uani 1 1 d . . . . .
 H2 H 0.3391 0.2539 0.4638 0.019 Uiso 1 1 calc R U . . .
 C1 C 0.4322(3) 0.2686(2) 0.33826(12) 0.0192(3) Uani 1 1 d . . . . .
 H1 H 0.3272 0.2156 0.2817 0.023 Uiso 1 1 calc R U . . .

loop_
  _atom_site_aniso_label
  _atom_site_aniso_U_11
  _atom_site_aniso_U_22
  _atom_site_aniso_U_33
  _atom_site_aniso_U_23
  _atom_site_aniso_U_13
  _atom_site_aniso_U_12
 Eu01 0.00761(3) 0.01528(4) 0.00618(3) 0.00161(2) 0.00271(2) 0.00369(3)
 O002 0.0100(5) 0.0321(7) 0.0117(5) 0.0043(5) 0.0035(4) 0.0064(5)
 O003 0.0101(5) 0.0185(5) 0.0072(4) 0.0031(4) 0.0034(4) 0.0044(4)
 O004 0.0167(6) 0.0213(6) 0.0094(5) 0.0001(4) 0.0049(4) 0.0082(5)
 O005 0.0143(6) 0.0210(6) 0.0112(5) 0.0042(4) 0.0013(4) 0.0028(5)
 O006 0.0109(5) 0.0249(6) 0.0100(5) 0.0047(4) 0.0045(4) 0.0029(5)
 O007 0.0244(7) 0.0223(6) 0.0153(5) 0.0074(5) 0.0125(5) 0.0115(5)
 O008 0.0307(7) 0.0227(6) 0.0160(6) 0.0050(5) 0.0114(5) 0.0141(6)
 O009 0.0229(7) 0.0243(6) 0.0198(6) 0.0021(5) 0.0026(5) 0.0028(6)
 N00A 0.0122(6) 0.0194(6) 0.0086(5) 0.0032(5) 0.0049(5) 0.0054(5)
 N00B 0.0111(6) 0.0181(6) 0.0115(6) 0.0006(5) 0.0038(5) 0.0033(5)
 N00C 0.0106(6) 0.0171(6) 0.0073(5) 0.0016(4) 0.0027(4) 0.0044(5)
 O00D 0.0394(9) 0.0264(7) 0.0141(6) 0.0042(5) 0.0087(6) 0.0121(6)
 N7 0.0230(8) 0.0139(6) 0.0155(6) 0.0016(5) 0.0059(6) 0.0020(6)
 N8 0.0105(6) 0.0146(6) 0.0074(5) 0.0025(4) 0.0033(4) 0.0038(5)
 N2 0.0123(6) 0.0196(6) 0.0128(6) 0.0012(5) 0.0052(5) 0.0034(5)
 N10 0.0205(7) 0.0247(7) 0.0073(6) 0.0024(5) 0.0043(5) 0.0049(6)
 O00I 0.0317(9) 0.0449(9) 0.0217(7) -0.0076(7) 0.0117(6) -0.0137(7)
 N1 0.0124(6) 0.0166(6) 0.0099(5) 0.0015(5) 0.0036(5) 0.0058(5)
 N3 0.0196(7) 0.0214(7) 0.0093(6) 0.0024(5) 0.0026(5) 0.0047(6)
 N9 0.0149(7) 0.0207(6) 0.0098(6) 0.0023(5) 0.0046(5) 0.0028(5)
 C00M 0.0117(7) 0.0149(6) 0.0098(6) 0.0030(5) 0.0030(5) 0.0065(5)
 N4 0.0164(7) 0.0202(7) 0.0099(6) 0.0013(5) 0.0027(5) 0.0047(6)
 C00O 0.0107(7) 0.0157(7) 0.0095(6) 0.0016(5) 0.0035(5) 0.0057(5)
 C00P 0.0109(7) 0.0146(6) 0.0086(6) 0.0022(5) 0.0030(5) 0.0050(5)
 C00Q 0.0109(7) 0.0145(6) 0.0086(6) 0.0036(5) 0.0034(5) 0.0047(5)
 C00R 0.0107(7) 0.0161(7) 0.0080(6) 0.0022(5) 0.0025(5) 0.0039(5)
 C00S 0.0113(7) 0.0159(7) 0.0106(6) 0.0017(5) 0.0037(5) 0.0045(6)
 C00T 0.0150(7) 0.0155(7) 0.0092(6) 0.0011(5) 0.0018(5) 0.0070(6)
 C00U 0.0136(7) 0.0155(7) 0.0075(6) 0.0028(5) 0.0037(5) 0.0057(6)
 C00V 0.0170(8) 0.0210(8) 0.0130(7) 0.0004(6) 0.0005(6) 0.0057(6)
 C00W 0.0140(7) 0.0203(7) 0.0139(7) 0.0011(6) 0.0027(6) 0.0047(6)
 C2 0.0125(7) 0.0218(8) 0.0112(6) 0.0034(6) 0.0027(5) 0.0051(6)
 C1 0.0180(8) 0.0248(8) 0.0103(7) 0.0021(6) 0.0005(6) 0.0062(7)

_geom_special_details
;
 All esds (except the esd in the dihedral angle between two l.s. planes)
 are estimated using the full covariance matrix.  The cell esds are taken
 into account individually in the estimation of esds in distances, angles
 and torsion angles; correlations between esds in cell parameters are only
 used when they are defined by crystal symmetry.  An approximate (isotropic)
 treatment of cell esds is used for estimating esds involving l.s. planes.
;
loop_
  _geom_bond_atom_site_label_1
  _geom_bond_atom_site_label_2
  _geom_bond_distance
  _geom_bond_site_symmetry_2
  _geom_bond_publ_flag
 Eu01 Eu01 4.09896(18) 2_767 ?
 Eu01 O002 2.3005(12) . ?
 Eu01 O003 2.5737(11) 2_767 ?
 Eu01 O003 2.4555(11) . ?
 Eu01 O004 2.3223(11) 2_667 ?
 Eu01 O005 2.3933(12) . ?
 Eu01 H00A 2.8101 . ?
 Eu01 H00B 2.8086 . ?
 Eu01 O007 2.3965(12) . ?
 Eu01 H00C 2.8156 . ?
 Eu01 H00D 2.8159 . ?
 Eu01 O008 2.4240(13) . ?
 Eu01 N00C 2.6076(12) . ?
 O002 C00M 1.2596(19) . ?
 O003 Eu01 2.5737(11) 2_767 ?
 O003 C00P 1.2968(17) . ?
 O004 Eu01 2.3223(11) 2_667 ?
 O004 C00M 1.2554(18) . ?
 O005 H00A 0.8736 . ?
 O005 H00B 0.8737 . ?
 O006 C00P 1.2405(19) . ?
 O007 H00C 0.8763 . ?
 O007 H00D 0.8764 . ?
 O008 H00E 0.8771 . ?
 O008 H00F 0.8771 . ?
 O009 N7 1.271(2) . ?
 N00A N00C 1.3141(18) . ?
 N00A N8 1.3544(17) . ?
 N00B N2 1.3096(19) . ?
 N00B C00O 1.364(2) . ?
 N00C C00Q 1.359(2) . ?
 O00D N7 1.2327(18) . ?
 N7 O00I 1.247(2) . ?
 N8 C00R 1.346(2) . ?
 N8 C00U 1.4174(19) . ?
 N2 N1 1.3579(18) . ?
 N10 H10 0.8800 . ?
 N10 N9 1.3522(19) . ?
 N10 C1 1.343(2) . ?
 N1 C00S 1.346(2) . ?
 N1 C00T 1.4168(19) . ?
 N3 H3 0.8800 . ?
 N3 N4 1.3530(19) . ?
 N3 C00V 1.345(2) . ?
 N9 C00U 1.3307(19) . ?
 C00M C00O 1.481(2) . ?
 N4 C00T 1.326(2) . ?
 C00O C00S 1.376(2) . ?
 C00P C00Q 1.474(2) . ?
 C00Q C00R 1.375(2) . ?
 C00R H00R 0.9500 . ?
 C00S H00S 0.9500 . ?
 C00T C00W 1.396(2) . ?
 C00U C2 1.394(2) . ?
 C00V H00V 0.9500 . ?
 C00V C00W 1.375(2) . ?
 C00W H00W 0.9500 . ?
 C2 H2 0.9500 . ?
 C2 C1 1.378(2) . ?
 C1 H1 0.9500 . ?

loop_
  _geom_angle_atom_site_label_1
  _geom_angle_atom_site_label_2
  _geom_angle_atom_site_label_3
  _geom_angle
  _geom_angle_site_symmetry_1
  _geom_angle_site_symmetry_3
  _geom_angle_publ_flag
 Eu01 Eu01 H00A 92.6 2_767 . ?
 Eu01 Eu01 H00B 110.2 2_767 . ?
 Eu01 Eu01 H00C 64.9 2_767 . ?
 Eu01 Eu01 H00D 68.8 2_767 . ?
 O002 Eu01 Eu01 170.19(3) . 2_767 ?
 O002 Eu01 O003 150.90(4) . 2_767 ?
 O002 Eu01 O003 136.81(4) . . ?
 O002 Eu01 O004 103.53(4) . 2_667 ?
 O002 Eu01 O005 74.98(4) . . ?
 O002 Eu01 H00A 91.9 . . ?
 O002 Eu01 H00B 70.8 . . ?
 O002 Eu01 O007 97.43(5) . . ?
 O002 Eu01 H00C 106.6 . . ?
 O002 Eu01 H00D 106.2 . . ?
 O002 Eu01 O008 79.30(5) . . ?
 O002 Eu01 N00C 72.76(4) . . ?
 O003 Eu01 Eu01 36.38(3) . 2_767 ?
 O003 Eu01 Eu01 34.46(2) 2_767 2_767 ?
 O003 Eu01 O003 70.84(4) . 2_767 ?
 O003 Eu01 H00A 128.0 . . ?
 O003 Eu01 H00A 59.0 2_767 . ?
 O003 Eu01 H00B 81.5 2_767 . ?
 O003 Eu01 H00B 137.1 . . ?
 O003 Eu01 H00C 74.5 2_767 . ?
 O003 Eu01 H00C 64.6 . . ?
 O003 Eu01 H00D 60.7 2_767 . ?
 O003 Eu01 H00D 84.8 . . ?
 O003 Eu01 N00C 65.71(4) . . ?
 O003 Eu01 N00C 128.61(4) 2_767 . ?
 O004 Eu01 Eu01 86.10(3) 2_667 2_767 ?
 O004 Eu01 O003 103.22(4) 2_667 . ?
 O004 Eu01 O003 70.95(4) 2_667 2_767 ?
 O004 Eu01 O005 80.52(4) 2_667 . ?
 O004 Eu01 H00A 74.0 2_667 . ?
 O004 Eu01 H00B 97.6 2_667 . ?
 O004 Eu01 O007 142.09(4) 2_667 . ?
 O004 Eu01 H00C 145.5 2_667 . ?
 O004 Eu01 H00D 125.1 2_667 . ?
 O004 Eu01 O008 70.51(4) 2_667 . ?
 O004 Eu01 N00C 144.33(4) 2_667 . ?
 O005 Eu01 Eu01 108.97(3) . 2_767 ?
 O005 Eu01 O003 75.92(4) . 2_767 ?
 O005 Eu01 O003 142.90(4) . . ?
 O005 Eu01 H00A 17.0 . . ?
 O005 Eu01 H00B 17.1 . . ?
 O005 Eu01 O007 74.85(4) . . ?
 O005 Eu01 H00C 91.3 . . ?
 O005 Eu01 H00D 64.5 . . ?
 O005 Eu01 O008 135.11(4) . . ?
 O005 Eu01 N00C 129.59(4) . . ?
 H00A Eu01 H00B 28.4 . . ?
 H00A Eu01 H00C 88.4 . . ?
 H00A Eu01 H00D 60.0 . . ?
 H00B Eu01 H00C 77.1 . . ?
 H00B Eu01 H00D 52.8 . . ?
 O007 Eu01 Eu01 75.46(3) . 2_767 ?
 O007 Eu01 O003 81.14(4) . . ?
 O007 Eu01 O003 75.35(4) . 2_767 ?
 O007 Eu01 H00A 74.1 . . ?
 O007 Eu01 H00B 60.1 . . ?
 O007 Eu01 H00C 17.0 . . ?
 O007 Eu01 H00D 17.0 . . ?
 O007 Eu01 O008 145.37(4) . . ?
 O007 Eu01 N00C 72.17(4) . . ?
 H00C Eu01 H00D 28.4 . . ?
 O008 Eu01 Eu01 102.59(3) . 2_767 ?
 O008 Eu01 O003 122.53(4) . 2_767 ?
 O008 Eu01 O003 78.48(4) . . ?
 O008 Eu01 H00A 140.0 . . ?
 O008 Eu01 H00B 144.3 . . ?
 O008 Eu01 H00C 131.5 . . ?
 O008 Eu01 H00D 159.8 . . ?
 O008 Eu01 N00C 74.00(4) . . ?
 N00C Eu01 Eu01 98.36(3) . 2_767 ?
 N00C Eu01 H00A 140.4 . . ?
 N00C Eu01 H00B 113.5 . . ?
 N00C Eu01 H00C 63.0 . . ?
 N00C Eu01 H00D 88.9 . . ?
 C00M O002 Eu01 139.49(10) . . ?
 Eu01 O003 Eu01 109.16(4) . 2_767 ?
 C00P O003 Eu01 123.15(10) . . ?
 C00P O003 Eu01 123.93(10) . 2_767 ?
 C00M O004 Eu01 153.01(11) . 2_667 ?
 Eu01 O005 H00A 109.6 . . ?
 Eu01 O005 H00B 109.5 . . ?
 H00A O005 H00B 104.3 . . ?
 Eu01 O007 H00C 109.7 . . ?
 Eu01 O007 H00D 109.7 . . ?
 H00C O007 H00D 104.2 . . ?
 Eu01 O008 H00E 109.7 . . ?
 Eu01 O008 H00F 109.7 . . ?
 H00E O008 H00F 104.2 . . ?
 N00C N00A N8 105.78(13) . . ?
 N2 N00B C00O 109.41(13) . . ?
 N00A N00C Eu01 137.21(10) . . ?
 N00A N00C C00Q 109.55(12) . . ?
 C00Q N00C Eu01 113.24(9) . . ?
 O00D N7 O009 121.12(16) . . ?
 O00D N7 O00I 121.39(16) . . ?
 O00I N7 O009 117.48(15) . . ?
 N00A N8 C00U 120.58(13) . . ?
 C00R N8 N00A 112.34(12) . . ?
 C00R N8 C00U 127.05(13) . . ?
 N00B N2 N1 106.34(13) . . ?
 N9 N10 H10 123.6 . . ?
 C1 N10 H10 123.6 . . ?
 C1 N10 N9 112.87(13) . . ?
 N2 N1 C00T 118.64(13) . . ?
 C00S N1 N2 111.70(13) . . ?
 C00S N1 C00T 129.64(13) . . ?
 N4 N3 H3 123.4 . . ?
 C00V N3 H3 123.4 . . ?
 C00V N3 N4 113.27(14) . . ?
 C00U N9 N10 102.79(14) . . ?
 O002 C00M C00O 116.27(13) . . ?
 O004 C00M O002 125.43(15) . . ?
 O004 C00M C00O 118.29(14) . . ?
 C00T N4 N3 102.39(14) . . ?
 N00B C00O C00M 123.00(13) . . ?
 N00B C00O C00S 108.55(14) . . ?
 C00S C00O C00M 128.41(15) . . ?
 O003 C00P C00Q 116.37(14) . . ?
 O006 C00P O003 125.31(14) . . ?
 O006 C00P C00Q 118.31(13) . . ?
 N00C C00Q C00P 120.97(13) . . ?
 N00C C00Q C00R 108.85(14) . . ?
 C00R C00Q C00P 130.06(14) . . ?
 N8 C00R C00Q 103.49(13) . . ?
 N8 C00R H00R 128.3 . . ?
 C00Q C00R H00R 128.3 . . ?
 N1 C00S C00O 104.00(14) . . ?
 N1 C00S H00S 128.0 . . ?
 C00O C00S H00S 128.0 . . ?
 N4 C00T N1 118.83(15) . . ?
 N4 C00T C00W 114.16(14) . . ?
 C00W C00T N1 126.99(14) . . ?
 N9 C00U N8 117.45(14) . . ?
 N9 C00U C2 113.83(14) . . ?
 C2 C00U N8 128.71(14) . . ?
 N3 C00V H00V 126.4 . . ?
 N3 C00V C00W 107.10(15) . . ?
 C00W C00V H00V 126.4 . . ?
 C00T C00W H00W 128.5 . . ?
 C00V C00W C00T 103.07(15) . . ?
 C00V C00W H00W 128.5 . . ?
 C00U C2 H2 128.5 . . ?
 C1 C2 C00U 103.03(14) . . ?
 C1 C2 H2 128.5 . . ?
 N10 C1 C2 107.48(15) . . ?
 N10 C1 H1 126.3 . . ?
 C2 C1 H1 126.3 . . ?

loop_
  _geom_torsion_atom_site_label_1
  _geom_torsion_atom_site_label_2
  _geom_torsion_atom_site_label_3
  _geom_torsion_atom_site_label_4
  _geom_torsion
  _geom_torsion_site_symmetry_1
  _geom_torsion_site_symmetry_2
  _geom_torsion_site_symmetry_3
  _geom_torsion_site_symmetry_4
  _geom_torsion_publ_flag
 Eu01 O002 C00M O004 23.0(3) . . . . ?
 Eu01 O002 C00M C00O -157.53(12) . . . . ?
 Eu01 O003 C00P O006 -30.7(2) 2_767 . . . ?
 Eu01 O003 C00P O006 173.59(12) . . . . ?
 Eu01 O003 C00P C00Q 147.90(10) 2_767 . . . ?
 Eu01 O003 C00P C00Q -7.85(18) . . . . ?
 Eu01 O004 C00M O002 50.1(3) 2_667 . . . ?
 Eu01 O004 C00M C00O -129.3(2) 2_667 . . . ?
 Eu01 N00C C00Q C00P 3.59(18) . . . . ?
 Eu01 N00C C00Q C00R 179.89(10) . . . . ?
 O002 C00M C00O N00B 171.92(15) . . . . ?
 O002 C00M C00O C00S -10.6(2) . . . . ?
 O003 C00P C00Q N00C 2.3(2) . . . . ?
 O003 C00P C00Q C00R -173.13(15) . . . . ?
 O004 C00M C00O N00B -8.6(2) . . . . ?
 O004 C00M C00O C00S 168.92(16) . . . . ?
 O006 C00P C00Q N00C -179.05(14) . . . . ?
 O006 C00P C00Q C00R 5.5(3) . . . . ?
 N00A N00C C00Q C00P -176.21(14) . . . . ?
 N00A N00C C00Q C00R 0.09(18) . . . . ?
 N00A N8 C00R C00Q 0.36(17) . . . . ?
 N00A N8 C00U N9 -176.08(14) . . . . ?
 N00A N8 C00U C2 2.2(2) . . . . ?
 N00B N2 N1 C00S -0.09(18) . . . . ?
 N00B N2 N1 C00T -178.66(13) . . . . ?
 N00B C00O C00S N1 0.05(18) . . . . ?
 N00C N00A N8 C00R -0.31(17) . . . . ?
 N00C N00A N8 C00U 177.85(13) . . . . ?
 N00C C00Q C00R N8 -0.27(17) . . . . ?
 N8 N00A N00C Eu01 -179.60(11) . . . . ?
 N8 N00A N00C C00Q 0.13(17) . . . . ?
 N8 C00U C2 C1 -178.23(16) . . . . ?
 N2 N00B C00O C00M 177.84(14) . . . . ?
 N2 N00B C00O C00S -0.10(19) . . . . ?
 N2 N1 C00S C00O 0.02(18) . . . . ?
 N2 N1 C00T N4 170.67(14) . . . . ?
 N2 N1 C00T C00W -8.0(2) . . . . ?
 N10 N9 C00U N8 178.54(14) . . . . ?
 N10 N9 C00U C2 -0.02(19) . . . . ?
 N1 C00T C00W C00V 178.61(16) . . . . ?
 N3 N4 C00T N1 -178.84(14) . . . . ?
 N3 N4 C00T C00W 0.02(19) . . . . ?
 N3 C00V C00W C00T 0.21(19) . . . . ?
 N9 N10 C1 C2 0.2(2) . . . . ?
 N9 C00U C2 C1 0.1(2) . . . . ?
 C00M C00O C00S N1 -177.76(15) . . . . ?
 N4 N3 C00V C00W -0.2(2) . . . . ?
 N4 C00T C00W C00V -0.1(2) . . . . ?
 C00O N00B N2 N1 0.11(18) . . . . ?
 C00P C00Q C00R N8 175.59(15) . . . . ?
 C00R N8 C00U N9 1.8(2) . . . . ?
 C00R N8 C00U C2 -179.89(16) . . . . ?
 C00S N1 C00T N4 -7.6(3) . . . . ?
 C00S N1 C00T C00W 173.69(17) . . . . ?
 C00T N1 C00S C00O 178.40(15) . . . . ?
 C00U N8 C00R C00Q -177.66(14) . . . . ?
 C00U C2 C1 N10 -0.19(19) . . . . ?
 C00V N3 N4 C00T 0.12(19) . . . . ?
 C1 N10 N9 C00U -0.1(2) . . . . ?

_shelx_res_file
;
    oav-159.res created by SHELXL-2014/7

TITL oav-159_a.res in P-1
REM Old TITL oav-159 in P1
REM SHELXT solution in P-1
REM R1 0.057, Rweak 0.012, Alpha 0.057, Orientation as input
REM Formula found by SHELXT: C20 N3 O10 Eu
CELL 0.71073 8.2568 9.4387 14.1145 95.907 104.893 110.182
ZERR 4 0.0002 0.0002 0.0002 0.001 0.001 0.001
LATT 1
SFAC C H Eu N O
UNIT 24 28 2 22 20

L.S. 4 0 0
PLAN  5
TEMP -123.15
CONF
list 4
fmap 2 53
ACTA
MORE -1
BOND $H
REM <olex2.extras>
REM <HklSrc "%.\\oav-159.hkl">
REM </olex2.extras>

WGHT    0.014700    0.421800
FVAR       0.62148
EU01  3    0.731741    0.459128    0.933789    11.00000    0.00761    0.01528 =
         0.00618    0.00161    0.00271    0.00369
O002  5    0.436983    0.394504    0.835171    11.00000    0.01003    0.03207 =
         0.01169    0.00435    0.00352    0.00644
O003  5    1.035720    0.567761    0.915498    11.00000    0.01014    0.01849 =
         0.00717    0.00309    0.00337    0.00444
O004  5    0.243123    0.380247    0.922433    11.00000    0.01667    0.02133 =
         0.00940    0.00007    0.00490    0.00815
O005  5    0.549987    0.271723    1.005603    11.00000    0.01429    0.02103 =
         0.01118    0.00416    0.00129    0.00278
AFIX   7
H00A  2    0.618356    0.264087    1.061823    11.00000   -1.50000
H00B  2    0.508679    0.180296    0.966913    11.00000   -1.50000
AFIX   0
O006  5    1.212550    0.651341    0.818566    11.00000    0.01091    0.02487 =
         0.01004    0.00468    0.00446    0.00288
O007  5    0.760216    0.222992    0.877737    11.00000    0.02445    0.02235 =
         0.01530    0.00744    0.01253    0.01154
AFIX   7
H00C  2    0.853060    0.242884    0.854839    11.00000   -1.50000
H00D  2    0.788783    0.181412    0.929015    11.00000   -1.50000
AFIX   0
O008  5    0.744657    0.707612    0.897568    11.00000    0.03069    0.02267 =
         0.01598    0.00497    0.01140    0.01409
AFIX   7
H00E  2    0.856059    0.765149    0.901142    11.00000   -1.50000
H00F  2    0.722346    0.758491    0.944908    11.00000   -1.50000
AFIX   0

O009  5    0.019281   -0.118158    0.837927    11.00000    0.02291    0.02429 =
         0.01975    0.00206    0.00261    0.00281
N00A  4    0.613226    0.387520    0.658551    11.00000    0.01222    0.01939 =
         0.00856    0.00322    0.00494    0.00538
N00B  4   -0.048881    0.202658    0.748408    11.00000    0.01114    0.01814 =
         0.01145    0.00061    0.00382    0.00331
N00C  4    0.732770    0.445999    0.748511    11.00000    0.01057    0.01709 =
         0.00731    0.00156    0.00266    0.00440
O00D  5    0.184246   -0.023048    0.994694    11.00000    0.03937    0.02643 =
         0.01409    0.00422    0.00872    0.01213
N7    4    0.171078   -0.040508    0.904885    11.00000    0.02303    0.01389 =
         0.01554    0.00157    0.00591    0.00198
N8    4    0.708748    0.423228    0.593401    11.00000    0.01052    0.01461 =
         0.00737    0.00247    0.00328    0.00384
N2    4   -0.154063    0.141573    0.655659    11.00000    0.01228    0.01959 =
         0.01283    0.00115    0.00521    0.00336
N10   4    0.603037    0.337675    0.336445    11.00000    0.02048    0.02474 =
         0.00729    0.00239    0.00430    0.00488
AFIX  43
H10   2    0.632782    0.339887    0.280892    11.00000   -1.20000
AFIX   0

O00I  5    0.306113    0.015803    0.876275    11.00000    0.03167    0.04494 =
         0.02170   -0.00755    0.01170   -0.01369
N1    4   -0.043354    0.170120    0.597480    11.00000    0.01243    0.01658 =
         0.00988    0.00148    0.00362    0.00576
N3    4   -0.137725    0.098257    0.340991    11.00000    0.01963    0.02141 =
         0.00933    0.00241    0.00263    0.00472
AFIX  43
H3    2   -0.107380    0.108242    0.285935    11.00000   -1.20000
AFIX   0
N9    4    0.724536    0.403503    0.429010    11.00000    0.01487    0.02075 =
         0.00978    0.00230    0.00462    0.00276
C00M  1    0.279633    0.354023    0.843040    11.00000    0.01169    0.01493 =
         0.00983    0.00296    0.00304    0.00650
N4    4   -0.018910    0.165125    0.434220    11.00000    0.01640    0.02016 =
         0.00985    0.00128    0.00274    0.00467
C00O  1    0.127013    0.269800    0.749758    11.00000    0.01071    0.01575 =
         0.00948    0.00163    0.00346    0.00571
C00P  1    1.062701    0.585405    0.830164    11.00000    0.01088    0.01463 =
         0.00862    0.00218    0.00296    0.00498
C00Q  1    0.900828    0.517691    0.740396    11.00000    0.01087    0.01445 =
         0.00859    0.00365    0.00337    0.00466
C00R  1    0.887251    0.504258    0.640458    11.00000    0.01071    0.01611 =
         0.00803    0.00219    0.00251    0.00391
AFIX  43
H00R  2    0.981385    0.542933    0.611508    11.00000   -1.20000
AFIX   0
C00S  1    0.131725    0.249253    0.652731    11.00000    0.01127    0.01590 =
         0.01065    0.00170    0.00374    0.00449
AFIX  43
H00S  2    0.234737    0.283094    0.629988    11.00000   -1.20000
AFIX   0
C00T  1   -0.122172    0.119201    0.492069    11.00000    0.01497    0.01547 =
         0.00925    0.00108    0.00181    0.00705
C00U  1    0.620937    0.372250    0.488532    11.00000    0.01361    0.01550 =
         0.00752    0.00280    0.00375    0.00565
C00V  1   -0.306909    0.014970    0.340874    11.00000    0.01700    0.02099 =
         0.01297    0.00036    0.00050    0.00565
AFIX  43
H00V  2   -0.409696   -0.040467    0.283529    11.00000   -1.20000
AFIX   0
C00W  1   -0.303041    0.025189    0.439349    11.00000    0.01404    0.02030 =
         0.01392    0.00106    0.00270    0.00467
AFIX  43
H00W  2   -0.399806   -0.020547    0.465222    11.00000   -1.20000
AFIX   0
C2    1    0.437097    0.288632    0.437164    11.00000    0.01251    0.02181 =
         0.01116    0.00338    0.00270    0.00509
AFIX  43
H2    2    0.339119    0.253947    0.463835    11.00000   -1.20000
AFIX   0
C1    1    0.432215    0.268582    0.338262    11.00000    0.01797    0.02480 =
         0.01032    0.00207    0.00053    0.00616
AFIX  43
H1    2    0.327185    0.215562    0.281685    11.00000   -1.20000
AFIX   0
HKLF 4

REM  oav-159_a.res in P-1
REM R1 =  0.0194 for    6964 Fo > 4sig(Fo)  and  0.0219 for all    7446 data
REM    310 parameters refined using      0 restraints

END

WGHT      0.0145      0.4332

REM Highest difference peak  0.728,  deepest hole -0.636,  1-sigma level  0.102
Q1    1   0.6880  0.3659  0.9196  11.00000  0.05    0.73
Q2    1   0.1391  0.2919  0.7041  11.00000  0.05    0.64
Q3    1   0.2078  0.3122  0.7963  11.00000  0.05    0.50
Q4    1  -0.0749  0.1271  0.4645  11.00000  0.05    0.50
Q5    1  -0.2196  0.0722  0.4672  11.00000  0.05    0.49
;
_shelx_res_checksum                33723
_shelx_hkl_file
;
   1   0   0  503.35   13.10
   1   0   0  512.85   13.80
  -2   0   0 7988.40  177.48
  -3   0   0  827.52   25.90
  -3   0   0  883.71   24.80
   3   0   0  834.12   26.60
   3   0   0  900.21   25.30
  -4   0   0 3658.63   87.59
  -4   0   0 3678.83   90.09
   4   0   0 3600.04   88.19
   4   0   0 3700.23   91.39
   5   0   0  638.84   26.20
   5   0   0  647.04   23.80
   6   0   0 2082.39   58.99
   7   0   0 2092.59   60.99
   7   0   0 2015.30   65.69
   8   0   0  462.05   23.80
   8   0   0  435.96   26.80
   9   0   0  801.52   49.10
   9   0   0  769.12   34.70
  10   0   0  204.68   22.00
  10   0   0  204.48   18.70
  11   0   0  363.76   26.40
  11   0   0  358.66   31.50
  11  -1   0  945.51   43.30
  11  -1   0  937.81   49.30
  10  -1   0  445.56   30.20
  10  -1   0  423.16   26.30
   9  -1   0  438.76   24.60
   9  -1   0  388.46   26.60
   8  -1   0 1456.55   53.59
   8  -1   0 1486.15   49.60
   7  -1   0  627.24   29.20
   7  -1   0  603.84   26.20
   6  -1   0 2342.67   63.79
   6  -1   0 2284.57   67.09
   5  -1   0  133.09   10.40
   5  -1   0  144.99    9.60
   4  -1   0 5243.78  127.39
   4  -1   0 5515.05  125.49
  -4   1   0 5479.75  126.89
  -4   1   0 5281.77  124.69
   3  -1   0  847.82   24.20
   3  -1   0  815.72   25.10
  -3   1   0  784.52   24.60
  -3   1   0  837.22   24.10
   2  -1   0 3023.70   70.09
   2  -1   0 3014.80   69.29
  -2   1   0 2934.61   69.89
  -2   1   0 3049.50   69.39
   1  -1   0  108.39    4.50
   1  -1   0  110.09    4.30
  -1   1   0  103.89    4.20
  -1  -1   0 5384.66  118.89
  -1  -1   0 5286.17  117.29
  -2  -1   0 4507.35   99.59
  -2  -1   0 4266.07  101.39
   2   1   0 4381.56   99.89
   2   1   0 4487.65  102.39
  -3  -1   0  828.32   28.60
  -3  -1   0  836.72   24.10
   3   1   0  830.02   24.60
  -4  -1   0 1431.56   39.50
   4   1   0 1467.55   40.70
   4   1   0 1443.06   43.70
   5   1   0 1589.34   49.60
   5   1   0 1539.95   45.30
   6   1   0 3817.62  103.09
   6   1   0 3800.52   97.29
   7   1   0  544.65   28.80
   7   1   0  518.65   24.20
   8   1   0  147.79   16.10
   8   1   0  178.88   15.10
   9   1   0 1049.20   48.50
   9   1   0 1026.60   41.70
  10   1   0    3.10    8.10
  10   1   0    0.80    7.10
  11  -2   0  728.93   41.20
  11  -2   0  664.73   35.40
  10  -2   0  469.25   30.70
  10  -2   0  507.45   28.80
   9  -2   0  667.53   34.90
   9  -2   0  696.33   32.00
   8  -2   0  685.93   32.70
   8  -2   0  679.73   29.70
   7  -2   0   63.99    9.10
   7  -2   0   56.49    7.90
   6  -2   0  675.53   26.10
   6  -2   0  691.63   28.50
   5  -2   0  553.24   21.20
   5  -2   0  539.75   22.40
   4  -2   0 3357.86   82.69
   4  -2   0 3392.16   80.99
  -4   2   0 3207.98   81.59
  -4   2   0 3298.77   80.59
   3  -2   0    5.00    2.00
   3  -2   0    7.40    2.10
  -3   2   0    4.70    1.70
  -3   2   0    1.50    1.30
   1  -2   0  839.22   21.10
   1  -2   0  796.92   20.70
  -1   2   0  814.22   20.70
  -1   2   0  824.52   21.10
   0  -2   0 3786.92   80.59
   0  -2   0 3640.54   82.39
   0  -2   0 3524.45   82.19
   0   2   0 3624.14   82.09
   0   2   0 3648.14   80.79
   0   2   0 3632.54   81.49
  -1  -2   0  242.68    8.50
  -1  -2   0  247.48    8.40
  -1  -2   0  251.47    9.80
   1   2   0  252.57    8.70
   1   2   0  250.27    8.60
  -2  -2   0 1026.30   28.00
  -2  -2   0 1017.30   29.40
  -2  -2   0 1031.10   27.10
  -3  -2   0 3426.56   81.59
  -3  -2   0 3435.56   79.89
  -3  -2   0 3222.08   82.69
   3   2   0 3449.05   84.99
   3   2   0 3349.96   80.69
  -4  -2   0  359.96   14.80
  -4  -2   0  374.26   16.40
   4   2   0  338.27   15.30
   4   2   0  399.56   19.00
   5   2   0 2416.56   69.69
   5   2   0 2273.27   62.99
   6   2   0  217.18   16.90
   6   2   0  238.58   16.70
   7   2   0 1455.65   48.20
   7   2   0 1471.85   54.79
   8   2   0   23.60    8.60
   8   2   0   12.50    6.00
   9   2   0  646.84   32.50
   9   2   0  650.23   38.40
  10   2   0  310.47   28.80
  10   2   0  276.57   22.90
  12  -3   0  359.86   39.90
  12  -3   0  372.66   42.70
  11  -3   0  238.88   23.30
  11  -3   0  216.88   20.60
  10  -3   0  983.00   41.80
  10  -3   0  979.60   45.30
   9  -3   0   13.80    6.30
   9  -3   0   23.80    7.00
   8  -3   0 3263.97   90.19
   8  -3   0 3294.37   93.99
   7  -3   0    3.80    3.20
   7  -3   0   -2.30    2.70
   6  -3   0 2074.79   60.29
   6  -3   0 2015.80   57.69
   5  -3   0  104.29    8.30
   5  -3   0   97.29    8.50
   4  -3   0 4205.18  100.79
   4  -3   0 4337.67  102.39
  -4   3   0 4080.49  101.49
  -4   3   0 4261.67  100.89
   3  -3   0  159.98    8.80
   3  -3   0  167.58    8.60
  -3   3   0  156.68    8.40
  -3   3   0  167.68    9.20
   2  -3   0   65.99    4.70
  -2   3   0   66.29    4.70
  -2   3   0   68.39    5.20
   0  -3   0  532.65   14.30
   0  -3   0  499.15   16.10
   0   3   0  507.15   14.50
   0   3   0  526.45   15.40
   0   3   0  524.95   16.00
  -1  -3   0 1163.28   29.60
  -1  -3   0 1153.48   29.30
  -1  -3   0 1109.39   31.50
   1   3   0 1142.69   29.30
   1   3   0 1120.09   32.20
   1   3   0 1146.39   29.70
  -2  -3   0  119.89    6.90
  -2  -3   0  120.39    6.60
  -2  -3   0  134.39    8.30
   2   3   0  126.49    7.00
  -3  -3   0 1720.43   45.80
  -3  -3   0 1876.11   51.39
   3   3   0 1757.62   51.39
   3   3   0 1792.12   47.30
   4   3   0   59.79    7.70
   4   3   0   64.99    6.70
   5   3   0 1364.36   47.80
   5   3   0 1353.46   42.00
   6   3   0    6.10    5.20
   6   3   0    0.30    3.00
   7   3   0  994.20   37.70
   7   3   0 1029.50   45.00
   8   3   0   50.89   10.30
   8   3   0   69.19   13.90
   9   3   0  720.23   33.90
   9   3   0  696.13   41.00
  10   3   0   12.60   10.10
  10   3   0   30.70   14.10
  12  -4   0  584.84   38.20
  12  -4   0  602.54   35.30
  11  -4   0   25.30    9.40
  11  -4   0   21.20    7.90
  10  -4   0  827.12   37.30
  10  -4   0  794.32   55.89
   9  -4   0  231.08   17.50
   9  -4   0  216.18   18.40
   8  -4   0 1682.53   56.59
   8  -4   0 1617.64   53.29
   7  -4   0   33.70    6.40
   7  -4   0   33.10    6.80
   6  -4   0 1506.85   44.70
   6  -4   0 1339.97   45.00
   5  -4   0  911.41   30.20
   5  -4   0  896.81   31.10
   4  -4   0 4607.04  106.39
   4  -4   0 4436.46  107.29
  -4   4   0 4393.26  107.39
  -4   4   0 4317.97  105.89
   3  -4   0 3169.48   76.89
   3  -4   0 3198.78   75.69
  -3   4   0 3044.40   74.09
  -3   4   0 3022.70   75.59
  -3   4   0 3137.49   77.09
   2  -4   0 2481.55   60.59
  -2   4   0 2488.05   59.99
  -2   4   0 2460.25   60.49
  -2   4   0 2497.85   62.39
   1  -4   0 2899.11   71.89
   1  -4   0 3179.78   72.69
  -1   4   0 3074.69   69.69
  -1   4   0 2987.20   71.79
  -1   4   0 3043.00   72.19
   0  -4   0  691.13   18.50
   0   4   0  680.33   18.90
   0   4   0  688.03   20.30
   0   4   0  687.03   20.90
   0   4   0  643.34   21.60
  -1  -4   0 4351.76  104.19
  -1  -4   0 4405.56  100.39
   1   4   0 4457.55  105.59
   1   4   0 4429.36  101.49
   1   4   0 4362.56  102.89
   1   4   0 4374.56  100.39
  -2  -4   0  485.55   16.60
   2   4   0  464.65   19.90
   2   4   0  477.65   17.10
  -3  -4   0 1604.84   43.30
   3   4   0 1552.14   43.30
   3   4   0 1526.55   48.20
   4   4   0  307.47   18.50
   4   4   0  286.37   14.70
   5   4   0 3828.02  105.99
   5   4   0 3843.32   97.59
   6   4   0    8.80    4.70
   6   4   0   15.90    6.40
   7   4   0  821.42   34.00
   7   4   0  866.71   48.40
   8   4   0  575.74   36.00
   8   4   0  516.15   27.30
   9   4   0  334.67   30.80
   9   4   0  337.97   24.10
  12  -5   0  695.83   40.80
  12  -5   0  714.03   39.80
  11  -5   0    7.30    7.60
  11  -5   0    5.60    8.10
  10  -5   0 1228.48   48.30
  10  -5   0 1280.17   69.19
   9  -5   0  258.77   18.70
   9  -5   0  289.17   20.70
   8  -5   0 1863.61   61.29
   8  -5   0 1906.91   59.59
   7  -5   0   43.20    7.10
   7  -5   0   47.80    7.70
   6  -5   0 1756.02   52.99
   6  -5   0 1674.73   54.89
   5  -5   0 1528.45   47.20
   5  -5   0 1636.34   46.60
   4  -5   0  515.15   20.20
   4  -5   0  542.15   21.30
  -4   5   0  524.45   19.00
   3  -5   0 8340.57  186.78
  -3   5   0 7871.71  186.38
  -3   5   0 8286.47  189.18
  -3   5   0 8393.56  185.68
   2  -5   0  319.07   13.40
   2  -5   0  332.37   13.80
  -2   5   0  322.07   13.50
  -2   5   0  349.17   14.10
  -2   5   0  326.57   13.20
   1  -5   0 3031.30   73.79
   1  -5   0 2817.72   72.79
  -1   5   0 3046.80   69.99
  -1   5   0 3005.80   72.69
  -1   5   0 3089.69   73.99
   0  -5   0   27.50    3.00
   0   5   0   27.40    3.10
   0   5   0   21.70    3.90
   0   5   0   26.60    3.50
   0   5   0   25.20    4.10
  -1  -5   0 2130.39   50.89
   1   5   0 2026.10   53.69
   1   5   0 1979.40   56.39
   1   5   0 2075.49   52.39
   1   5   0 2052.99   50.89
  -2  -5   0  171.78    9.30
   2   5   0  163.28   11.70
   2   5   0  157.68    9.20
   2   5   0  160.98   10.20
  -3  -5   0 1674.93   46.30
   3   5   0 1677.83   52.99
   3   5   0 1682.53   47.20
   4   5   0  379.66   22.30
   4   5   0  423.36   19.00
   5   5   0 1735.43   59.99
   5   5   0 1658.33   51.09
   6   5   0  214.18   19.50
   6   5   0  191.28   14.90
   7   5   0  482.75   25.50
   7   5   0  539.75   33.40
   8   5   0   74.89   16.90
  12  -6   0  684.13   40.10
  12  -6   0  751.62   55.99
  11  -6   0   88.39   13.70
  11  -6   0   81.39   15.70
  10  -6   0  231.98   19.30
  10  -6   0  226.38   30.00
   9  -6   0  423.46   25.90
   9  -6   0  442.16   24.80
   8  -6   0  754.52   32.30
   8  -6   0  776.42   34.30
   7  -6   0  902.61   35.80
   7  -6   0  929.51   34.90
   6  -6   0  897.01   32.50
   6  -6   0  861.01   33.00
   5  -6   0 1812.12   52.09
  -5   6   0 1779.12   50.09
   4  -6   0  580.44   22.10
  -4   6   0  542.45   20.50
   3  -6   0 1590.74   44.60
  -3   6   0 1559.74   43.50
   2  -6   0  207.28   11.30
  -2   6   0  192.88   10.60
  -2   6   0  191.18   10.80
  -2   6   0  203.78    9.20
   1  -6   0 1830.32   49.70
  -1   6   0 1832.72   49.80
  -1   6   0 1822.62   45.00
  -1   6   0 1696.93   47.60
   0  -6   0    5.50    1.90
   0   6   0    4.30    2.60
   0   6   0    7.80    2.40
   0   6   0    6.10    2.70
   0   6   0    7.90    2.10
  -1  -6   0  943.31   27.10
   1   6   0  957.90   29.60
   1   6   0  972.90   27.70
   1   6   0  989.50   34.00
  -2  -6   0   13.20    3.70
   2   6   0    9.20    4.00
   2   6   0   13.00    3.40
  -3  -6   0 1506.45   42.90
   3   6   0 1506.35   50.89
   3   6   0 1471.45   44.00
   4   6   0  291.37   20.30
   4   6   0  280.07   16.10
   5   6   0  720.93   36.40
   5   6   0  743.03   29.70
   6   6   0  660.73   37.00
   6   6   0  665.73   29.20
   7   6   0  160.28   20.00
   7   6   0  113.29   15.20
   8   6   0  419.16   27.30
   8   6   0  605.24   59.59
  12  -7   0  397.86   32.80
  12  -7   0  378.06   29.70
  11  -7   0  188.28   18.50
  11  -7   0  185.28   20.60
  10  -7   0  160.28   17.10
  10  -7   0  148.69   16.20
   9  -7   0  473.45   27.30
   9  -7   0  433.36   25.10
   8  -7   0 1001.10   40.50
   8  -7   0 1054.89   40.00
   7  -7   0 1250.97   44.50
   7  -7   0 1218.38   43.20
   6  -7   0  376.06   19.50
  -6   7   0  369.96   18.10
  -5   7   0 2032.60   56.19
   4  -7   0   13.90    4.40
  -4   7   0   22.90    4.30
   3  -7   0 2615.44   68.29
  -3   7   0 2603.44   67.09
  -3   7   0 2488.65   63.89
   2  -7   0    6.00    2.60
  -2   7   0    5.40    2.20
  -2   7   0    5.30    2.00
  -1   7   0 2037.80   50.79
  -1   7   0 1991.20   53.49
  -1   7   0 2051.39   56.89
   0   7   0  476.65   18.50
   0   7   0  473.65   21.60
   0   7   0  474.25   16.50
  -1  -7   0 1500.25   40.60
   1   7   0 1589.94   44.70
   1   7   0 1654.53   50.79
   2   7   0   91.19   10.20
   2   7   0   79.59    7.60
   3   7   0  587.44   29.60
   3   7   0  625.94   24.60
   4   7   0  347.77   23.70
   4   7   0  372.56   19.00
   5   7   0  299.07   23.90
   5   7   0  285.47   18.20
   6   7   0  211.88   22.00
   6   7   0  195.68   16.80
   7   7   0    2.00    9.20
   7   7   0   -6.90    8.10
  12  -8   0  182.28   21.40
  12  -8   0  204.68   23.00
  11  -8   0  398.96   27.70
  11  -8   0  406.86   28.50
  10  -8   0   20.30    7.40
  10  -8   0   27.70   10.00
   9  -8   0 1218.88   48.30
   8  -8   0  187.38   15.80
  -8   8   0  234.58   16.20
   7  -8   0 1283.57   45.60
  -7   8   0 1339.17   43.60
   6  -8   0   42.70    7.00
  -6   8   0   17.90    5.10
   5  -8   0 1387.06   44.80
  -5   8   0 1391.56   43.00
  -4   8   0  592.44   22.60
  -4   8   0  660.43   25.00
   3  -8   0 2154.88   59.39
  -3   8   0 2006.60   53.69
   2  -8   0    5.30    3.30
  -2   8   0    2.60    2.30
  -2   8   0    5.90    3.50
  -1   8   0  933.41   27.40
  -1   8   0  989.60   34.60
  -1   8   0  962.70   31.10
   0   8   0   18.10    5.20
   0   8   0   17.80    3.50
   0   8   0   20.40    4.80
  -1  -8   0  787.62   24.10
   1   8   0  832.02   33.80
   1   8   0  814.32   28.20
  -2  -8   0  385.06   15.60
   2   8   0  358.76   22.40
   3   8   0  201.18   17.60
   3   8   0  184.38   13.30
   4   8   0  518.75   24.00
   4   8   0  531.35   31.30
   5   8   0  222.48   21.90
   5   8   0  198.88   16.80
   6   8   0  368.46   29.90
   6   8   0  329.67   23.10
  11  -9   0  268.37   23.50
  11  -9   0  301.47   25.00
 -11   9   0  279.47   21.70
  10  -9   0  139.19   16.50
 -10   9   0  177.78   16.80
   9  -9   0  735.73   34.90
  -9   9   0  647.74   30.60
   8  -9   0   -0.30    4.10
  -8   9   0    4.70    4.20
   7  -9   0  638.04   29.00
  -7   9   0  555.04   25.80
   6  -9   0    3.00    3.60
  -6   9   0    1.60    3.00
   5  -9   0  832.62   32.80
  -5   9   0  831.02   31.00
  -5   9   0  800.02   29.40
   4  -9   0  631.14   26.90
  -4   9   0  598.24   25.30
  -4   9   0  613.84   22.80
   3  -9   0 1535.65   48.60
  -3   9   0 1471.15   42.00
  -3   9   0 1547.15   48.10
  -2   9   0  347.67   19.10
  -2   9   0  388.86   26.00
  -2   9   0  337.97   14.30
  -1   9   0  503.25   17.00
  -1   9   0  458.65   23.40
   0   9   0  273.47   18.30
   0   9   0  270.27   17.10
   1   9   0  525.85   22.30
   1   9   0  552.54   27.90
   2   9   0  914.71   32.90
   2   9   0  945.71   40.60
   3   9   0  120.79   15.30
   3   9   0  101.59   11.10
   4   9   0  261.17   23.30
   4   9   0  268.67   18.40
   5   9   0   -1.80    8.50
   5   9   0   -0.50    7.70
  11 -10   0  394.46   32.40
 -11  10   0  343.67   24.60
  10 -10   0   62.49   13.50
 -10  10   0   45.90    9.70
   9 -10   0  704.73   35.40
  -9  10   0  752.92   33.40
   8 -10   0   24.20    7.60
  -8  10   0   25.50    6.40
   7 -10   0  657.73   31.30
  -7  10   0  682.63   29.80
   6 -10   0   99.59   11.90
  -6  10   0   95.29   10.60
  -6  10   0   84.09    9.70
   5 -10   0  291.27   18.90
  -5  10   0  334.07   18.70
  -5  10   0  332.17   17.00
   4 -10   0  298.57   18.90
  -4  10   0  310.87   18.40
  -4  10   0  305.07   15.20
   3 -10   0  328.37   19.50
  -3  10   0  313.87   14.60
  -3  10   0  308.17   18.60
  -2  10   0  236.48   11.40
  -2  10   0  245.48   14.90
  -2  10   0  260.57   17.30
  -1  10   0   18.90    4.80
  -1  10   0   21.80    4.40
  -1  10   0    9.60    5.20
   0  10   0  401.96   19.70
   0  10   0  418.66   24.30
   1  10   0   -1.20    5.10
   1  10   0    0.60    4.60
   2  10   0  881.41   41.20
   2  10   0  843.22   32.20
   3  10   0   34.20   11.30
   3  10   0   27.10    8.30
   4  10   0  338.27   27.50
   4  10   0  342.17   21.80
  10 -11   0   14.20    9.20
 -10  11   0   -1.50    6.60
   9 -11   0  343.37   25.00
  -9  11   0  412.86   24.20
   8 -11   0   30.70    8.30
  -8  11   0   50.29   10.30
  -7  11   0  518.65   25.80
  -7  11   0  511.75   25.90
   6 -11   0  115.59   13.70
  -6  11   0  136.39   13.40
  -6  11   0  120.49   11.70
   5 -11   0   80.39   11.60
  -5  11   0   83.19   10.90
  -5  11   0   94.09    9.70
   4 -11   0  384.76   22.70
  -4  11   0  393.46   22.60
  -4  11   0  375.06   17.40
  -3  11   0  271.77   18.90
  -3  11   0  281.77   13.70
  -3  11   0  295.97   17.30
  -2  11   0  420.26   15.70
  -2  11   0  456.35   21.50
  -2  11   0  432.06   24.90
  -1  11   0  202.98   17.70
  -1  11   0  198.78   13.90
   0  11   0  493.65   23.30
   0  11   0  594.94   31.10
   1  11   0    3.90    6.40
   1  11   0    3.80    5.30
   2  11   0  330.77   20.20
   2  11   0  321.87   25.40
   3  11   0   -1.80    7.50
   3  11   0    1.60    8.50
  10 -12   0   50.69   15.30
 -10  12   0   69.49   13.30
   9 -12   0  341.87   26.10
  -9  12   0  366.56   25.30
  -9  12   0  367.76   24.00
   8 -12   0  150.98   17.20
  -8  12   0  158.08   16.00
  -8  12   0  171.78   16.70
   7 -12   0  372.76   24.70
  -7  12   0  338.87   22.50
  -7  12   0  360.46   21.30
   6 -12   0  313.17   22.20
  -6  12   0  289.67   18.00
  -6  12   0  309.57   20.30
   5 -12   0   43.40   10.60
  -5  12   0   80.29   11.10
   4 -12   0  501.65   27.60
  -4  12   0  474.95   26.60
  -4  12   0  461.05   19.80
  -4  12   0  457.75   23.80
  -3  12   0   67.19    7.30
  -3  12   0   92.99   10.80
  -3  12   0   77.69   12.20
  -2  12   0  486.85   23.40
  -2  12   0  497.75   28.50
  -1  12   0   18.20    6.50
  -1  12   0   12.10    7.10
   0  12   0  390.66   21.50
   0  12   0  403.76   27.20
   1  12   0   44.20   11.00
   1  12   0   45.70   10.00
  -9  13   0  126.99   17.50
  -9  13   0  143.89   18.30
   8 -13   0  217.88   20.90
  -8  13   0  244.58   20.40
   7 -13   0   44.00   10.80
  -7  13   0   26.80    8.30
  -7  13   0   30.00    8.40
   6 -13   0  297.07   23.30
  -6  13   0  278.57   17.60
  -6  13   0  346.97   22.40
   5 -13   0   29.80   10.70
  -5  13   0   30.20    8.70
  -5  13   0   28.50    8.50
  -4  13   0  369.56   24.80
  -4  13   0  352.36   21.50
  -3  13   0   43.60   10.60
  -3  13   0   39.00   10.10
  -2  13   0  361.56   25.90
  -1  13   0    4.50    8.20
  -1  13   0    3.60    8.50
   0  13   0  126.99   18.70
   0  13   0  121.99   15.20
   7 -14   0   23.70   10.70
  -7  14   0   46.60   11.30
   6 -14   0  174.78   21.10
  -6  14   0  169.38   19.10
  -5  14   0    5.00    7.40
  -5  14   0    8.40    8.90
  -4  14   0  178.38   17.80
  -4  14   0  219.88   20.90
  -3  14   0    0.40    7.40
  -3  14   0   17.10    9.50
  -2  14   0  219.38   18.90
  -2  14   0  153.28   31.70
  -2  14  -1  131.49   16.90
  -3  14  -1    9.50    9.40
  -3  14  -1   -1.80    7.00
  -4  14  -1  168.68   18.90
  -4  14  -1  154.28   16.50
  -5  14  -1   63.69   13.00
  -5  14  -1   87.59   15.90
  -6  14  -1  365.76   26.40
   6 -14   1  374.36   28.30
  -7  14  -1   85.99   15.40
   7 -14   1   54.09   13.80
   0  13  -1  312.37   21.40
   0  13  -1  347.57   27.10
  -1  13  -1   72.39   12.90
  -1  13  -1   81.19   14.60
  -2  13  -1  665.93   35.20
  -2  13  -1  625.74   29.30
  -3  13  -1  123.39   13.70
  -3  13  -1  106.19   15.10
  -4  13  -1  290.17   20.00
  -4  13  -1  306.07   22.70
  -5  13  -1  235.08   20.00
   5 -13   1  249.88   21.80
  -6  13  -1  318.37   17.80
  -6  13  -1  306.17   22.10
   6 -13   1  269.67   22.60
  -7  13  -1  451.45   23.80
  -7  13  -1  505.05   28.50
   7 -13   1  452.55   29.80
  -8  13  -1   86.79   15.20
  -8  13  -1   85.09   15.00
   8 -13   1   89.09   16.40
  -9  13  -1  328.17   24.20
  -9  13  -1  296.47   23.50
   9 -13   1  303.47   27.90
   2  12  -1  436.46   30.70
   2  12  -1  406.36   24.90
   1  12  -1  157.18   17.20
   1  12  -1  209.98   21.30
   0  12  -1  428.06   28.00
   0  12  -1  408.96   22.40
  -1  12  -1   81.09   13.70
  -1  12  -1   92.59   11.20
  -2  12  -1  366.86   24.20
  -2  12  -1  356.56   20.00
  -3  12  -1  387.06   24.20
  -3  12  -1  358.16   20.90
  -4  12  -1  133.79   13.90
  -4  12  -1  167.08   16.10
  -4  12  -1  151.48   10.30
   4 -12   1  159.68   16.60
  -5  12  -1  625.44   30.90
  -5  12  -1  596.74   23.90
   5 -12   1  635.34   40.10
  -6  12  -1   92.79   13.10
  -6  12  -1   84.89   10.10
   6 -12   1   83.39   12.90
  -7  12  -1  650.33   29.00
  -7  12  -1  668.03   32.20
   7 -12   1  700.33   35.00
  -8  12  -1   32.40   10.10
  -8  12  -1   24.80    7.50
   8 -12   1   27.20    8.80
  -9  12  -1  482.65   28.10
   9 -12   1  497.75   31.30
 -10  12  -1    6.80    7.90
  10 -12   1   -1.50    8.70
   3  11  -1   59.29   14.20
   2  11  -1  564.14   27.00
   2  11  -1  607.04   34.50
   1  11  -1   90.89   11.10
   1  11  -1   70.99   14.10
   0  11  -1  339.47   23.70
   0  11  -1  388.86   20.40
  -1  11  -1  122.49   11.50
  -1  11  -1  169.78   16.20
  -2  11  -1  345.77   21.50
  -2  11  -1  311.17   10.50
  -2  11  -1  313.17   18.50
  -3  11  -1  321.37   18.70
  -3  11  -1  296.67   13.20
  -3  11  -1  366.26   21.70
  -4  11  -1  124.29    9.40
  -4  11  -1  147.29   13.90
   4 -11   1  133.09   14.00
  -5  11  -1 1691.93   49.70
  -5  11  -1 1745.23   56.39
   5 -11   1 1743.93   58.79
  -6  11  -1   48.10    8.00
  -6  11  -1   58.69   10.20
   6 -11   1   62.89   11.10
   7 -11   1  613.14   31.60
  -8  11  -1    4.80    5.10
   8 -11   1    6.30    6.40
  -9  11  -1  272.67   20.10
   9 -11   1  256.47   21.50
 -10  11  -1  162.58   17.50
  10 -11   1  145.59   17.80
   5  10  -1   -7.90    9.20
   5  10  -1    8.90   10.00
   4  10  -1  322.17   21.30
   4  10  -1  301.17   26.60
   3  10  -1  324.97   25.20
   3  10  -1  295.37   19.10
   2  10  -1  650.93   28.10
   2  10  -1  693.33   35.60
   1  10  -1  205.18   14.10
   1  10  -1  200.88   17.70
   0  10  -1  201.78   14.00
   0  10  -1  192.48   16.30
  -1  10  -1  573.54   28.10
  -1  10  -1  591.74   24.80
  -2  10  -1   67.09    8.90
  -2  10  -1   70.29    6.00
  -2  10  -1   77.79    9.60
  -3  10  -1  615.14   27.40
  -3  10  -1  559.84   20.30
   3 -10   1  590.04   27.60
  -4  10  -1    9.40    4.20
  -4  10  -1   11.20    3.70
   4 -10   1    5.10    4.30
  -5  10  -1  871.61   30.30
  -5  10  -1  877.21   33.80
   5 -10   1  839.62   35.20
  -6  10  -1  289.17   18.10
   6 -10   1  283.97   19.60
  -7  10  -1  598.64   28.10
   7 -10   1  639.24   31.00
  -8  10  -1   51.69   10.10
   8 -10   1   71.39   11.70
  -9  10  -1  161.78   15.40
   9 -10   1  153.48   16.80
 -10  10  -1  206.38   18.40
  10 -10   1  195.68   20.10
 -11  10  -1  493.35   30.00
  11 -10   1  512.65   39.30
   6   9  -1  336.27   24.90
   6   9  -1  366.36   31.00
   5   9  -1  309.07   21.30
   5   9  -1  350.46   28.40
   4   9  -1  228.18   17.10
   4   9  -1  276.87   23.30
   3   9  -1  384.66   25.90
   3   9  -1  376.06   20.40
   2   9  -1   44.00    8.20
   2   9  -1   41.30    9.50
   1   9  -1  830.72   30.50
   1   9  -1  842.82   35.90
   0   9  -1  160.88   14.00
   0   9  -1  172.78   12.10
  -1   9  -1  759.92   21.80
  -1   9  -1  846.42   29.60
  -1   9  -1  821.52   32.40
  -2   9  -1    5.00    2.30
  -2   9  -1    1.00    2.60
  -2   9  -1   -1.80    2.80
   2  -9   1    0.50    4.00
  -3   9  -1 2786.72   75.89
  -3   9  -1 2696.93   68.29
   3  -9   1 2826.22   77.69
  -4   9  -1   34.50    5.20
  -4   9  -1   44.00    6.90
   4  -9   1   37.40    7.10
  -5   9  -1  670.03   27.50
   5  -9   1  686.03   29.40
  -6   9  -1  279.67   16.80
   6  -9   1  260.27   17.80
  -7   9  -1  463.25   23.20
   7  -9   1  437.86   24.30
  -8   9  -1  378.06   21.30
   8  -9   1  304.27   21.00
  -9   9  -1  407.66   25.70
   9  -9   1  358.76   23.80
 -10   9  -1  621.84   31.60
  10  -9   1  538.45   30.90
 -11   9  -1  312.97   23.60
  11  -9   1  352.36   26.70
  11  -9   1  354.86   28.00
   7   8  -1  137.89   21.80
   6   8  -1  245.48   23.30
   6   8  -1  253.17   25.10
   5   8  -1  572.54   34.20
   5   8  -1  624.44   28.80
   4   8  -1   95.99   11.20
   4   8  -1   81.99   16.60
   3   8  -1 1829.92   63.69
   3   8  -1 1871.71   56.09
  -3  -8   1 1993.60   59.39
   2   8  -1  108.79   12.40
   2   8  -1   99.19    9.60
  -2  -8   1   86.69    6.30
   1   8  -1 2081.29   57.19
   1   8  -1 1980.90   62.09
   0   8  -1   38.40    6.80
   0   8  -1   25.20    5.10
  -1   8  -1 1917.71   56.29
  -1   8  -1 1861.91   46.30
  -1   8  -1 1937.51   53.29
  -2   8  -1  171.48   12.30
  -2   8  -1  180.48    8.90
   2  -8   1  199.48   13.40
  -3   8  -1 2071.59   53.89
  -3   8  -1 2123.49   59.09
   3  -8   1 2162.08   60.79
  -4   8  -1 2665.13   71.49
   4  -8   1 2666.03   73.19
  -5   8  -1 1721.13   50.49
   5  -8   1 1643.64   51.79
  -6   8  -1  743.93   28.80
   6  -8   1  745.53   30.80
  -7   8  -1  695.43   28.60
   7  -8   1  622.14   29.00
  -8   8  -1  360.06   20.60
   8  -8   1  384.96   22.90
   8  -8   1  378.06   23.80
   9  -8   1  319.37   22.50
   9  -8   1  272.37   20.30
  10  -8   1  494.15   30.50
  10  -8   1  483.95   28.70
  11  -8   1   18.20    9.10
  11  -8   1   13.10    8.30
   7   7  -1  689.03   41.40
   7   7  -1  662.83   32.60
   6   7  -1  171.18   19.50
   6   7  -1  147.29   15.30
   5   7  -1  564.54   35.80
   5   7  -1  614.94   27.60
   4   7  -1  194.38   13.90
   4   7  -1  184.58   16.90
   3   7  -1 1982.00   56.79
   3   7  -1 1931.71   63.19
  -3  -7   1 1934.01   51.29
   2   7  -1    2.60    3.60
   2   7  -1    1.10    2.80
  -2  -7   1    0.90    2.40
   1   7  -1 1809.12   55.49
   1   7  -1 1868.21   51.09
  -1  -7   1 1793.22   44.20
   0   7  -1   16.30    2.60
   0   7  -1   20.10    5.10
   0   7  -1   22.40    4.40
  -1   7  -1 2887.61   68.89
  -1   7  -1 2909.61   74.59
  -1   7  -1 3057.09   77.69
  -2   7  -1  578.14   18.50
  -2   7  -1  597.34   22.90
   2  -7   1  631.94   24.10
  -3   7  -1 2027.70   55.09
   3  -7   1 2013.70   56.49
  -4   7  -1  335.67   16.10
   4  -7   1  340.77   17.10
  -5   7  -1  284.47   19.10
   5  -7   1  297.07   16.30
  -6   7  -1  960.10   33.50
   6  -7   1  915.31   34.50
   7  -7   1  531.15   26.70
   7  -7   1  515.95   24.90
   8  -7   1  729.83   32.60
   8  -7   1  715.23   33.60
   9  -7   1   33.80    9.70
   9  -7   1   43.70    9.00
  10  -7   1 1246.98   47.90
  10  -7   1 1041.10   47.80
  11  -7   1   36.80    9.80
  11  -7   1   32.10   10.20
  12  -7   1  596.74   35.60
  12  -7   1  627.94   57.69
   8   6  -1  127.59   17.00
   8   6  -1  119.99   19.80
   7   6  -1  576.14   29.10
   7   6  -1  605.14   37.20
   6   6  -1   82.39   14.50
   6   6  -1   92.69   11.70
   5   6  -1 1916.21   66.59
   5   6  -1 1900.01   57.89
   4   6  -1   52.69    7.10
   4   6  -1   53.19    9.30
   3   6  -1 1154.38   42.10
   3   6  -1 1100.59   36.20
  -3  -6   1 1177.08   34.60
   2   6  -1    0.40    2.20
   2   6  -1   -1.00    2.50
  -2  -6   1    4.70    2.40
   1   6  -1 2608.74   71.19
   1   6  -1 2715.93   67.59
  -1  -6   1 2586.94   61.39
   0   6  -1    8.30    3.20
   0   6  -1    5.30    2.40
   0   6  -1    9.20    4.60
   0   6  -1    7.80    1.80
  -1   6  -1 1254.27   38.20
  -1   6  -1 1328.97   33.40
  -1   6  -1 1347.97   39.20
   1  -6   1 1373.76   40.00
  -2   6  -1 9858.01  223.98
   2  -6   1 9999.00  225.48
  -3   6  -1 3231.48   79.39
   3  -6   1 3163.78   80.59
  -4   6  -1  816.82   27.20
   4  -6   1  803.12   28.10
   5  -6   1  660.63   27.00
   5  -6   1  680.83   26.10
   6  -6   1  593.14   25.10
   6  -6   1  555.14   25.60
   7  -6   1   52.39    7.70
   7  -6   1   66.39    9.40
   8  -6   1 1395.96   47.30
   8  -6   1 1226.68   47.70
   9  -6   1   54.79   10.30
   9  -6   1   50.69   10.80
  10  -6   1  619.94   34.60
  10  -6   1  630.14   32.40
  11  -6   1   75.29   14.10
  11  -6   1   86.09   15.30
  12  -6   1  575.64   58.19
  12  -6   1  495.65   36.80
   9   5  -1  975.50   52.69
   9   5  -1  907.31   41.40
   8   5  -1   28.70    9.70
   8   5  -1   33.60   13.10
   7   5  -1  765.52   33.10
   7   5  -1  685.83   38.60
   6   5  -1   60.49    9.90
   6   5  -1   60.59   11.80
   5   5  -1 1124.19   44.70
   5   5  -1 1086.89   38.10
   4   5  -1  512.05   21.90
   4   5  -1  490.15   25.30
   3   5  -1 1520.85   43.30
  -3  -5   1 1429.16   40.50
   2   5  -1 1209.18   39.70
   2   5  -1 1242.18   36.10
  -2  -5   1 1230.98   33.10
   1   5  -1 3015.10   73.69
   1   5  -1 2960.60   76.99
   1   5  -1 2962.60   74.99
  -1  -5   1 3053.69   69.09
   0   5  -1  861.21   28.00
   0   5  -1  880.31   22.50
   0   5  -1  917.21   26.80
   0   5  -1  891.41   27.50
   0  -5   1  865.51   27.30
  -1   5  -1 1477.05   40.00
  -1   5  -1 1483.95   35.50
  -1   5  -1 1475.05   40.10
   1  -5   1 1503.65   41.10
   1  -5   1 1378.06   39.50
  -2   5  -1 1428.86   41.40
  -2   5  -1 1402.76   38.70
  -2   5  -1 1371.96   39.00
   2  -5   1 1470.55   39.80
  -3   5  -1  185.38   11.60
  -3   5  -1  200.28   10.90
  -3   5  -1  194.58   10.10
   3  -5   1  204.08   10.80
   4  -5   1 2138.19   58.49
   4  -5   1 2089.29   56.59
   5  -5   1  177.78   11.40
   5  -5   1  154.98   11.60
   6  -5   1  618.44   27.50
   6  -5   1  739.93   31.40
   7  -5   1   -0.50    2.60
   7  -5   1    9.30    3.90
   8  -5   1 2614.64   75.39
   8  -5   1 2528.85   77.99
   9  -5   1   13.70    5.90
   9  -5   1   18.70    6.70
  10  -5   1  411.96   28.00
  10  -5   1  435.76   26.40
  11  -5   1  170.38   19.90
  11  -5   1  119.09   16.00
   9   4  -1  903.51   49.20
   9   4  -1  946.81   41.40
   8   4  -1   -2.70    6.00
   8   4  -1    1.40    7.50
   7   4  -1 1041.50   40.00
   7   4  -1 1046.80   46.90
   6   4  -1   57.29   10.50
   6   4  -1   52.09    8.50
   5   4  -1  188.08   15.70
   5   4  -1  190.28   13.10
   4   4  -1   71.09    7.40
   4   4  -1   70.09    8.90
   3   4  -1 1445.26   45.10
   3   4  -1 1450.85   41.30
  -3  -4   1 1455.25   39.50
   2   4  -1 1995.70   51.09
   2   4  -1 2021.70   54.89
  -2  -4   1 1944.11   48.40
  -2  -4   1 1925.21   49.99
   1   4  -1  932.41   28.20
   1   4  -1  899.61   29.00
   1   4  -1  946.31   27.10
  -1  -4   1  930.91   23.90
  -1  -4   1  932.21   28.30
   0   4  -1 7874.21  172.18
   0   4  -1 8089.79  178.28
   0   4  -1 7985.20  176.48
   0   4  -1 7819.02  177.58
   0  -4   1 7652.63  177.48
  -1   4  -1   14.90    2.40
  -1   4  -1   19.20    2.00
  -1   4  -1   18.20    3.20
   1  -4   1   20.60    3.20
  -2   4  -1 5505.05  125.49
  -2   4  -1 5646.73  128.49
  -2   4  -1 5408.96  126.29
   2  -4   1 5487.05  126.39
  -3   4  -1 1023.50   31.90
  -3   4  -1 1007.80   30.30
   3  -4   1 1009.50   31.50
   3  -4   1 1066.99   30.60
  -4   4  -1 4048.09  101.89
   4  -4   1 4170.78  101.89
   4  -4   1 4203.38   99.99
   5  -4   1   98.89    8.40
   5  -4   1  108.99    9.20
   6  -4   1 2136.69   59.39
   6  -4   1 2026.50   61.39
   7  -4   1   70.09    8.60
   7  -4   1   61.69    8.80
   8  -4   1 1482.05   52.79
   8  -4   1 1438.86   48.80
   9  -4   1  346.27   21.40
   9  -4   1  330.97   23.20
  10  -4   1  791.12   36.90
  10  -4   1  822.02   41.20
  11  -4   1  356.26   25.30
  11  -4   1  320.57   27.20
  12  -4   1   31.40   11.60
  10   3  -1   -3.20   10.60
  10   3  -1   11.20    9.40
   9   3  -1  844.82   38.30
   9   3  -1  903.41   46.40
   8   3  -1   58.99   12.50
   8   3  -1   42.40    9.20
   7   3  -1  675.03   35.00
   7   3  -1  725.73   31.00
   6   3  -1 1680.63   51.99
   6   3  -1 1713.73   58.29
   5   3  -1  701.23   26.60
   5   3  -1  666.23   29.80
   4   3  -1  871.41   32.40
   4   3  -1  850.71   28.80
  -4  -3   1  881.41   28.50
   3   3  -1 2061.19   54.29
   3   3  -1 2170.28   58.39
  -3  -3   1 2034.30   52.99
  -3  -3   1 2123.39   53.39
   2   3  -1 3539.25   82.79
   2   3  -1 3358.26   85.39
  -2  -3   1 3581.94   80.89
  -2  -3   1 3491.75   81.79
   1   3  -1  631.54   20.50
   1   3  -1  607.54   18.80
  -1  -3   1  608.14   19.70
  -1  -3   1  620.04   18.50
  -1  -3   1  647.94   16.60
   0   3  -1  541.15   17.10
   0   3  -1  541.85   16.40
   0   3  -1  541.35   13.40
   0  -3   1  537.15   16.60
  -2   3  -1 2692.33   65.09
  -2   3  -1 2546.85   63.49
   2  -3   1 2749.62   65.19
   2  -3   1 2658.23   63.69
  -3   3  -1  300.37   12.80
  -3   3  -1  343.77   14.30
   3  -3   1  339.07   14.20
   3  -3   1  324.87   13.10
  -4   3  -1 3092.49   76.59
  -4   3  -1 2999.10   78.09
   4  -3   1 3184.78   76.79
   4  -3   1 3113.29   78.69
   5  -3   1  208.98   13.00
   5  -3   1  198.78   11.80
   6  -3   1  997.50   36.90
   6  -3   1 1054.49   35.00
   7  -3   1  809.42   34.10
   7  -3   1  828.72   31.70
   8  -3   1  709.63   33.60
   8  -3   1  731.03   31.00
   9  -3   1  397.86   26.20
   9  -3   1  390.56   23.00
  10  -3   1  348.27   23.20
  10  -3   1  313.07   25.60
  11  -3   1  505.25   29.70
  11  -3   1  531.55   35.20
  10   2  -1  199.78   19.40
  10   2  -1  259.87   25.90
   9   2  -1  596.04   35.50
   9   2  -1  557.54   31.80
   8   2  -1  254.37   18.70
   8   2  -1  288.07   22.70
   7   2  -1  349.17   19.60
   7   2  -1  300.97   21.60
   6   2  -1  657.13   30.50
   5   2  -1  813.52   28.80
   5   2  -1  801.32   31.80
   4   2  -1 1011.60   31.60
   4   2  -1  975.00   34.00
  -4  -2   1 1037.40   32.90
   3   2  -1  168.98   10.20
   3   2  -1  166.58    9.00
  -3  -2   1  176.28    9.90
  -3  -2   1  161.08    9.50
   2   2  -1 3130.09   76.19
   2   2  -1 3191.88   74.19
  -2  -2   1 3178.98   75.49
  -2  -2   1 3130.79   73.49
   1   2  -1    2.00    1.00
   1   2  -1    4.60    1.40
  -1  -2   1    2.20    1.10
  -1  -2   1    3.00    1.10
   0   2  -1 5081.29  113.89
  -1   2  -1   14.30    1.90
  -1   2  -1   13.60    1.70
  -1   2  -1   12.40    2.00
   1  -2   1   15.60    2.00
  -2   2  -1 1145.99   29.50
   2  -2   1 1105.69   30.40
   2  -2   1 1117.59   29.30
  -3   2  -1 1155.88   33.20
  -3   2  -1 1141.39   31.70
   3  -2   1 1129.49   33.20
   3  -2   1 1200.18   32.10
  -4   2  -1 2887.11   72.19
  -4   2  -1 2896.31   74.19
   4  -2   1 2989.90   72.59
   4  -2   1 2900.51   74.89
   5  -2   1   27.30    5.30
   5  -2   1   39.30    5.00
   6  -2   1  552.54   22.70
   6  -2   1  510.45   24.40
   7  -2   1 3181.08   85.29
   7  -2   1 3176.58   89.99
   8  -2   1  770.32   31.70
   8  -2   1  670.53   33.80
   9  -2   1  716.73   32.80
   9  -2   1  707.43   36.90
  10  -2   1   55.89   11.90
  10  -2   1   52.39   12.70
  11  -2   1  395.86   31.30
  11  -2   1  393.16   26.30
  11   1  -1  461.65   52.99
  11   1  -1  442.86   29.40
  10   1  -1  612.14   32.30
  10   1  -1  625.04   38.30
   9   1  -1  454.85   25.80
   9   1  -1  498.95   31.30
   8   1  -1 1076.99   41.00
   8   1  -1 1072.19   45.40
   7   1  -1  290.47   19.80
   7   1  -1  261.97   16.70
   6   1  -1 2498.75   71.99
   6   1  -1 2375.36   67.09
   5   1  -1 1737.03   49.90
   5   1  -1 1782.52   53.39
   4   1  -1 6419.16  144.09
   4   1  -1 6313.67  146.89
  -4  -1   1 6114.59  144.79
  -4  -1   1 5967.70  142.19
   3   1  -1    8.20    2.30
   3   1  -1    3.40    1.70
  -3  -1   1    5.40    1.70
  -3  -1   1    8.80    2.30
   2   1  -1 4059.89   92.29
   2   1  -1 4044.30   93.39
  -2  -1   1 4100.59   92.99
  -2  -1   1 3949.70   91.69
   1   1  -1 3592.64   80.69
  -1  -1   1 3631.14   81.19
  -1  -1   1 3590.54   80.59
  -1   1  -1 1058.69   26.30
  -1   1  -1 1044.40   25.40
   1  -1   1 1042.20   25.40
  -2   1  -1 3136.09   72.69
  -2   1  -1 3162.38   71.19
   2  -1   1 2971.50   72.49
   2  -1   1 3052.39   71.09
  -3   1  -1 1550.34   39.50
  -3   1  -1 1504.35   41.10
   3  -1   1 1503.95   41.40
   3  -1   1 1507.35   39.40
  -4   1  -1  568.64   20.10
  -4   1  -1  555.64   21.70
   4  -1   1  607.24   22.80
   4  -1   1  619.44   20.90
   5  -1   1  964.20   34.00
   5  -1   1  935.61   30.70
   6  -1   1  591.74   27.50
   6  -1   1  584.34   23.70
   7  -1   1 1926.81   58.49
   7  -1   1 2067.49   64.69
   8  -1   1  142.69   15.20
   8  -1   1  147.89   13.10
   9  -1   1  876.31   37.30
   9  -1   1  905.61   42.70
  10  -1   1  132.19   18.60
  10  -1   1  139.99   16.20
  11  -1   1   94.39   19.40
  11  -1   1  125.89   16.50
  11   0  -1  219.18   21.60
  11   0  -1  295.17   27.70
  10   0  -1  890.51   40.20
  10   0  -1  919.11   45.30
   9   0  -1  245.68   20.90
   9   0  -1  213.28   17.80
   8   0  -1  580.64   27.50
   8   0  -1  567.54   30.40
   7   0  -1    5.70    3.90
   7   0  -1    1.30    2.80
   6   0  -1 2028.60   60.39
   6   0  -1 1947.71   56.79
   5   0  -1   54.19    6.80
   5   0  -1   66.69    6.80
   4   0  -1 7999.40  181.98
   4   0  -1 8019.90  179.98
  -4   0   1 7726.03  180.18
  -4   0   1 7848.91  178.88
   3   0  -1  576.24   18.30
   3   0  -1  533.85   18.70
  -3   0   1  547.95   18.30
  -3   0   1  561.84   17.80
  -2   0   1 7432.46  164.68
   1   0  -1   81.89    3.40
   1   0  -1   87.69    3.60
  -1   0   1   82.89    3.30
  -1   0   1   81.79    3.50
  -1   0  -1  293.07    9.40
  -1   0  -1  288.87    9.30
   1   0   1  272.67    8.10
  -2   0  -1 4920.91  107.09
  -2   0  -1 4630.94  108.99
   2   0   1 4744.93  109.49
   2   0   1 4759.52  107.09
  -3   0  -1  777.62   23.00
  -3   0  -1  785.72   25.10
   3   0   1  780.22   23.20
   3   0   1  787.72   25.60
  -4   0  -1 3360.26   81.39
   4   0   1 3311.17   85.69
   4   0   1 3436.86   82.19
   5   0   1 1166.88   36.10
   5   0   1 1201.08   40.40
   6   0   1  527.85   25.80
   6   0   1  525.55   22.30
   7   0   1 1113.19   44.30
   7   0   1 1147.09   39.40
   8   0   1   29.10    6.90
   8   0   1   40.60   10.70
   9   0   1  754.32   33.40
   9   0   1  710.53   38.60
  10   0   1    1.50    7.70
  10   0   1    2.10    6.60
  11   0   1  737.43   47.50
  11   0   1  764.62   38.00
  11  -1  -1  145.89   20.60
  11  -1  -1  160.78   17.70
  10  -1  -1  478.35   31.20
  10  -1  -1  503.75   28.60
   9  -1  -1   98.59   13.20
   9  -1  -1   80.49   11.80
   8  -1  -1  628.94   28.80
   8  -1  -1  704.53   32.60
   7  -1  -1   39.40    7.40
   7  -1  -1   45.00    7.30
   6  -1  -1 3690.53   92.09
   6  -1  -1 3474.05   93.89
   5  -1  -1   29.20    4.80
   5  -1  -1   27.90    4.60
   4  -1  -1 4388.76  104.19
   4  -1  -1 4238.98  105.09
  -4   1   1 4462.05  103.89
  -4   1   1 4495.85  108.99
   3  -1  -1   28.10    3.20
  -3   1   1   23.20    3.10
  -3   1   1   26.50    3.10
   2  -1  -1 1433.36   35.30
   2  -1  -1 1450.75   35.20
  -2   1   1 1440.26   35.10
  -2   1   1 1393.56   35.10
   1  -1  -1 2187.48   49.40
   1  -1  -1 2196.28   49.20
  -1   1   1 2184.68   49.10
   0   1   1 2474.25   54.79
   0   1   1 2486.65   56.89
   0   1   1 2573.54   56.39
   0   1   1 2502.15   54.89
  -1  -1  -1 2017.70   45.20
  -1  -1  -1 1972.70   47.10
   1   1   1 1977.20   45.30
   1   1   1 1974.40   47.80
   1   1   1 2016.50   47.40
  -2  -1  -1  396.76   12.50
  -2  -1  -1  400.26   14.40
  -2  -1  -1  403.26   14.10
   2   1   1  382.66   12.60
   2   1   1  394.16   14.90
  -3  -1  -1 2674.93   63.89
  -3  -1  -1 2604.14   66.19
  -3  -1  -1 2682.63   67.19
   3   1   1 2706.53   64.59
   3   1   1 2606.94   68.09
  -4  -1  -1 1150.28   33.30
   4   1   1 1182.38   34.30
   4   1   1 1174.08   38.30
   5   1   1 1223.78   36.90
   5   1   1 1130.99   40.60
   6   1   1    4.50    3.30
   6   1   1   -0.70    2.80
   7   1   1 1028.20   42.50
   7   1   1  986.30   36.30
   8   1   1   -7.50    4.30
   8   1   1    2.30    4.50
   9   1   1  303.57   25.70
   9   1   1  290.77   20.40
  10   1   1   10.90    7.90
  10   1   1   15.80   10.70
  12  -2  -1  520.15   50.19
  11  -2  -1   46.40   11.20
  11  -2  -1   88.49   16.50
  10  -2  -1  716.73   37.70
  10  -2  -1  624.14   32.40
   9  -2  -1   27.50    6.80
   9  -2  -1   22.00    7.90
   8  -2  -1  522.25   27.30
   8  -2  -1  515.05   25.20
   7  -2  -1  316.07   19.10
   7  -2  -1  332.17   18.10
   6  -2  -1 2081.59   60.69
   6  -2  -1 2111.19   58.99
   5  -2  -1  409.96   17.70
   5  -2  -1  438.16   18.80
  -5   2   1  401.86   18.00
   4  -2  -1 1930.71   51.49
   4  -2  -1 1922.91   50.79
  -4   2   1 1956.80   50.79
  -4   2   1 1955.40   51.19
   3  -2  -1  217.88   11.30
   3  -2  -1  222.68    9.70
  -3   2   1  199.48    9.40
  -3   2   1  213.38    9.60
   2  -2  -1  338.57   11.40
   2  -2  -1  328.97   11.30
  -2   2   1  330.67   11.30
  -2   2   1  340.67   11.40
   1  -2  -1 2426.66   54.39
   1  -2  -1 2345.07   54.49
  -1   2   1 2411.46   55.09
  -1   2   1 2403.96   54.59
  -1   2   1 2372.66   54.39
   0  -2  -1 1626.14   38.50
   0  -2  -1 1596.34   38.20
   0   2   1 1524.95   38.20
   0   2   1 1611.54   37.10
   0   2   1 1595.54   36.60
   0   2   1 1581.84   38.60
  -1  -2  -1   59.69    3.30
  -1  -2  -1   49.60    4.10
  -1  -2  -1   54.89    4.00
   1   2   1   54.49    4.00
   1   2   1   51.49    3.20
  -2  -2  -1 1772.92   42.80
  -2  -2  -1 1768.12   45.10
   2   2   1 1749.12   43.30
  -3  -2  -1  734.03   22.00
  -3  -2  -1  732.83   28.30
  -3  -2  -1  718.63   24.10
   3   2   1  737.83   22.80
   3   2   1  743.83   26.60
   4   2   1    2.70    2.50
   4   2   1    2.00    1.70
   5   2   1  496.15   24.60
   5   2   1  483.55   20.30
   6   2   1   82.49   10.70
   6   2   1   85.49    9.10
   7   2   1  790.02   31.80
   7   2   1  797.12   37.90
   8   2   1  146.19   20.20
   8   2   1   98.39   12.30
   9   2   1  920.01   39.70
   9   2   1  967.60   48.30
  10   2   1    8.90    8.80
  10   2   1    1.10   10.00
  12  -3  -1  330.97   25.80
  12  -3  -1  341.07   29.30
  11  -3  -1    3.90    7.60
  11  -3  -1   -3.90    7.30
  10  -3  -1  797.32   39.30
  10  -3  -1  831.72   40.80
   9  -3  -1   -2.10    4.80
   9  -3  -1    5.10    4.80
   8  -3  -1 1560.94   53.99
   8  -3  -1 1608.34   52.19
   7  -3  -1  276.57   16.50
   6  -3  -1  506.35   22.50
   6  -3  -1  494.65   21.40
   5  -3  -1  722.93   26.20
   5  -3  -1  743.43   25.90
  -5   3   1  743.13   26.40
   4  -3  -1 2043.70   51.99
   4  -3  -1 1968.30   51.99
  -4   3   1 1898.91   51.39
  -4   3   1 1963.10   51.99
   3  -3  -1 1583.14   40.60
   3  -3  -1 1525.85   40.00
  -3   3   1 1484.45   40.20
  -3   3   1 1502.15   39.90
   2  -3  -1  259.17    9.90
  -2   3   1  249.78   10.30
  -2   3   1  258.07    9.20
  -2   3   1  246.98    9.80
   1  -3  -1 7271.17  159.98
   1  -3  -1 7085.39  160.18
  -1   3   1 7330.17  159.88
   0  -3  -1   87.99    4.90
   0   3   1   88.49    5.60
   0   3   1  103.19    5.00
   0   3   1   85.19    4.50
   0   3   1   78.89    4.90
  -1  -3  -1 2684.63   62.29
  -1  -3  -1 2591.44   60.09
  -1  -3  -1 2439.36   62.99
   1   3   1 2595.34   62.09
   1   3   1 2561.94   64.29
   1   3   1 2615.54   60.29
  -2  -3  -1  246.08    9.70
  -2  -3  -1  240.78   11.10
   2   3   1  244.78   12.80
   2   3   1  239.88   10.10
   3   3   1 3561.74   84.19
   3   3   1 3439.16   89.79
   4   3   1  358.46   15.90
   4   3   1  385.56   20.40
   5   3   1 1536.15   45.50
   5   3   1 1495.65   51.79
   6   3   1   32.30    6.60
   6   3   1   28.40    7.00
   7   3   1  402.46   26.80
   7   3   1  409.86   21.70
   8   3   1  138.29   14.60
   8   3   1  174.38   19.60
   9   3   1  272.17   20.90
   9   3   1  280.97   26.90
  12  -4  -1  615.14   37.90
  12  -4  -1  550.74   33.40
  11  -4  -1   11.10    7.70
  11  -4  -1   11.80    8.70
  10  -4  -1  575.84   32.00
  10  -4  -1  541.05   31.70
   9  -4  -1  168.68   15.50
   9  -4  -1  130.99   13.50
   8  -4  -1 1001.30   38.30
   8  -4  -1 1055.59   40.70
   7  -4  -1 1539.05   49.80
   7  -4  -1 1698.03   61.69
   6  -4  -1  308.17   16.80
   6  -4  -1  340.07   17.00
   5  -4  -1 3351.76   83.79
   5  -4  -1 3282.47   84.09
   4  -4  -1  683.03   23.10
   4  -4  -1  693.53   23.70
  -4   4   1  666.73   23.40
  -4   4   1  635.54   22.70
   3  -4  -1 3141.79   73.99
  -3   4   1 3141.09   72.69
  -3   4   1 2857.71   74.19
  -3   4   1 3056.49   74.89
   2  -4  -1  101.09    6.10
   2  -4  -1   87.09    5.60
  -2   4   1  102.29    7.10
  -2   4   1  101.59    5.90
  -2   4   1   95.49    6.10
  -2   4   1   98.29    6.80
   1  -4  -1 4821.52  112.29
  -1   4   1 4864.61  111.29
  -1   4   1 5010.10  112.69
  -1   4   1 4912.71  111.09
   0  -4  -1    7.50    2.70
   0  -4  -1   11.60    2.40
   0   4   1    9.70    2.40
   0   4   1   12.30    2.60
   0   4   1   13.20    2.60
   0   4   1    8.50    2.00
  -1  -4  -1 2987.80   74.09
  -1  -4  -1 2990.40   71.59
   1   4   1 2914.81   70.09
   1   4   1 3031.00   71.89
   1   4   1 2989.00   71.59
   1   4   1 2981.80   74.99
  -2  -4  -1   28.90    3.80
  -2  -4  -1   29.60    4.30
   2   4   1   38.90    5.70
   2   4   1   26.30    3.60
  -3  -4  -1 1836.42   49.80
  -3  -4  -1 1941.61   52.89
   3   4   1 1981.70   51.49
   3   4   1 2069.49   58.79
   4   4   1  583.64   22.80
   4   4   1  672.43   29.40
   5   4   1 2041.80   58.69
   5   4   1 2160.58   68.29
   6   4   1  348.27   18.70
   6   4   1  299.67   22.10
   7   4   1  770.22   32.00
   7   4   1  729.93   38.90
   8   4   1  147.59   15.00
   8   4   1  140.79   18.90
   9   4   1  286.57   30.40
   9   4   1  253.37   22.10
  12  -5  -1  696.73   38.10
  12  -5  -1  730.53   40.90
  11  -5  -1  125.29   15.90
  11  -5  -1  139.99   16.50
  10  -5  -1  485.55   29.20
  10  -5  -1  480.85   27.50
   9  -5  -1  155.58   15.20
   9  -5  -1  124.89   13.50
   8  -5  -1  409.66   23.10
   8  -5  -1  463.35   23.40
   7  -5  -1  765.72   30.30
   7  -5  -1  766.12   31.80
   6  -5  -1  566.24   24.20
   6  -5  -1  558.94   23.70
   5  -5  -1 2312.87   62.19
   5  -5  -1 2306.47   62.79
   4  -5  -1  118.89    8.40
  -4   5   1  114.99    7.50
  -4   5   1  124.49    9.20
   3  -5  -1  255.57   12.00
  -3   5   1  241.58   12.80
  -3   5   1  271.47   11.60
  -3   5   1  254.77   12.20
   2  -5  -1   27.60    3.80
   2  -5  -1   27.70    3.70
  -2   5   1   22.50    3.10
  -2   5   1   22.90    3.30
  -2   5   1   27.50    3.90
   1  -5  -1 4327.97   98.49
   1  -5  -1 3942.71   98.19
  -1   5   1 4119.79   97.09
  -1   5   1 4274.37   99.29
   0  -5  -1  161.88   10.70
   0  -5  -1  170.48    8.30
   0   5   1  175.78    8.50
   0   5   1  189.28    9.10
   0   5   1  160.38    8.80
   0   5   1  170.98   10.30
  -1  -5  -1 4738.93  108.59
   1   5   1 4624.14  113.49
   1   5   1 4515.55  107.49
   1   5   1 4732.23  109.29
   1   5   1 4665.73  108.89
  -2  -5  -1  318.87   14.60
   2   5   1  351.26   14.30
   2   5   1  373.36   18.80
   2   5   1  331.17   14.90
   3   5   1 1336.57   38.80
   3   5   1 1316.47   45.40
   4   5   1  139.69   13.70
   4   5   1  160.98   10.90
   5   5   1 1109.09   45.50
   6   5   1  707.83   36.70
   6   5   1  654.93   28.30
   7   5   1  230.58   22.50
   7   5   1  183.58   16.00
   8   5   1  576.84   37.60
   8   5   1  520.45   31.90
  12  -6  -1  387.76   27.60
  12  -6  -1  377.96   30.00
  11  -6  -1  222.38   20.20
  11  -6  -1  226.48   21.80
  10  -6  -1  218.28   19.60
  10  -6  -1  262.27   20.30
   9  -6  -1  951.40   40.30
   9  -6  -1  920.81   38.50
   8  -6  -1  442.56   23.20
   8  -6  -1  410.56   23.20
   7  -6  -1  899.51   34.20
   7  -6  -1  924.31   35.40
   6  -6  -1  546.85   23.90
   6  -6  -1  510.05   22.60
   5  -6  -1 2542.25   67.59
  -5   6   1 2487.35   65.19
   4  -6  -1  171.98   10.80
  -4   6   1  172.18    9.80
   3  -6  -1  427.26   17.20
  -3   6   1  440.56   16.80
  -3   6   1  401.86   16.10
   2  -6  -1    6.50    2.40
  -2   6   1   13.70    3.20
  -2   6   1   14.30    2.90
  -2   6   1   17.60    3.50
   1  -6  -1 1455.85   40.20
  -1   6   1 1424.66   40.80
  -1   6   1 1349.86   38.20
  -1   6   1 1322.47   37.10
   0  -6  -1  106.89    6.90
   0   6   1  121.49    7.50
   0   6   1  112.39    9.10
   0   6   1  110.19    7.80
   0   6   1  107.69    7.10
  -1  -6  -1 1519.55   40.80
   1   6   1 1518.95   42.00
   1   6   1 1496.85   46.50
   1   6   1 1450.85   40.60
   1   6   1 1515.05   41.30
  -2  -6  -1  275.07   13.70
   2   6   1  266.77   16.70
   2   6   1  278.07   13.30
   3   6   1  134.29    9.70
   3   6   1  140.29   13.50
   4   6   1  740.63   27.50
   4   6   1  719.43   34.20
   5   6   1  535.55   31.20
   5   6   1  509.45   23.40
   6   6   1  455.05   23.60
   6   6   1  522.15   32.60
   7   6   1   79.59   17.70
   7   6   1  106.59   14.70
   8   6   1  393.76   26.30
   8   6   1  390.66   32.70
  12  -7  -1  244.88   24.60
  11  -7  -1  388.66   27.80
  11  -7  -1  403.06   26.30
  10  -7  -1   56.09   11.50
  10  -7  -1   57.09   10.60
   9  -7  -1 1104.79   43.30
   9  -7  -1 1107.69   44.20
   8  -7  -1   45.40    8.50
   8  -7  -1   25.90    6.80
   7  -7  -1 1016.60   38.10
   7  -7  -1 1022.10   37.50
  -7   7   1  991.00   34.60
   6  -7  -1    4.80    3.10
   5  -7  -1 1028.50   35.10
  -5   7   1 1057.79   33.50
   4  -7  -1   55.29    6.50
  -4   7   1   48.20    5.70
   3  -7  -1 1595.44   45.60
  -3   7   1 1579.44   44.90
  -3   7   1 1551.04   43.00
   2  -7  -1  222.58   12.60
  -2   7   1  225.58   11.00
  -2   7   1  231.28   12.90
  -1   7   1 1074.09   35.20
  -1   7   1 1054.49   31.20
  -1   7   1 1060.49   31.60
   0  -7  -1  294.27   12.50
   0   7   1  271.07   12.50
   0   7   1  295.57   16.70
   0   7   1  291.17   13.20
  -1  -7  -1 1080.39   32.00
   1   7   1 1109.19   39.00
   1   7   1 1111.89   32.90
   1   7   1 1038.00   32.50
  -2  -7  -1   88.09    8.70
   2   7   1   86.89   10.60
   2   7   1   84.09    7.70
   3   7   1   67.49   11.10
   3   7   1   85.29    8.40
   4   7   1  819.02   38.90
   4   7   1  847.92   31.00
   5   7   1   25.80    8.60
   5   7   1   49.50    9.20
   6   7   1  398.06   30.30
   6   7   1  434.56   23.80
   7   7   1   69.89   14.00
   7   7   1   99.09   20.70
  12  -8  -1   62.49   13.40
  12  -8  -1   71.79   16.30
  11  -8  -1  335.47   24.40
  11  -8  -1  329.37   25.90
  10  -8  -1   16.70    7.60
  10  -8  -1    7.80    6.80
   9  -8  -1 1028.60   45.10
   9  -8  -1 1021.70   42.50
   8  -8  -1    4.00    4.60
  -8   8   1    6.00    4.40
   7  -8  -1 1288.77   45.10
  -7   8   1 1308.37   42.50
   6  -8  -1  176.28   13.50
  -6   8   1  169.18   11.80
   5  -8  -1 1503.15   47.00
  -5   8   1 1516.55   45.60
   4  -8  -1  103.69    9.50
  -4   8   1  110.59    9.90
  -4   8   1  118.49    8.70
   3  -8  -1 1492.75   45.40
  -3   8   1 1512.15   45.90
  -3   8   1 1513.35   42.60
   2  -8  -1  599.04   23.70
  -2   8   1  544.75   25.00
  -2   8   1  541.95   20.10
  -1   8   1  477.85   17.90
  -1   8   1  478.95   19.00
  -1   8   1  483.95   22.30
   0   8   1  767.22   24.90
   0   8   1  775.52   26.20
   0   8   1  767.42   31.30
  -1  -8  -1  308.37   14.00
   1   8   1  302.17   14.90
   1   8   1  333.87   20.10
   2   8   1  828.02   29.10
   2   8   1  854.71   37.00
   3   8   1   77.09   12.40
   3   8   1   75.59    8.60
   4   8   1  739.13   38.40
   4   8   1  766.82   29.80
   5   8   1    5.90    6.90
   5   8   1  -10.60    6.80
   6   8   1  424.26   32.10
   6   8   1  364.96   23.30
  11  -9  -1  319.57   24.50
 -11   9   1  313.47   22.70
  10  -9  -1   10.90    8.00
 -10   9   1   27.20    7.50
   9  -9  -1  743.23   35.30
  -9   9   1  792.22   33.30
   8  -9  -1  105.39   12.50
  -8   9   1  108.49   11.40
   7  -9  -1  873.11   35.10
  -7   9   1  814.82   31.80
   6  -9  -1  216.78   15.40
  -6   9   1  202.08   13.80
   5  -9  -1  504.85   23.60
  -5   9   1  485.15   22.30
  -5   9   1  470.75   21.10
   4  -9  -1  773.52   29.80
  -4   9   1  709.63   28.10
  -4   9   1  718.83   26.20
   3  -9  -1  524.55   26.90
  -3   9   1  516.95   20.30
  -3   9   1  528.35   23.70
  -2   9   1  683.03   23.80
  -2   9   1  689.23   25.40
  -2   9   1  676.73   28.30
  -1   9   1  175.78   10.00
  -1   9   1  169.08   11.10
  -1   9   1  185.98   14.20
   0   9   1  972.40   32.20
   0   9   1  971.00   29.90
   0   9   1 1006.30   38.80
   1   9   1  231.28   18.10
   2   9   1  528.15   29.00
   2   9   1  468.25   21.20
   3   9   1   11.50    5.30
   3   9   1   22.90    8.90
   4   9   1  418.46   22.40
   4   9   1  467.55   31.10
   5   9   1   19.70    9.50
   5   9   1    2.40    8.10
  11 -10  -1  179.88   20.10
 -11  10   1  157.68   17.10
  10 -10  -1   35.60   10.00
 -10  10   1   31.30    9.10
   9 -10  -1  426.26   26.20
  -9  10   1  375.56   25.10
  -8  10   1  162.48   14.10
   7 -10  -1  674.73   30.90
  -7  10   1  657.13   28.70
  -7  10   1  601.44   28.40
   6 -10  -1   58.09    9.50
  -6  10   1   53.59    8.10
  -6  10   1   44.40    8.10
   5 -10  -1  248.58   16.80
  -5  10   1  251.47   15.20
  -5  10   1  211.68   15.00
   4 -10  -1  473.85   23.60
  -4  10   1  433.66   19.40
  -4  10   1  464.15   22.90
   3 -10  -1  130.29   12.30
  -3  10   1  148.29   12.70
  -3  10   1  128.39    9.70
  -2  10   1  582.74   23.40
  -2  10   1  584.84   27.20
  -2  10   1  534.75   20.50
  -1  10   1   52.69    7.10
  -1  10   1   43.50    8.60
  -1  10   1   51.69    6.30
   0  10   1  828.72   36.70
   0  10   1  867.81   30.50
   1  10   1    4.50    7.20
   1  10   1   11.10    5.50
   2  10   1  581.34   32.20
   2  10   1  570.34   24.70
   3  10   1   57.09   10.90
   3  10   1   40.90   10.40
   4  10   1  345.97   28.70
   4  10   1  282.87   20.80
  11 -11  -1  183.78   21.40
 -11  11   1  188.68   19.40
  10 -11  -1  137.49   17.80
 -10  11   1  127.79   15.90
   9 -11  -1  262.37   21.40
  -9  11   1  277.37   20.00
   8 -11  -1  212.58   18.40
  -8  11   1  214.48   19.90
  -8  11   1  219.58   18.60
   7 -11  -1  131.99   14.90
  -7  11   1  123.89   13.10
  -7  11   1  126.39   13.30
   6 -11  -1  435.16   24.60
  -6  11   1  424.96   23.00
  -6  11   1  427.96   21.50
   5 -11  -1   12.80    6.30
  -5  11   1   16.30    5.50
  -5  11   1   16.30    5.40
   4 -11  -1  713.23   31.70
  -4  11   1  679.83   26.40
  -4  11   1  715.23   31.60
  -3  11   1   46.40    8.00
  -3  11   1   61.79    7.60
  -3  11   1   44.90    9.10
  -2  11   1  783.92   34.80
  -2  11   1  727.73   28.70
  -2  11   1  733.63   24.70
  -1  11   1   16.10    4.20
  -1  11   1   11.30    5.80
  -1  11   1   19.30    5.50
   0  11   1  382.06   19.60
   0  11   1  413.76   26.30
   1  11   1   62.29    9.90
   1  11   1   50.49   12.70
   2  11   1  232.78   22.10
   2  11   1  201.68   16.50
   3  11   1   55.49   11.40
   3  11   1   51.19   13.10
 -10  12   1  271.37   23.50
 -10  12   1  306.87   22.90
   9 -12  -1   34.30   10.40
  -9  12   1   65.79   14.10
  -9  12   1   81.89   14.00
   8 -12  -1  385.26   26.00
  -8  12   1  367.36   23.40
  -8  12   1  366.06   23.10
   7 -12  -1  184.18   17.50
  -7  12   1  152.98   15.40
  -7  12   1  161.98   15.20
  -6  12   1  235.78   16.40
  -6  12   1  236.68   18.40
   5 -12  -1   19.70    7.70
  -5  12   1   12.90    8.80
  -5  12   1   25.90    6.30
   4 -12  -1  490.05   27.00
  -4  12   1  553.94   30.70
  -4  12   1  513.15   24.70
  -4  12   1  482.05   21.50
  -3  12   1    6.30    5.60
  -3  12   1    3.90    4.30
  -3  12   1    8.80    5.50
  -2  12   1  563.04   24.70
  -2  12   1  583.44   30.50
  -2  12   1  462.85   21.30
  -1  12   1   63.69   10.90
  -1  12   1   62.99   13.00
   0  12   1  506.35   31.00
   0  12   1  508.15   24.20
   1  12   1   47.90   12.40
   1  12   1   69.79   12.80
   2  12   1  250.97   25.40
   2  12   1  275.87   28.70
   9 -13  -1   -4.40    8.50
  -9  13   1  -13.30    8.80
  -9  13   1    6.20    7.70
   8 -13  -1  478.65   30.80
  -8  13   1  494.65   27.90
  -8  13   1  450.15   26.40
   7 -13  -1   50.89   13.10
  -7  13   1   35.50    9.10
  -7  13   1   45.00   10.70
   6 -13  -1  335.57   24.20
  -6  13   1  362.96   24.20
  -6  13   1  360.16   20.30
   5 -13  -1   -1.00    7.20
  -5  13   1    0.00    5.60
  -5  13   1    0.50    5.70
  -4  13   1  409.36   25.70
  -3  13   1   21.00    7.10
  -3  13   1   25.10    9.10
  -2  13   1  340.27   20.70
  -2  13   1  339.77   25.50
  -1  13   1   77.99   12.80
  -1  13   1   50.99   12.60
   0  13   1   71.59   14.00
   0  13   1   83.49   17.90
   7 -14  -1    9.40   10.50
  -7  14   1    7.80    8.20
   6 -14  -1   87.49   17.20
  -6  14   1   90.79   16.60
  -5  14   1    2.50    7.80
  -5  14   1    0.80    8.40
  -4  14   1  178.28   17.30
  -4  14   1  154.48   19.30
  -3  14   1  108.69   15.80
  -3  14   1  139.79   19.30
  -2  14  -2  415.26   39.50
  -2  14  -2  330.67   22.90
  -3  14  -2  109.69   14.60
  -3  14  -2   95.39   16.50
  -4  14  -2  133.79   18.40
  -4  14  -2  169.08   16.70
  -5  14  -2  168.98   17.20
  -5  14  -2  156.98   18.90
  -6  14  -2   30.90    8.80
   6 -14   2   32.60   12.10
  -7  14  -2  302.47   30.00
   7 -14   2  293.67   31.70
   1  13  -2  218.88   22.60
   1  13  -2  241.88   20.90
   0  13  -2  138.49   15.40
   0  13  -2  164.98   19.70
  -1  13  -2  309.47   24.40
  -1  13  -2  251.57   19.00
  -2  13  -2  190.48   19.30
  -2  13  -2  197.68   16.90
  -3  13  -2  381.46   26.10
  -3  13  -2  379.06   23.00
  -4  13  -2   27.10    8.80
  -4  13  -2   23.90    8.20
  -5  13  -2  517.35   29.10
   5 -13   2  458.85   29.30
  -6  13  -2   26.00    8.80
  -6  13  -2   33.30    7.10
   6 -13   2   26.60   10.70
  -7  13  -2   98.69   13.30
  -7  13  -2  141.49   15.70
   7 -13   2  138.99   18.10
  -8  13  -2    0.00    7.40
  -8  13  -2   -6.00    7.30
   8 -13   2    7.00    8.90
  -9  13  -2  275.57   23.00
   2  12  -2  252.77   23.70
   2  12  -2  214.18   19.00
   1  12  -2   74.89   13.10
   1  12  -2   95.09   15.80
   0  12  -2  229.98   17.20
   0  12  -2  202.18   19.70
  -1  12  -2  456.45   23.60
  -1  12  -2  428.16   27.30
  -2  12  -2  146.79   16.00
  -2  12  -2  164.88   14.50
  -3  12  -2  383.36   24.30
  -3  12  -2  389.96   22.10
  -4  12  -2  126.89   13.60
  -4  12  -2  114.89    8.70
  -4  12  -2  157.98   15.80
   4 -12   2  127.09   15.00
  -5  12  -2  864.51   29.60
  -5  12  -2  907.11   38.40
   5 -12   2  872.41   39.50
  -6  12  -2    5.00    5.10
  -6  12  -2   -0.40    5.10
   6 -12   2   -0.20    6.50
  -7  12  -2  593.44   27.40
  -7  12  -2  577.04   30.60
   7 -12   2  628.44   33.70
  -8  12  -2   -2.90    6.20
   8 -12   2    7.70    7.80
  -9  12  -2  252.27   21.30
   9 -12   2  253.17   23.50
   4  11  -2  103.09   16.60
   4  11  -2  148.59   21.10
   3  11  -2  110.49   14.80
   3  11  -2   96.29   17.70
   2  11  -2    7.00    6.60
   2  11  -2   10.80    7.70
   1  11  -2  327.47   23.70
   1  11  -2  325.67   19.80
   0  11  -2    2.50    4.60
   0  11  -2   20.10    7.30
  -1  11  -2  796.42   32.50
  -1  11  -2  931.31   38.70
  -2  11  -2   17.20    5.60
  -2  11  -2    9.80    4.50
  -3  11  -2  618.74   29.30
  -3  11  -2  565.24   26.10
  -3  11  -2  544.35   19.00
  -4  11  -2    2.00    3.30
  -4  11  -2   -6.70    3.80
   4 -11   2   -2.60    4.70
  -5  11  -2   54.69    7.50
  -5  11  -2   58.09    9.70
   5 -11   2   64.49   11.00
  -6  11  -2   77.99   11.00
  -6  11  -2  101.59   10.50
   6 -11   2   95.19   13.10
  -7  11  -2  357.26   22.30
   7 -11   2  304.27   22.40
  -8  11  -2   25.90    7.60
   8 -11   2   60.19   12.30
  -9  11  -2  273.57   20.80
   9 -11   2  191.08   19.30
 -10  11  -2  242.18   21.70
  10 -11   2  283.07   24.00
   5  10  -2  209.68   20.60
   5  10  -2  172.48   23.60
   4  10  -2   99.09   17.30
   3  10  -2   46.10   12.00
   3  10  -2   51.39   10.40
   2  10  -2  107.79   12.10
   2  10  -2   90.69   13.70
   1  10  -2  388.46   24.40
   1  10  -2  437.66   21.60
   0  10  -2    0.70    3.50
   0  10  -2    5.90    5.90
  -1  10  -2  644.14   27.00
  -1  10  -2  640.14   29.90
  -2  10  -2   52.29    3.90
  -2  10  -2   60.19    9.30
  -2  10  -2   66.19    8.30
  -3  10  -2  293.77   18.40
  -3  10  -2  283.87   12.20
   3 -10   2  297.77   19.00
  -4  10  -2  149.49   12.60
  -4  10  -2  129.49    8.90
   4 -10   2  152.48   14.20
  -5  10  -2  719.23   26.70
  -5  10  -2  748.53   30.70
   5 -10   2  694.83   31.70
  -6  10  -2  175.78   14.50
   6 -10   2  184.38   16.10
  -7  10  -2  331.97   20.40
   7 -10   2  315.27   21.40
  -8  10  -2  206.18   16.80
   8 -10   2  203.78   18.30
  -9  10  -2  276.37   20.20
   9 -10   2  232.88   20.20
 -10  10  -2  250.47   20.50
  10 -10   2  277.87   23.00
 -11  10  -2   16.10    9.50
  11 -10   2    4.60    9.40
   6   9  -2   61.69   14.10
   6   9  -2   81.29   14.30
   5   9  -2  341.07   28.10
   4   9  -2   26.60    7.20
   4   9  -2   44.50   12.50
   3   9  -2  599.44   26.90
   3   9  -2  607.14   35.80
   2   9  -2   -2.80    4.90
   2   9  -2    4.00    3.90
   1   9  -2 1910.91   55.79
   1   9  -2 1814.52   60.59
   0   9  -2  145.09   13.20
   0   9  -2  139.69   11.40
  -1   9  -2 1374.16   46.10
  -1   9  -2 1348.57   42.70
  -2   9  -2  110.09   10.40
  -2   9  -2  125.89   10.60
  -2   9  -2  107.49    6.10
   2  -9   2   97.89   10.70
  -3   9  -2   12.50    3.20
  -3   9  -2    6.90    3.50
   3  -9   2   25.30    6.80
  -4   9  -2  624.04   26.30
  -4   9  -2  619.44   22.20
   4  -9   2  612.04   27.60
  -5   9  -2  471.05   22.50
   5  -9   2  465.45   23.70
  -6   9  -2  933.91   34.80
   6  -9   2  884.31   36.40
  -7   9  -2  525.85   25.60
   7  -9   2  582.84   28.50
  -8   9  -2  318.07   20.60
   8  -9   2  394.96   25.70
  -9   9  -2   26.20    8.80
   9  -9   2   24.40    7.40
 -10   9  -2  505.55   28.40
  10  -9   2  420.66   29.40
  10  -9   2  432.96   28.30
  11  -9   2   15.20    9.60
  11  -9   2   14.50    8.60
   7   8  -2  388.46   33.20
   7   8  -2  458.45   29.00
   6   8  -2   15.30    9.40
   6   8  -2   21.60    8.80
   5   8  -2  515.75   31.90
   5   8  -2  473.35   25.70
   4   8  -2    5.40    7.60
   4   8  -2    8.80    5.20
   3   8  -2  763.62   30.10
   3   8  -2  792.02   35.60
  -3  -8   2  696.23   21.20
   2   8  -2   39.80    9.00
   2   8  -2   35.10    6.80
   1   8  -2  731.23   27.60
   1   8  -2  686.83   30.20
   0   8  -2  377.36   20.00
   0   8  -2  355.16   17.20
  -1   8  -2  938.21   23.90
  -1   8  -2  982.30   35.00
  -1   8  -2 1028.50   33.30
  -2   8  -2 1131.49   37.20
  -2   8  -2 1096.79   29.30
   2  -8   2 1099.39   38.20
  -3   8  -2 1057.39   35.00
  -3   8  -2 1017.00   29.70
   3  -8   2 1023.80   40.80
  -4   8  -2  492.55   21.50
   4  -8   2  463.75   22.30
  -5   8  -2  385.46   19.10
   5  -8   2  401.36   20.90
  -6   8  -2 1174.48   39.40
   6  -8   2 1072.69   40.00
  -7   8  -2  879.71   34.30
   7  -8   2  876.81   35.60
   8  -8   2  776.22   36.20
   8  -8   2  785.72   34.60
   9  -8   2   55.99   10.20
   9  -8   2   33.10   13.20
  10  -8   2  862.41   40.70
  10  -8   2  937.61   44.10
  11  -8   2    8.50    7.40
  11  -8   2    6.60    7.90
   7   7  -2  553.84   30.60
   7   7  -2  635.74   38.30
   6   7  -2    5.90    6.30
   6   7  -2    9.00    7.50
   5   7  -2  667.43   37.10
   5   7  -2  723.63   30.90
   4   7  -2    3.00    4.70
   4   7  -2    4.10    4.40
  -4  -7   2    9.20    4.70
   3   7  -2 2490.55   67.89
   3   7  -2 2522.65   74.19
  -3  -7   2 2278.67   59.09
   2   7  -2  321.77   18.90
   2   7  -2  330.77   16.60
  -2  -7   2  312.57   10.70
   1   7  -2 1193.68   41.10
   1   7  -2 1240.98   38.20
   0   7  -2  122.69   10.20
   0   7  -2  135.29    9.60
  -1   7  -2  825.52   29.10
  -1   7  -2  787.82   20.80
  -1   7  -2  814.52   27.70
  -2   7  -2  527.45   21.20
  -2   7  -2  518.55   16.30
   2  -7   2  568.94   23.10
  -3   7  -2  753.52   26.70
   3  -7   2  731.93   27.60
  -4   7  -2  991.30   32.90
   4  -7   2  998.80   34.50
  -5   7  -2   63.99    7.30
   5  -7   2   83.39    8.70
  -6   7  -2  611.44   25.60
   6  -7   2  652.63   27.60
   6  -7   2  651.53   29.10
   7  -7   2   58.59    9.40
   7  -7   2   48.00    7.60
   8  -7   2 1067.49   41.50
   8  -7   2 1097.49   44.20
   9  -7   2   66.89   15.30
   9  -7   2   69.19   12.00
  10  -7   2  489.05   31.30
  10  -7   2  509.35   29.60
  11  -7   2   68.89   14.10
  11  -7   2   44.90   13.20
   8   6  -2   -2.00    7.80
   8   6  -2   13.30   10.70
   7   6  -2  695.23   32.80
   7   6  -2  683.53   39.00
   6   6  -2    2.70    5.20
   5   6  -2  460.05   22.90
   5   6  -2  398.56   25.30
   4   6  -2    6.20    3.50
   4   6  -2    2.30    3.70
  -4  -6   2    8.90    4.00
   3   6  -2  589.74   27.10
   3   6  -2  557.84   23.20
  -3  -6   2  568.24   19.30
   2   6  -2 1018.90   32.60
  -2  -6   2  973.30   26.20
   1   6  -2 1019.50   32.10
   1   6  -2 1028.20   34.90
   0   6  -2  411.86   16.70
   0   6  -2  362.16   17.00
  -1   6  -2 1030.10   26.00
  -1   6  -2 1083.49   33.00
   1  -6   2 1049.59   34.00
  -2   6  -2   26.20    4.20
   2  -6   2   23.50    4.40
  -3   6  -2  765.52   25.80
   3  -6   2  766.12   27.00
  -4   6  -2  576.24   22.20
   4  -6   2  613.44   23.50
   5  -6   2   89.89    8.60
   5  -6   2   68.69    8.20
   6  -6   2 1361.76   46.60
   6  -6   2 1362.06   44.40
   7  -6   2   28.90    7.00
   7  -6   2   32.70    6.90
   8  -6   2  479.25   27.30
   8  -6   2  528.05   26.10
   9  -6   2   18.00    6.90
   9  -6   2   26.30    8.10
  10  -6   2  353.76   23.70
  10  -6   2  370.06   26.30
  11  -6   2  171.28   18.70
  11  -6   2  166.68   20.90
   9   5  -2  307.37   32.70
   9   5  -2  283.67   23.10
   8   5  -2    5.60    8.20
   8   5  -2    3.80    7.30
   7   5  -2  536.55   27.80
   7   5  -2  509.25   32.30
   6   5  -2  150.38   16.20
   6   5  -2  151.68   13.30
   5   5  -2  664.63   32.10
   5   5  -2  682.53   28.30
   4   5  -2 1012.30   39.10
   4   5  -2 1014.00   34.90
  -4  -5   2 1039.80   31.70
   3   5  -2  727.13   26.60
   3   5  -2  729.23   29.50
  -3  -5   2  764.12   23.00
   2   5  -2 1316.07   41.00
   2   5  -2 1266.77   37.70
  -2  -5   2 1277.37   32.80
   1   5  -2 1410.26   41.20
   1   5  -2 1495.95   40.30
   1   5  -2 1374.26   41.70
   0   5  -2 1373.46   37.80
   0   5  -2 1352.16   38.70
   0   5  -2 1359.36   38.80
   0  -5   2 1303.97   40.70
  -1   5  -2   32.40    4.10
  -1   5  -2   42.60    2.70
  -1   5  -2   38.50    5.00
   1  -5   2   49.50    5.50
   1  -5   2   40.70    4.40
  -2   5  -2 1088.19   33.40
  -2   5  -2 1158.78   32.90
  -2   5  -2 1135.69   35.40
   2  -5   2 1158.78   34.00
  -3   5  -2   44.50    4.80
   3  -5   2   36.50    4.70
   4  -5   2 1473.85   44.90
   4  -5   2 1490.05   43.30
   5  -5   2   98.69    9.50
   5  -5   2   97.19    8.60
   6  -5   2 2340.97   69.29
   6  -5   2 2445.16   67.09
   7  -5   2  191.58   13.90
   7  -5   2  166.68   14.50
   8  -5   2  256.37   17.60
   8  -5   2  293.87   20.50
   9  -5   2  260.07   18.80
   9  -5   2  263.97   21.00
  10  -5   2  390.86   24.70
  10  -5   2  398.76   28.60
  11  -5   2  337.97   28.00
  11  -5   2  310.27   23.60
   9   4  -2  256.77   25.60
   9   4  -2  244.68   20.80
   8   4  -2  135.69   15.30
   8   4  -2  168.68   19.30
   7   4  -2  611.74   29.00
   7   4  -2  604.44   33.50
   6   4  -2  290.37   20.90
   6   4  -2  316.47   18.50
   5   4  -2   77.99   10.10
   4   4  -2 1837.42   57.79
   4   4  -2 1934.01   53.89
  -4  -4   2 1886.01   50.59
   3   4  -2   -0.30    1.60
   3   4  -2    2.20    2.30
  -3  -4   2    6.50    2.20
   2   4  -2 2627.64   66.19
  -2  -4   2 2712.03   61.79
  -2  -4   2 2577.14   65.09
   1   4  -2   68.79    6.00
   1   4  -2   71.79    5.70
  -1  -4   2   71.69    3.20
  -1  -4   2   66.49    5.50
   0   4  -2 2505.25   58.29
   0   4  -2 2396.86   58.59
   0   4  -2 2389.46   59.19
   0  -4   2 2028.20   64.19
  -1   4  -2 1012.50   29.70
   1  -4   2 1028.80   28.90
   1  -4   2 1081.09   30.60
  -2   4  -2 5818.92  133.99
   2  -4   2 5937.61  135.19
  -3   4  -2   11.60    3.10
  -3   4  -2    7.10    2.80
   3  -4   2    6.70    2.20
   3  -4   2    3.90    2.00
   4  -4   2 4252.47  106.49
   4  -4   2 4390.56  104.29
   5  -4   2   91.89    7.90
   5  -4   2   94.29    9.10
   6  -4   2 1442.06   53.59
   6  -4   2 1443.46   45.30
   7  -4   2  337.27   18.70
   7  -4   2  343.87   21.20
   8  -4   2  422.96   22.80
   8  -4   2  467.65   26.60
   9  -4   2  482.45   29.30
   9  -4   2  477.75   26.20
  10  -4   2  226.58   19.40
  10  -4   2  197.88   20.70
  11  -4   2  897.01   46.20
  11  -4   2  837.72   39.90
  10   3  -2   55.69   12.10
  10   3  -2   72.09   16.80
   9   3  -2  260.67   24.70
   9   3  -2  277.17   21.80
   8   3  -2  365.96   27.70
   8   3  -2  408.56   24.00
   7   3  -2  589.74   31.70
   7   3  -2  620.94   28.40
   6   3  -2 1109.39   39.10
   6   3  -2 1128.89   43.50
   5   3  -2  608.54   27.60
   5   3  -2  617.74   25.00
   4   3  -2  679.73   27.30
   4   3  -2  697.13   25.20
  -4  -3   2  711.23   23.90
   3   3  -2    7.10    2.80
   3   3  -2    7.00    2.50
  -3  -3   2    5.60    2.30
  -3  -3   2    9.80    2.60
   2   3  -2 4410.76  106.39
   2   3  -2 4516.15  104.69
  -2  -3   2 4689.93  101.29
  -2  -3   2 4335.17  105.09
  -2  -3   2 4452.85  103.59
   1   3  -2   60.99    4.70
   1   3  -2   58.29    4.80
  -1  -3   2   60.09    4.60
  -1  -3   2   56.49    4.60
  -1  -3   2   58.99    2.60
   0   3  -2 1701.43   43.20
   0   3  -2 1735.03   44.40
   0   3  -2 1771.12   43.20
  -1   3  -2  760.32   21.40
  -1   3  -2  778.92   23.10
  -1   3  -2  758.42   22.20
   1  -3   2  749.23   22.30
  -2   3  -2 4285.87  102.39
  -2   3  -2 4288.47  100.69
   2  -3   2 4448.55  100.89
   2  -3   2 4423.16  102.49
  -3   3  -2  996.60   33.90
   3  -3   2 1016.70   31.00
  -4   3  -2 3915.91   97.79
  -4   3  -2 4177.98  101.39
   4  -3   2 4163.68   98.39
   4  -3   2 4070.39  100.99
   5  -3   2 1791.82   50.09
   5  -3   2 1774.72   53.09
   6  -3   2 1022.20   38.30
   6  -3   2  925.21   32.90
   7  -3   2 1509.55   47.00
   7  -3   2 1377.66   50.09
   8  -3   2  951.90   36.60
   8  -3   2  961.30   41.40
   9  -3   2  600.64   29.30
   9  -3   2  597.44   33.20
  10  -3   2   83.29   12.90
  10  -3   2   92.09   16.00
  11  -3   2  566.14   37.80
  11  -3   2  658.93   34.10
  10   2  -2  333.57   24.20
  10   2  -2  337.47   29.10
   9   2  -2  669.83   36.80
   9   2  -2  684.43   38.20
   8   2  -2  441.46   27.60
   8   2  -2  427.86   24.20
   7   2  -2  529.45   25.40
   7   2  -2  508.95   27.80
   6   2  -2  912.61   34.10
   6   2  -2  984.40   37.90
   5   2  -2   32.10    6.10
   5   2  -2   26.20    5.00
   4   2  -2 1538.55   44.00
   4   2  -2 1570.34   46.50
   3   2  -2   81.19    6.90
   3   2  -2   84.29    6.40
  -3  -2   2   70.69    5.60
   2   2  -2 5599.94  127.99
   2   2  -2 5775.72  127.09
  -2  -2   2 5503.35  125.99
  -2  -2   2 5429.16  126.89
   1   2  -2   13.70    2.10
   1   2  -2    6.60    1.60
  -1  -2   2    9.90    1.90
  -1  -2   2    9.00    2.10
   0   2  -2 5298.07  122.09
   0  -2   2 5564.94  120.69
  -1   2  -2   17.70    2.20
  -1   2  -2   18.30    2.40
   1  -2   2   20.50    2.50
   1  -2   2   18.30    2.30
  -2   2  -2 2275.87   55.89
  -2   2  -2 2183.38   53.79
   2  -2   2 2264.57   55.79
  -3   2  -2 1314.57   36.90
  -3   2  -2 1199.18   34.30
   3  -2   2 1308.67   34.90
   3  -2   2 1284.97   37.00
  -4   2  -2 1838.42   50.69
  -4   2  -2 1716.63   47.60
   4  -2   2 1802.72   51.19
   4  -2   2 1830.22   48.30
   5  -2   2  892.41   30.20
   5  -2   2  969.00   34.10
   6  -2   2  429.86   19.80
   7  -2   2 1619.44   55.89
   7  -2   2 1649.63   50.99
   8  -2   2  163.88   16.20
   8  -2   2  189.68   14.40
   9  -2   2  830.92   41.20
   9  -2   2  865.71   36.30
  10  -2   2   34.20    9.90
  10  -2   2   41.10    9.10
  11  -2   2  489.35   29.60
  11  -2   2  586.14   38.50
  11   1  -2  124.39   20.80
  11   1  -2   84.29   17.10
  10   1  -2  849.52   39.30
  10   1  -2  835.92   43.90
   9   1  -2  128.19   14.30
   9   1  -2  161.88   18.60
   8   1  -2 1215.58   44.60
   8   1  -2 1225.68   48.70
   7   1  -2  250.77   16.30
   7   1  -2  237.98   17.70
   6   1  -2 1279.27   41.80
   6   1  -2 1294.97   44.70
   5   1  -2   28.00    4.80
   5   1  -2   31.20    5.50
   4   1  -2 3647.44   90.39
   4   1  -2 3755.32   89.19
  -4  -1   2 3594.14   88.59
  -4  -1   2 3541.55   87.29
   3   1  -2  492.55   18.10
   3   1  -2  503.95   17.50
  -3  -1   2  519.25   17.10
  -3  -1   2  519.25   17.60
   2   1  -2 2999.60   69.99
   2   1  -2 2924.41   69.69
  -2  -1   2 3001.10   69.39
  -2  -1   2 2987.90   69.29
   1   1  -2  912.61   23.10
   1   1  -2  904.61   22.80
  -1  -1   2  889.41   22.80
  -1  -1   2  901.91   22.50
   0   1  -2 1634.14   38.90
   0   1  -2 1700.43   38.50
   0   1  -2 1647.14   37.70
   0   1  -2 1635.74   37.60
   0  -1   2 1666.13   37.60
   0  -1   2 1627.34   37.60
   0  -1   2 1618.34   39.00
  -1   1  -2 3722.73   85.49
  -1   1  -2 3917.41   87.19
   1  -1   2 3835.72   85.59
  -2   1  -2 2143.99   51.79
  -2   1  -2 2085.49   49.99
  -2   1  -2 2093.69   52.09
   2  -1   2 2060.49   49.90
  -3   1  -2 5994.30  142.39
  -3   1  -2 6275.47  139.89
   3  -1   2 6104.99  139.69
   3  -1   2 6277.57  143.29
  -4   1  -2 1381.16   39.00
   4  -1   2 1441.66   42.90
   4  -1   2 1404.16   39.10
   5  -1   2 1373.76   45.00
   5  -1   2 1441.86   41.50
   6  -1   2  999.50   33.50
   6  -1   2  940.41   37.00
   7  -1   2 1594.44   56.19
   7  -1   2 1709.43   51.59
   8  -1   2    3.30    4.30
   8  -1   2    7.30    5.20
   9  -1   2  730.93   33.20
   9  -1   2  747.93   39.00
  10  -1   2   59.19   12.30
  10  -1   2   34.40   10.10
  11  -1   2  804.92   38.50
  11   0  -2  192.58   19.60
  11   0  -2  225.88   23.70
  10   0  -2  732.93   39.60
  10   0  -2  793.22   37.30
   9   0  -2   14.00    6.80
   9   0  -2   17.40    6.20
   8   0  -2  887.91   38.80
   8   0  -2  914.81   36.50
   7   0  -2  104.19   11.40
   7   0  -2  127.69   11.30
   6   0  -2 1888.81   55.49
   6   0  -2 1947.01   57.89
   5   0  -2   20.60    4.40
   5   0  -2   34.30    5.10
   4   0  -2 4479.95  106.19
   4   0  -2 4419.96  106.89
  -4   0   2 4593.14  109.89
  -4   0   2 4388.56  105.19
   3   0  -2 2899.41   70.09
   3   0  -2 2886.21   69.59
  -3   0   2 2899.91   69.09
  -3   0   2 2889.51   68.99
   2   0  -2 4191.68   94.39
   2   0  -2 4230.48   95.09
  -2   0   2 4208.78   94.09
  -2   0   2 4116.99   94.69
   1   0  -2  129.89    4.00
   1   0  -2  133.39    5.00
  -1   0   2  129.89    4.90
  -1   0   2  133.59    4.00
   0   0  -2 2764.32   59.09
   0   0  -2 2523.65   58.29
   0   0  -2 2569.34   60.49
   0   0   2 2773.02   59.09
  -1   0  -2 3165.88   74.09
  -1   0  -2 3202.98   73.99
  -1   0  -2 3266.97   71.79
   1   0   2 3242.08   74.39
   1   0   2 3221.68   74.19
   1   0   2 3236.58   71.69
  -2   0  -2 1105.69   31.40
  -2   0  -2 1143.89   31.80
  -2   0  -2 1183.58   29.40
   2   0   2 1174.88   29.30
   2   0   2 1159.68   32.30
  -3   0  -2 5904.31  136.49
  -3   0  -2 5754.72  136.49
  -3   0  -2 5783.82  132.89
   3   0   2 6018.70  133.29
   3   0   2 5879.11  137.69
  -4   0  -2  530.95   19.00
   4   0   2  543.35   22.60
   4   0   2  542.45   19.30
   5   0   2  962.60   30.70
   5   0   2  903.11   34.50
   6   0   2   57.29    7.10
   6   0   2   59.99    8.60
   7   0   2 2117.19   69.69
   7   0   2 2191.28   62.89
   8   0   2   18.30    5.40
   8   0   2   28.90    9.20
   9   0   2  823.52   42.30
   9   0   2  838.62   35.90
  10   0   2  114.29   15.50
  10   0   2   88.89   16.70
  11  -1  -2    2.00    8.30
  11  -1  -2   -3.10    7.30
  10  -1  -2 1170.18   51.19
  10  -1  -2 1266.57   48.70
   9  -1  -2    2.40    4.70
   9  -1  -2   -1.00    4.70
   8  -1  -2 1589.84   52.79
   8  -1  -2 1650.93   55.99
   7  -1  -2  147.69   12.80
   7  -1  -2  164.28   12.60
   6  -1  -2 1581.64   48.40
   6  -1  -2 1496.45   46.40
   5  -1  -2  157.38   10.20
   5  -1  -2  140.99   10.10
  -5   1   2  153.98   10.20
   4  -1  -2 1856.91   49.00
   4  -1  -2 1843.62   48.80
  -4   1   2 1778.92   47.90
  -4   1   2 1858.11   48.20
   3  -1  -2  623.74   19.50
   3  -1  -2  662.93   20.20
  -3   1   2  660.13   20.00
  -3   1   2  631.24   19.30
   2  -1  -2 1305.37   31.60
   2  -1  -2 1307.67   32.70
  -2   1   2 1317.87   31.60
  -2   1   2 1299.07   32.50
  -1   1   2 4558.14   99.29
   0  -1  -2   97.79    5.10
   0  -1  -2  107.39    4.30
   0   1   2   95.49    4.20
  -1  -1  -2  541.45   17.10
  -1  -1  -2  560.24   16.90
   1   1   2  563.34   17.50
   1   1   2  574.74   17.40
   1   1   2  573.54   14.40
  -2  -1  -2   28.20    3.70
  -2  -1  -2   30.40    3.70
  -2  -1  -2   26.50    2.70
   2   1   2   35.30    4.10
   2   1   2   28.60    2.70
  -3  -1  -2 3858.51   95.19
  -3  -1  -2 3939.11   90.99
  -3  -1  -2 3903.71   94.89
   3   1   2 4029.40   91.59
   3   1   2 3859.71   96.49
   4   1   2   91.09    7.00
   4   1   2   98.69    9.20
   5   1   2 1195.28   36.20
   5   1   2 1122.29   41.10
   6   1   2  528.65   22.40
   6   1   2  510.85   26.70
   7   1   2  736.23   35.60
   7   1   2  720.23   29.40
   8   1   2  157.58   17.20
   8   1   2  151.58   14.10
   9   1   2 1022.50   48.70
   9   1   2  967.40   39.50
  10   1   2  170.48   18.80
  10   1   2  194.98   23.40
  12  -2  -2  347.07   29.90
  12  -2  -2  304.57   27.90
  11  -2  -2  118.09   17.60
  11  -2  -2  133.29   16.70
  10  -2  -2  682.03   36.50
  10  -2  -2  726.13   35.00
   9  -2  -2   10.90    5.00
   9  -2  -2   10.10    5.60
   8  -2  -2 1395.66   47.90
   8  -2  -2 1414.86   49.90
   7  -2  -2  462.35   22.90
   7  -2  -2  452.15   21.90
   6  -2  -2 1211.18   38.50
   6  -2  -2 1167.78   38.90
   5  -2  -2 1160.78   35.30
   5  -2  -2 1156.08   35.50
  -5   2   2 1098.89   34.50
   4  -2  -2  897.81   28.10
   4  -2  -2  955.40   28.30
  -4   2   2  894.31   27.90
  -4   2   2  953.60   28.10
   3  -2  -2 1156.68   30.50
   3  -2  -2 1129.09   30.90
  -3   2   2 1113.79   30.80
  -3   2   2 1138.29   30.30
   2  -2  -2 5580.84  124.69
   2  -2  -2 5652.73  124.09
  -2   2   2 5552.84  124.09
  -2   2   2 5527.55  124.69
   1  -2  -2 3298.27   76.69
   1  -2  -2 3399.36   74.59
   1  -2  -2 3326.47   74.79
  -1   2   2 3377.26   74.69
  -1   2   2 3333.97   76.79
  -1   2   2 3332.27   74.89
   0  -2  -2  147.79    6.40
   0  -2  -2  144.69    7.10
   0   2   2  152.88    7.30
   0   2   2  148.59    4.80
   0   2   2  141.19    6.40
   0   2   2  132.59    4.50
  -1  -2  -2  209.88    6.70
  -1  -2  -2  205.28    9.20
  -1  -2  -2  193.98    9.00
   1   2   2  197.88   10.70
   1   2   2  200.28    9.40
   1   2   2  199.98    6.80
  -2  -2  -2    6.60    1.60
  -2  -2  -2   11.90    3.20
  -2  -2  -2    5.10    1.90
   2   2   2    2.50    1.80
   2   2   2    6.30    1.90
   2   2   2    4.50    1.50
  -3  -2  -2 1718.43   47.50
  -3  -2  -2 1714.43   43.30
   3   2   2 1736.63   44.40
   3   2   2 1694.43   49.70
   4   2   2  254.27   12.20
   4   2   2  236.08   15.10
   5   2   2 1403.86   49.10
   5   2   2 1476.45   42.90
   6   2   2  771.92   35.60
   6   2   2  822.32   30.00
   7   2   2  260.27   16.40
   7   2   2  200.18   18.20
   8   2   2  383.66   22.20
   8   2   2  433.46   29.20
   9   2   2  333.97   22.40
   9   2   2  341.97   28.80
  10   2   2  503.85   29.90
  10   2   2  536.45   38.30
  12  -3  -2  643.44   39.00
  12  -3  -2  576.74   35.30
  11  -3  -2  134.49   17.40
  11  -3  -2  166.98   19.40
  10  -3  -2  634.74   33.90
  10  -3  -2  604.94   45.60
   9  -3  -2  182.08   16.40
   9  -3  -2  137.89   14.00
   8  -3  -2  638.44   29.10
   8  -3  -2  572.34   27.00
   7  -3  -2 1115.39   39.70
   7  -3  -2 1162.48   39.50
   6  -3  -2  357.96   17.60
   6  -3  -2  379.66   18.40
   5  -3  -2 4132.09  100.89
   5  -3  -2 4130.99  100.69
  -5   3   2 4123.59  100.59
   4  -3  -2  380.96   15.40
   4  -3  -2  374.66   14.90
  -4   3   2  364.56   14.80
  -4   3   2  367.46   15.20
   3  -3  -2 3285.17   77.89
   3  -3  -2 3445.86   80.69
  -3   3   2 3203.58   77.79
  -3   3   2 3183.68   77.39
   2  -3  -2   22.80    2.60
  -2   3   2   32.00    4.00
  -2   3   2   24.20    2.90
  -2   3   2   24.10    2.30
  -2   3   2   23.60    2.70
   1  -3  -2 5360.16  124.29
   1  -3  -2 5650.13  123.59
   1  -3  -2 5532.15  125.49
  -1   3   2 5699.33  125.69
  -1   3   2 5580.64  124.79
  -1   3   2 5557.44  123.39
   0  -3  -2  118.49    6.50
   0  -3  -2  117.59    6.70
   0   3   2  115.69    6.80
   0   3   2  111.59    4.80
   0   3   2  114.19    5.10
   0   3   2  111.69    6.60
  -1  -3  -2 3332.07   76.89
  -1  -3  -2 3184.28   72.19
  -1  -3  -2 3210.58   77.19
   1   3   2 3107.29   72.29
   1   3   2 3087.99   76.29
   1   3   2 3115.69   77.49
  -2  -3  -2 1188.88   30.80
   2   3   2 1222.38   37.10
   2   3   2 1193.18   35.30
   2   3   2 1191.18   35.50
  -3  -3  -2 3682.63   86.49
   3   3   2 3674.73   95.09
   3   3   2 3722.53   87.89
   4   3   2  206.28   11.40
   5   3   2  557.84   22.30
   5   3   2  536.15   27.70
   6   3   2  532.85   26.90
   6   3   2  526.45   29.40
   7   3   2  267.97   17.00
   7   3   2  240.88   21.20
   8   3   2  598.14   35.60
   8   3   2  534.85   27.10
   9   3   2   96.79   17.70
   9   3   2   75.89   14.40
  12  -4  -2  204.08   21.70
  12  -4  -2  246.18   25.60
  11  -4  -2  257.77   22.60
  11  -4  -2  257.57   21.50
  10  -4  -2  399.46   26.00
  10  -4  -2  393.46   36.80
   9  -4  -2  440.46   25.40
   9  -4  -2  436.96   24.80
   8  -4  -2   79.69   10.00
   8  -4  -2   68.59    9.10
   7  -4  -2 1160.38   39.10
   7  -4  -2 1062.79   38.60
   6  -4  -2   14.20    4.00
   6  -4  -2   14.30    4.10
   5  -4  -2 4397.56  106.89
   5  -4  -2 4543.85  107.39
  -5   4   2 4263.87  106.69
   4  -4  -2   55.99    5.50
   4  -4  -2   53.19    5.50
  -4   4   2   54.99    5.70
  -4   4   2   51.19    5.50
   3  -4  -2 3820.22   89.19
  -3   4   2 3687.43   89.09
  -3   4   2 3811.62   87.49
  -3   4   2 3793.22   89.99
   2  -4  -2  269.27   10.40
   2  -4  -2  250.77   10.20
  -2   4   2  256.77   10.30
  -2   4   2  248.98   10.70
  -2   4   2  265.37   10.20
   1  -4  -2 3298.47   81.39
   1  -4  -2 3511.25   81.89
   1  -4  -2 3551.94   80.69
  -1   4   2 3543.15   82.19
  -1   4   2 3492.35   79.99
  -1   4   2 3486.55   82.09
   0  -4  -2   38.40    4.20
   0  -4  -2   29.40    4.70
   0   4   2   30.50    2.80
   0   4   2   37.90    4.30
   0   4   2   32.10    3.90
   0   4   2   34.00    3.30
  -1  -4  -2 4612.44  109.59
  -1  -4  -2 4757.82  108.69
   1   4   2 4539.95  108.39
   1   4   2 4694.13  105.79
   1   4   2 4524.15  110.69
   1   4   2 4529.55  105.09
  -2  -4  -2 1197.58   36.10
  -2  -4  -2 1215.58   32.30
   2   4   2 1268.07   39.60
   2   4   2 1235.78   36.70
   2   4   2 1176.08   32.80
  -3  -4  -2 2009.80   52.49
   3   4   2 2173.68   62.49
   3   4   2 2125.19   54.29
   4   4   2  881.31   29.10
   4   4   2  876.51   35.90
   5   4   2  730.33   34.20
   5   4   2  713.33   26.90
   6   4   2  651.23   26.70
   6   4   2  595.74   33.40
   7   4   2  245.38   22.80
   7   4   2  226.28   16.20
   8   4   2 1298.07   57.19
   8   4   2 1173.78   44.20
   9   4   2  102.59   17.40
   9   4   2  103.59   19.80
  12  -5  -2  103.19   18.30
  12  -5  -2  152.98   18.50
  11  -5  -2  412.06   27.60
  11  -5  -2  365.86   25.30
  10  -5  -2  433.16   26.80
  10  -5  -2  442.36   26.90
   9  -5  -2  686.03   31.40
   9  -5  -2  638.04   31.10
   8  -5  -2  161.18   13.10
   8  -5  -2  143.89   12.80
   7  -5  -2 1045.00   37.50
   7  -5  -2 1095.89   38.30
   6  -5  -2   68.49    7.70
   6  -5  -2   75.89    8.00
   5  -5  -2 2142.69   58.99
   5  -5  -2 2209.08   59.29
   4  -5  -2  243.78   12.10
  -4   5   2  207.68   10.30
   3  -5  -2 1783.12   46.40
  -3   5   2 1725.63   45.10
  -3   5   2 1800.82   46.90
  -3   5   2 1736.23   46.30
  -3   5   2 1722.13   47.90
   2  -5  -2 1045.90   29.70
   2  -5  -2 1021.10   29.70
  -2   5   2 1036.10   29.50
  -2   5   2 1068.79   30.30
  -2   5   2 1064.29   30.00
   1  -5  -2 3265.27   76.89
   1  -5  -2 3191.78   76.79
   1  -5  -2 3055.59   77.29
  -1   5   2 3167.58   75.69
  -1   5   2 3280.47   77.69
  -1   5   2 3269.47   78.59
   0  -5  -2  938.61   27.30
   0   5   2  861.71   24.70
   0   5   2  878.21   29.00
   0   5   2  905.01   25.60
   0   5   2  891.31   27.40
  -1  -5  -2 3004.70   77.89
   1   5   2 3081.69   78.89
   1   5   2 3029.00   72.59
   1   5   2 2929.71   71.39
   1   5   2 3023.00   75.19
  -2  -5  -2 1130.49   35.20
   2   5   2 1135.39   32.40
   2   5   2 1144.09   35.70
   2   5   2 1186.78   39.50
   2   5   2 1145.19   33.50
  -3  -5  -2  422.66   16.60
   3   5   2  470.65   18.10
   3   5   2  454.65   23.20
   4   5   2  601.24   30.20
   4   5   2  635.84   23.40
   5   5   2  193.38   13.10
   5   5   2  198.28   18.10
   6   5   2  518.95   23.90
   6   5   2  493.45   32.20
   7   5   2   17.30    8.00
   7   5   2   24.20    9.70
   8   5   2  611.34   39.40
   8   5   2  589.54   29.40
  12  -6  -2  125.29   19.50
  12  -6  -2  125.69   18.00
  11  -6  -2  554.14   32.10
  11  -6  -2  496.55   30.10
  10  -6  -2   96.29   13.00
  10  -6  -2  109.19   13.50
   9  -6  -2  725.33   33.20
   9  -6  -2  654.63   31.60
   8  -6  -2   46.90    8.10
   8  -6  -2   46.60    8.40
   7  -6  -2  740.43   41.20
   7  -6  -2  835.92   32.00
   6  -6  -2   99.19   11.00
   6  -6  -2   79.89    8.40
   5  -6  -2 2655.83   69.09
  -5   6   2 2530.15   65.99
   4  -6  -2   50.09    5.70
  -4   6   2   34.10    4.40
   3  -6  -2  225.58   11.50
  -3   6   2  222.78   11.50
  -3   6   2  228.78   12.00
  -3   6   2  246.48   11.70
   2  -6  -2   66.79    6.10
  -2   6   2   70.89    6.00
  -2   6   2   71.79    6.30
  -2   6   2   73.79    6.40
   1  -6  -2 1067.19   31.50
  -1   6   2 1049.00   32.90
  -1   6   2 1027.00   31.10
  -1   6   2 1025.10   29.40
   0   6   2  385.56   18.00
   0   6   2  377.46   14.10
   0   6   2  364.76   15.50
  -1  -6  -2  137.69    9.50
   1   6   2  153.28   11.70
   1   6   2  156.28    8.60
   1   6   2  153.98    9.20
   1   6   2  160.58   10.00
   2   6   2 1118.69   33.70
   2   6   2 1114.59   39.90
   2   6   2 1101.89   32.70
   3   6   2   98.09    8.40
   3   6   2  109.09   12.00
   4   6   2  646.04   24.50
   4   6   2  613.54   31.90
   5   6   2  199.68   19.50
   5   6   2  174.68   13.10
   6   6   2  512.25   24.50
   6   6   2  558.44   34.10
   7   6   2   15.30   10.00
   7   6   2   -8.70    7.40
  12  -7  -2   54.39   13.50
  12  -7  -2   52.39   13.10
  11  -7  -2  745.73   37.00
  11  -7  -2  757.12   38.60
  10  -7  -2  101.79   13.10
  10  -7  -2   72.09   13.10
   9  -7  -2  789.72   35.20
   9  -7  -2  782.72   34.60
   8  -7  -2    8.90    4.40
   8  -7  -2    7.20    4.70
   7  -7  -2  626.24   27.30
  -7   7   2  635.14   25.20
   6  -7  -2  403.46   20.10
  -6   7   2  413.46   18.20
   5  -7  -2 1376.56   42.40
  -5   7   2 1333.27   40.00
   4  -7  -2  401.26   18.00
  -4   7   2  425.16   18.10
  -4   7   2  397.86   17.10
   3  -7  -2 1156.88   35.30
  -3   7   2 1148.29   34.50
  -3   7   2 1111.09   34.70
   2  -7  -2  767.62   26.20
  -2   7   2  743.93   26.70
  -2   7   2  744.43   25.30
  -1   7   2  364.46   17.90
  -1   7   2  386.66   16.00
  -1   7   2  392.56   16.40
  -1   7   2  394.06   15.30
   0  -7  -2 1737.33   46.90
   0   7   2 1675.23   46.30
   0   7   2 1677.43   45.50
   0   7   2 1801.82   47.90
   0   7   2 1756.72   67.79
  -1  -7  -2  194.78   11.80
   1   7   2  206.58   10.90
   1   7   2  191.28   11.60
   1   7   2  218.08   15.20
   2   7   2  519.75   26.30
   2   7   2  534.75   20.20
   3   7   2   35.40    6.40
   3   7   2   32.70    8.80
   4   7   2  779.62   32.10
   4   7   2  798.92   38.70
   5   7   2    4.40    5.40
   5   7   2   12.50    7.50
   6   7   2  293.47   26.60
   6   7   2  265.77   19.00
   7   7   2  183.28   24.00
   7   7   2  180.98   19.10
  12  -8  -2    4.10   10.20
  12  -8  -2    9.90    8.90
  11  -8  -2  486.55   29.00
  11  -8  -2  391.66   27.50
  10  -8  -2   24.20    8.80
  10  -8  -2   24.10    8.20
   9  -8  -2  968.20   40.10
  -9   8   2  966.10   37.10
   8  -8  -2  291.67   19.40
  -8   8   2  331.07   18.20
   7  -8  -2  830.12   33.20
  -7   8   2  816.02   30.40
   6  -8  -2  373.96   19.60
  -6   8   2  391.96   18.40
   5  -8  -2  504.85   22.50
  -5   8   2  620.64   30.80
  -5   8   2  477.25   21.70
   4  -8  -2  236.58   14.00
  -4   8   2  194.88   12.40
  -4   8   2  226.58   12.90
   3  -8  -2  319.27   16.10
  -3   8   2  309.47   16.00
  -3   8   2  300.67   14.70
   2  -8  -2 1152.98   36.90
  -2   8   2 1143.89   35.00
  -1   8   2   22.00    4.80
  -1   8   2   27.60    5.10
  -1   8   2   43.80    6.80
   0  -8  -2 1417.26   41.30
   0   8   2 1400.86   41.60
   0   8   2 1513.05   48.50
   0   8   2 1492.75   41.30
   1   8   2   31.30    7.20
   1   8   2   26.40    5.50
   1   8   2   24.20    5.00
   2   8   2  731.73   26.10
   2   8   2  751.72   34.40
   3   8   2   -6.60    4.90
   3   8   2   -0.70    3.90
   4   8   2  668.73   36.20
   4   8   2  595.94   25.30
   5   8   2   59.99   12.00
   5   8   2   92.19   16.30
   6   8   2  445.56   48.20
   6   8   2  243.68   20.30
  12  -9  -2   -1.50    8.30
 -12   9   2    2.40    8.80
  11  -9  -2  255.47   22.20
 -11   9   2  261.77   20.20
  10  -9  -2   -0.70    5.70
 -10   9   2    5.00    5.40
   9  -9  -2  513.65   28.30
  -9   9   2  509.95   25.30
   8  -9  -2  199.88   16.40
  -8   9   2  215.88   15.10
   7  -9  -2  267.37   17.80
  -7   9   2  258.77   15.90
   6  -9  -2  804.22   32.00
  -6   9   2  805.52   30.10
  -6   9   2  788.82   31.50
   5  -9  -2  680.73   28.20
  -5   9   2  682.53   26.90
  -5   9   2  704.53   27.20
   4  -9  -2  440.96   20.80
  -4   9   2  420.26   19.20
  -4   9   2  427.36   20.40
   3  -9  -2  298.77   16.70
  -3   9   2  330.87   17.90
  -3   9   2  302.47   15.60
  -2   9   2 1256.27   38.40
  -2   9   2 1315.77   43.20
  -2   9   2 1239.88   38.00
  -1   9   2    5.90    3.00
  -1   9   2    5.40    3.30
  -1   9   2    4.50    4.20
   0   9   2  763.92   33.00
   0   9   2  754.12   26.10
   0   9   2  745.73   26.30
   1   9   2   11.10    4.20
   1   9   2   16.50    6.50
   2   9   2  520.95   29.40
   3   9   2  139.09   17.50
   3   9   2  163.98   13.20
   4   9   2  487.95   23.20
   4   9   2  486.65   32.40
   5   9   2  273.87   31.50
   5   9   2  235.88   25.80
  11 -10  -2  375.96   27.40
 -11  10   2  341.57   23.20
  10 -10  -2  159.98   17.40
 -10  10   2  160.88   15.70
   9 -10  -2  325.87   22.70
  -9  10   2  355.66   21.00
   8 -10  -2  179.18   16.30
  -8  10   2  191.98   14.90
   7 -10  -2  174.68   15.20
  -7  10   2  179.18   13.60
  -7  10   2  152.78   14.00
   6 -10  -2  442.86   23.40
  -6  10   2  438.96   22.00
  -6  10   2  430.86   22.00
   5 -10  -2   61.09    8.80
  -5  10   2   63.79    8.40
  -5  10   2   77.89    9.40
   4 -10  -2  722.03   29.70
  -4  10   2  640.74   26.00
  -4  10   2  697.63   29.10
   3 -10  -2   22.30    6.20
  -3  10   2   31.20    7.40
  -3  10   2   26.60    5.90
  -2  10   2  310.77   15.70
  -2  10   2  374.26   17.20
  -2  10   2  359.86   21.10
  -1  10   2   59.99    7.00
  -1  10   2   60.89    7.70
  -1  10   2   48.00   10.60
   0  10   2  700.03   26.10
   0  10   2  748.73   26.00
   0  10   2  726.73   33.90
   1  10   2    0.00    6.10
   1  10   2    2.00    4.40
   2  10   2   90.69   15.10
   2  10   2   97.89   10.90
   3  10   2  114.19   13.50
   3  10   2  116.79   16.90
   4  10   2  185.48   24.00
  11 -11  -2   89.49   17.50
 -11  11   2   81.49   14.70
  10 -11  -2  339.07   25.50
 -10  11   2  328.97   22.00
   9 -11  -2   26.70    8.20
  -9  11   2   24.90    9.30
  -9  11   2   30.20    8.70
   8 -11  -2  378.56   24.10
  -8  11   2  360.96   22.10
  -8  11   2  387.46   23.40
   7 -11  -2  100.69   13.10
  -7  11   2   97.39   11.40
  -7  11   2   90.29   12.40
   6 -11  -2  581.64   28.70
  -6  11   2  573.24   26.50
  -6  11   2  639.34   28.30
   5 -11  -2   32.90    8.20
  -5  11   2   24.50    5.80
  -5  11   2   17.30    5.80
   4 -11  -2  754.32   31.90
  -4  11   2  716.03   31.50
  -4  11   2  686.23   27.60
  -3  11   2    0.80    4.60
  -3  11   2   -4.40    3.80
  -3  11   2   -5.50    3.60
  -2  11   2  307.17   16.30
  -2  11   2  280.87   19.80
  -2  11   2  262.07   14.50
  -1  11   2   49.10    8.40
  -1  11   2   72.19    8.10
  -1  11   2   84.39   14.90
   0  11   2  526.05   22.90
   0  11   2  579.14   31.90
   1  11   2   93.39   15.80
   1  11   2  122.49   11.70
   2  11   2  243.28   23.30
   2  11   2  211.88   16.30
   3  11   2  151.68   32.10
  10 -12  -2  296.47   25.80
 -10  12   2  310.37   25.80
 -10  12   2  343.97   23.30
   9 -12  -2    3.60    7.60
  -9  12   2   -2.50    6.00
  -9  12   2   11.00    8.50
   8 -12  -2  498.25   29.10
  -8  12   2  476.95   32.00
  -8  12   2  517.55   27.20
   7 -12  -2    5.60    6.90
  -7  12   2   -5.10    5.00
  -7  12   2    0.80    5.80
   6 -12  -2  576.04   31.00
  -6  12   2  597.84   27.10
  -6  12   2  641.34   34.60
   5 -12  -2   77.59   12.30
  -5  12   2   74.39   21.00
  -5  12   2   63.29    9.60
  -4  12   2  567.04   25.30
  -4  12   2  525.55   24.50
  -4  12   2  584.34   37.30
  -3  12   2  136.59   12.70
  -3  12   2  155.88   16.10
  -3  12   2  132.99   11.00
  -2  12   2  330.27   22.90
  -2  12   2  312.57   15.20
  -2  12   2  280.57   17.10
  -1  12   2  194.58   18.90
  -1  12   2  177.68   14.20
   0  12   2  225.38   21.40
   0  12   2  242.58   16.60
   1  12   2  198.08   17.20
   1  12   2  201.78   20.60
   9 -13  -2   -2.20    8.70
  -9  13   2   -1.40    7.60
  -9  13   2   10.50    9.40
   8 -13  -2  392.66   27.50
  -8  13   2  369.36   24.40
  -8  13   2  405.36   25.50
   7 -13  -2    9.50    8.00
  -7  13   2    7.00    7.40
  -7  13   2   11.80    6.80
   6 -13  -2  286.67   22.00
  -6  13   2  282.57   21.20
  -6  13   2  270.87   18.90
   5 -13  -2   73.29   14.00
  -5  13   2   77.29   12.00
  -5  13   2   57.69   11.90
  -5  13   2   70.39   12.20
  -4  13   2  282.87   18.80
  -4  13   2  320.47   22.80
  -4  13   2  299.87   21.40
  -3  13   2  106.59   13.10
  -3  13   2   97.89   15.50
  -2  13   2  177.78   19.20
  -2  13   2  155.08   15.00
  -1  13   2  238.68   17.80
  -1  13   2  221.98   22.20
   0  13   2  123.39   27.50
   7 -14  -2   15.90    9.90
  -7  14   2    8.80    8.80
   6 -14  -2  122.19   18.60
  -6  14   2  141.79   17.90
  -6  14   2  152.08   16.90
  -5  14   2   76.29   14.30
  -5  14   2   79.79   15.60
  -4  14   2  154.88   19.30
  -4  14   2  125.59   16.30
  -3  14   2  134.69   16.60
  -3  14   2  164.48   19.80
  -2  14  -3   38.10   10.10
  -3  14  -3  161.88   16.80
  -3  14  -3  126.19   18.20
  -4  14  -3   20.90    8.70
  -4  14  -3   10.60    8.40
  -5  14  -3  207.18   20.50
  -5  14  -3  225.78   19.90
  -6  14  -3   51.59   11.90
   6 -14   3   57.49   13.30
  -7  14  -3  131.79   18.00
   7 -14   3   92.99   19.70
   1  13  -3  222.68   24.50
   1  13  -3  247.88   20.80
   0  13  -3   39.80    9.60
   0  13  -3   51.19   12.70
  -1  13  -3  273.77   23.00
  -1  13  -3  254.27   19.70
  -2  13  -3   65.69   11.70
  -2  13  -3   68.49   13.60
  -3  13  -3  304.37   20.80
  -3  13  -3  376.06   25.60
  -4  13  -3    5.70    6.10
  -4  13  -3   13.60    7.20
  -5  13  -3  355.06   24.80
   5 -13   3  402.16   27.60
  -6  13  -3    0.40    6.20
  -6  13  -3   -9.10    9.00
   6 -13   3    2.50    7.70
  -7  13  -3  247.28   20.70
  -7  13  -3  218.88   16.90
   7 -13   3  234.38   23.60
  -8  13  -3   41.20   10.40
  -8  13  -3   36.30   11.30
   8 -13   3   52.19   13.30
   2  12  -3  121.19   15.70
   2  12  -3  143.69   19.80
   1  12  -3  134.79   17.60
   1  12  -3  150.18   15.20
   0  12  -3   21.60    8.80
   0  12  -3   21.50    9.00
  -1  12  -3  372.46   22.20
  -1  12  -3  369.66   25.10
  -2  12  -3    3.20    5.20
  -2  12  -3    8.30    5.80
  -3  12  -3  390.06   24.70
  -3  12  -3  383.16   22.30
  -4  12  -3    9.00    3.70
  -4  12  -3   14.50    7.30
   4 -12   3    6.00    7.10
  -5  12  -3  357.16   22.40
  -5  12  -3  301.47   15.20
   5 -12   3  298.97   22.70
  -6  12  -3   89.29   13.00
  -6  12  -3   75.19    9.60
   6 -12   3   83.99   14.20
  -7  12  -3  246.18   19.80
  -7  12  -3  250.67   17.80
   7 -12   3  262.47   22.00
  -8  12  -3  259.87   20.80
   8 -12   3  271.77   23.20
  -9  12  -3  336.77   24.10
   9 -12   3  308.57   25.40
   4  11  -3   41.90   13.10
   4  11  -3   39.60   11.30
   3  11  -3  289.57   21.30
   3  11  -3  321.37   25.70
   2  11  -3   -6.90    6.70
   2  11  -3    0.80    6.30
   1  11  -3  502.95   29.50
   1  11  -3  488.75   25.20
   0  11  -3    8.30    5.40
   0  11  -3   22.90    7.60
  -1  11  -3  819.82   32.80
  -1  11  -3  779.82   36.00
  -2  11  -3   16.40    7.10
  -2  11  -3   18.30    5.70
  -3  11  -3  358.96   11.80
  -3  11  -3  389.86   12.00
  -3  11  -3  408.76   22.00
  -3  11  -3  425.46   23.60
  -4  11  -3   14.50    3.90
  -4  11  -3   22.50    6.50
   4 -11   3   24.90    8.10
  -5  11  -3  445.56   24.50
  -5  11  -3  468.45   19.60
   5 -11   3  472.75   27.00
  -7  11  -3  210.18   17.70
   7 -11   3  248.38   20.00
  -8  11  -3  651.03   32.10
   8 -11   3  589.64   32.90
  -9  11  -3   92.09   14.00
   9 -11   3   76.89   15.20
 -10  11  -3  157.48   18.20
   5  10  -3  454.05   27.60
   5  10  -3  599.74   54.79
   4  10  -3   23.20   10.20
   4  10  -3   37.30    9.80
   3  10  -3  471.25   29.90
   3  10  -3  431.56   23.80
   2  10  -3   24.00    7.00
   2  10  -3   32.30    9.20
   1  10  -3  427.76   25.30
   1  10  -3  417.76   22.00
   0  10  -3   49.00    9.60
   0  10  -3   52.19    8.30
  -1  10  -3  855.91   32.70
  -1  10  -3  842.22   35.30
  -2  10  -3  198.08   14.30
  -2  10  -3  183.68   15.00
  -3  10  -3  358.56   20.40
  -3  10  -3  336.17   12.90
   3 -10   3  369.16   21.60
  -4  10  -3  540.35   19.70
  -4  10  -3  576.24   26.20
   4 -10   3  513.85   26.90
  -5  10  -3  519.15   24.90
   5 -10   3  481.05   25.90
  -6  10  -3  457.15   24.00
   6 -10   3  407.86   24.50
  -7  10  -3  306.37   19.70
   7 -10   3  333.77   26.60
  -8  10  -3  375.46   23.10
   8 -10   3  374.16   24.50
  -9  10  -3   33.60    9.20
   9 -10   3   19.00    8.20
 -10  10  -3  225.08   20.60
  10 -10   3  218.88   21.20
   6   9  -3    3.10   10.80
   6   9  -3    4.10    8.70
   5   9  -3  490.65   32.40
   5   9  -3  488.75   26.90
   4   9  -3   33.40   10.50
   4   9  -3   11.50    6.50
   3   9  -3  975.60   37.70
   2   9  -3   27.50    6.40
   2   9  -3    7.50    5.70
   1   9  -3  532.05   27.10
   1   9  -3  508.85   23.60
   0   9  -3  552.74   26.30
   0   9  -3  508.45   23.30
  -1   9  -3 1004.90   35.00
  -1   9  -3  989.60   37.20
  -2   9  -3  457.35   21.30
  -2   9  -3  440.46   21.90
  -2   9  -3  416.56   12.70
   2  -9   3  441.56   22.90
  -3   9  -3  952.10   28.10
  -3   9  -3 1063.79   36.80
   3  -9   3 1035.00   38.40
  -4   9  -3  962.30   35.00
   4  -9   3  974.60   37.10
  -5   9  -3  245.38   15.70
   5  -9   3  222.08   16.00
  -6   9  -3 1125.19   40.30
   6  -9   3 1113.89   42.30
  -7   9  -3   69.49   10.00
   7  -9   3   62.29   10.00
  -8   9  -3  916.81   38.20
   8  -9   3  837.62   41.50
  -9   9  -3    3.40    5.70
   9  -9   3   -5.80    5.70
 -10   9  -3  973.20   42.50
  10  -9   3  972.00   46.50
  10  -9   3  972.60   43.70
  11  -9   3   -1.20    9.60
   7   8  -3  638.24   34.00
   6   8  -3    7.60    6.70
   6   8  -3   -7.30    7.40
   5   8  -3  606.34   35.10
   5   8  -3  628.24   29.80
   4   8  -3   -1.20    4.20
   4   8  -3    6.20    5.90
   3   8  -3  416.16   25.00
   3   8  -3  462.95   22.90
   2   8  -3  272.67   16.00
   2   8  -3  241.08   17.40
   1   8  -3  570.24   24.10
   1   8  -3  552.04   26.30
   0   8  -3 1210.18   42.20
   0   8  -3 1327.07   40.90
  -1   8  -3  494.15   22.60
  -2   8  -3 1577.74   39.80
  -2   8  -3 1675.83   49.50
   2  -8   3 1669.43   52.09
  -3   8  -3  811.52   29.70
   3  -8   3  794.92   31.20
  -4   8  -3 1516.95   46.80
   4  -8   3 1530.55   48.80
  -5   8  -3   30.80    5.80
   5  -8   3   20.80    5.10
  -6   8  -3 1467.05   47.40
   6  -8   3 1458.65   49.00
  -7   8  -3    2.90    3.90
   7  -8   3    2.30    5.00
   8  -8   3  937.91   41.00
   8  -8   3  889.51   38.00
   9  -8   3   13.50    7.50
   9  -8   3   18.70    8.10
  10  -8   3  611.24   33.00
  10  -8   3  557.34   34.40
  11  -8   3   93.29   18.20
  11  -8   3   92.59   15.70
   8   7  -3    3.30   10.20
   8   7  -3   13.70   10.70
   7   7  -3  510.15   34.80
   7   7  -3  569.64   30.00
   6   7  -3   81.39   12.10
   6   7  -3   91.39   15.80
   5   7  -3  966.20   43.20
   5   7  -3  911.51   36.80
   4   7  -3   37.80    7.90
   4   7  -3   56.09   11.90
  -4  -7   3   40.80    6.50
   3   7  -3  720.43   29.20
   3   7  -3  803.52   34.20
  -3  -7   3  750.02   20.90
   2   7  -3  378.06   20.80
   1   7  -3  617.74   26.40
   1   7  -3  622.24   24.30
   0   7  -3  602.54   23.30
  -1   7  -3  999.70   31.90
  -1   7  -3  936.51   32.00
  -1   7  -3  929.51   21.50
  -1   7  -3  907.81   21.40
  -2   7  -3  395.86   13.00
  -2   7  -3  420.26   18.30
   2  -7   3  389.76   19.20
  -3   7  -3    9.00    3.40
   3  -7   3    8.10    3.50
  -5   7  -3   87.59    8.70
   5  -7   3   77.89    8.80
   6  -7   3 1550.44   51.99
   6  -7   3 1509.35   49.20
   7  -7   3    9.00    4.60
   7  -7   3   13.00    6.20
   8  -7   3 1162.68   43.90
   8  -7   3 1122.89   46.10
   9  -7   3  129.19   15.00
   9  -7   3  119.79   15.70
  10  -7   3  389.96   28.30
  10  -7   3  335.47   23.80
  11  -7   3  145.49   18.20
  11  -7   3  155.88   21.10
   8   6  -3   34.70   10.80
   8   6  -3   45.50   12.20
   7   6  -3  343.47   27.60
   7   6  -3  321.67   22.30
   6   6  -3   77.69   13.30
   6   6  -3   73.89   11.70
   5   6  -3  463.85   27.20
   5   6  -3  425.16   22.40
   4   6  -3  355.86   21.90
   4   6  -3  391.86   19.70
   3   6  -3  857.51   33.70
   3   6  -3  814.72   30.10
  -3  -6   3  772.82   23.10
   2   6  -3  798.42   36.80
   2   6  -3  757.42   27.50
   1   6  -3  201.78   11.70
   1   6  -3  203.78   12.80
   0   6  -3 1291.27   38.00
   0   6  -3 1260.67   39.00
  -1   6  -3  414.36   11.00
  -1   6  -3  400.36   17.10
   1  -6   3  396.06   18.50
  -2   6  -3 1432.26   41.00
   2  -6   3 1415.16   42.60
  -3   6  -3   13.60    3.90
   3  -6   3    9.80    3.20
  -4   6  -3  740.93   26.80
   4  -6   3  774.92   28.00
   5  -6   3  315.27   19.70
   6  -6   3 1054.39   39.80
   6  -6   3 1043.10   37.30
   7  -6   3  113.09   11.20
   7  -6   3  103.69   12.20
   8  -6   3  185.08   17.00
   8  -6   3  172.78   14.90
   9  -6   3  687.83   32.40
   9  -6   3  643.24   36.40
  10  -6   3  234.38   22.30
  10  -6   3  188.28   18.20
  11  -6   3  351.16   28.80
  11  -6   3  331.37   24.60
   9   5  -3  174.68   19.50
   9   5  -3  207.98   24.80
   8   5  -3  527.75   34.20
   8   5  -3  465.15   27.90
   7   5  -3  442.76   37.50
   7   5  -3  432.66   25.10
   6   5  -3  977.70   42.70
   6   5  -3  969.60   38.10
   5   5  -3  478.25   26.00
   5   5  -3  465.05   22.90
   4   5  -3  985.30   38.00
   4   5  -3  986.60   38.70
  -4  -5   3 1027.90   30.60
   3   5  -3  231.38   15.00
   3   5  -3  242.28   13.70
  -3  -5   3  238.38   10.10
   2   5  -3 1572.94   44.10
   2   5  -3 1477.45   45.80
  -2  -5   3 1519.15   36.30
   1   5  -3    4.20    2.10
   1   5  -3    3.60    2.50
   0   5  -3 2126.19   55.09
   0   5  -3 1988.30   55.29
   0   5  -3 2135.79   54.69
  -1   5  -3  950.40   30.90
   1  -5   3 1059.29   32.30
   1  -5   3 1011.80   30.10
  -2   5  -3 1684.53   44.50
  -2   5  -3 1574.14   51.79
  -2   5  -3 1606.64   45.60
   2  -5   3 1715.63   46.20
  -3   5  -3   90.89    7.10
   3  -5   3   87.89    7.40
   4  -5   3  898.61   30.30
   4  -5   3  924.31   32.40
   5  -5   3 1107.29   36.60
   5  -5   3 1144.69   39.50
   6  -5   3 1043.90   39.00
   6  -5   3 1022.50   36.00
   7  -5   3  813.82   35.60
   7  -5   3  864.61   33.30
   8  -5   3  125.19   12.50
   8  -5   3   98.29   13.00
   9  -5   3  547.45   28.30
   9  -5   3  534.65   31.20
  10  -5   3  145.69   16.30
  10  -5   3  129.09   17.50
  11  -5   3  826.12   44.60
  11  -5   3  771.02   38.40
  10   4  -3  155.18   19.30
  10   4  -3  106.29   21.90
   9   4  -3   21.40   11.10
   9   4  -3   40.00   10.70
   8   4  -3  371.76   27.30
   8   4  -3  383.26   24.30
   7   4  -3  201.78   16.50
   7   4  -3  269.27   21.10
   6   4  -3 1373.36   45.70
   6   4  -3 1216.78   48.00
   5   4  -3   78.79    9.80
   5   4  -3   79.29    8.90
   4   4  -3 1473.25   44.20
   4   4  -3 1369.26   46.20
  -4  -4   3 1453.95   40.20
   3   4  -3  126.79   10.00
   3   4  -3  131.29    9.30
  -3  -4   3  117.59    6.80
   2   4  -3 2572.94   66.99
   2   4  -3 2530.15   64.99
  -2  -4   3 2497.25   63.69
  -2  -4   3 2600.54   58.59
   1   4  -3  181.68    9.60
   1   4  -3  162.88    9.50
   1   4  -3  164.78   10.10
  -1  -4   3  165.48    9.00
   0   4  -3 7643.84  172.68
   0   4  -3 7738.53  172.48
   0  -4   3 7531.45  175.18
  -1   4  -3 1495.75   39.90
  -1   4  -3 1511.15   36.30
   1  -4   3 1560.84   42.00
  -2   4  -3 2576.94   65.39
  -2   4  -3 2643.04   67.29
   2  -4   3 2650.73   65.69
  -3   4  -3  337.27   14.90
  -3   4  -3  372.06   16.90
   3  -4   3  385.06   15.60
   4  -4   3 1574.64   47.10
   4  -4   3 1563.54   44.60
   5  -4   3 2171.18   59.49
   5  -4   3 2161.78   62.79
   6  -4   3  908.11   42.90
   6  -4   3  748.83   32.40
   7  -4   3 2203.68   69.29
   7  -4   3 2205.78   64.19
   8  -4   3   52.49   10.60
   8  -4   3   60.69    9.40
   9  -4   3  673.43   31.80
   9  -4   3  704.03   36.80
  10  -4   3    9.40    7.80
  10  -4   3   10.50    6.90
  11  -4   3  778.12   37.80
  11  -4   3  778.52   44.40
  10   3  -3  477.15   34.70
  10   3  -3  489.85   30.90
   9   3  -3  166.68   19.90
   9   3  -3  173.18   17.50
   8   3  -3  583.94   29.60
   8   3  -3  558.34   32.80
   7   3  -3  251.57   17.60
   7   3  -3  248.98   19.40
   6   3  -3 1470.25   48.40
   6   3  -3 1542.85   52.79
   5   3  -3  141.39   11.00
   5   3  -3  162.38   14.10
   4   3  -3 2624.64   68.59
   4   3  -3 2558.44   70.59
   3   3  -3  492.45   20.30
   3   3  -3  547.35   19.90
  -3  -3   3  515.35   18.70
  -3  -3   3  533.55   22.30
   2   3  -3 4669.93  107.89
   2   3  -3 4679.83  108.99
  -2  -3   3 4516.15  106.59
  -2  -3   3 4535.65  107.39
   1   3  -3  223.38   10.10
   1   3  -3  225.58   10.00
  -1  -3   3  205.98    9.30
  -1  -3   3  217.48    9.70
  -1  -3   3  226.88    5.90
   0   3  -3 3998.50   85.79
   0   3  -3 3742.43   92.19
   0   3  -3 3998.30   90.69
   0   3  -3 4033.90   91.59
   0  -3   3 3876.01   90.19
  -1   3  -3 1295.27   33.50
  -1   3  -3 1293.67   31.90
  -1   3  -3 1299.57   35.50
  -1   3  -3 1255.37   34.40
   1  -3   3 1320.17   35.00
  -2   3  -3 3132.49   75.59
  -2   3  -3 2940.11   73.19
   2  -3   3 3102.39   73.59
   2  -3   3 3092.39   75.39
  -3   3  -3 1669.33   45.80
  -3   3  -3 1781.32   48.80
   3  -3   3 1769.92   48.50
   3  -3   3 1781.52   46.40
  -4   3  -3  324.57   20.30
   4  -3   3  268.17   13.20
   5  -3   3 2986.50   81.19
   5  -3   3 3015.40   77.19
   6  -3   3  700.63   27.00
   6  -3   3  685.83   30.00
   7  -3   3 1027.20   37.20
   7  -3   3 1076.69   42.30
   8  -3   3   61.29   10.80
   8  -3   3   69.99    9.40
   9  -3   3  601.94   29.70
   9  -3   3  711.53   55.29
  10  -3   3   18.70    8.80
  10  -3   3   18.70    7.60
  11  -3   3  470.95   29.30
  11  -3   3  531.05   36.20
  10   2  -3  379.16   26.30
  10   2  -3  358.46   29.00
   9   2  -3   39.80   11.30
   8   2  -3  897.91   37.70
   8   2  -3  895.51   41.00
   7   2  -3    0.60    4.30
   7   2  -3   -1.00    3.40
   6   2  -3  840.72   34.40
   6   2  -3  885.01   32.80
   5   2  -3    8.60    3.40
   5   2  -3    8.10    3.40
   4   2  -3 2448.46   64.89
   4   2  -3 2538.45   66.69
   3   2  -3  733.83   23.70
   3   2  -3  703.23   23.80
  -3  -2   3  721.63   22.70
  -3  -2   3  726.63   23.30
   2   2  -3 3218.48   78.79
   2   2  -3 3384.56   78.99
  -2  -2   3 3389.56   78.39
   1   2  -3  522.95   15.60
  -1  -2   3  472.05   14.80
  -1  -2   3  516.05   12.90
  -1  -2   3  482.25   15.30
   0   2  -3 2259.07   53.99
   0   2  -3 2246.68   52.89
   0   2  -3 2239.48   54.99
   0   2  -3 2359.16   53.19
   0  -2   3 2365.36   55.49
   0  -2   3 2157.08   52.69
   0  -2   3 2282.27   51.39
  -1   2  -3   40.70    3.80
  -1   2  -3   43.30    3.40
  -1   2  -3   38.20    3.40
   1  -2   3   40.10    3.50
   1  -2   3   44.50    3.90
  -2   2  -3 6664.13  152.78
  -2   2  -3 6689.83  151.58
  -2   2  -3 6783.52  150.48
   2  -2   3 6735.73  150.48
   2  -2   3 6635.34  152.78
  -3   2  -3 2156.78   56.99
  -3   2  -3 2200.88   57.79
  -3   2  -3 2230.48   54.99
   3  -2   3 2172.08   57.89
   3  -2   3 2182.98   54.79
  -4   2  -3  485.85   18.70
   4  -2   3  520.75   21.70
   4  -2   3  516.95   19.00
   5  -2   3  903.91   29.90
   5  -2   3  911.61   34.00
   6  -2   3  117.49   11.60
   6  -2   3  121.59   10.00
   7  -2   3  848.42   32.10
   7  -2   3  854.11   37.30
   8  -2   3   19.30    7.10
   8  -2   3   29.70    6.90
   9  -2   3  658.33   30.70
   9  -2   3  689.73   37.50
  10  -2   3  311.57   22.50
  10  -2   3  358.66   28.10
  11  -2   3  612.74   58.79
  11  -2   3  500.05   31.00
  11   1  -3  103.89   19.30
  11   1  -3   98.79   16.80
  10   1  -3  201.18   19.20
  10   1  -3  220.38   22.10
   9   1  -3   10.00    7.50
   9   1  -3   -1.50    5.60
   8   1  -3 1302.37   47.20
   8   1  -3 1354.16   50.89
   7   1  -3   56.89    9.10
   7   1  -3   61.89    8.80
   6   1  -3 1610.54   51.59
   6   1  -3 1658.03   50.69
   5   1  -3   35.30    5.20
   5   1  -3   38.30    5.90
   4   1  -3 2509.25   64.69
   4   1  -3 2499.75   65.19
  -4  -1   3 2504.95   63.59
  -4  -1   3 2566.94   63.99
   3   1  -3 1348.27   36.20
   3   1  -3 1334.97   36.50
  -3  -1   3 1274.07   35.20
  -3  -1   3 1337.27   35.30
   2   1  -3 1426.06   35.70
   2   1  -3 1441.06   36.50
  -2  -1   3 1385.66   35.80
  -2  -1   3 1426.56   35.30
   1   1  -3 2666.13   59.99
   1   1  -3 2593.84   58.79
  -1  -1   3 2642.14   58.69
  -1  -1   3 2582.54   58.29
  -1  -1   3 2421.16   59.29
   0   1  -3   85.49    4.50
   0   1  -3   72.49    3.90
   0   1  -3   69.59    4.00
   0   1  -3   74.39    3.90
   0  -1   3   82.29    4.10
   0  -1   3   71.59    4.00
  -1   1  -3 4653.73  108.39
  -1   1  -3 4852.91  108.69
  -1   1  -3 4777.22  106.79
   1  -1   3 4856.71  106.89
   1  -1   3 4843.02  108.69
   1  -1   3 4741.53  108.49
  -2   1  -3 1450.45   36.60
  -2   1  -3 1403.06   38.90
  -2   1  -3 1474.75   39.10
   2  -1   3 1513.35   36.70
  -3   1  -3 5566.84  131.99
  -3   1  -3 5720.33  129.19
  -3   1  -3 5601.14  132.59
   3  -1   3 5553.34  133.09
   3  -1   3 5844.52  129.19
  -4   1  -3    3.10    2.10
   4  -1   3    2.50    1.80
   4  -1   3    0.20    1.60
   5  -1   3 1495.35   47.80
   5  -1   3 1438.46   42.40
   6  -1   3    6.60    3.40
   6  -1   3   -0.70    2.30
   7  -1   3  746.03   29.40
   7  -1   3  690.03   33.40
   8  -1   3    4.30    4.20
   8  -1   3   -1.80    4.40
   9  -1   3  394.56   28.50
   9  -1   3  384.66   22.90
  10  -1   3  192.98   18.00
  10  -1   3  200.08   23.00
  11  -1   3  115.19   18.80
  11  -1   3  170.88   24.30
  11   0  -3    8.50    8.80
  11   0  -3   13.10    9.80
  10   0  -3  683.93   34.60
  10   0  -3  700.13   37.70
   9   0  -3   22.60    7.70
   9   0  -3   20.40    7.30
   8   0  -3  917.81   38.80
   8   0  -3  915.51   36.80
   7   0  -3  315.07   19.40
   7   0  -3  348.47   19.30
   6   0  -3 1336.87   43.50
   6   0  -3 1332.97   42.70
   5   0  -3  700.13   25.40
   5   0  -3  653.23   24.50
  -5   0   3  653.93   23.60
   4   0  -3   45.20    4.90
   4   0  -3   50.69    5.20
  -4   0   3   47.10    5.00
  -4   0   3   44.90    4.60
   3   0  -3 5185.68  116.19
   3   0  -3 5122.59  117.19
  -3   0   3 4969.60  115.09
  -3   0   3 5066.99  116.29
   2   0  -3  982.70   24.10
   2   0  -3  951.50   25.60
  -2   0   3  965.10   23.80
  -2   0   3  936.21   25.20
   1   0  -3 1419.16   33.00
   1   0  -3 1377.96   30.90
   1   0  -3 1343.07   33.70
  -1   0   3 1402.16   30.70
  -1   0   3 1404.96   34.00
  -1   0   3 1378.16   32.70
   0   0  -3  612.24   15.40
   0   0  -3  629.74   18.20
   0   0  -3  646.94   15.80
   0   0   3  620.44   16.20
   0   0   3  635.14   18.30
  -1   0  -3 3619.74   81.19
  -1   0  -3 3676.03   85.09
  -1   0  -3 3666.53   84.19
   1   0   3 3688.53   81.29
   1   0   3 3568.54   85.09
   1   0   3 3700.43   84.59
  -2   0  -3   11.90    2.80
  -2   0  -3   14.00    2.90
  -2   0  -3    9.40    2.00
   2   0   3   14.70    2.80
   2   0   3   16.40    2.20
   2   0   3   11.60    2.60
  -3   0  -3 1265.27   37.00
  -3   0  -3 1250.17   33.40
  -3   0  -3 1221.28   36.70
   3   0   3 1243.98   37.80
   3   0   3 1237.68   33.30
  -4   0  -3  298.47   13.20
   4   0   3  285.07   12.80
   5   0   3 1713.93   54.09
   5   0   3 1680.73   47.50
   6   0   3  366.66   18.00
   6   0   3  397.16   22.70
   7   0   3 1626.44   50.09
   7   0   3 1571.54   57.29
   8   0   3  136.69   13.20
   8   0   3  187.08   18.20
   9   0   3  394.06   23.30
   9   0   3  430.86   30.40
  10   0   3  212.48   19.30
  10   0   3  261.77   26.10
  12  -1  -3  410.76   34.40
  11  -1  -3   10.20    7.70
  11  -1  -3   22.60    9.30
  10  -1  -3  747.73   43.20
  10  -1  -3  724.93   35.70
   9  -1  -3  110.39   12.80
   9  -1  -3   88.39   12.10
   8  -1  -3 1867.71   60.19
   8  -1  -3 1805.12   58.09
   7  -1  -3   83.19    9.30
   7  -1  -3   78.19    9.30
   6  -1  -3 2204.58   61.79
   6  -1  -3 2158.98   61.09
   5  -1  -3  626.94   23.20
   5  -1  -3  639.04   23.30
  -5   1   3  593.04   22.00
   4  -1  -3  231.48   11.00
   4  -1  -3  245.58   11.80
  -4   1   3  229.58   11.10
  -4   1   3  248.28   11.00
   3  -1  -3  621.04   19.90
   3  -1  -3  625.74   18.60
  -3   1   3  648.74   18.50
  -3   1   3  646.84   19.70
   2  -1  -3  338.37    9.50
   2  -1  -3  340.27   11.30
  -2   1   3  330.77    9.40
  -2   1   3  324.17   10.90
   0  -1  -3  185.58    6.80
   0  -1  -3  194.38    8.60
   0   1   3  192.08    7.10
   0   1   3  180.58    8.50
  -1  -1  -3 4102.49   89.49
  -1  -1  -3 4005.50   93.59
  -1  -1  -3 4040.80   94.79
   1   1   3 4147.58   89.49
   1   1   3 4008.00   95.09
   1   1   3 4072.79   94.29
  -2  -1  -3 2753.62   68.39
  -2  -1  -3 2761.92   63.39
  -2  -1  -3 2742.83   68.09
   2   1   3 2705.73   68.99
   2   1   3 2735.23   68.99
   2   1   3 2802.72   63.69
  -3  -1  -3 3452.35   86.19
  -3  -1  -3 3445.86   86.99
  -3  -1  -3 3505.85   81.39
   3   1   3 3473.25   88.09
   3   1   3 3501.45   81.69
   4   1   3  173.38   12.70
   4   1   3  181.38    9.80
   5   1   3  914.11   36.10
   5   1   3  936.61   30.30
   6   1   3  981.70   33.50
   6   1   3  990.50   40.60
   7   1   3  542.55   24.30
   7   1   3  561.74   31.10
   8   1   3  420.46   27.80
   8   1   3  421.06   22.80
   9   1   3   49.00   10.00
   9   1   3   44.50   12.30
  10   1   3  768.72   56.49
  10   1   3  643.84   33.10
  12  -2  -3  584.74   35.70
  12  -2  -3  632.04   39.20
  11  -2  -3   51.79   12.50
  11  -2  -3   44.20   12.80
  10  -2  -3  544.75   31.80
  10  -2  -3  596.14   32.70
   9  -2  -3  410.06   24.60
   9  -2  -3  359.96   22.50
   8  -2  -3  985.50   38.20
   8  -2  -3  949.71   36.90
   7  -2  -3 1650.53   51.79
   7  -2  -3 1649.13   51.29
   6  -2  -3  617.94   24.70
   6  -2  -3  650.43   25.30
   5  -2  -3 2740.83   69.39
   5  -2  -3 2653.63   68.19
  -5   2   3 2598.34   67.39
   4  -2  -3  438.76   15.80
   4  -2  -3  457.15   17.00
  -4   2   3  438.36   15.80
  -4   2   3  414.06   16.30
   3  -2  -3 1492.05   36.90
   3  -2  -3 1469.95   38.50
  -3   2   3 1511.85   38.50
  -3   2   3 1432.26   36.80
   2  -2  -3 2926.21   66.89
  -2   2   3 2922.21   65.59
  -2   2   3 2911.21   69.29
  -2   2   3 2882.91   66.79
  -2   2   3 2819.12   64.49
   1  -2  -3 1453.65   35.00
   1  -2  -3 1493.55   34.40
   1  -2  -3 1476.65   38.10
  -1   2   3 1489.55   35.30
  -1   2   3 1495.65   38.20
  -1   2   3 1544.15   34.80
   0  -2  -3  178.98    7.50
   0  -2  -3  167.78    8.70
   0   2   3  181.08    7.70
   0   2   3  170.18    4.50
   0   2   3  163.68    4.40
  -1  -2  -3  196.18    9.30
  -1  -2  -3  193.78    6.20
  -1  -2  -3  185.88    9.80
   1   2   3  201.18    9.80
   1   2   3  201.88   10.20
   1   2   3  198.68    6.40
  -2  -2  -3  939.81   29.80
  -2  -2  -3  972.10   29.80
  -2  -2  -3  990.50   25.10
   2   2   3  999.20   31.30
   2   2   3  978.60   30.80
   2   2   3  973.20   25.60
  -3  -2  -3  864.41   24.70
   3   2   3  900.31   31.50
   3   2   3  891.91   25.70
  -4  -2  -3  545.75   18.80
   4   2   3  519.05   24.50
   4   2   3  544.35   19.50
   5   2   3 1097.49   34.30
   5   2   3 1076.19   41.50
   6   2   3  667.23   26.10
   6   2   3  659.33   32.80
   7   2   3  277.37   16.90
   7   2   3  284.87   22.40
   8   2   3  566.84   27.00
   8   2   3  567.84   34.30
   9   2   3   95.09   15.20
   9   2   3  110.29   17.70
  12  -3  -3  228.98   22.10
  12  -3  -3  179.18   21.90
  11  -3  -3  289.17   22.70
  11  -3  -3  311.37   24.70
  10  -3  -3  388.96   25.50
   9  -3  -3  490.15   26.20
   9  -3  -3  485.15   26.70
   8  -3  -3  509.95   25.00
   8  -3  -3  530.75   25.80
   7  -3  -3 1717.93   51.89
   7  -3  -3 1622.94   51.19
   6  -3  -3  256.87   14.50
   6  -3  -3  307.17   16.00
   5  -3  -3 1033.80   32.00
   5  -3  -3 1067.49   33.20
  -5   3   3 1033.20   32.00
   4  -3  -3   45.50    4.90
   4  -3  -3   43.90    4.40
  -4   3   3   36.80    4.40
  -4   3   3   41.50    4.80
   3  -3  -3 5620.24  126.59
  -3   3   3 5502.85  125.59
  -3   3   3 5535.65  123.79
  -3   3   3 5526.85  126.49
   2  -3  -3   37.10    3.20
   2  -3  -3   39.50    3.00
  -2   3   3   37.80    2.90
  -2   3   3   36.40    3.20
  -2   3   3   36.60    3.80
   1  -3  -3 7368.46  171.58
   1  -3  -3 7695.13  174.28
   1  -3  -3 7839.82  170.08
  -1   3   3 8034.80  170.28
  -1   3   3 7801.42  174.68
  -1   3   3 7838.52  172.18
   0  -3  -3  514.25   16.80
   0  -3  -3  525.75   18.20
   0   3   3  512.65   17.30
   0   3   3  498.55   13.20
   0   3   3  510.05   13.40
   0   3   3  509.95   18.20
  -1  -3  -3 3084.39   74.69
  -1  -3  -3 3023.70   75.29
  -1  -3  -3 3036.80   68.79
   1   3   3 3044.90   75.59
   1   3   3 3020.60   75.39
   1   3   3 3064.59   69.09
  -2  -3  -3  698.83   19.70
  -2  -3  -3  724.23   25.00
   2   3   3  725.93   20.50
   2   3   3  703.43   25.30
   2   3   3  715.13   26.10
  -3  -3  -3 1489.25   39.00
   3   3   3 1517.55   40.30
   3   3   3 1571.04   48.20
  -4  -3  -3  578.94   20.20
   4   3   3  618.64   28.10
   4   3   3  643.14   22.00
   5   3   3  210.98   16.70
   5   3   3  194.88   11.90
   6   3   3 1433.86   54.29
   6   3   3 1363.36   47.00
   7   3   3  104.39   15.90
   7   3   3  100.19   11.00
   8   3   3  838.42   34.30
   8   3   3  839.02   44.50
   9   3   3   12.70    9.30
   9   3   3    3.00    8.70
  12  -4  -3  117.29   16.80
  12  -4  -3  150.38   21.00
  11  -4  -3  464.75   29.50
  11  -4  -3  361.66   25.60
  10  -4  -3   50.39   10.70
   9  -4  -3 1995.10   64.09
   9  -4  -3 1949.41   63.39
   8  -4  -3   10.70    4.50
   8  -4  -3    9.50    3.50
   7  -4  -3 2127.29   62.09
   7  -4  -3 2136.69   61.59
   6  -4  -3    4.10    2.50
   6  -4  -3    8.20    3.30
   5  -4  -3 3396.46   83.29
   5  -4  -3 3406.46   84.29
  -5   4   3 3244.88   82.89
   4  -4  -3  160.48    8.80
   4  -4  -3  132.49    8.50
  -4   4   3  131.09    7.00
  -4   4   3  134.29    8.40
  -4   4   3  125.59    8.50
   3  -4  -3 2633.34   63.79
  -3   4   3 2544.45   61.69
  -3   4   3 2696.13   65.79
  -3   4   3 2611.34   63.89
  -3   4   3 2578.94   64.09
   2  -4  -3 2450.45   60.49
  -2   4   3 2606.24   60.89
  -2   4   3 2575.64   60.89
  -2   4   3 2574.04   63.29
   1  -4  -3 2924.81   72.49
   1  -4  -3 3079.09   69.49
   1  -4  -3 2891.51   70.99
  -1   4   3 3031.40   73.39
  -1   4   3 3005.50   71.79
  -1   4   3 2988.50   68.89
   0  -4  -3  358.66   14.50
   0  -4  -3  333.87   13.80
   0   4   3  333.57   10.90
   0   4   3  333.37   14.30
   0   4   3  325.97   10.50
   0   4   3  362.46   14.90
   1   4   3  376.36   16.30
   1   4   3  372.56   12.20
   1   4   3  384.16   12.80
   1   4   3  390.66   17.20
  -2  -4  -3 2603.94   62.59
   2   4   3 2649.43   69.89
   2   4   3 2704.23   72.19
   2   4   3 2646.84   63.49
   3   4   3  894.71   27.10
   3   4   3  902.01   39.10
   4   4   3  486.85   19.30
   4   4   3  512.95   26.40
   5   4   3  110.09    9.40
   5   4   3  100.89   12.80
   6   4   3  711.03   27.80
   6   4   3  719.83   37.10
   7   4   3   24.70    8.40
   7   4   3   39.10    8.50
   8   4   3  588.74   38.10
   8   4   3  518.05   27.30
  12  -5  -3  126.99   18.50
  12  -5  -3  111.49   17.30
  11  -5  -3  615.54   34.10
  11  -5  -3  629.24   33.80
  10  -5  -3  114.29   16.30
  10  -5  -3  117.79   14.10
   9  -5  -3 1189.58   44.10
   9  -5  -3 1126.29   43.60
   8  -5  -3   70.79    9.10
   8  -5  -3   71.49    9.20
   7  -5  -3  784.42   30.00
   7  -5  -3  728.53   29.80
   6  -5  -3   32.10    5.40
   6  -5  -3   43.50    6.20
   5  -5  -3 2638.14   67.79
   5  -5  -3 2646.64   67.29
  -5   5   3 2447.85   67.09
  -5   5   3 2559.64   64.19
   4  -5  -3  566.34   19.80
  -4   5   3  482.95   17.20
  -4   5   3  504.45   19.60
  -4   5   3  514.45   19.50
   3  -5  -3 3727.73   87.89
  -3   5   3 3573.64   86.59
  -3   5   3 3947.41   98.09
  -3   5   3 3581.44   89.19
  -3   5   3 3652.73   90.79
   2  -5  -3 1056.79   28.80
   2  -5  -3  993.30   31.80
  -2   5   3 1054.99   30.80
  -2   5   3 1011.70   29.60
  -2   5   3 1001.80   28.50
   1  -5  -3 1874.11   49.90
   1  -5  -3 1984.10   48.60
  -1   5   3 1867.51   46.90
  -1   5   3 1919.31   50.69
  -1   5   3 1941.31   50.99
   0  -5  -3  257.17   12.60
   0   5   3  252.97   10.60
   0   5   3  254.07   13.10
   0   5   3  245.48    9.70
   0   5   3  240.58   12.50
  -1  -5  -3 1007.00   31.60
   1   5   3  974.70   31.60
   1   5   3  993.00   27.40
   1   5   3  949.80   33.20
   1   5   3  976.10   26.80
   2   5   3 1566.34   40.90
   2   5   3 1520.55   41.40
   2   5   3 1582.24   49.60
   2   5   3 1562.34   46.60
  -3  -5  -3   98.49    7.30
   3   5   3  101.59    7.50
   3   5   3  102.99   11.30
   4   5   3 1290.47   48.70
   4   5   3 1319.37   38.90
   5   5   3   47.60    7.60
   5   5   3   77.89   12.50
   6   5   3  488.65   22.50
   6   5   3  532.25   32.70
   7   5   3   33.50   10.10
   7   5   3   37.50    9.40
   8   5   3  437.76   25.30
  12  -6  -3   35.60   10.00
  12  -6  -3   37.10   11.70
  11  -6  -3 1027.20   45.30
  11  -6  -3  932.91   42.90
  10  -6  -3   31.60    7.90
  10  -6  -3   48.50   10.10
   9  -6  -3 1639.94   55.69
   9  -6  -3 1656.83   55.89
   8  -6  -3   32.50    7.60
   8  -6  -3   36.90    7.30
   7  -6  -3 1354.66   45.00
   7  -6  -3 1360.16   44.40
   6  -6  -3  293.37   22.50
  -6   6   3  256.27   13.10
   5  -6  -3 1762.22   50.59
  -5   6   3 1818.52   48.20
   4  -6  -3  752.72   25.50
  -4   6   3  754.72   26.50
  -4   6   3  741.93   30.40
  -4   6   3  731.03   24.00
   3  -6  -3 1061.89   31.10
  -3   6   3 1055.89   31.40
  -3   6   3 1039.70   32.30
  -3   6   3 1019.50   33.50
  -3   6   3 1026.00   30.70
   2  -6  -3 1690.13   45.00
  -2   6   3 1685.63   46.70
  -2   6   3 1714.23   46.50
   1  -6  -3  385.56   16.40
  -1   6   3  369.86   13.70
  -1   6   3  384.66   17.10
  -1   6   3  401.16   17.00
  -1   6   3  398.76   14.50
   0  -6  -3  934.71   29.90
   0   6   3  900.01   30.10
   0   6   3  945.41   26.40
   0   6   3  941.41   26.80
   0   6   3  958.20   32.40
   1   6   3   35.20    5.60
   1   6   3   50.59    6.80
   1   6   3   58.49    5.60
   1   6   3   49.20    4.90
   2   6   3 1014.20   29.70
   2   6   3  986.80   29.90
   2   6   3 1023.30   38.40
   2   6   3  981.40   34.20
   3   6   3   28.50    7.60
   3   6   3   14.00    4.00
   4   6   3  526.45   21.20
   4   6   3  533.65   29.80
   5   6   3   25.60    9.40
   5   6   3   29.30    9.00
   6   6   3  222.48   21.90
   6   6   3  218.68   16.20
   7   6   3  113.69   15.80
   7   6   3  105.19   19.60
  12  -7  -3    1.40    8.10
  12  -7  -3    0.00    8.50
  11  -7  -3  546.75   31.40
  11  -7  -3  495.05   30.00
  10  -7  -3   96.79   13.30
  10  -7  -3  112.19   13.80
   9  -7  -3  862.81   36.60
   9  -7  -3  880.51   37.20
   8  -7  -3  123.79   11.90
   8  -7  -3  116.79   12.00
   7  -7  -3  637.84   27.50
  -7   7   3  636.64   25.30
   6  -7  -3  920.71   33.20
  -6   7   3  937.81   30.90
   5  -7  -3  550.84   22.90
  -5   7   3  591.04   21.70
  -5   7   3  579.74   24.00
   4  -7  -3  706.03   25.20
  -4   7   3  703.13   25.70
  -4   7   3  692.83   24.10
   3  -7  -3  282.97   13.60
  -3   7   3  265.17   13.80
  -3   7   3  275.47   13.70
   2  -7  -3 1944.71   50.89
  -2   7   3 1766.32   49.00
  -2   7   3 1886.71   51.79
  -2   7   3 1864.11   52.29
  -1   7   3  283.87   15.30
  -1   7   3  268.07   11.60
  -1   7   3  245.58   11.90
  -1   7   3  267.07   13.90
   0   7   3 1303.27   39.10
   0   7   3 1275.97   46.10
   0   7   3 1223.58   35.40
   0   7   3 1281.07   35.00
   1   7   3   19.20    3.90
   1   7   3   28.00    6.80
   1   7   3    8.20    3.90
   1   7   3   16.80    4.50
   2   7   3 1192.88   44.40
   2   7   3 1140.19   34.10
   3   7   3    3.30    5.00
   3   7   3   -1.10    3.30
   4   7   3  874.71   30.40
   4   7   3  893.01   44.00
   5   7   3  130.39   12.40
   5   7   3  124.49   18.10
   6   7   3  248.88   17.90
   6   7   3  250.87   24.40
  12  -8  -3   31.60   11.10
  11  -8  -3  605.24   32.90
  11  -8  -3  547.95   31.40
  10  -8  -3   78.29   13.20
  10  -8  -3   96.09   13.30
 -10   8   3   96.99   11.70
   9  -8  -3  411.36   24.00
  -9   8   3  385.96   21.20
   8  -8  -3  374.26   21.80
  -8   8   3  384.66   19.50
   7  -8  -3  413.66   22.00
  -7   8   3  456.25   20.40
   6  -8  -3 1135.69   39.60
  -6   8   3 1188.88   40.80
  -6   8   3 1182.48   37.50
   5  -8  -3   78.09   10.20
  -5   8   3   86.69    8.10
  -5   8   3   89.59    8.90
   4  -8  -3 1131.09   36.80
  -4   8   3 1203.78   37.00
  -4   8   3 1118.19   36.90
   3  -8  -3    8.00    3.40
  -3   8   3   12.50    4.10
  -3   8   3   12.90    3.50
   2  -8  -3 1882.71   51.79
  -2   8   3 1808.12   51.79
  -2   8   3 1801.52   48.80
  -1   8   3   90.49    6.90
  -1   8   3   82.59    8.10
  -1   8   3   88.99    9.50
   0   8   3 1452.85   40.50
   0   8   3 1491.65   49.30
   0   8   3 1482.25   44.20
   1   8   3  220.68   11.60
   1   8   3  223.08   13.70
   1   8   3  228.58   16.90
   2   8   3  608.84   22.60
   2   8   3  643.24   31.80
   3   8   3  298.87   15.90
   3   8   3  342.77   24.70
   4   8   3  685.83   36.60
   4   8   3  586.84   34.80
   5   8   3  178.78   22.40
   5   8   3  218.48   15.90
   6   8   3  129.09   21.30
  12  -9  -3  179.38   20.80
 -12   9   3  185.48   19.90
  11  -9  -3  339.67   25.90
 -11   9   3  354.36   23.00
  10  -9  -3  329.17   23.60
 -10   9   3  374.86   22.20
   9  -9  -3  293.77   20.80
  -9   9   3  280.77   17.90
   8  -9  -3  308.37   20.30
  -8   9   3  342.67   18.50
   7  -9  -3   12.50    5.10
  -7   9   3   18.80    6.60
  -7   9   3   16.90    5.70
   6  -9  -3 1052.59   38.60
  -6   9   3 1137.79   39.60
  -6   9   3 1117.69   37.40
   5  -9  -3   37.90    6.90
  -5   9   3   35.30    6.70
  -5   9   3   33.20    5.90
   4  -9  -3  860.41   42.50
  -4   9   3  775.12   29.50
  -4   9   3  723.93   28.10
   3  -9  -3   18.30    5.30
  -3   9   3   21.90    5.40
  -3   9   3   17.60    5.10
  -2   9   3  900.81   29.40
  -2   9   3  968.90   35.30
  -2   9   3  880.61   31.20
  -1   9   3   48.90    7.00
  -1   9   3   76.19    7.10
  -1   9   3   64.59    9.40
   0   9   3  620.04   22.00
   0   9   3  606.44   29.30
   0   9   3  603.04   24.30
   1   9   3  160.88   10.70
   1   9   3  193.48   17.70
   2   9   3  382.06   17.50
   3   9   3  387.16   27.50
   4   9   3  336.87   18.90
   4   9   3  369.26   27.60
   5   9   3  169.18   23.40
  11 -10  -3  113.09   17.60
 -11  10   3  117.19   15.00
  10 -10  -3  665.33   34.20
 -10  10   3  631.64   30.00
   9 -10  -3  176.78   16.80
  -9  10   3  183.58   15.20
   8 -10  -3  372.16   23.30
  -8  10   3  433.96   22.30
  -8  10   3  397.16   24.20
   7 -10  -3    8.50    5.30
  -7  10   3   15.20    5.70
  -7  10   3   22.40    7.20
   6 -10  -3  657.73   29.40
  -6  10   3  709.03   29.90
  -6  10   3  722.13   28.90
   5 -10  -3    2.50    4.20
  -5  10   3    5.60    4.30
  -5  10   3   14.20    4.90
   4 -10  -3  833.32   32.20
  -4  10   3  791.62   31.90
   3 -10  -3   74.89    9.30
  -3  10   3   81.29    9.20
  -3  10   3   78.99    9.90
  -3  10   3   65.89    7.70
  -2  10   3  426.46   18.80
  -2  10   3  395.76   18.90
  -2  10   3  446.06   23.30
  -1  10   3  248.98   18.10
  -1  10   3  249.48   13.40
  -1  10   3  224.18   13.60
   0  10   3  441.96   25.90
   0  10   3  436.26   19.90
   0  10   3  432.46   18.50
   1  10   3  162.08   17.20
   1  10   3  180.38   12.30
   2  10   3   59.79    9.70
   2  10   3   51.19   12.80
   3  10   3  307.17   26.00
   4  10   3   67.59   16.30
  11 -11  -3   62.99   16.30
 -11  11   3   73.49   14.30
 -11  11   3   70.59   15.50
  10 -11  -3  534.85   31.30
 -10  11   3  561.84   28.80
 -10  11   3  517.55   32.30
   9 -11  -3    1.50    6.60
  -9  11   3   19.00    6.80
  -9  11   3    2.90    7.00
   8 -11  -3  641.14   31.90
  -8  11   3  639.64   29.30
  -8  11   3  655.43   31.80
   7 -11  -3   19.20    7.20
  -7  11   3   18.50    6.10
  -7  11   3   14.30    6.40
   6 -11  -3  665.53   30.70
  -6  11   3  694.53   30.30
  -6  11   3  690.73   30.10
   5 -11  -3   56.79   10.50
  -5  11   3   60.19    9.40
  -5  11   3   46.40    9.00
   4 -11  -3  665.83   29.50
  -4  11   3  659.93   27.40
  -4  11   3  706.73   30.80
  -3  11   3  125.79   14.40
  -3  11   3  124.79   13.20
  -3  11   3  130.19   11.00
  -2  11   3  151.58   15.00
  -2  11   3  143.59   10.70
  -2  11   3  125.89   11.00
  -1  11   3  229.78   14.60
  -1  11   3  237.58   14.20
   0  11   3  159.88   16.70
   0  11   3  156.08   12.00
   1  11   3  205.98   14.80
   1  11   3  253.07   22.10
   2  11   3   31.70   11.50
  10 -12  -3  448.36   28.80
 -10  12   3  438.76   26.30
 -10  12   3  420.26   29.10
   9 -12  -3    2.10    7.50
  -9  12   3    7.10    8.60
  -9  12   3   15.70    7.70
   8 -12  -3  231.58   20.40
  -8  12   3  255.07   18.60
  -8  12   3  221.98   19.30
   7 -12  -3  141.69   16.10
  -7  12   3  168.58   15.60
  -7  12   3  146.49   15.40
   6 -12  -3  555.54   29.20
  -6  12   3  561.84   27.10
  -6  12   3  583.04   39.40
   5 -12  -3  128.49   15.20
  -5  12   3  248.98   20.80
  -5  12   3  170.98   14.60
  -4  12   3  356.56   19.60
  -4  12   3  353.26   32.90
  -4  12   3  340.87   19.00
  -3  12   3  355.06   23.10
  -3  12   3  337.87   18.00
  -3  12   3  334.67   18.20
  -2  12   3  131.19   15.50
  -2  12   3  154.48   12.10
  -2  12   3  128.99   12.10
  -1  12   3  309.97   23.70
  -1  12   3  330.17   17.60
   0  12   3   37.00   11.30
   0  12   3   31.50    8.20
   1  12   3  224.28   23.60
   9 -13  -3   10.10    9.20
  -9  13   3   18.30    9.50
  -9  13   3   32.90   11.00
   8 -13  -3  273.87   22.80
  -8  13   3  297.97   22.20
  -8  13   3  288.97   22.40
   7 -13  -3   85.69   15.20
  -7  13   3   95.99   14.20
  -7  13   3   76.79   13.50
   6 -13  -3  197.38   19.00
  -6  13   3  182.58   17.10
  -6  13   3  185.78   17.10
  -5  13   3  225.58   19.10
  -5  13   3  198.18   16.90
  -5  13   3  248.38   26.20
  -4  13   3  138.59   14.10
  -4  13   3  119.29   15.80
  -4  13   3  131.89   12.90
  -3  13   3  169.38   15.10
  -3  13   3  173.48   18.10
  -2  13   3    2.40    8.40
  -2  13   3   19.70    8.20
  -1  13   3  401.26   28.90
   6 -14  -3   30.20   11.30
  -6  14   3   47.90   12.20
  -6  14   3   55.59   11.70
  -5  14   3  197.28   20.70
  -5  14   3  175.68   17.50
  -4  14   3   92.99   15.50
  -4  14   3   59.39   12.90
  -2  14  -4   -1.80    9.70
  -2  14  -4   14.50    9.50
  -3  14  -4  198.78   20.60
  -3  14  -4  220.08   19.20
  -4  14  -4   -4.40    7.70
  -4  14  -4   -6.20    7.00
  -5  14  -4  370.56   25.60
  -5  14  -4  461.15   29.90
  -6  14  -4   19.90   18.00
   6 -14   4    7.30   10.60
   1  13  -4  175.98   22.10
   1  13  -4  141.89   17.60
   0  13  -4    5.30    8.50
   0  13  -4   10.30    7.80
  -1  13  -4  264.87   20.40
  -1  13  -4  308.37   25.10
  -2  13  -4   -8.00    6.20
  -2  13  -4   11.20    6.50
  -3  13  -4  352.36   24.30
  -3  13  -4  335.37   22.50
  -4  13  -4   15.80    8.30
  -4  13  -4    6.90    6.30
  -5  13  -4  119.49   15.40
   5 -13   4  115.39   17.60
  -6  13  -4   95.39   14.50
   6 -13   4  117.39   17.50
  -7  13  -4  106.89   12.80
  -7  13  -4  138.29   16.90
   7 -13   4  117.89   18.70
  -8  13  -4  256.57   23.70
  -8  13  -4  252.07   20.40
   8 -13   4  284.57   40.30
   3  12  -4  216.28   20.10
   3  12  -4  224.98   23.90
   2  12  -4   -3.80    7.00
   2  12  -4   -1.90    7.40
   1  12  -4  312.57   21.10
   1  12  -4  311.07   24.60
   0  12  -4   17.00    8.20
   0  12  -4    0.60    5.50
  -1  12  -4  263.67   19.40
  -1  12  -4  273.37   21.10
  -2  12  -4  172.38   16.60
  -2  12  -4  158.88   22.90
  -3  12  -4  327.67   23.80
  -3  12  -4  367.76   23.90
  -4  12  -4  406.76   24.80
  -4  12  -4  421.46   24.60
   4 -12   4  409.86   26.50
  -5  12  -4  184.68   11.30
  -5  12  -4  183.68   16.90
   5 -12   4  210.18   19.20
  -6  12  -4  240.28   19.00
  -6  12  -4  236.58   15.20
   6 -12   4  256.87   22.00
  -7  12  -4   63.59   12.00
   7 -12   4   86.29   14.70
  -8  12  -4  473.25   28.30
   8 -12   4  497.55   31.30
  -9  12  -4   45.20   10.60
   4  11  -4   -6.50   13.20
   4  11  -4    1.90    8.40
   3  11  -4  727.93   33.70
   3  11  -4  704.13   39.00
   2  11  -4    1.80    6.70
   2  11  -4   -4.00    5.90
   1  11  -4  626.34   29.20
   1  11  -4  600.64   32.40
   0  11  -4   40.80    8.80
   0  11  -4   41.60    9.90
  -1  11  -4  385.06   26.00
  -1  11  -4  419.66   22.60
  -2  11  -4  195.08   16.70
  -2  11  -4  194.38   15.40
  -3  11  -4  132.69   13.80
  -3  11  -4  146.59   13.70
  -4  11  -4  424.96   23.60
  -4  11  -4  383.56   15.20
   4 -11   4  407.36   25.10
  -5  11  -4  199.18   12.40
  -5  11  -4  247.38   18.20
   5 -11   4  215.08   18.70
  -6  11  -4  314.37   20.50
   6 -11   4  289.67   21.40
  -7  11  -4   35.80    9.50
   7 -11   4   45.20   10.60
  -8  11  -4  412.56   25.60
   8 -11   4  396.76   27.20
  -9  11  -4   -6.70    6.40
   9 -11   4   -7.70    7.10
 -10  11  -4  220.38   27.80
  10 -11   4  267.37   24.60
   5  10  -4  292.67   23.40
   5  10  -4  294.67   28.60
   4  10  -4   57.29   13.90
   4  10  -4   40.40    9.80
   3  10  -4  667.43   31.20
   3  10  -4  649.04   35.40
   2  10  -4   18.70    6.50
   2  10  -4   23.30    6.70
   1  10  -4  521.05   25.50
   1  10  -4  490.55   27.50
   0  10  -4  286.67   17.70
   0  10  -4  270.77   19.30
  -1  10  -4  580.94   28.10
  -1  10  -4  576.44   26.10
  -2  10  -4  808.82   33.60
  -2  10  -4  789.62   31.90
  -3  10  -4  481.95   23.90
  -3  10  -4  435.46   15.10
   3 -10   4  502.35   26.20
  -4  10  -4  411.06   16.80
  -4  10  -4  436.16   22.50
   4 -10   4  439.56   24.80
  -5  10  -4  366.76   21.10
   5 -10   4  353.56   22.20
  -6  10  -4  485.35   25.30
   6 -10   4  515.95   27.70
  -7  10  -4    2.70    7.60
   7 -10   4   -4.80    4.70
  -8  10  -4  532.15   28.50
   8 -10   4  569.14   31.30
  -9  10  -4   39.20   10.50
   9 -10   4   20.90    9.10
 -10  10  -4  364.96   25.90
  10 -10   4  364.16   26.80
   6   9  -4    0.30    9.00
   6   9  -4   -2.30    8.20
   5   9  -4  403.86   29.30
   5   9  -4  428.56   25.70
   4   9  -4  165.28   18.20
   4   9  -4  127.19   14.40
   3   9  -4  706.93   39.20
   3   9  -4  798.62   33.30
   2   9  -4  378.16   21.10
   2   9  -4  414.46   24.50
   1   9  -4  445.86   22.30
   1   9  -4  481.55   25.60
   0   9  -4  783.92   30.60
   0   9  -4  773.32   32.40
  -1   9  -4  342.77   18.40
  -1   9  -4  311.47   18.70
  -2   9  -4  834.12   32.10
  -2   9  -4  805.32   19.60
  -2   9  -4  885.31   20.10
  -2   9  -4  894.61   33.40
   2  -9   4  857.61   34.90
  -3   9  -4  207.38    9.60
  -3   9  -4  211.88   10.30
  -3   9  -4  214.78   14.70
   3  -9   4  199.98   15.10
  -4   9  -4  926.51   34.60
   4  -9   4  913.21   36.50
  -5   9  -4   18.20    5.40
   5  -9   4   13.10    5.30
  -6   9  -4  612.44   27.80
   6  -9   4  597.94   29.10
  -7   9  -4   50.59    8.90
   7  -9   4   35.10    7.80
  -8   9  -4  648.44   31.90
   8  -9   4  761.02   35.10
  -9   9  -4   27.10    8.80
   9  -9   4   22.20    8.20
 -10   9  -4  342.17   24.30
  10  -9   4  349.67   27.40
  10  -9   4  347.87   25.20
  11  -9   4   38.00   12.10
  11  -9   4   76.29   16.90
   7   8  -4  188.88   24.70
   7   8  -4  220.38   21.30
   6   8  -4   85.79   13.80
   6   8  -4   93.99   15.90
   5   8  -4  173.78   18.80
   5   8  -4  194.68   16.80
   4   8  -4  189.88   18.00
   4   8  -4  168.58   14.80
   3   8  -4  361.06   20.60
   3   8  -4  394.86   24.00
   2   8  -4  878.11   33.40
   2   8  -4  908.61   36.90
   1   8  -4  169.48   13.70
   1   8  -4  140.19   11.50
   0   8  -4  850.01   32.70
   0   8  -4  831.42   30.70
  -1   8  -4   31.90    6.00
  -1   8  -4   16.30    4.20
  -2   8  -4  841.22   30.40
  -2   8  -4  814.42   21.90
  -2   8  -4  785.82   21.20
   2  -8   4  814.02   32.20
  -3   8  -4  144.09   10.90
   3  -8   4  120.69   10.90
  -4   8  -4 2146.59   60.19
   4  -8   4 1986.10   61.19
  -5   8  -4   45.10    7.10
   5  -8   4   43.60    7.50
  -6   8  -4  875.41   33.90
   6  -8   4  848.02   34.80
  -7   8  -4   46.50    8.50
   7  -8   4   41.40    9.80
   7  -8   4   29.70    6.80
   8  -8   4  510.65   29.70
   8  -8   4  532.75   28.30
   9  -8   4  102.59   13.90
   9  -8   4   86.49   13.90
  10  -8   4  351.06   26.50
  10  -8   4  298.07   23.50
  11  -8   4  282.47   30.80
  11  -8   4  233.28   33.60
   8   7  -4    3.80    9.60
   8   7  -4    0.00   16.50
   7   7  -4  422.16   26.60
   7   7  -4  385.26   29.80
   6   7  -4  234.98   18.20
   6   7  -4  221.08   21.40
   5   7  -4  354.16   24.20
   5   7  -4  283.47   19.40
   4   7  -4  598.04   30.60
   4   7  -4  626.04   27.50
  -4  -7   4  560.84   18.10
   3   7  -4  806.52   34.50
   3   7  -4  772.52   30.90
   2   7  -4  873.11   34.60
   2   7  -4  885.01   32.10
   1   7  -4  139.29   10.70
   1   7  -4  148.09   11.80
   0   7  -4 1173.18   37.70
   0   7  -4 1185.38   43.40
  -1   7  -4    2.60    1.90
  -1   7  -4    3.90    2.00
  -2   7  -4  771.02   22.80
  -2   7  -4  876.21   29.40
   2  -7   4  828.32   30.90
  -3   7  -4   72.99    7.30
   3  -7   4   63.29    7.80
  -4   7  -4 1774.72   50.99
   4  -7   4 1705.03   52.59
  -5   7  -4  349.77   18.40
   5  -7   4  369.56   19.50
   6  -7   4  568.14   26.00
   6  -7   4  511.65   26.60
   7  -7   4  314.67   21.50
   7  -7   4  335.37   20.30
   8  -7   4  255.47   20.30
   8  -7   4  233.68   17.90
   9  -7   4  270.97   20.50
   9  -7   4  303.47   23.60
  10  -7   4  282.27   22.00
  10  -7   4  289.07   25.00
  11  -7   4  250.57   22.10
  11  -7   4  223.28   25.00
   8   6  -4  218.18   24.40
   8   6  -4  214.38   20.70
   7   6  -4  483.75   32.50
   6   6  -4  414.26   27.60
   6   6  -4  450.05   24.90
   5   6  -4  248.48   16.90
   5   6  -4  228.88   18.40
  -5  -6   4  208.78   12.80
   4   6  -4 1250.97   42.50
   4   6  -4 1281.37   46.40
  -4  -6   4 1226.28   34.00
   3   6  -4   43.20    7.20
   3   6  -4   30.00    6.10
  -3  -6   4   30.90    3.40
   2   6  -4  415.56   19.10
   2   6  -4  416.26   21.30
   1   6  -4   59.59    6.80
   1   6  -4   50.69    6.50
   0   6  -4 1746.93   50.09
   0   6  -4 1793.32   49.80
  -1   6  -4   81.29    7.10
  -1   6  -4   74.89    3.90
   1  -6   4   83.69    8.20
  -2   6  -4 2562.64   66.89
  -2   6  -4 2569.64   62.09
   2  -6   4 2611.94   69.39
  -3   6  -4  186.78   11.00
   3  -6   4  169.18   11.50
  -4   6  -4  687.33   26.00
   4  -6   4  732.73   27.40
   5  -6   4  150.88   11.60
   5  -6   4  170.78   13.20
   6  -6   4  518.25   24.00
   6  -6   4  491.15   25.60
   7  -6   4  631.04   28.50
   7  -6   4  634.14   31.00
   8  -6   4   91.09   13.00
   8  -6   4   61.79   10.10
   9  -6   4  836.62   41.10
  10  -6   4  151.38   18.90
  10  -6   4  153.08   16.90
  11  -6   4  338.37   25.30
  11  -6   4  306.47   28.10
   9   5  -4  160.18   21.90
   9   5  -4  135.19   18.90
   8   5  -4  239.28   20.90
   8   5  -4  252.17   24.00
   7   5  -4  147.49   15.40
   7   5  -4  162.08   18.20
   6   5  -4 1162.68   42.30
   6   5  -4 1062.19   45.20
   5   5  -4  444.56   24.60
   5   5  -4  413.16   21.60
  -5  -5   4  393.96   25.50
   4   5  -4 1830.52   57.59
   4   5  -4 1903.31   55.29
  -4  -5   4 1803.12   47.60
   3   5  -4   50.79    6.50
   3   5  -4   54.49    7.50
  -3  -5   4   48.00    4.00
   2   5  -4 1264.37   38.60
   2   5  -4 1250.87   39.80
  -2  -5   4 1249.38   28.80
  -2  -5   4 1280.37   28.80
   1   5  -4    9.60    3.30
   1   5  -4    6.70    2.40
   0   5  -4 1648.94   46.40
   0   5  -4 1772.42   47.30
  -1   5  -4 1530.75   41.60
  -1   5  -4 1498.45   36.10
   1  -5   4 1504.25   44.00
  -2   5  -4 2945.01   69.19
  -2   5  -4 2863.81   71.69
   2  -5   4 2833.62   73.49
   3  -5   4 2752.62   70.49
   3  -5   4 2657.93   71.99
   4  -5   4  168.08   12.10
   4  -5   4  185.48   11.50
   5  -5   4 2381.96   64.89
   5  -5   4 2276.57   72.39
   6  -5   4  809.02   33.80
   6  -5   4  787.22   30.60
   7  -5   4 1519.55   49.70
   7  -5   4 1502.65   53.49
   8  -5   4   71.19   11.50
   8  -5   4   73.79    9.60
   9  -5   4  860.11   41.40
   9  -5   4  856.51   37.00
  10  -5   4    3.80    5.90
  10  -5   4   10.90    7.30
  11  -5   4  335.37   28.70
  11  -5   4  285.97   23.80
  10   4  -4  498.35   44.30
  10   4  -4  447.46   30.40
   9   4  -4  229.58   21.30
   9   4  -4  231.48   23.60
   8   4  -4  681.03   33.30
   8   4  -4  653.03   36.80
   7   4  -4   39.10    9.30
   7   4  -4   28.40    7.70
   6   4  -4 1355.16   50.09
   6   4  -4 1357.76   46.70
   5   4  -4  142.29   12.80
   5   4  -4  137.59   11.80
   4   4  -4 2360.26   66.29
   4   4  -4 2245.48   63.69
  -4  -4   4 2321.57   58.39
   3   4  -4  679.53   25.00
   3   4  -4  688.43   26.30
  -3  -4   4  679.03   20.10
   2   4  -4 1854.21   50.19
   2   4  -4 1793.02   50.69
  -2  -4   4 1883.11   42.90
   1   4  -4 1059.09   31.20
   1   4  -4 1000.10   32.00
   1   4  -4 1064.79   31.10
  -1  -4   4  975.90   29.40
   0   4  -4 4051.69   95.29
   0   4  -4 4015.10   94.39
   0   4  -4 4078.99   87.09
   0   4  -4 3861.61   96.29
  -1   4  -4 1221.58   35.70
  -1   4  -4 1197.08   33.30
  -1   4  -4 1137.79   34.50
  -1   4  -4 1218.78   30.40
   1  -4   4 1238.18   35.60
  -2   4  -4  748.93   25.30
  -2   4  -4  799.12   24.90
  -2   4  -4  797.62   23.90
   2  -4   4  847.22   26.30
  -3   4  -4 2324.57   60.19
   3  -4   4 2379.16   60.89
   3  -4   4 2316.37   63.09
   4  -4   4  231.68   12.50
   4  -4   4  192.58   12.90
   5  -4   4 1992.60   55.09
   5  -4   4 1851.51   57.69
   6  -4   4   99.89    9.50
   6  -4   4   90.79   10.60
   7  -4   4 1707.63   58.59
   7  -4   4 1715.03   53.49
   8  -4   4   21.30    7.90
   8  -4   4   25.20    7.00
   9  -4   4 1282.27   53.39
   9  -4   4 1232.78   46.20
  10  -4   4    8.80    7.60
  10  -4   4    6.50    8.00
  11  -4   4  643.14   41.50
  11  -4   4  620.74   33.70
  10   3  -4  367.56   26.40
  10   3  -4  372.96   30.00
   9   3  -4   35.80    9.60
   9   3  -4   21.90    9.60
   8   3  -4 1293.97   48.50
   8   3  -4 1245.88   51.79
   7   3  -4    0.30    3.80
   7   3  -4   -1.40    3.80
   6   3  -4 2220.28   64.89
   6   3  -4 2127.59   66.79
   5   3  -4   44.50    6.80
   5   3  -4   60.29    7.80
   4   3  -4 2662.23   71.39
   4   3  -4 2608.34   69.79
   3   3  -4   80.19    7.00
   3   3  -4   77.59    6.90
  -3  -3   4   88.19    7.00
   2   3  -4 3154.58   78.29
   2   3  -4 3202.98   78.39
  -2  -3   4 3185.48   77.19
  -2  -3   4 3284.07   80.59
   1   3  -4  846.92   25.80
   1   3  -4  906.11   25.70
  -1  -3   4  873.61   20.80
  -1  -3   4  843.02   25.30
  -1  -3   4  835.62   24.30
   0   3  -4 2581.24   64.89
   0   3  -4 2573.54   59.39
   0   3  -4 2647.24   62.49
   0   3  -4 2668.63   63.79
   0  -3   4 2668.93   59.29
   0  -3   4 2576.04   62.19
  -1   3  -4 3769.02   91.49
  -1   3  -4 3943.11   92.79
  -1   3  -4 3949.20   89.29
  -1   3  -4 3899.91   90.39
   1  -3   4 3917.71   92.19
  -2   3  -4 2627.84   64.99
  -2   3  -4 2282.97   75.79
  -2   3  -4 2775.82   65.19
   2  -3   4 2677.43   67.09
   2  -3   4 2822.72   65.69
  -3   3  -4 2143.79   55.89
  -3   3  -4 2180.18   58.89
  -3   3  -4 2210.68   57.29
   3  -3   4 2154.48   58.69
   3  -3   4 2207.58   56.19
   4  -3   4  560.84   23.60
   4  -3   4  555.94   20.80
   5  -3   4 2408.16   69.29
   5  -3   4 2427.86   64.69
   6  -3   4   98.99   10.90
   6  -3   4   96.29    9.20
   7  -3   4  624.64   26.70
   7  -3   4  592.04   30.30
   8  -3   4  116.59   12.10
   8  -3   4  129.79   15.30
   9  -3   4 1031.30   47.10
   9  -3   4  981.80   39.70
  10  -3   4  141.79   19.10
  10  -3   4  157.88   16.70
  11  -3   4  568.74   44.60
  11  -3   4  463.35   29.50
  11   2  -4   64.19   17.60
  11   2  -4   43.00   11.80
  10   2  -4  702.73   36.30
  10   2  -4  648.64   38.70
   8   2  -4 1265.37   49.50
   8   2  -4 1195.68   46.00
   7   2  -4  789.52   32.80
   7   2  -4  771.52   34.40
   6   2  -4 2591.74   77.59
   6   2  -4 2591.94   72.59
   5   2  -4  729.53   28.50
   5   2  -4  738.23   27.70
   4   2  -4 2549.04   65.79
   4   2  -4 2515.45   65.89
  -4  -2   4 2403.36   63.69
   3   2  -4 1816.72   47.70
   3   2  -4 1771.02   47.30
  -3  -2   4 1777.72   46.40
  -3  -2   4 1718.63   46.10
   2   2  -4 5945.60  133.89
   2   2  -4 5698.73  132.79
  -2  -2   4 5805.22  132.69
  -2  -2   4 5936.11  132.09
   1   2  -4 1578.84   40.40
   1   2  -4 1614.34   39.40
  -1  -2   4 1616.54   37.70
  -1  -2   4 1582.34   38.70
  -1  -2   4 1534.55   39.80
   0   2  -4  523.25   16.40
   0   2  -4  512.15   15.10
   0   2  -4  527.95   15.30
   0   2  -4  490.65   16.90
   0  -2   4  534.65   15.10
  -1   2  -4 1793.22   44.90
  -1   2  -4 1696.43   44.50
  -1   2  -4 1793.32   46.10
   1  -2   4 1965.30   49.70
   1  -2   4 1816.02   45.00
  -2   2  -4 2319.47   57.59
  -2   2  -4 2262.07   55.79
  -2   2  -4 2241.28   58.29
   2  -2   4 2330.17   55.99
   2  -2   4 2271.17   58.49
  -3   2  -4  327.27   14.80
  -3   2  -4  316.77   15.30
  -3   2  -4  317.47   14.60
   3  -2   4  338.37   15.70
   3  -2   4  320.97   13.20
  -4   2  -4   33.70    5.10
   4  -2   4   39.70    5.70
   4  -2   4   40.30    4.80
   5  -2   4 1152.18   40.80
   5  -2   4 1165.58   36.20
   6  -2   4    4.70    3.20
   6  -2   4    1.80    2.80
   7  -2   4  677.53   27.90
   7  -2   4  685.03   33.30
   8  -2   4   26.90    7.40
   8  -2   4   51.09    8.90
   9  -2   4  462.05   25.20
   9  -2   4  430.46   29.00
  10  -2   4  237.98   19.50
  10  -2   4  249.08   24.60
  11  -2   4  179.68   25.00
  11  -2   4  119.99   18.00
  11   1  -4    1.00    9.10
  11   1  -4   12.40   10.00
  10   1  -4  775.12   40.90
  10   1  -4  814.22   38.70
   9   1  -4  119.39   14.90
   9   1  -4  119.09   13.90
   8   1  -4 1130.89   44.90
   8   1  -4 1148.49   43.40
   7   1  -4  678.93   30.40
   7   1  -4  683.23   29.50
   6   1  -4  420.36   21.00
   5   1  -4  579.74   23.30
   5   1  -4  581.74   23.30
   4   1  -4 1053.79   32.30
   4   1  -4 1094.69   32.90
  -4  -1   4 1026.10   30.70
   3   1  -4 2230.08   56.49
   3   1  -4 2279.37   55.49
  -3  -1   4 2281.37   54.49
  -3  -1   4 2115.59   57.39
   2   1  -4  395.96   14.10
   2   1  -4  420.46   13.10
  -2  -1   4  415.66   13.90
  -2  -1   4  411.86   12.70
   0   1  -4  429.36   13.50
   0   1  -4  406.86   13.70
   0   1  -4  439.76   13.00
   0   1  -4  425.56   13.00
   0  -1   4  412.96   12.80
   0  -1   4  424.16   13.80
  -1   1  -4 3506.65   81.49
  -1   1  -4 3659.33   83.69
  -1   1  -4 3531.95   83.89
   1  -1   4 3572.54   83.69
   1  -1   4 3641.04   81.89
  -2   1  -4  382.06   13.10
  -2   1  -4  395.66   15.40
  -2   1  -4  384.56   15.30
   2  -1   4  375.86   15.50
   2  -1   4  394.16   13.30
  -3   1  -4 3135.59   79.19
  -3   1  -4 3078.49   78.79
  -3   1  -4 3189.68   75.29
   3  -1   4 3205.08   75.19
   3  -1   4 3085.19   79.79
   4  -1   4   63.79    7.40
   4  -1   4   65.39    5.90
   5  -1   4  971.70   36.70
   5  -1   4  995.00   31.60
   6  -1   4  602.04   29.00
   6  -1   4  580.14   23.70
   7  -1   4  984.20   42.10
   7  -1   4  977.80   35.20
   8  -1   4  313.37   23.40
   8  -1   4  311.57   18.80
   9  -1   4  188.08   16.30
   9  -1   4  225.68   22.30
  10  -1   4  532.55   36.30
  10  -1   4  484.25   28.10
  11   0  -4   16.20    8.90
  11   0  -4   10.00    8.90
  10   0  -4  767.52   39.70
  10   0  -4  706.03   35.50
   9   0  -4  325.97   22.70
   9   0  -4  359.26   22.90
   8   0  -4  673.43   30.80
   8   0  -4  715.13   32.50
   7   0  -4 1682.93   53.19
   6   0  -4  621.74   25.50
   6   0  -4  617.04   25.50
   5   0  -4 2644.24   69.09
   5   0  -4 2658.33   69.79
   4   0  -4   45.70    5.10
   4   0  -4   45.40    4.70
  -4   0   4   40.90    4.30
  -4   0   4   38.60    4.60
   3   0  -4 6332.87  138.89
   3   0  -4 6305.07  140.99
  -3   0   4 5977.60  139.89
  -3   0   4 6110.19  137.89
   2   0  -4   43.40    2.60
   2   0  -4   43.40    3.60
  -2   0   4   38.10    3.60
  -2   0   4   35.80    3.30
  -2   0   4   41.70    2.40
   1   0  -4 5360.96  118.99
   1   0  -4 5571.54  116.99
   1   0  -4 5272.47  120.99
  -1   0   4 5334.87  118.79
  -1   0   4 5317.87  121.19
   0   0  -4 2400.46   61.49
   0   0  -4 2519.85   57.99
   0   0  -4 2589.94   58.89
   0   0  -4 2589.74   57.69
   0   0   4 2630.24   62.19
   0   0   4 2646.64   59.09
  -1   0  -4 6069.49  136.09
  -1   0  -4 6004.60  132.49
  -1   0  -4 5780.62  137.29
   1   0   4 6209.78  136.59
   1   0   4 6152.68  132.69
   1   0   4 5920.91  137.79
  -2   0  -4 1554.04   44.90
  -2   0  -4 1547.85   42.20
  -2   0  -4 1602.34   39.50
   2   0   4 1546.75   43.00
   2   0   4 1527.05   43.30
   2   0   4 1559.44   38.20
  -3   0  -4 1669.03   43.20
  -3   0  -4 1701.43   47.80
   3   0   4 1663.23   48.80
   3   0   4 1754.02   43.50
   4   0   4 1264.47   41.80
   4   0   4 1248.18   35.70
   5   0   4 1759.12   48.50
   5   0   4 1691.33   55.29
   6   0   4  681.53   26.40
   6   0   4  735.73   33.30
   7   0   4  290.97   21.40
   7   0   4  277.47   16.50
   8   0   4  608.14   27.30
   9   0   4   44.10    8.80
   9   0   4   77.79   14.30
  10   0   4  577.24   30.80
  10   0   4  562.34   38.20
  12  -1  -4  703.73   41.80
  11  -1  -4  301.37   25.20
  11  -1  -4  313.77   24.30
  10  -1  -4  709.63   36.20
  10  -1  -4  712.83   34.90
   9  -1  -4  366.16   23.30
   9  -1  -4  360.66   22.50
   8  -1  -4  141.29   13.00
   8  -1  -4  122.59   12.30
   7  -1  -4 1351.26   44.20
   7  -1  -4 1281.67   43.80
   6  -1  -4  574.94   24.00
   6  -1  -4  582.04   23.60
   5  -1  -4 2112.59   56.49
   5  -1  -4 2150.98   57.99
  -5   1   4 2127.19   55.29
   4  -1  -4  191.18    9.30
   4  -1  -4  195.58   10.40
  -4   1   4  184.38    8.80
  -4   1   4  187.08    9.90
   3  -1  -4 2261.17   52.79
   3  -1  -4 2293.27   55.69
  -3   1   4 2212.88   54.89
  -3   1   4 2208.88   52.39
   2  -1  -4    6.90    0.80
   2  -1  -4    8.70    1.70
  -2   1   4    5.90    1.90
  -2   1   4    7.80    0.80
  -2   1   4    9.50    1.70
   1  -1  -4 4276.07   93.89
   1  -1  -4 4062.49   97.79
   1  -1  -4 4294.27   92.49
  -1   1   4 4262.57   93.69
  -1   1   4 4378.16   92.79
  -1   1   4 4190.08   98.69
   0  -1  -4 1116.29   31.80
   0  -1  -4 1134.59   25.10
   0  -1  -4 1155.68   25.20
   0  -1  -4 1159.78   28.50
   0   1   4 1094.39   31.80
   0   1   4 1143.99   28.90
  -1  -1  -4 6004.30  135.79
  -1  -1  -4 6133.09  130.79
  -1  -1  -4 5858.11  137.89
   1   1   4 5924.21  138.39
   1   1   4 6008.30  136.59
   1   1   4 5988.90  130.69
  -2  -1  -4 1180.68   35.90
  -2  -1  -4 1233.48   35.40
  -2  -1  -4 1238.08   30.60
   2   1   4 1239.38   37.00
   2   1   4 1208.38   36.40
   2   1   4 1264.77   30.80
  -3  -1  -4 1511.35   38.70
   3   1   4 1572.34   46.20
   3   1   4 1472.75   38.90
  -4  -1  -4  777.72   24.80
   4   1   4  824.12   25.50
   4   1   4  822.92   31.80
   5   1   4 1305.17   46.60
   5   1   4 1316.97   38.90
   6   1   4 1659.83   58.19
   6   1   4 1666.93   48.90
   7   1   4  323.37   17.90
   7   1   4  341.17   24.20
   8   1   4  659.83   37.10
   8   1   4  657.03   28.80
   9   1   4   16.90    9.30
   9   1   4   18.60    7.20
  10   1   4  670.03   33.00
  10   1   4  546.15   39.40
  12  -2  -4  532.05   33.10
  12  -2  -4  506.75   34.50
  11  -2  -4  491.95   29.90
  11  -2  -4  466.55   30.40
  10  -2  -4  212.08   19.20
  10  -2  -4  242.38   19.80
   9  -2  -4 1213.58   46.10
   9  -2  -4 1277.77   47.60
   8  -2  -4  295.37   18.30
   8  -2  -4  286.47   18.40
   7  -2  -4 1416.66   46.00
   7  -2  -4 1402.66   45.20
   6  -2  -4  208.18   12.30
   6  -2  -4  187.98   12.30
   5  -2  -4 4601.34  110.39
   5  -2  -4 4733.93  112.79
  -5   2   4 4646.24  109.89
   4  -2  -4   20.60    3.00
   4  -2  -4   24.10    3.90
  -4   2   4   25.40    4.10
  -4   2   4   25.00    3.20
   3  -2  -4 2636.74   60.69
   3  -2  -4 2690.23   63.69
  -3   2   4 2548.34   63.09
  -3   2   4 2628.64   60.89
   2  -2  -4  339.17   11.20
  -2   2   4  328.77    9.10
  -2   2   4  343.37   13.20
  -2   2   4  335.57   11.10
   1  -2  -4 4442.66   93.89
   1  -2  -4 4212.78   94.89
   1  -2  -4 4193.98   99.59
  -1   2   4 4266.47   95.39
  -1   2   4 4181.88   99.69
  -1   2   4 4275.27   95.19
   0  -2  -4 1324.97   33.60
   0  -2  -4 1328.67   37.00
   0   2   4 1303.47   36.90
   0   2   4 1288.37   34.00
  -1  -2  -4 2037.90   52.19
  -1  -2  -4 2041.90   46.00
   1   2   4 2032.70   54.59
   1   2   4 2114.29   46.30
   1   2   4 2082.69   53.39
  -2  -2  -4 2265.67   52.79
  -2  -2  -4 2260.27   60.19
  -2  -2  -4 2219.58   59.19
   2   2   4 2329.17   61.19
   2   2   4 2289.17   61.19
   2   2   4 2290.97   53.29
  -3  -2  -4  664.83   20.20
   3   2   4  706.83   27.50
   3   2   4  702.83   21.00
  -4  -2  -4  753.42   23.80
   4   2   4  752.92   33.50
   4   2   4  803.72   24.90
   5   2   4  140.79    9.70
   5   2   4  143.49   13.80
   6   2   4 1398.56   42.30
   6   2   4 1294.57   51.29
   7   2   4  143.29   12.30
   7   2   4  131.19   16.10
   8   2   4  576.04   27.30
   8   2   4  599.24   36.60
   9   2   4    2.20    8.10
   9   2   4    3.90    9.10
  12  -3  -4  169.88   20.30
  12  -3  -4  160.58   19.80
  11  -3  -4  730.33   37.80
  11  -3  -4  720.13   36.60
  10  -3  -4   27.60    8.00
   9  -3  -4 1459.35   51.59
   9  -3  -4 1484.05   51.79
   8  -3  -4   62.39    8.80
   8  -3  -4   61.09    9.00
   7  -3  -4 1871.71   55.59
   7  -3  -4 1925.21   57.09
   6  -3  -4   14.30    4.30
   6  -3  -4   18.10    4.30
  -6   3   4   18.10    4.80
   5  -3  -4  654.13   23.70
   5  -3  -4  649.43   22.10
  -5   3   4  646.14   22.10
   4  -3  -4 1022.60   35.90
   4  -3  -4 1055.49   30.60
  -4   3   4  955.80   29.80
  -4   3   4 1019.10   28.50
   3  -3  -4 3139.89   72.59
  -3   3   4 3029.00   74.79
  -3   3   4 3048.20   72.39
  -3   3   4 3017.60   70.79
  -3   3   4 2945.51   68.99
   2  -3  -4 1168.88   28.70
   2  -3  -4 1140.09   29.30
  -2   3   4 1158.58   28.80
  -2   3   4 1159.48   33.00
  -2   3   4 1155.48   29.50
   1  -3  -4  961.10   26.00
   1  -3  -4 1012.00   23.90
   1  -3  -4  962.70   29.20
  -1   3   4  996.20   29.70
  -1   3   4  983.70   26.50
  -1   3   4  987.40   23.90
   0  -3  -4 1745.43   44.10
   0  -3  -4 1713.53   47.20
   0   3   4 1722.23   38.40
   0   3   4 1717.73   46.90
   0   3   4 1730.43   44.80
   0   3   4 1707.13   38.40
  -1  -3  -4 1224.18   35.70
  -1  -3  -4 1300.57   37.70
   1   3   4 1251.07   29.80
   1   3   4 1261.07   30.00
   1   3   4 1256.77   37.00
   1   3   4 1266.47   38.00
  -2  -3  -4 1448.16   35.70
   2   3   4 1496.65   44.50
   2   3   4 1474.85   44.70
   2   3   4 1485.65   36.60
  -3  -3  -4  430.36   14.50
   3   3   4  439.36   15.30
   3   3   4  426.86   21.40
  -4  -3  -4 1376.86   38.50
   4   3   4 1491.35   49.90
   4   3   4 1450.65   40.00
   5   3   4   46.70    8.80
   5   3   4   40.30    6.00
   6   3   4 1054.29   35.30
   6   3   4 1090.99   46.50
   7   3   4   71.19    9.80
   7   3   4   52.69   12.80
   8   3   4  644.14   39.50
   8   3   4  695.73   30.00
   9   3   4   18.90   10.40
   9   3   4   25.30   12.00
  12  -4  -4   11.50    8.50
  12  -4  -4   -0.90    7.70
  11  -4  -4  846.92   44.10
  11  -4  -4  745.53   37.90
  10  -4  -4    2.20    5.60
   9  -4  -4 1226.78   45.50
   9  -4  -4 1193.58   44.50
   8  -4  -4  397.46   22.00
   8  -4  -4  474.85   27.20
   7  -4  -4 2129.19   61.69
   7  -4  -4 2095.09   59.99
   6  -4  -4  311.27   16.20
   6  -4  -4  333.37   15.50
  -6   4   4  258.57   14.40
   5  -4  -4 1613.94   46.00
   5  -4  -4 1615.34   44.20
   4  -4  -4  580.54   20.30
  -4   4   4  566.84   17.50
  -4   4   4  550.84   20.00
  -4   4   4  564.74   19.30
   3  -4  -4 1640.04   42.00
  -3   4   4 1640.94   42.10
  -3   4   4 1579.84   40.20
  -3   4   4 1651.53   42.30
  -3   4   4 1580.44   44.30
   2  -4  -4 3691.53   88.49
   2  -4  -4 3934.71   88.19
  -2   4   4 3870.51   88.99
  -2   4   4 3907.31   88.39
  -2   4   4 3838.82   92.59
   1  -4  -4  242.68   10.60
   1  -4  -4  263.77    9.10
   1  -4  -4  270.47   12.70
  -1   4   4  249.68    8.70
  -1   4   4  249.68   11.10
  -1   4   4  255.17   12.50
   0  -4  -4 1624.74   44.00
   0  -4  -4 1706.93   46.10
   0   4   4 1608.64   38.10
   0   4   4 1647.74   46.10
   0   4   4 1618.94   44.80
   0   4   4 1648.94   38.40
  -1  -4  -4    7.50    3.50
   1   4   4    7.90    2.40
   1   4   4    7.20    1.70
   1   4   4    6.80    1.60
   1   4   4    3.40    2.30
  -2  -4  -4 2704.63   65.79
   2   4   4 2858.71   77.09
   2   4   4 2960.60   76.19
   2   4   4 2847.02   66.79
   3   4   4   23.70    6.70
   3   4   4   25.40    4.00
  -4  -4  -4  984.40   29.70
   4   4   4 1065.79   31.40
   4   4   4 1014.80   40.70
   5   4   4  122.39    9.60
   5   4   4   90.69   12.60
   6   4   4  860.51   44.50
   7   4   4    6.00    8.20
   7   4   4   16.50    6.80
   8   4   4  610.44   39.30
   8   4   4  515.95   26.70
  12  -5  -4  -10.60    7.80
  12  -5  -4   -1.80    7.50
  11  -5  -4  902.11   59.19
  11  -5  -4  817.42   39.10
  10  -5  -4   91.49   12.30
   9  -5  -4 1643.54   55.89
   9  -5  -4 1642.34   54.49
   8  -5  -4  276.77   17.80
   8  -5  -4  272.37   17.20
   7  -5  -4  654.03   26.70
   7  -5  -4  730.13   28.90
   6  -5  -4 1015.70   33.00
   6  -5  -4  988.00   34.10
   5  -5  -4 1540.25   43.10
  -5   5   4 1401.36   38.90
  -5   5   4 1439.36   42.00
   4  -5  -4 1000.00   30.30
  -4   5   4  975.70   30.50
  -4   5   4 1020.10   34.10
  -4   5   4  992.90   32.40
  -4   5   4  974.90   28.00
   3  -5  -4 1156.28   31.90
  -3   5   4 1123.29   30.90
  -3   5   4 1120.79   34.40
  -3   5   4 1131.59   32.10
  -3   5   4 1119.49   33.30
   2  -5  -4 2322.57   54.59
  -2   5   4 2236.38   56.09
  -2   5   4 2220.58   54.29
  -2   5   4 2115.49   58.19
   1  -5  -4  297.37   11.30
   1  -5  -4  277.77   12.70
  -1   5   4  321.27   15.00
  -1   5   4  305.17   10.40
  -1   5   4  300.37   10.70
  -1   5   4  304.17   13.70
   0  -5  -4  689.33   24.80
   0   5   4  681.83   18.70
   0   5   4  702.03   25.20
   0   5   4  684.73   19.00
   0   5   4  654.43   24.50
   1   5   4    7.80    2.00
   1   5   4    3.80    1.50
   1   5   4    1.40    2.10
   1   5   4    4.30    3.10
   2   5   4 1064.19   29.90
   2   5   4 1072.79   29.70
   2   5   4 1122.79   37.40
   3   5   4    5.20    3.70
   3   5   4    0.30    3.40
   3   5   4    7.00    2.50
   4   5   4  747.13   34.90
   4   5   4  722.23   24.80
   5   5   4  113.19   14.70
   5   5   4   87.09    8.80
   6   5   4  550.04   34.20
   6   5   4  572.94   24.20
   7   5   4  236.18   23.70
   7   5   4  226.48   16.50
   8   5   4  303.47   30.10
  12  -6  -4   14.60    9.10
  12  -6  -4    7.80    9.10
  11  -6  -4  570.84   31.90
  11  -6  -4  653.93   50.69
  10  -6  -4  319.77   22.00
  10  -6  -4  274.77   20.40
   9  -6  -4  863.11   35.50
   9  -6  -4  837.82   36.00
   8  -6  -4  444.36   23.00
   8  -6  -4  421.16   21.50
   7  -6  -4 1442.06   45.00
   7  -6  -4 1418.06   46.30
   6  -6  -4  326.27   17.10
  -6   6   4  329.07   14.60
   5  -6  -4  612.54   23.40
  -5   6   4  615.44   21.10
  -5   6   4  620.94   25.00
   4  -6  -4 1666.93   44.50
  -4   6   4 1545.35   45.40
  -4   6   4 1524.65   45.80
  -4   6   4 1573.14   42.30
   3  -6  -4  646.44   21.20
  -3   6   4  623.24   21.40
  -3   6   4  617.24   23.50
  -3   6   4  594.14   21.00
  -3   6   4  655.43   23.80
   2  -6  -4 1628.34   42.60
  -2   6   4 1563.94   42.10
  -2   6   4 1608.74   44.70
  -2   6   4 1655.03   46.80
  -1   6   4  102.99    6.40
  -1   6   4   98.39    8.30
  -1   6   4  102.79    5.90
  -1   6   4   99.49    8.50
   0   6   4 1344.97   42.70
   0   6   4 1362.56   34.90
   0   6   4 1375.16   35.50
   0   6   4 1403.16   42.20
   1   6   4   11.20    2.70
   1   6   4   10.30    3.00
   1   6   4    9.90    3.70
   2   6   4  667.33   21.30
   2   6   4  703.03   30.60
   2   6   4  719.03   28.40
   2   6   4  642.74   21.30
   3   6   4   31.20    5.60
   3   6   4   17.10    4.10
   3   6   4   22.60    6.60
   4   6   4  465.65   28.00
   4   6   4  451.35   18.50
   5   6   4  308.47   24.50
   5   6   4  302.17   16.10
   6   6   4  265.77   16.60
   6   6   4  306.07   26.80
   7   6   4  373.46   35.80
  12  -7  -4   79.39   15.30
  12  -7  -4  131.39   17.80
  11  -7  -4  340.87   25.80
  11  -7  -4  312.87   23.60
  10  -7  -4  277.97   21.00
  10  -7  -4  272.27   19.70
   9  -7  -4   48.60    9.40
   9  -7  -4   47.20    9.30
   8  -7  -4  731.93   31.70
  -8   7   4  764.32   28.50
   7  -7  -4  390.06   20.40
  -7   7   4  384.86   17.50
   6  -7  -4 1444.66   44.70
  -6   7   4 1417.06   41.30
  -6   7   4 1384.86   45.90
   5  -7  -4  161.38   11.00
  -5   7   4  157.68    9.70
  -5   7   4  150.08   11.50
   4  -7  -4 1021.20   32.10
  -4   7   4  976.80   33.60
  -4   7   4 1032.30   31.50
   3  -7  -4   20.00    4.10
  -3   7   4   18.70    4.80
  -3   7   4   14.50    3.70
   2  -7  -4 1564.14   42.90
  -2   7   4 1517.05   41.80
  -2   7   4 1532.25   45.20
  -2   7   4 1545.25   45.60
  -1   7   4    0.30    2.50
  -1   7   4    1.50    1.70
  -1   7   4    0.80    2.20
   0   7   4  672.93   28.20
   0   7   4  711.73   21.20
   0   7   4  673.43   21.50
   0   7   4  701.53   26.70
   1   7   4  323.77   13.20
   1   7   4  356.96   18.50
   1   7   4  372.46   20.60
   2   7   4  855.31   26.30
   2   7   4  851.91   26.70
   2   7   4  885.71   37.10
   3   7   4   13.80    4.30
   3   7   4   12.30    7.10
   4   7   4  485.85   20.20
   4   7   4  534.65   31.70
   5   7   4  285.77   25.80
   5   7   4  308.07   17.30
   6   7   4  110.29   19.60
  12  -8  -4  284.97   35.50
  12  -8  -4  280.17   24.30
  11  -8  -4   66.39   13.50
  11  -8  -4   79.09   13.50
 -11   8   4   77.89   11.90
  10  -8  -4  499.75   28.30
 -10   8   4  485.35   24.60
   9  -8  -4   67.69   11.00
  -9   8   4   71.59    9.20
   8  -8  -4  185.78   15.50
  -8   8   4  254.37   15.10
   7  -8  -4    5.00    3.50
  -7   8   4    4.50    4.20
  -7   8   4   -1.30    2.50
   6  -8  -4 1247.88   41.60
  -6   8   4 1228.58   42.60
  -6   8   4 1281.17   38.80
   5  -8  -4   44.00    6.30
  -5   8   4   22.40    4.80
  -5   8   4   29.90    6.30
   4  -8  -4 1089.99   35.60
  -4   8   4 1154.48   36.10
  -4   8   4 1096.39   37.10
   3  -8  -4  364.46   16.80
  -3   8   4  353.06   17.90
  -3   8   4  357.46   17.50
  -2   8   4 1406.66   43.40
  -2   8   4 1355.86   38.00
  -1   8   4  143.09   10.00
  -1   8   4  144.69   11.80
  -1   8   4  164.38   11.50
  -1   8   4  154.48    8.70
   0   8   4  599.54   20.20
   0   8   4  629.54   28.10
   0   8   4  615.04   21.20
   0   8   4  625.14   25.40
   1   8   4  329.47   20.80
   1   8   4  322.97   14.50
   1   8   4  308.27   13.50
   1   8   4  338.77   18.10
   2   8   4  473.05   27.40
   2   8   4  407.06   16.80
   3   8   4  515.35   31.40
   3   8   4  540.05   20.60
   4   8   4  388.66   17.90
   4   8   4  326.47   26.70
   5   8   4  396.16   31.30
  12  -9  -4  212.18   22.20
 -12   9   4  209.58   19.70
  11  -9  -4   13.20    7.80
 -11   9   4    1.50    6.10
  10  -9  -4  582.04   31.50
 -10   9   4  564.84   26.80
   9  -9  -4   36.40   13.30
  -9   9   4   39.40    8.30
   8  -9  -4  663.03   30.60
  -8   9   4  674.63   27.50
  -8   9   4  668.13   32.10
   7  -9  -4    1.40    3.80
  -7   9   4    0.20    3.40
  -7   9   4    4.80    4.60
   6  -9  -4  759.92   29.90
  -6   9   4  700.93   27.20
  -6   9   4  717.33   30.10
   5  -9  -4  134.19   11.00
  -5   9   4  132.89   10.70
  -5   9   4  103.39   10.50
   4  -9  -4  836.72   30.30
  -4   9   4  804.92   36.40
  -4   9   4  850.21   31.20
   3  -9  -4  443.26   20.00
  -3   9   4  416.86   20.20
  -3   9   4  432.26   20.90
  -2   9   4  514.35   24.10
  -2   9   4  493.25   18.80
  -2   9   4  502.05   22.30
  -1   9   4  349.07   14.90
  -1   9   4  354.66   18.30
  -1   9   4  391.36   21.40
   0   9   4  480.85   25.60
   0   9   4  479.65   22.10
   0   9   4  478.75   18.00
   1   9   4  174.58   13.60
   1   9   4  201.08   17.70
   1   9   4  173.98   10.80
   2   9   4  342.77   24.70
   2   9   4  342.47   15.60
   3   9   4  488.15   20.00
   3   9   4  442.96   30.30
   4   9   4   62.79   14.50
  11 -10  -4   50.79   12.30
 -11  10   4   64.79   13.00
  10 -10  -4  340.07   24.90
 -10  10   4  343.97   22.90
 -10  10   4  360.26   26.20
   9 -10  -4    4.70    5.50
  -9  10   4   -5.80    4.70
  -9  10   4   -8.40    5.60
   8 -10  -4  729.23   33.30
  -8  10   4  768.02   30.70
  -8  10   4  757.42   34.60
   7 -10  -4   29.30    7.80
  -7  10   4   29.00    6.70
  -7  10   4   33.30    8.50
   6 -10  -4  927.71   35.60
  -6  10   4  942.71   34.30
  -6  10   4  903.51   35.90
   5 -10  -4   68.19    9.70
  -5  10   4   62.29    9.10
  -5  10   4   67.09    8.90
   4 -10  -4  601.14   25.90
  -4  10   4  584.64   26.20
  -4  10   4  586.64   26.00
  -3  10   4  243.58   13.70
  -3  10   4  257.67   16.00
  -3  10   4  308.27   18.50
  -2  10   4  274.97   18.40
  -2  10   4  234.38   12.80
  -1  10   4  208.08   17.00
  -1  10   4  183.18   11.10
  -1  10   4  188.58   20.30
   0  10   4  168.28   13.00
   0  10   4  166.88   10.90
   0  10   4  156.18   16.30
   1  10   4  663.33   34.30
   1  10   4  567.34   22.00
   2  10   4  167.78   16.10
   2  10   4  174.98   19.60
   3  10   4  514.75   34.20
  11 -11  -4   -2.60   10.50
 -11  11   4   -2.30   10.00
 -11  11   4    2.20    8.30
  10 -11  -4  485.05   29.60
 -10  11   4  511.95   31.70
 -10  11   4  526.35   27.60
   9 -11  -4    0.80    6.00
  -9  11   4    0.90    7.10
   8 -11  -4  406.16   25.10
  -8  11   4  444.06   22.80
  -8  11   4  402.46   25.40
   7 -11  -4  161.28   15.90
  -7  11   4  152.68   14.90
  -7  11   4  146.69   13.50
   6 -11  -4  597.74   28.60
  -6  11   4  649.14   28.50
  -6  11   4  608.44   28.60
   5 -11  -4  207.08   16.00
  -5  11   4  211.38   15.60
  -5  11   4  202.58   15.50
   4 -11  -4  176.18   14.60
  -4  11   4  184.88   15.20
  -4  11   4  191.48   14.30
  -3  11   4  469.15   24.90
  -3  11   4  414.56   21.10
  -3  11   4  417.66   18.90
  -2  11   4  186.98   16.60
  -2  11   4  199.18   14.30
  -2  11   4  167.78   11.80
  -1  11   4  242.28   19.70
  -1  11   4  208.28   14.80
   0  11   4  167.18   18.10
   0  11   4  131.09   12.30
   0  11   4  154.68   11.60
   1  11   4  363.16   26.60
   2  11   4  -12.30    8.80
  10 -12  -4  432.26   29.20
 -10  12   4  422.26   29.70
 -10  12   4  439.46   26.10
   9 -12  -4   30.10   10.10
  -9  12   4   48.30   11.10
  -9  12   4   35.40   10.60
   8 -12  -4  319.97   23.10
  -8  12   4  300.77   21.00
  -8  12   4  363.46   23.90
   7 -12  -4  172.18   16.90
  -7  12   4  176.68   16.60
   6 -12  -4  185.98   17.50
  -6  12   4  211.18   17.30
  -6  12   4  211.78   17.30
   5 -12  -4  246.48   18.30
  -5  12   4  196.08   16.30
  -5  12   4  223.58   17.90
  -4  12   4   40.50    8.00
  -4  12   4   36.40    8.00
  -3  12   4  289.17   16.50
  -3  12   4  297.07   21.40
  -3  12   4  317.97   18.30
  -2  12   4   11.30    6.20
  -2  12   4   29.60    9.90
  -2  12   4   28.30    6.70
  -1  12   4  558.24   29.90
  -1  12   4  622.74   33.60
  -1  12   4  627.84   24.10
   0  12   4   57.79   13.70
   8 -13  -4  170.88   19.50
  -8  13   4  191.68   18.80
  -8  13   4  164.18   18.50
   7 -13  -4  245.68   21.60
  -7  13   4  273.67   20.70
  -7  13   4  264.77   21.20
   6 -13  -4   19.80    9.30
  -6  13   4   29.40    9.80
  -6  13   4   25.90    9.20
  -5  13   4  300.47   19.40
  -5  13   4  309.27   22.40
  -5  13   4  294.17   20.20
  -4  13   4   75.09   11.90
  -4  13   4  102.69   15.00
  -4  13   4   71.39   12.00
  -3  13   4  113.09   13.90
  -3  13   4  121.49   16.70
  -2  13   4   11.80    9.00
  -1  13   4  360.96   27.70
  -2  14  -5   -1.00    8.80
  -2  14  -5    5.50   11.00
  -3  14  -5  136.29   17.00
  -3  14  -5  196.58   28.80
  -4  14  -5   17.20    8.40
  -4  14  -5   15.20   10.20
  -5  14  -5  253.07   29.00
  -5  14  -5  190.98   19.90
  -6  14  -5  100.99   16.60
   6 -14   5  105.39   21.30
   1  13  -5  354.56   24.40
   1  13  -5  432.06   30.60
   0  13  -5   46.00   11.20
   0  13  -5   34.10   10.60
  -1  13  -5  179.88   20.10
  -1  13  -5  190.38   18.00
  -2  13  -5   94.39   14.60
  -2  13  -5  125.29   14.80
  -3  13  -5  105.09   14.70
  -3  13  -5  133.99   16.10
  -4  13  -5  238.68   19.70
  -4  13  -5  184.78   18.60
  -5  13  -5  134.89   15.90
   5 -13   5  158.18   19.70
  -6  13  -5  371.36   25.30
   6 -13   5  388.06   28.40
  -7  13  -5   51.09   11.70
   7 -13   5   28.50   12.90
  -8  13  -5  220.88   21.00
   8 -13   5  206.38   23.30
   3  12  -5  299.07   23.30
   3  12  -5  330.97   28.70
   2  12  -5   96.59   17.00
   2  12  -5   96.89   14.70
   1  12  -5  148.69   16.00
   1  12  -5  159.38   18.20
   0  12  -5  133.19   14.80
   0  12  -5  131.59   16.10
  -1  12  -5  169.18   17.40
  -1  12  -5  167.48   16.00
  -2  12  -5  298.87   22.00
  -2  12  -5  295.17   20.30
  -3  12  -5   84.89   12.70
  -3  12  -5   88.79   13.10
  -4  12  -5  721.63   34.40
  -4  12  -5  765.02   34.60
   4 -12   5  712.03   36.20
  -5  12  -5   97.59   13.40
  -5  12  -5   96.99    8.60
   5 -12   5   77.79   14.10
  -6  12  -5  424.36   20.20
  -6  12  -5  439.56   26.20
   6 -12   5  465.25   28.90
  -7  12  -5   26.40    8.20
   7 -12   5   16.20    8.60
  -8  12  -5  445.26   27.70
   8 -12   5  442.96   30.00
  -9  12  -5    1.00    9.70
   9 -12   5    2.10    9.30
   4  11  -5   71.09   15.00
   4  11  -5   74.99   27.50
   3  11  -5  788.12   36.10
   3  11  -5  739.73   40.00
   2  11  -5  164.18   16.40
   2  11  -5  156.48   18.50
   1  11  -5  274.27   21.90
   1  11  -5  302.77   28.80
   0  11  -5  218.58   18.90
   0  11  -5  270.77   18.30
  -1  11  -5  601.24   28.80
  -2  11  -5  387.26   22.20
  -2  11  -5  403.56   24.20
  -3  11  -5  212.58   16.50
  -3  11  -5  196.38   16.40
  -4  11  -5  712.43   32.50
  -4  11  -5  664.93   21.70
   4 -11   5  753.12   35.30
  -5  11  -5    8.20    5.20
   5 -11   5    6.90    7.60
  -6  11  -5  508.95   27.30
   6 -11   5  457.05   28.10
  -7  11  -5    6.70    6.20
   7 -11   5   -0.80    6.40
  -8  11  -5  709.83   34.40
   8 -11   5  660.53   35.80
  -9  11  -5   29.70    8.90
   9 -11   5   35.80   11.80
   5  10  -5  448.46   27.70
   5  10  -5  441.46   31.80
   4  10  -5  141.79   18.20
   4  10  -5  137.89   16.30
   3  10  -5  267.27   22.60
   2  10  -5  460.65   28.60
   2  10  -5  563.24   27.50
   1  10  -5  322.37   21.80
   1  10  -5  303.87   19.40
   0  10  -5  536.85   27.80
   0  10  -5  496.65   25.20
  -1  10  -5  200.08   16.00
  -1  10  -5  233.88   16.20
  -2  10  -5  874.11   33.90
  -2  10  -5  787.62   34.00
  -3  10  -5  226.38   16.30
  -3  10  -5  209.98    9.00
  -3  10  -5  225.78    8.60
   3 -10   5  203.18   17.00
  -4  10  -5  616.24   23.00
  -4  10  -5  708.63   30.20
   4 -10   5  641.74   31.40
  -5  10  -5    3.50    4.60
   5 -10   5    5.60    4.90
  -6  10  -5  621.34   29.40
   6 -10   5  569.64   30.30
  -7  10  -5   11.60    5.80
   7 -10   5    4.00    6.60
  -8  10  -5  399.36   24.60
   8 -10   5  427.16   26.90
  -9  10  -5   36.10   10.40
   9 -10   5   23.90    8.50
 -10  10  -5  291.17   24.40
  10 -10   5  280.07   30.50
   6   9  -5  209.28   20.80
   6   9  -5  205.08   24.20
   5   9  -5  218.38   19.30
   5   9  -5  206.78   21.50
   4   9  -5  500.55   27.50
   4   9  -5  569.24   32.60
   3   9  -5  215.28   19.80
   3   9  -5  198.88   15.90
   2   9  -5  335.97   20.10
   2   9  -5  360.16   23.00
   1   9  -5  411.66   21.80
   1   9  -5  414.56   23.70
   0   9  -5  778.92   32.70
   0   9  -5  790.12   31.20
  -1   9  -5   49.30    7.80
  -1   9  -5   50.09    7.40
  -2   9  -5  519.15   24.10
  -2   9  -5  473.85   23.00
   2  -9   5  508.35   25.80
  -3   9  -5   64.59    6.20
  -3   9  -5   70.79    8.70
   3  -9   5   67.89    9.60
  -4   9  -5 1093.59   39.00
  -4   9  -5 1020.70   39.90
   4  -9   5 1115.89   41.80
  -5   9  -5   54.99    8.40
   5  -9   5   74.69   10.40
  -6   9  -5  708.53   30.90
   6  -9   5  717.13   32.90
  -7   9  -5  277.87   19.20
   7  -9   5  262.97   19.60
  -8   9  -5  408.46   24.50
   8  -9   5  359.76   24.30
  -9   9  -5   54.49   11.50
   9  -9   5   52.59   11.70
   9  -9   5   57.09   12.80
  10  -9   5  147.59   20.50
  10  -9   5  158.68   18.60
   7   8  -5  428.36   33.60
   7   8  -5  381.76   27.30
   6   8  -5  323.07   23.50
   6   8  -5  308.47   26.10
   5   8  -5    5.40    6.50
   5   8  -5   14.00    7.00
   4   8  -5 1170.38   43.40
   4   8  -5 1127.79   47.10
   3   8  -5   49.30    8.80
   3   8  -5   43.40   10.60
   2   8  -5  766.22   33.80
   2   8  -5  853.61   32.80
   1   8  -5    2.20    3.20
   1   8  -5   -1.80    3.00
   0   8  -5 1732.73   52.09
   0   8  -5 1675.93   52.79
  -1   8  -5   70.79    8.30
  -1   8  -5   80.39    8.60
  -2   8  -5  855.81   31.10
  -2   8  -5  829.22   22.40
  -2   8  -5  840.02   21.90
   2  -8   5  850.01   33.60
  -3   8  -5  190.58   10.50
  -3   8  -5  221.68   14.00
   3  -8   5  214.28   15.10
  -4   8  -5  763.02   29.80
   4  -8   5  778.72   31.80
  -5   8  -5  234.98   15.30
   5  -8   5  222.38   16.20
  -6   8  -5  266.37   17.40
   6  -8   5  279.27   18.80
  -7   8  -5  495.85   25.30
   7  -8   5  475.95   27.90
   7  -8   5  484.55   26.30
   8  -8   5   87.29   14.50
   8  -8   5  114.19   21.20
   9  -8   5  548.75   30.90
   9  -8   5  548.85   33.50
  10  -8   5  160.78   19.80
  10  -8   5  118.09   15.50
  11  -8   5  343.17   30.00
  11  -8   5  381.46   28.30
   8   7  -5  478.45   38.60
   8   7  -5  470.15   31.00
   7   7  -5  190.18   19.10
   7   7  -5  121.49   19.70
   6   7  -5  681.93   33.60
   6   7  -5  738.63   39.10
   5   7  -5   43.20    9.80
   5   7  -5   59.39   10.50
  -5  -7   5   51.99    9.30
   4   7  -5  673.73   32.50
   4   7  -5  647.94   29.20
   3   7  -5    6.10    3.90
   3   7  -5    7.60    4.80
   2   7  -5 1334.67   46.00
   2   7  -5 1397.36   44.60
   1   7  -5    3.50    2.50
   1   7  -5    4.70    3.30
   0   7  -5 1194.88   46.60
   0   7  -5 1148.29   38.40
  -1   7  -5  462.25   20.60
  -1   7  -5  471.45   20.50
  -2   7  -5 1778.42   52.19
  -2   7  -5 1836.12   45.00
   2  -7   5 1801.72   55.19
  -3   7  -5  444.06   19.80
   3  -7   5  414.86   20.70
  -4   7  -5  761.92   28.50
   4  -7   5  747.43   29.90
  -5   7  -5  773.42   29.90
   5  -7   5  722.83   30.30
   6  -7   5  407.56   21.70
   6  -7   5  359.26   22.10
   7  -7   5  609.34   31.20
   7  -7   5  591.54   28.30
   8  -7   5  100.19   12.30
   8  -7   5   69.09   12.10
   9  -7   5  703.93   38.00
   9  -7   5  676.93   33.40
  10  -7   5   -1.40    6.80
  10  -7   5    9.20    7.60
  11  -7   5  385.46   31.10
  11  -7   5  414.26   30.80
   8   6  -5  638.24   34.70
   8   6  -5  655.73   40.10
   7   6  -5   49.99   12.10
   7   6  -5   53.09   12.20
   6   6  -5  647.14   34.70
   6   6  -5  659.93   31.40
   5   6  -5   43.70   10.50
   5   6  -5   22.60    6.20
  -5  -6   5   40.00    6.80
   4   6  -5 1693.83   55.89
   4   6  -5 1651.63   52.49
  -4  -6   5 1634.24   41.80
   3   6  -5  131.39   11.00
   3   6  -5  132.89   11.80
  -3  -6   5  126.49    4.60
   2   6  -5 2020.90   60.39
   2   6  -5 2020.10   57.89
   1   6  -5  751.92   28.00
   1   6  -5  765.12   27.80
   0   6  -5 2599.64   67.29
   0   6  -5 2449.45   66.59
  -1   6  -5  549.25   21.10
  -1   6  -5  537.25   14.70
   1  -6   5  529.85   22.90
  -2   6  -5 1207.08   33.80
  -2   6  -5 1349.86   38.80
   2  -6   5 1257.27   40.40
  -3   6  -5 1771.52   50.49
  -3   6  -5 1771.72   48.40
   3  -6   5 1846.22   52.79
  -4   6  -5  554.94   32.10
   4  -6   5  538.65   23.70
   5  -6   5  892.01   35.80
   5  -6   5  955.30   34.10
   6  -6   5  195.68   14.30
   6  -6   5  189.68   15.70
   7  -6   5 1362.56   51.19
   7  -6   5 1339.87   46.70
   8  -6   5  123.79   14.80
   8  -6   5  126.89   13.30
   9  -6   5  613.54   35.20
   9  -6   5  580.34   30.40
  10  -6   5    8.60    7.40
  10  -6   5    5.00    7.80
  11  -6   5  302.87   29.80
  11  -6   5  312.37   25.10
   9   5  -5    6.50    8.60
   9   5  -5    6.90    9.30
   8   5  -5  811.82   42.70
   8   5  -5  883.91   40.50
   7   5  -5   -3.80    5.90
   7   5  -5   -0.30    5.70
   6   5  -5  382.96   24.50
   6   5  -5  339.77   21.20
   5   5  -5  172.78   15.30
   5   5  -5  164.58   13.50
  -5  -5   5  156.28   10.50
   4   5  -5 1071.59   40.10
   4   5  -5 1148.59   39.00
  -4  -5   5 1134.29   31.40
   3   5  -5  589.24   24.10
   3   5  -5  581.14   24.90
  -3  -5   5  580.84   16.70
   2   5  -5  699.13   26.70
   2   5  -5  727.63   26.50
   1   5  -5  698.93   24.90
   1   5  -5  663.93   24.40
   0   5  -5  989.90   30.60
   0   5  -5  986.30   31.30
  -1   5  -5 2330.07   55.59
  -1   5  -5 2454.45   61.09
   1  -5   5 2316.67   63.59
  -2   5  -5  961.10   29.40
  -2   5  -5  930.11   27.20
   2  -5   5  901.51   30.70
  -3   5  -5 3378.56   82.49
  -3   5  -5 3122.49   90.69
   3  -5   5 3351.96   84.09
   3  -5   5 3287.77   85.69
   4  -5   5  197.58   12.60
   4  -5   5  222.28   14.50
   5  -5   5 1837.62   57.59
   6  -5   5  279.97   16.80
   6  -5   5  294.77   19.20
   7  -5   5 1384.56   47.00
   7  -5   5 1401.66   51.69
   8  -5   5   13.30    6.10
   8  -5   5   14.40    7.20
   9  -5   5 1138.69   50.29
   9  -5   5 1169.68   59.29
  10  -5   5   15.20    7.90
  10  -5   5   15.80    8.30
  11  -5   5  376.76   32.10
  11  -5   5  438.16   28.60
  10   4  -5  636.74   40.70
  10   4  -5  570.94   35.00
   9   4  -5    0.50    6.90
   9   4  -5   -2.60    7.20
   8   4  -5  746.33   48.60
   8   4  -5  639.34   52.09
   7   4  -5  117.59   14.30
   7   4  -5  123.39   13.60
   6   4  -5  976.20   38.40
   6   4  -5 1071.99   42.10
   5   4  -5  148.39   13.00
   5   4  -5  179.88   13.50
   4   4  -5 1042.80   36.80
   4   4  -5 1032.60   35.50
   3   4  -5 1726.13   49.70
   3   4  -5 1730.23   50.19
   2   4  -5 1306.07   37.90
   2   4  -5 1258.27   37.60
  -2  -4   5 1160.88   38.50
  -2  -4   5 1245.78   29.80
   1   4  -5 1578.14   42.80
   1   4  -5 1611.54   47.40
   1   4  -5 1550.84   43.30
  -1  -4   5 1543.25   34.70
  -1  -4   5 1488.95   41.20
   0   4  -5  252.27   12.10
   0   4  -5  234.98   12.70
   0   4  -5  259.97    8.20
   0   4  -5  248.48   11.20
   0  -4   5  260.77   11.30
  -1   4  -5 3709.83   87.19
  -1   4  -5 3834.32   90.49
  -1   4  -5 3620.04   84.49
  -1   4  -5 3541.25   89.09
   1  -4   5 3590.24   89.69
  -2   4  -5  108.59    7.10
  -2   4  -5   93.49    7.70
   2  -4   5  110.69    7.90
   2  -4   5   90.79    7.70
  -3   4  -5 2929.71   74.39
   3  -4   5 2955.50   74.69
   3  -4   5 2955.70   77.29
   4  -4   5    8.20    3.00
   4  -4   5   11.00    4.00
   5  -4   5 2290.87   74.59
   5  -4   5 2347.27   63.99
   6  -4   5    2.30    3.50
   6  -4   5    6.20    3.80
   7  -4   5 1142.39   45.50
   7  -4   5 1095.39   39.50
   8  -4   5  104.89   11.70
   8  -4   5  117.39   14.80
   9  -4   5  988.70   39.70
   9  -4   5  948.01   45.70
  10  -4   5  139.89   19.60
  10  -4   5  155.78   17.40
  11  -4   5  393.76   27.00
  11  -4   5  340.97   31.50
  10   3  -5  744.73   41.90
  10   3  -5  627.54   36.10
   9   3  -5   77.89   14.60
   9   3  -5  100.19   14.60
   8   3  -5 1076.09   43.90
   8   3  -5 1106.49   46.80
   7   3  -5  285.67   20.50
   7   3  -5  332.87   20.50
   6   3  -5  766.32   31.70
   6   3  -5  789.32   33.20
   5   3  -5  669.03   27.70
   5   3  -5  636.34   31.20
   4   3  -5 1261.67   39.60
   4   3  -5 1250.97   39.70
   3   3  -5   98.79    7.90
   3   3  -5  109.29    8.40
  -3  -3   5   92.19    7.00
   2   3  -5  685.13   23.10
   2   3  -5  742.83   24.10
  -2  -3   5  734.53   19.50
  -2  -3   5  684.83   22.80
   1   3  -5 2816.72   70.39
   1   3  -5 2776.42   68.89
   1   3  -5 2826.92   67.69
  -1  -3   5 2733.33   66.39
  -1  -3   5 2841.82   63.99
  -1  -3   5 2762.72   68.19
   0   3  -5  454.95   15.10
   0   3  -5  445.86   16.30
   0   3  -5  425.16   16.70
   0   3  -5  441.36   16.20
   0   3  -5  445.36   13.80
   0  -3   5  443.36   13.50
  -1   3  -5 1574.14   42.80
  -1   3  -5 1594.34   40.90
  -1   3  -5 1546.15   40.30
  -1   3  -5 1553.44   42.00
   1  -3   5 1592.64   42.70
  -2   3  -5   97.99    7.00
  -2   3  -5   78.59    6.30
  -2   3  -5   68.79    6.70
   2  -3   5   87.99    6.60
   2  -3   5   86.19    7.10
  -3   3  -5 2009.90   54.89
  -3   3  -5 1959.00   52.89
   3  -3   5 2024.60   56.39
   3  -3   5 2135.29   53.79
   4  -3   5    0.60    1.80
   4  -3   5   -0.50    1.60
   5  -3   5 1748.03   49.70
   5  -3   5 1677.93   59.59
   6  -3   5  236.38   17.40
   6  -3   5  219.88   16.40
   7  -3   5  928.31   34.00
   7  -3   5  835.02   38.40
   8  -3   5  209.58   18.90
   8  -3   5  175.68   14.80
   9  -3   5  845.12   42.20
   9  -3   5  737.63   33.60
  10  -3   5  293.37   26.10
  10  -3   5  274.17   20.90
  11   2  -5  113.89   20.00
  11   2  -5   82.09   17.40
  10   2  -5  449.86   29.10
  10   2  -5  403.76   29.30
   9   2  -5  240.68   21.20
   9   2  -5  233.28   20.60
   8   2  -5 1154.78   44.80
   8   2  -5 1172.98   46.80
   7   2  -5  657.33   29.90
   7   2  -5  685.23   31.40
   6   2  -5  797.52   31.20
   6   2  -5  728.73   30.80
   5   2  -5 1480.05   45.70
   5   2  -5 1509.15   46.20
   4   2  -5 1083.89   34.30
   4   2  -5 1039.30   33.40
  -4  -2   5 1070.59   31.90
   3   2  -5 2153.18   53.99
   3   2  -5 2096.89   54.99
  -3  -2   5 2088.99   52.49
  -3  -2   5 1999.50   53.29
   2   2  -5 4236.18   97.39
   2   2  -5 4235.08   98.79
  -2  -2   5 4060.39   95.79
  -2  -2   5 4237.28   95.49
   1   2  -5 3027.50   73.59
   1   2  -5 3163.68   71.19
   1   2  -5 3181.68   71.89
  -1  -2   5 3052.99   71.09
  -1  -2   5 3160.28   71.89
  -1  -2   5 2976.10   72.99
   0   2  -5   41.40    3.80
   0   2  -5   33.20    3.90
   0   2  -5   44.90    4.00
   0   2  -5   34.80    3.00
   0   2  -5   35.50    3.60
   0  -2   5   38.90    3.50
  -1   2  -5 1833.42   46.90
  -1   2  -5 1849.42   47.80
  -1   2  -5 1893.41   48.50
   1  -2   5 1875.71   48.40
   1  -2   5 1934.51   48.10
   1  -2   5 1899.91   47.60
  -2   2  -5   65.59    7.00
  -2   2  -5   59.29    5.00
   2  -2   5   58.69    4.90
   2  -2   5   62.99    5.80
  -3   2  -5  733.43   27.10
  -3   2  -5  781.12   29.70
  -3   2  -5  734.83   23.80
   3  -2   5  782.42   27.60
   3  -2   5  791.62   24.40
  -4   2  -5  500.55   21.30
   4  -2   5  494.95   18.90
   4  -2   5  501.45   22.50
   5  -2   5 1612.54   46.40
   6  -2   5  350.66   21.60
   6  -2   5  335.27   17.20
   7  -2   5  291.57   21.10
   7  -2   5  287.87   17.10
   8  -2   5  575.94   32.90
   8  -2   5  559.54   26.50
   9  -2   5  199.58   21.30
   9  -2   5  254.27   18.50
  10  -2   5  576.84   30.00
  10  -2   5  512.55   35.50
  11   1  -5  308.77   28.00
  11   1  -5  331.77   25.70
  10   1  -5  538.15   32.90
  10   1  -5  521.05   30.80
   9   1  -5  315.37   22.10
   9   1  -5  355.96   24.10
   8   1  -5  286.07   19.90
   8   1  -5  256.07   18.70
   7   1  -5 1461.55   48.00
   7   1  -5 1343.77   47.30
   6   1  -5  467.45   21.80
   6   1  -5  419.76   20.70
   5   1  -5  828.82   29.90
   5   1  -5  868.81   29.70
   4   1  -5   18.10    3.60
   4   1  -5   24.50    4.10
  -4  -1   5   24.00    3.70
   3   1  -5 3008.10   73.89
   3   1  -5 2984.20   73.09
  -3  -1   5 3005.70   69.89
  -3  -1   5 2887.51   71.59
   2   1  -5   69.49    4.20
   2   1  -5   67.09    5.00
  -2  -1   5   84.49    4.10
  -2  -1   5   52.09    4.40
  -2  -1   5   62.49    4.60
   1   1  -5 3697.83   84.69
   1   1  -5 3497.25   82.69
   1   1  -5 3655.63   80.99
   1   1  -5 3595.64   80.09
  -1  -1   5 3459.75   81.99
  -1  -1   5 3543.65   83.29
   0   1  -5  287.67   10.70
   0   1  -5  294.67   10.50
   0   1  -5  275.67   11.60
   0   1  -5  290.87   10.20
   0  -1   5  299.87   10.60
   0  -1   5  288.47   12.00
  -1   1  -5 2258.47   55.69
  -1   1  -5 2150.08   53.09
  -1   1  -5 2236.78   56.69
   1  -1   5 2228.18   56.09
   1  -1   5 2314.97   57.09
   1  -1   5 2289.07   53.89
  -2   1  -5  452.45   17.20
  -2   1  -5  418.56   17.20
  -2   1  -5  423.16   14.40
   2  -1   5  454.95   14.80
   2  -1   5  425.86   17.60
   2  -1   5  416.66   17.20
  -3   1  -5 1055.49   37.70
  -3   1  -5  990.40   28.90
   3  -1   5  998.20   28.80
   3  -1   5 1021.10   33.70
   4  -1   5  664.53   22.30
   4  -1   5  623.44   26.40
   5  -1   5  986.50   31.80
   5  -1   5  976.70   37.70
   6  -1   5  973.90   40.20
   6  -1   5 1006.00   33.90
   7  -1   5  404.76   25.60
   7  -1   5  403.76   20.40
   8  -1   5 1032.10   38.40
   9  -1   5   12.40    9.00
   9  -1   5   15.00    6.30
  10  -1   5  712.73   34.30
  10  -1   5  813.72   44.60
  11   0  -5  274.67   24.80
  11   0  -5  276.87   23.90
  10   0  -5  244.98   21.10
  10   0  -5  233.08   20.10
   9   0  -5  638.74   32.50
   9   0  -5  654.13   32.00
   8   0  -5   13.00    5.70
   8   0  -5   13.00    4.80
   7   0  -5  958.10   36.00
   7   0  -5  998.50   37.10
   6   0  -5   70.99    7.70
   6   0  -5   72.59    8.10
   5   0  -5 3738.13   90.69
   5   0  -5 3637.64   92.09
  -5   0   5 3641.44   88.59
   4   0  -5  381.76   14.50
   4   0  -5  407.56   16.50
  -4   0   5  341.37   14.80
  -4   0   5  379.56   13.60
   3   0  -5 3009.00   72.79
   3   0  -5 3099.59   69.79
  -3   0   5 2934.91   71.79
  -3   0   5 2985.80   68.89
   2   0  -5 1132.69   26.30
   2   0  -5 1123.39   30.50
  -2   0   5 1106.29   30.60
  -2   0   5 1132.79   25.80
  -2   0   5 1100.09   29.10
   1   0  -5 4206.58   90.59
   1   0  -5 3987.20   96.19
   1   0  -5 4245.38   93.29
   1   0  -5 4252.47   91.29
  -1   0   5 4008.60   92.79
  -1   0   5 4159.28   97.29
   0   0  -5 1480.65   34.10
   0   0  -5 1443.86   35.40
   0   0  -5 1428.96   34.40
   0   0  -5 1354.76   38.50
   0   0   5 1449.15   35.50
   0   0   5 1440.86   38.90
  -1   0  -5 2965.80   74.19
  -1   0  -5 3003.90   68.09
  -1   0  -5 2953.50   71.79
   1   0   5 3031.20   68.49
   1   0   5 3010.10   72.39
   1   0   5 3065.99   74.79
  -2   0  -5 3000.60   76.19
  -2   0  -5 2980.30   75.59
  -2   0  -5 3050.79   70.29
   2   0   5 3073.69   77.29
   2   0   5 3035.40   70.19
   2   0   5 3024.70   75.99
  -3   0  -5  823.82   24.40
   3   0   5  837.42   30.00
   3   0   5  858.91   24.60
  -4   0  -5 1328.47   37.70
   4   0   5 1349.66   44.90
   4   0   5 1414.16   38.30
   5   0   5  703.63   24.80
   5   0   5  720.63   31.40
   6   0   5 1540.85   54.69
   6   0   5 1521.55   45.60
   7   0   5   56.49    8.30
   7   0   5   56.29   10.70
   8   0   5 1528.85   50.19
   8   0   5 1579.04   61.89
   9   0   5   11.20    7.30
   9   0   5   28.70    9.80
  10   0   5  562.74   29.80
  10   0   5  445.46   35.30
  12  -1  -5  225.78   24.20
  12  -1  -5  301.57   40.70
  11  -1  -5  449.66   30.80
  11  -1  -5  521.35   31.30
  10  -1  -5  167.58   17.00
  10  -1  -5  168.88   17.40
   9  -1  -5  903.91   38.30
   9  -1  -5  939.11   39.30
   8  -1  -5    1.70    3.40
   8  -1  -5    3.80    4.00
   7  -1  -5  577.64   26.00
   7  -1  -5  601.94   25.50
   6  -1  -5    7.00    3.30
   6  -1  -5    2.20    2.50
   5  -1  -5 3148.68   80.79
   5  -1  -5 3234.38   78.49
  -5   1   5 3137.29   76.89
   4  -1  -5  814.92   26.10
   4  -1  -5  793.62   23.30
  -4   1   5  785.62   25.10
  -4   1   5  797.12   22.60
   3  -1  -5 5649.83  124.79
   3  -1  -5 5727.93  129.19
  -3   1   5 5646.63  124.29
  -3   1   5 5563.54  128.19
  -3   1   5 5647.54  130.49
   2  -1  -5  209.28    8.30
   2  -1  -5  194.18    9.60
  -2   1   5  192.38    7.80
  -2   1   5  204.78    9.80
   1  -1  -5 1941.51   43.40
   1  -1  -5 1826.12   49.40
   1  -1  -5 1960.70   44.60
  -1   1   5 1943.41   43.80
  -1   1   5 1908.71   44.20
  -1   1   5 2002.90   50.39
   0  -1  -5  997.00   30.50
   0  -1  -5 1034.00   23.20
   0  -1  -5 1020.90   26.60
   0  -1  -5 1021.70   23.20
   0   1   5 1028.50   27.20
   0   1   5  994.90   30.60
  -1  -1  -5 3972.80   92.09
  -1  -1  -5 3786.02   94.79
  -1  -1  -5 3878.01   89.59
   1   1   5 3879.41   95.49
   1   1   5 4040.40   93.19
   1   1   5 3911.41   86.29
  -2  -1  -5  897.41   23.20
  -2  -1  -5  817.32   27.70
  -2  -1  -5  983.60   37.80
   2   1   5  913.21   30.60
   2   1   5  870.01   23.00
   2   1   5  864.01   29.20
  -3  -1  -5  478.05   15.80
   3   1   5  488.55   16.10
   3   1   5  508.65   22.00
  -4  -1  -5 1709.83   45.40
   4   1   5 1761.72   46.00
   4   1   5 1726.83   54.39
   5   1   5  903.51   37.40
   5   1   5  920.31   29.60
   6   1   5 1548.15   45.60
   6   1   5 1485.45   55.29
   7   1   5   21.10    5.80
   7   1   5   27.30    9.70
   8   1   5  858.71   33.60
   8   1   5  841.92   43.40
   9   1   5   95.79   14.60
   9   1   5   95.19   19.10
  12  -2  -5   36.80   10.90
  12  -2  -5   41.10   11.90
  11  -2  -5  785.92   39.10
  11  -2  -5  731.03   37.60
  10  -2  -5    8.20    6.50
  10  -2  -5   22.90    7.60
   9  -2  -5  881.11   37.60
   9  -2  -5  944.31   38.30
   8  -2  -5   65.29   10.40
   8  -2  -5   53.79    8.40
   7  -2  -5 2048.00   61.79
   7  -2  -5 2199.48   60.99
   6  -2  -5   80.49    8.20
   6  -2  -5   76.79    7.20
  -6   2   5   57.49    6.70
   5  -2  -5 2504.55   64.69
   5  -2  -5 2388.16   61.09
  -5   2   5 2420.76   60.59
   4  -2  -5 1108.89   29.00
   4  -2  -5 1102.99   32.30
  -4   2   5 1076.99   28.70
  -4   2   5 1046.10   31.20
   3  -2  -5 5102.89  113.69
  -3   2   5 4871.61  108.19
  -3   2   5 4863.21  115.79
  -3   2   5 4819.72  112.69
  -3   2   5 5018.90  109.29
   2  -2  -5 2639.24   66.99
   2  -2  -5 2756.62   62.99
  -2   2   5 2661.33   66.99
  -2   2   5 2742.23   59.99
  -2   2   5 2759.92   62.69
  -2   2   5 2667.83   60.19
   1  -2  -5 2856.61   64.39
   1  -2  -5 2853.51   62.89
   1  -2  -5 2723.53   70.09
  -1   2   5 2797.52   62.69
  -1   2   5 2874.61   70.79
  -1   2   5 2857.11   64.79
   0  -2  -5 2211.88   58.89
   0  -2  -5 2250.57   54.09
   0   2   5 2280.87   58.89
   0   2   5 2202.28   54.79
  -1  -2  -5 2191.38   59.79
  -1  -2  -5 2252.37   49.20
  -1  -2  -5 2240.18   56.99
   1   2   5 2300.97   49.20
   1   2   5 2239.98   58.09
   1   2   5 2265.17   60.49
  -2  -2  -5 1480.05   36.00
   2   2   5 1565.44   36.60
   2   2   5 1535.35   45.00
   2   2   5 1489.65   45.70
  -3  -2  -5 1016.40   27.50
   3   2   5  999.80   36.10
   3   2   5 1059.19   28.30
  -4  -2  -5 1552.34   42.80
   4   2   5 1595.94   42.70
   4   2   5 1642.54   52.89
   5   2   5   -0.60    4.00
   5   2   5    1.80    2.40
   6   2   5 1517.95   45.50
   6   2   5 1546.65   57.39
   7   2   5    0.10    5.50
   7   2   5    3.20    4.50
   8   2   5  355.26   20.50
   8   2   5  338.47   28.30
   9   2   5  110.39   21.70
   9   2   5  112.19   18.20
  12  -3  -5   -2.60    7.80
  12  -3  -5   -0.40    8.30
  11  -3  -5  774.12   38.30
  10  -3  -5    5.90    5.40
   9  -3  -5  512.75   26.30
   9  -3  -5  495.75   26.60
   8  -3  -5  289.77   18.30
   8  -3  -5  279.77   16.90
   7  -3  -5 1547.05   46.70
   7  -3  -5 1535.05   48.70
   6  -3  -5 1006.50   34.00
   6  -3  -5 1011.70   31.70
  -6   3   5  960.90   31.00
   5  -3  -5 2047.20   55.49
   5  -3  -5 2062.59   52.29
  -5   3   5 2026.90   52.29
   4  -3  -5 1034.00   30.60
   4  -3  -5 1038.50   27.80
  -4   3   5 1016.30   27.90
  -4   3   5 1042.20   32.60
  -4   3   5  988.20   30.10
   3  -3  -5 1049.59   28.90
  -3   3   5 1011.60   31.40
  -3   3   5 1037.70   25.60
  -3   3   5 1039.70   28.70
  -3   3   5 1050.09   26.90
   2  -3  -5 4027.30   99.89
   2  -3  -5 4181.08   93.49
   2  -3  -5 4228.18   94.39
  -2   3   5 4167.48   99.99
  -2   3   5 4249.77   93.99
  -2   3   5 4201.08   94.39
   1  -3  -5  117.49    8.40
   1  -3  -5  136.29    4.60
   1  -3  -5  127.69    6.40
  -1   3   5  137.89    6.80
  -1   3   5  125.99    8.70
  -1   3   5  122.79    4.40
   0  -3  -5 2112.69   56.59
   0  -3  -5 2098.59   52.69
   0   3   5 2136.69   56.89
   0   3   5 2052.99   53.49
  -1  -3  -5  178.08   10.10
   1   3   5  173.38    4.80
   1   3   5  158.08   10.20
   1   3   5  181.88   11.70
   1   3   5  183.48    4.90
  -2  -3  -5 2710.73   62.19
   2   3   5 2795.12   73.79
   2   3   5 2723.63   62.69
   2   3   5 2697.13   73.89
  -3  -3  -5  446.76   14.40
   3   3   5  445.46   15.00
   3   3   5  436.26   22.10
  -4  -3  -5 2350.16   59.89
   4   3   5 2504.05   61.39
   4   3   5 2486.65   73.99
   5   3   5   61.29    6.70
   5   3   5   61.39   12.70
   6   3   5  707.53   26.20
   6   3   5  691.43   36.20
   7   3   5   86.49   14.80
   7   3   5   84.29   10.80
   8   3   5  360.16   21.10
   8   3   5  363.26   30.70
  12  -4  -5   65.49   14.40
  12  -4  -5   72.89   15.30
  11  -4  -5  664.53   35.40
  11  -4  -5  744.93   36.10
  10  -4  -5   50.29   10.40
   9  -4  -5 1220.58   45.70
   9  -4  -5 1236.78   44.50
   8  -4  -5   31.00    6.90
   8  -4  -5   42.30    7.10
   7  -4  -5  845.12   32.50
   7  -4  -5  895.71   30.80
   6  -4  -5 1333.37   40.90
   6  -4  -5 1276.07   37.90
  -6   4   5 1220.68   37.60
   5  -4  -5  739.73   23.40
   5  -4  -5  716.93   25.40
  -5   4   5  713.53   23.40
   4  -4  -5 2456.25   60.89
  -4   4   5 2360.86   56.59
  -4   4   5 2345.97   58.69
  -4   4   5 2403.86   60.69
  -4   4   5 2367.36   63.49
   3  -4  -5 1019.60   28.40
  -3   4   5 1040.20   32.20
  -3   4   5 1002.30   28.50
  -3   4   5 1008.80   26.70
  -3   4   5 1011.20   28.20
   2  -4  -5 3563.14   88.39
   2  -4  -5 3485.65   82.79
   2  -4  -5 3671.53   81.89
  -2   4   5 3643.34   82.09
  -2   4   5 3564.94   88.39
  -2   4   5 3542.15   83.29
   1  -4  -5   22.30    3.20
   1  -4  -5   26.30    2.40
   1  -4  -5   27.30    4.90
  -1   4   5   26.30    3.60
  -1   4   5   25.80    2.20
  -1   4   5   26.70    4.60
   0  -4  -5 2147.09   54.89
   0   4   5 2138.99   47.10
   0   4   5 2054.19   55.79
   0   4   5 2126.49   58.39
   0   4   5 2156.28   47.10
   1   4   5    1.00    2.00
   1   4   5   20.80    5.00
   1   4   5    2.20    1.00
   1   4   5    3.30    1.30
   2   4   5 2351.36   55.59
   2   4   5 2342.77   55.79
   2   4   5 2434.76   67.39
   2   4   5 2381.66   67.59
  -3  -4  -5  365.96   12.80
   3   4   5  367.36   21.20
   3   4   5  370.86   13.40
  -4  -4  -5 2363.76   59.59
   4   4   5 2421.86   74.89
   4   4   5 2474.75   61.09
   5   4   5  791.82   37.50
   5   4   5  730.63   25.40
   6   4   5  524.85   21.90
   6   4   5  547.55   32.80
   7   4   5  265.77   16.90
   7   4   5  259.97   25.00
   8   4   5  123.79   23.70
   8   4   5   94.69   19.10
  12  -5  -5   86.49   14.90
  12  -5  -5   45.60   11.70
  11  -5  -5  518.45   30.20
  11  -5  -5  615.24   32.50
  10  -5  -5  160.98   15.70
   9  -5  -5  946.61   38.90
   9  -5  -5  976.00   37.50
   8  -5  -5  663.43   29.30
   8  -5  -5  662.13   27.60
   7  -5  -5 1789.12   51.29
   7  -5  -5 1716.93   53.29
   6  -5  -5 1086.99   33.90
   6  -5  -5 1125.59   36.50
  -6   5   5 1027.60   39.40
  -6   5   5 1094.49   31.70
   5  -5  -5  369.56   16.40
  -5   5   5  364.76   13.60
  -5   5   5  343.07   17.60
  -5   5   5  342.17   15.40
   4  -5  -5 2461.75   61.59
  -4   5   5 2391.46   60.99
  -4   5   5 2414.66   61.79
  -4   5   5 2400.46   64.69
  -4   5   5 2378.36   58.49
   3  -5  -5   25.40    3.50
  -3   5   5   19.60    3.80
  -3   5   5   25.10    4.00
  -3   5   5   27.70    3.40
  -3   5   5   21.00    4.40
  -2   5   5 1393.26   41.50
  -2   5   5 1362.36   37.80
  -2   5   5 1379.86   35.40
  -1   5   5   13.90    2.10
  -1   5   5   18.60    4.20
  -1   5   5   14.70    3.60
  -1   5   5   13.50    2.40
   0   5   5 2144.99   58.89
   0   5   5 2150.18   49.50
   0   5   5 2182.18   49.70
   0   5   5 2160.58   60.19
   1   5   5   29.60    2.90
   1   5   5   29.20    5.50
   1   5   5   31.70    2.80
   1   5   5   30.20    5.80
   2   5   5 2088.39   49.30
   2   5   5 1960.90   49.00
   2   5   5 2055.29   62.19
   2   5   5 2074.49   60.79
   3   5   5  373.96   22.10
   3   5   5  332.57   12.90
   3   5   5  324.37   13.40
  -4  -5  -5  413.36   16.00
   4   5   5  436.86   26.20
   4   5   5  416.96   16.30
   5   5   5  875.81   41.30
   5   5   5  828.22   27.80
   6   5   5  385.96   28.60
   6   5   5  403.96   19.00
   7   5   5  349.47   29.80
  12  -6  -5  167.98   19.50
  12  -6  -5  184.28   19.70
  11  -6  -5  533.35   30.50
  11  -6  -5  597.24   32.40
  10  -6  -5  161.28   15.50
  10  -6  -5  182.88   17.00
   9  -6  -5  301.27   20.00
   9  -6  -5  317.67   19.40
   8  -6  -5 1057.59   42.40
   8  -6  -5 1087.09   40.00
   7  -6  -5  838.82   32.30
  -7   6   5  870.81   28.50
   6  -6  -5 2131.29   60.09
  -6   6   5 2123.59   62.39
  -6   6   5 2130.49   55.29
   5  -6  -5  398.26   17.80
  -5   6   5  417.96   15.90
  -5   6   5  457.55   20.70
  -5   6   5  394.96   18.70
   4  -6  -5 1920.91   50.49
  -4   6   5 1823.62   51.39
  -4   6   5 1892.61   53.89
  -4   6   5 1862.71   48.50
   3  -6  -5   32.80    4.20
   3  -6  -5   27.60    4.40
  -3   6   5   34.50    4.80
  -3   6   5   24.30    4.90
  -3   6   5   39.50    4.70
   2  -6  -5 1073.39   30.10
  -2   6   5 1090.09   33.10
  -2   6   5 1052.79   29.60
  -2   6   5 1062.89   35.30
  -1   6   5   24.80    5.00
  -1   6   5   19.30    3.30
  -1   6   5   21.70    2.80
  -1   6   5   24.90    4.60
   0   6   5 1499.85   36.90
   0   6   5 1502.95   37.20
   0   6   5 1512.75   46.60
   0   6   5 1528.55   46.70
   1   6   5  869.21   23.60
   1   6   5  907.21   32.90
   1   6   5  908.31   34.40
   1   6   5  869.01   23.70
   2   6   5 1945.21   58.39
   2   6   5 1825.42   46.30
   2   6   5 1937.31   60.89
   2   6   5 1857.41   47.20
   3   6   5  703.33   23.10
   3   6   5  697.73   33.80
   3   6   5  712.23   22.10
   4   6   5  203.58   11.40
   4   6   5  246.98   20.70
   5   6   5  612.14   35.70
   5   6   5  594.64   22.20
   6   6   5   83.59   16.50
   7   6   5  574.64   39.90
  12  -7  -5  263.97   22.90
  12  -7  -5  277.67   24.20
  11  -7  -5  106.99   15.00
  11  -7  -5  110.09   14.90
  10  -7  -5  842.92   38.70
  10  -7  -5  883.71   37.20
   9  -7  -5  277.47   19.50
  -9   7   5  265.57   15.90
   8  -7  -5  731.13   31.40
  -8   7   5  732.73   27.10
   7  -7  -5    0.40    3.20
  -7   7   5    0.70    2.50
   6  -7  -5 2121.79   60.39
  -6   7   5 2074.79   62.89
  -6   7   5 2205.88   56.99
   5  -7  -5  224.58   12.70
  -5   7   5  222.48   15.50
  -5   7   5  224.38   11.60
   4  -7  -5 1206.08   35.40
  -4   7   5 1115.79   38.20
  -4   7   5 1174.38   35.00
   3  -7  -5  510.15   18.90
  -3   7   5  498.65   21.70
  -3   7   5  488.95   18.70
  -3   7   5  501.05   19.80
   2  -7  -5 1791.62   47.40
  -2   7   5 1763.12   51.79
  -2   7   5 1782.22   52.49
  -2   7   5 1823.22   51.29
  -1   7   5   54.99    5.50
  -1   7   5   53.19    4.60
  -1   7   5   62.59    7.60
  -1   7   5   54.39    7.10
   0   7   5  915.91   25.90
   0   7   5  954.70   35.20
   0   7   5  921.01   25.40
   0   7   5  958.80   34.00
   1   7   5 1002.50   38.80
   1   7   5 1074.09   43.30
   1   7   5  975.10   27.20
   1   7   5  987.80   27.30
   2   7   5  160.68    9.10
   2   7   5  163.08   15.40
   2   7   5  178.08   14.50
   2   7   5  172.68    8.80
   3   7   5  855.11   39.80
   3   7   5  869.91   26.00
   4   7   5   65.59    8.00
   4   7   5   65.29   14.50
   5   7   5  514.15   33.60
   6   7   5   33.80   15.30
  12  -8  -5  263.67   29.80
 -12   8   5  227.18   20.20
  11  -8  -5    7.50    7.40
 -11   8   5   14.60    6.80
  10  -8  -5  880.01   38.90
 -10   8   5  858.91   33.80
   9  -8  -5    4.40    5.00
  -9   8   5   -0.70    3.50
   8  -8  -5 1283.47   45.90
  -8   8   5 1275.97   40.90
  -8   8   5 1358.26   49.10
   7  -8  -5   82.39   10.00
  -7   8   5   79.69    8.30
  -7   8   5   79.49   10.20
   6  -8  -5 1031.60   35.60
  -6   8   5  980.70   32.30
  -6   8   5 1006.40   37.40
   5  -8  -5  674.53   25.80
  -5   8   5  718.43   25.30
  -5   8   5  640.84   27.70
   4  -8  -5  809.62   28.00
  -4   8   5  780.02   28.00
  -4   8   5  803.32   35.30
   3  -8  -5  363.26   16.20
  -3   8   5  331.47   16.90
  -3   8   5  334.77   18.10
  -2   8   5  703.23   23.90
  -2   8   5  733.33   22.70
  -2   8   5  701.33   34.50
  -2   8   5  746.53   29.00
  -1   8   5 1113.49   30.70
  -1   8   5 1095.49   32.90
  -1   8   5 1135.69   39.60
  -1   8   5 1100.49   37.90
   0   8   5  709.83   33.60
   0   8   5  747.53   31.70
   0   8   5  700.13   22.10
   0   8   5  718.33   21.60
   1   8   5 1286.47   34.60
   1   8   5 1295.07   34.80
   1   8   5 1304.07   48.20
   1   8   5 1318.97   44.10
   2   8   5   70.89   12.20
   2   8   5   59.79    6.40
   3   8   5  658.33   21.50
   3   8   5  670.23   36.10
   4   8   5   -3.00    7.80
   5   8   5  524.85   35.80
  12  -9  -5  511.65   32.60
 -12   9   5  532.55   29.00
  11  -9  -5   53.19   12.70
 -11   9   5   66.39   12.20
  10  -9  -5  560.44   30.60
 -10   9   5  610.24   27.30
  -9   9   5  153.58   12.50
  -9   9   5  146.29   17.60
   8  -9  -5 1306.57   47.40
  -8   9   5 1421.46   51.09
  -8   9   5 1371.06   43.80
   7  -9  -5  509.45   24.50
  -7   9   5  509.65   22.10
  -7   9   5  539.45   27.00
   6  -9  -5  938.71   34.10
  -6   9   5  875.61   31.30
  -6   9   5  906.71   35.60
   5  -9  -5  611.94   25.20
  -5   9   5  624.04   24.80
  -5   9   5  574.04   26.40
   4  -9  -5 1014.90   34.10
  -4   9   5 1036.60   35.30
  -4   9   5  975.40   36.20
   3  -9  -5  605.94   23.80
  -3   9   5  640.84   26.60
  -3   9   5  600.84   26.30
  -2   9   5  491.95   23.30
  -2   9   5  522.05   24.50
  -2   9   5  512.85   18.40
  -1   9   5  835.52   31.90
  -1   9   5  796.52   26.50
  -1   9   5  807.72   33.80
  -1   9   5  846.82   25.30
   0   9   5    3.10    2.90
   0   9   5    3.30    5.60
   0   9   5    2.80    3.90
   1   9   5 1474.35   39.40
   1   9   5 1494.25   54.99
   1   9   5 1487.45   49.20
   2   9   5   22.70    8.10
   2   9   5   28.70    5.40
   3   9   5  464.05   31.20
   4   9   5   33.00   12.70
  11 -10  -5   18.90    8.70
 -11  10   5   24.70   10.30
 -11  10   5   25.00    9.30
  10 -10  -5 1057.19   45.10
 -10  10   5 1062.89   40.20
 -10  10   5 1101.69   48.40
   9 -10  -5   86.29   12.60
  -9  10   5  101.59   11.40
  -9  10   5  104.69   14.20
   8 -10  -5  667.03   30.90
  -8  10   5  617.84   31.40
  -8  10   5  680.53   27.80
   7 -10  -5  607.24   28.00
  -7  10   5  595.74   25.80
  -7  10   5  604.74   29.60
   6 -10  -5  436.76   22.50
  -6  10   5  442.66   21.40
  -6  10   5  432.46   23.70
   5 -10  -5  181.78   13.30
  -5  10   5  158.28   14.10
  -5  10   5  186.28   13.60
   4 -10  -5  323.47   17.70
  -4  10   5  293.77   18.60
  -4  10   5  334.37   18.60
  -3  10   5 1248.28   37.90
  -3  10   5 1352.96   44.70
  -3  10   5 1307.67   45.10
  -2  10   5  437.96   23.50
  -2  10   5  397.96   20.60
  -2  10   5  415.36   16.80
  -1  10   5  743.83   33.30
  -1  10   5  671.43   22.90
  -1  10   5  692.83   28.80
   0  10   5    6.40    5.50
   0  10   5    2.50    3.80
   0  10   5    5.70    6.00
   1  10   5  525.85   30.90
   2  10   5    8.40    8.10
   3  10   5  423.66   32.20
 -11  11   5  141.99   29.80
  10 -11  -5  465.95   28.70
 -10  11   5  506.55   25.90
 -10  11   5  458.55   30.60
   9 -11  -5  224.68   19.40
  -9  11   5  227.58   17.20
  -9  11   5  259.17   22.20
   8 -11  -5  261.37   20.10
  -8  11   5  325.97   19.10
  -8  11   5  287.47   21.60
   7 -11  -5  330.97   21.10
  -7  11   5  351.06   22.60
  -7  11   5  330.77   19.30
   6 -11  -5  103.49   12.50
  -6  11   5   95.19   12.20
  -6  11   5  104.29   12.00
   5 -11  -5  434.56   22.80
  -5  11   5  443.86   23.10
  -5  11   5  440.06   24.10
   4 -11  -5  121.69   12.20
  -4  11   5  107.09   11.90
  -4  11   5  103.09   10.10
  -4  11   5  132.99   13.10
  -3  11   5  648.74   28.50
  -3  11   5  706.53   31.50
  -3  11   5  703.53   25.20
  -2  11   5    1.20    4.90
  -2  11   5   11.30    4.60
  -2  11   5    4.90    5.60
  -1  11   5  999.70   37.10
  -1  11   5 1053.09   43.40
  -1  11   5 1014.70   31.20
   0  11   5    6.50    6.80
   0  11   5   19.80    8.60
   1  11   5  251.77   23.30
   2  11   5   71.49   15.70
  10 -12  -5   42.50   12.20
 -10  12   5   57.89   12.70
 -10  12   5   80.59   17.30
   9 -12  -5  269.17   22.10
  -9  12   5  286.27   23.20
  -9  12   5  264.17   20.00
   8 -12  -5   22.00    8.90
  -8  12   5    9.30    8.20
  -8  12   5    8.70    6.80
   7 -12  -5  247.48   22.70
  -7  12   5  270.47   19.90
   6 -12  -5   10.10    7.10
  -6  12   5    2.40    6.40
  -6  12   5   -0.30    6.30
   5 -12  -5  619.94   29.30
  -5  12   5  648.74   30.50
  -5  12   5  622.94   29.30
  -4  12   5   -1.10    6.00
  -4  12   5    5.50    5.10
  -3  12   5  337.17   17.20
  -3  12   5  331.67   22.60
  -3  12   5  339.17   20.30
  -2  12   5   22.80    8.10
  -2  12   5   31.20    7.10
  -2  12   5   29.70    7.90
  -1  12   5  178.58   20.10
  -1  12   5  163.48   14.90
   0  12   5  350.26   27.30
   8 -13  -5    9.40    9.00
  -8  13   5    1.80    9.10
  -8  13   5    0.10    8.50
   7 -13  -5  332.17   24.20
  -7  13   5  332.17   22.80
  -7  13   5  314.47   23.80
   6 -13  -5    6.70    8.70
  -6  13   5   18.80    8.70
  -6  13   5   20.90   12.80
  -5  13   5  304.07   20.70
  -5  13   5  273.57   18.50
  -5  13   5  262.87   21.70
  -4  13   5  126.49   14.40
  -4  13   5  129.19   14.20
  -4  13   5   90.69   14.70
  -3  13   5  366.26   26.00
  -2  13   5   79.59   15.90
  -2  14  -6  122.29   16.40
  -2  14  -6  133.69   19.40
  -3  14  -6   66.19   13.90
  -3  14  -6   84.19   16.00
  -4  14  -6  203.28   25.50
  -4  14  -6  259.67   21.20
  -5  14  -6  114.49   17.10
   1  13  -6   59.89   12.10
   1  13  -6   98.79   17.70
   0  13  -6  177.88   18.90
   0  13  -6  152.08   20.00
  -1  13  -6  143.79   18.10
  -1  13  -6  119.79   15.00
  -2  13  -6  199.78   18.70
  -2  13  -6  235.98   21.10
  -3  13  -6   63.69   13.70
  -3  13  -6   44.30   10.30
  -4  13  -6  557.44   31.60
  -4  13  -6  545.85   29.90
  -5  13  -6   18.90    8.30
  -5  13  -6   12.90    6.40
   5 -13   6   24.40   10.20
  -6  13  -6  292.87   23.00
   6 -13   6  331.27   26.80
  -7  13  -6    8.30    8.40
   7 -13   6   -4.80   11.00
   3  12  -6   95.89   18.80
   3  12  -6  114.49   16.80
   2  12  -6  218.98   22.90
   2  12  -6  210.68   20.00
   1  12  -6  142.29   15.90
   1  12  -6  142.49   17.50
   0  12  -6  365.96   23.90
   0  12  -6  417.46   27.30
  -1  12  -6   79.99   12.50
  -1  12  -6   64.79   12.00
  -2  12  -6  552.24   30.50
  -2  12  -6  578.24   29.30
  -3  12  -6   99.39   13.30
  -3  12  -6  126.49   13.70
  -4  12  -6  637.94   31.80
  -4  12  -6  618.04   31.00
   4 -12   6  541.75   32.20
  -5  12  -6    4.70    4.20
  -5  12  -6    2.20    5.50
   5 -12   6    4.30    6.50
  -6  12  -6  448.96   26.50
   6 -12   6  372.26   27.10
  -7  12  -6   12.90    7.50
   7 -12   6   46.70   13.30
  -8  12  -6  405.36   26.30
   8 -12   6  359.26   27.50
   4  11  -6   84.09   15.70
   4  11  -6   63.59   19.80
   3  11  -6  161.98   19.00
   3  11  -6  141.09   16.20
   2  11  -6  259.77   19.70
   2  11  -6  237.18   21.70
   1  11  -6  146.69   16.40
   1  11  -6  130.69   14.60
   0  11  -6  548.25   29.50
   0  11  -6  487.25   28.60
  -1  11  -6  189.28   15.70
  -1  11  -6  175.38   16.80
  -2  11  -6  499.05   25.80
  -2  11  -6  485.95   33.20
  -3  11  -6    4.90    5.20
  -3  11  -6    7.00    5.40
  -4  11  -6  854.61   38.90
  -4  11  -6  730.23   22.90
  -5  11  -6   11.40    5.10
   5 -11   6   18.20    7.00
  -6  11  -6  533.85   28.60
   6 -11   6  523.25   30.80
  -7  11  -6   31.10    7.70
   7 -11   6   26.50   10.40
  -8  11  -6  526.75   29.80
   8 -11   6  491.55   31.30
  -9  11  -6   52.59   11.50
   9 -11   6   47.70   11.90
   5  10  -6  117.59   16.60
   5  10  -6  105.29   19.40
   4  10  -6  362.06   27.30
   4  10  -6  358.16   24.20
   3  10  -6  154.88   15.90
   3  10  -6  163.58   18.40
   2  10  -6  322.97   20.60
   2  10  -6  303.97   22.30
   1  10  -6   49.50    9.60
   1  10  -6   23.40    7.20
   0  10  -6  893.41   35.60
   0  10  -6  842.22   36.70
  -1  10  -6   34.60    8.50
  -1  10  -6   33.90    7.80
  -2  10  -6  747.73   32.00
  -2  10  -6  769.72   33.00
  -3  10  -6   25.40    6.40
  -3  10  -6   31.20    3.60
  -3  10  -6   39.80    4.50
   3 -10   6   54.19   11.40
  -4  10  -6  673.23   29.70
  -4  10  -6  574.04   22.40
   4 -10   6  676.03   32.30
  -5  10  -6   37.90    8.30
   5 -10   6   32.50    8.40
  -6  10  -6  459.35   35.40
   6 -10   6  540.15   38.10
  -7  10  -6  125.19   14.10
   7 -10   6  139.29   15.80
  -8  10  -6  310.27   22.30
   8 -10   6  308.57   23.90
  -9  10  -6  224.08   19.90
   9 -10   6  195.08   20.70
 -10  10  -6  180.78   19.30
  10 -10   6  188.98   21.20
   6   9  -6  318.67   28.50
   6   9  -6  328.97   24.70
   5   9  -6   96.29   14.40
   5   9  -6   62.69   14.10
   4   9  -6  359.76   25.80
   3   9  -6   15.70    7.00
   3   9  -6   10.20    6.00
   2   9  -6  437.36   23.50
   2   9  -6  396.06   24.30
   1   9  -6   24.40    6.20
   1   9  -6   22.90    6.60
   0   9  -6  560.24   26.10
   0   9  -6  586.24   27.60
  -1   9  -6  219.38   15.40
  -1   9  -6  202.78   14.60
  -2   9  -6  584.54   26.30
  -2   9  -6  591.14   26.50
  -3   9  -6  298.57   17.60
  -3   9  -6  269.67   12.30
   3  -9   6  295.27   19.40
  -4   9  -6  385.06   21.00
   4  -9   6  413.46   23.60
  -5   9  -6  342.17   20.10
   5  -9   6  328.77   21.40
  -6   9  -6  334.87   20.70
   6  -9   6  367.46   22.70
  -7   9  -6  586.44   31.80
   7  -9   6  534.95   43.00
  -8   9  -6   61.59   10.90
   8  -9   6   50.79   10.40
  -9   9  -6  571.94   31.30
   9  -9   6  585.64   35.60
   9  -9   6  554.04   32.40
  10  -9   6   59.19   14.20
  10  -9   6   56.19   12.90
   7   8  -6   98.59   16.80
   7   8  -6   92.19   19.50
   6   8  -6  537.65   33.70
   6   8  -6  450.75   28.20
   5   8  -6   12.60   12.60
   5   8  -6    0.30    7.10
   4   8  -6  636.64   30.50
   4   8  -6  657.53   33.40
   3   8  -6   -1.90    3.80
   3   8  -6   -2.30    4.10
   2   8  -6  667.23   30.80
   2   8  -6  680.23   29.40
   1   8  -6  164.98   13.80
   1   8  -6  187.58   13.80
   0   8  -6 1887.41   56.69
   0   8  -6 1879.21   57.39
  -1   8  -6  341.37   18.50
  -1   8  -6  342.37   18.40
  -2   8  -6  288.87   16.30
  -2   8  -6  273.57   10.10
   2  -8   6  302.47   18.70
  -3   8  -6  748.13   29.90
  -3   8  -6  816.72   30.80
   3  -8   6  820.32   33.30
  -4   8  -6  229.58   15.10
   4  -8   6  270.97   17.40
  -5   8  -6  691.03   29.20
   5  -8   6  728.33   31.60
  -6   8  -6   49.20    8.60
   6  -8   6   48.40    9.60
  -7   8  -6 1288.07   45.80
   7  -8   6 1202.18   48.90
   7  -8   6 1177.58   46.10
   8  -8   6   27.40    8.60
   8  -8   6   45.60   10.50
   9  -8   6  775.72   37.50
   9  -8   6  742.83   40.40
  10  -8   6   17.10    8.60
  10  -8   6   15.10    9.60
   8   7  -6  645.54   36.50
   8   7  -6  635.54   41.00
   7   7  -6   29.50   10.20
   7   7  -6   22.20   10.20
   6   7  -6  630.74   46.00
   6   7  -6  611.64   35.10
   5   7  -6   24.10    7.50
   5   7  -6   25.80    7.50
  -5  -7   6   23.00    4.40
  -5  -7   6   23.20    4.50
   4   7  -6 1342.87   50.29
   4   7  -6 1408.26   48.70
   3   7  -6    4.20    4.10
   3   7  -6    0.90    3.30
   2   7  -6 1031.60   38.90
   2   7  -6 1103.79   38.50
   1   7  -6  445.16   21.20
   1   7  -6  458.55   21.80
   0   7  -6 1375.76   43.60
   0   7  -6 1376.46   43.60
  -1   7  -6  879.21   38.10
  -1   7  -6  951.30   33.00
  -2   7  -6 1048.50   29.40
   2  -7   6 1090.69   38.40
  -3   7  -6 1045.80   35.60
  -3   7  -6 1048.50   32.30
   3  -7   6 1120.89   38.80
  -4   7  -6  277.17   16.00
   4  -7   6  286.87   17.40
  -5   7  -6 1153.48   40.20
   5  -7   6 1167.98   41.60
   6  -7   6  104.89   11.50
   6  -7   6  123.39   13.30
   7  -7   6 1147.69   47.10
   7  -7   6 1205.68   44.40
   8  -7   6    7.80    6.10
   8  -7   6    1.70    5.20
   9  -7   6 1167.28   47.00
   9  -7   6 1166.98   51.79
  10  -7   6   94.69   17.40
  10  -7   6  111.39   16.20
   9   6  -6    4.10   17.50
   9   6  -6   10.30   11.10
   8   6  -6  618.14   34.00
   8   6  -6  554.64   36.20
   7   6  -6   40.50   11.70
   7   6  -6   31.00    9.40
   6   6  -6  496.65   27.20
   6   6  -6  491.25   29.60
   5   6  -6   78.09   10.70
   5   6  -6   88.59   12.30
  -5  -6   6   90.09    9.60
   4   6  -6 1616.74   54.49
   4   6  -6 1600.34   52.39
  -4  -6   6 1691.03   40.30
  -4  -6   6 1598.04   40.10
   3   6  -6  678.83   28.60
   3   6  -6  723.63   29.90
   2   6  -6 3305.87   86.59
   2   6  -6 3203.78   88.09
   1   6  -6 1020.80   34.60
   1   6  -6 1030.80   34.60
   0   6  -6 1139.19   36.30
   0   6  -6 1177.38   37.30
  -1   6  -6 1845.32   51.29
  -1   6  -6 1698.33   42.50
  -1   6  -6 1741.23   49.40
   1  -6   6 1803.12   53.29
  -2   6  -6 1124.89   35.10
  -2   6  -6 1080.39   31.20
   2  -6   6 1101.79   37.40
  -3   6  -6 2142.59   58.49
  -3   6  -6 2287.47   61.19
   3  -6   6 2250.47   62.99
  -4   6  -6  183.68   12.30
   4  -6   6  174.08   12.80
   4  -6   6  178.08   13.70
   5  -6   6 1382.16   45.90
   5  -6   6 1449.76   49.30
   6  -6   6   94.49   10.50
   6  -6   6   80.69   11.10
   7  -6   6 1331.37   47.00
   7  -6   6 1377.46   52.19
   8  -6   6   17.40    7.80
   8  -6   6   33.00    8.30
   9  -6   6  776.72   35.50
   9  -6   6  731.93   40.00
  10  -6   6  231.98   20.60
  10  -6   6  287.27   26.50
   9   5  -6   26.30   10.70
   9   5  -6   35.10   11.50
   8   5  -6  704.13   35.90
   8   5  -6  706.43   39.40
   7   5  -6  172.38   18.30
   7   5  -6  151.48   15.80
   6   5  -6  377.86   22.50
   6   5  -6  369.86   23.80
   5   5  -6  188.58   15.40
   5   5  -6  172.78   14.20
  -5  -5   6  153.58   10.00
   4   5  -6  808.92   31.60
   4   5  -6  781.52   32.00
  -4  -5   6  806.22   23.80
   3   5  -6 1091.39   38.00
   3   5  -6 1102.29   41.60
  -3  -5   6 1120.09   28.10
  -3  -5   6 1145.59   28.20
   2   5  -6  399.26   18.80
   2   5  -6  422.56   19.10
   1   5  -6 3728.73   92.69
   1   5  -6 3670.43   91.79
   0   5  -6  590.54   22.00
   0   5  -6  556.74   20.60
   0   5  -6  548.45   15.10
  -1   5  -6 1888.41   50.39
  -1   5  -6 1799.22   46.00
   1  -5   6 1915.91   53.79
  -2   5  -6  271.57   13.20
  -2   5  -6  261.17   12.10
   2  -5   6  267.77   14.60
   3  -5   6 2535.15   69.39
   3  -5   6 2476.05   67.39
   4  -5   6   94.29    8.90
   4  -5   6   85.09    9.40
   5  -5   6 1538.85   51.69
   5  -5   6 1557.94   48.10
   6  -5   6  104.29   12.20
   6  -5   6  112.19   10.90
   7  -5   6 1697.53   55.19
   7  -5   6 1797.82   61.69
   8  -5   6  293.57   22.40
   8  -5   6  274.97   19.00
   9  -5   6  578.64   30.00
   9  -5   6  629.84   35.90
  10  -5   6  215.98   19.80
  10  -5   6  251.97   24.50
  10   4  -6  276.67   25.00
  10   4  -6  261.27   27.70
   9   4  -6  193.28   19.70
   9   4  -6  171.18   20.30
   8   4  -6  517.35   31.60
   8   4  -6  582.24   34.60
   7   4  -6  194.98   18.00
   7   4  -6  255.67   19.10
   6   4  -6  485.35   26.20
   6   4  -6  519.25   25.90
   5   4  -6 1239.48   42.80
   5   4  -6 1217.78   43.30
   4   4  -6 1388.16   44.60
   3   4  -6 1414.16   43.40
   3   4  -6 1454.95   43.90
  -3  -4   6 1447.66   36.50
   2   4  -6  302.37   15.10
   2   4  -6  310.77   14.70
  -2  -4   6  323.77   10.30
  -2  -4   6  305.57   16.90
   1   4  -6 3675.13   90.49
   1   4  -6 3809.32   89.39
  -1  -4   6 3729.73   82.59
  -1  -4   6 3519.25   87.39
   0   4  -6  117.29    8.10
   0   4  -6  135.29    8.90
   0   4  -6  116.49    5.80
   0   4  -6  109.59    9.80
   0   4  -6  115.39    7.40
   0  -4   6  108.59    5.60
  -1   4  -6 4696.13  111.09
  -1   4  -6 4451.15  105.59
  -1   4  -6 4673.63  107.59
  -1   4  -6 4330.77  109.59
   1  -4   6 4759.32  111.29
  -2   4  -6   46.60    5.40
   2  -4   6   39.60    5.10
   2  -4   6   54.99    5.90
  -3   4  -6 2328.07   73.79
   3  -4   6 2410.16   66.29
   3  -4   6 2484.35   64.19
   4  -4   6   89.09    9.30
   4  -4   6   85.29    7.80
   5  -4   6 2567.04   74.79
   5  -4   6 2584.14   69.79
   6  -4   6  586.54   25.40
   6  -4   6  603.94   29.70
   7  -4   6  482.85   23.50
   7  -4   6  461.15   27.40
   8  -4   6  904.11   36.40
   8  -4   6  896.61   42.70
   9  -4   6  296.77   24.60
   9  -4   6  282.37   32.00
  10  -4   6  267.77   25.20
  10  -4   6  227.08   20.00
  10   3  -6  431.56   32.10
  10   3  -6  436.56   29.80
   9   3  -6  351.96   26.50
   9   3  -6  401.26   26.60
   8   3  -6  833.62   39.10
   8   3  -6  831.32   37.80
   7   3  -6  340.17   21.40
   7   3  -6  356.16   22.30
   6   3  -6  550.64   26.40
   6   3  -6  550.64   26.00
   5   3  -6 2124.89   60.99
   5   3  -6 1985.60   59.69
   4   3  -6   98.59    8.90
   4   3  -6   86.89    8.10
   3   3  -6 4228.28  103.89
   3   3  -6 4399.46  105.49
  -3  -3   6 4307.47  102.09
   2   3  -6  410.76   15.90
   2   3  -6  422.56   17.00
  -2  -3   6  384.36   13.10
   1   3  -6 3646.34   83.69
   1   3  -6 3548.64   85.59
   1   3  -6 3429.76   86.89
   1   3  -6 3521.75   80.69
  -1  -3   6 3368.56   82.19
  -1  -3   6 3678.73   81.69
   0   3  -6  640.74   21.30
   0   3  -6  648.44   19.90
   0   3  -6  634.24   19.60
   0   3  -6  606.04   22.00
   0   3  -6  659.83   21.70
   0  -3   6  653.13   19.40
  -1   3  -6 2522.45   61.49
  -1   3  -6 2508.95   62.99
  -1   3  -6 2399.16   61.59
   1  -3   6 2531.25   61.99
   1  -3   6 2544.95   63.89
   1  -3   6 2501.55   63.69
  -2   3  -6  165.48    9.40
  -2   3  -6  139.99    9.90
  -2   3  -6  145.39    9.40
   2  -3   6  160.48    9.40
   2  -3   6  150.58    9.90
  -3   3  -6 1587.74   45.90
   3  -3   6 1744.13   50.19
   3  -3   6 1765.32   47.00
   4  -3   6  623.04   26.60
   4  -3   6  624.74   23.10
   5  -3   6 2560.64   75.19
   5  -3   6 2627.84   69.49
   6  -3   6 1555.84   48.30
   6  -3   6 1599.24   54.89
   7  -3   6  318.77   18.60
   7  -3   6  311.37   22.50
   8  -3   6  580.74   37.70
   8  -3   6  571.84   27.40
   9  -3   6   50.29   10.30
   9  -3   6   74.29   15.20
  10  -3   6  425.46   31.90
  10  -3   6  421.26   26.20
  11   2  -6  301.77   28.40
  11   2  -6  327.67   26.90
  10   2  -6  259.47   24.00
  10   2  -6  270.17   22.80
   9   2  -6  597.24   32.30
   9   2  -6  590.44   32.90
   8   2  -6  543.85   28.90
   8   2  -6  636.64   31.50
   7   2  -6 1264.17   45.50
   7   2  -6 1274.07   45.70
   6   2  -6 1468.25   47.90
   6   2  -6 1435.46   47.20
   5   2  -6 1960.40   55.49
   5   2  -6 1885.41   55.79
   4   2  -6   23.90    4.30
   4   2  -6   28.10    5.80
  -4  -2   6   22.50    4.10
   3   2  -6 3919.71   93.69
   3   2  -6 3961.50   95.89
  -3  -2   6 3983.10   92.49
  -3  -2   6 3885.31   91.89
   2   2  -6   47.40    4.80
   2   2  -6   47.00    4.10
  -2  -2   6   47.40    3.70
  -2  -2   6   46.20    4.00
  -2  -2   6   40.80    4.50
   1   2  -6 6789.02  151.38
   1   2  -6 6369.06  152.48
   1   2  -6 6729.43  148.79
   1   2  -6 6948.70  149.79
  -1  -2   6 6466.65  150.58
  -1  -2   6 6615.44  148.19
  -1  -2   6 6745.52  150.48
   0   2  -6  834.62   25.70
   0   2  -6  866.31   23.50
   0   2  -6  817.22   25.30
   0   2  -6  853.81   25.10
   0   2  -6  867.01   25.00
   0  -2   6  877.51   25.50
  -1   2  -6 5166.08  118.19
  -1   2  -6 4818.42  117.49
  -1   2  -6 5045.40  116.09
   1  -2   6 5165.58  117.99
   1  -2   6 5154.58  118.29
   1  -2   6 4961.80  116.79
  -2   2  -6  550.64   21.00
  -2   2  -6  567.14   18.90
  -2   2  -6  600.84   21.70
   2  -2   6  570.94   21.50
   2  -2   6  555.34   21.20
   2  -2   6  576.94   19.40
  -3   2  -6 2526.65   65.19
   3  -2   6 2674.53   65.79
   3  -2   6 2670.23   70.59
   4  -2   6 1667.73   52.59
   4  -2   6 1757.62   47.60
   5  -2   6  532.15   26.10
   5  -2   6  556.04   22.00
   6  -2   6 2861.31   84.19
   6  -2   6 2780.92   79.79
   7  -2   6   25.50    8.80
   7  -2   6   40.80    7.40
   8  -2   6 1036.30   47.90
   8  -2   6 1081.79   39.50
   9  -2   6   20.30    9.50
   9  -2   6   26.20    7.60
  10  -2   6  402.46   31.90
  10  -2   6  395.16   25.60
  11   1  -6  417.06   29.40
  11   1  -6  392.46   29.90
  10   1  -6  242.18   20.30
  10   1  -6  188.98   20.70
   9   1  -6  690.03   34.40
   9   1  -6  730.03   35.40
   8   1  -6  134.29   13.60
   8   1  -6  110.09   12.50
   7   1  -6 1609.24   55.69
   7   1  -6 1459.15   50.39
   6   1  -6    9.90    3.90
   6   1  -6   10.10    4.40
   5   1  -6 4041.40  102.39
   5   1  -6 4244.48  100.99
  -5  -1   6 3988.00   98.09
   4   1  -6   88.29    7.60
   4   1  -6   93.19    6.80
  -4  -1   6   88.99    6.20
   3   1  -6 2397.16   60.69
   3   1  -6 2382.96   57.59
  -3  -1   6 2339.87   56.49
  -3  -1   6 2482.15   59.79
  -3  -1   6 2302.97   59.29
   2   1  -6 2396.66   56.19
   2   1  -6 2463.65   59.39
  -2  -1   6 2358.36   58.39
  -2  -1   6 2371.86   55.09
  -2  -1   6 2428.16   59.19
   1   1  -6  233.78    9.70
   1   1  -6  228.68    8.70
   1   1  -6  239.48   10.60
   1   1  -6  247.28    8.10
  -1  -1   6  214.88    9.20
  -1  -1   6  253.87   11.00
   0   1  -6 1697.53   46.60
   0   1  -6 1825.52   44.40
   0   1  -6 1778.62   44.40
   0   1  -6 1767.22   43.50
   0  -1   6 1758.62   44.00
   0  -1   6 1810.02   47.00
  -1   1  -6 1342.27   36.90
  -1   1  -6 1347.17   34.30
   1  -1   6 1370.96   38.70
   1  -1   6 1351.46   35.10
   1  -1   6 1293.77   36.70
  -2   1  -6 4146.89   95.89
  -2   1  -6 4082.79  100.09
  -2   1  -6 4084.09  101.19
   2  -1   6 4160.48   96.09
   2  -1   6 4187.88  102.19
   2  -1   6 4236.98  100.99
   3  -1   6 1108.09   37.20
   3  -1   6 1181.08   32.50
  -4   1  -6 3796.92   94.79
   4  -1   6 4099.09   95.39
   4  -1   6 3953.20  102.99
   5  -1   6  129.59   12.60
   5  -1   6  129.29    9.50
   6  -1   6 1324.77   41.50
   6  -1   6 1358.26   50.29
   7  -1   6   10.70    4.00
   7  -1   6    9.50    5.60
   8  -1   6 1367.96   57.19
   8  -1   6 1390.26   46.60
   9  -1   6   -7.50    5.60
   9  -1   6   -2.90    7.40
  10  -1   6  510.95   37.00
  10  -1   6  555.44   29.90
  11   0  -6  371.36   27.70
  11   0  -6  401.66   28.40
  10   0  -6   19.20    7.30
  10   0  -6   19.80    7.70
   9   0  -6 1207.08   47.40
   9   0  -6 1315.17   49.10
   8   0  -6   43.90    8.30
   8   0  -6   56.59    8.10
   7   0  -6 1116.19   40.30
   7   0  -6 1101.29   38.70
   6   0  -6  130.39    9.90
   6   0  -6  111.99   11.80
   5   0  -6 2912.31   72.09
   5   0  -6 2797.62   74.59
   4   0  -6 1888.01   50.89
   4   0  -6 1747.23   48.70
  -4   0   6 1745.43   44.20
  -4   0   6 1772.32   50.29
   3   0  -6 4211.68   98.69
   3   0  -6 4249.17   94.19
  -3   0   6 4109.79   98.89
  -3   0   6 4152.08   93.29
   2   0  -6 2404.86   51.89
   2   0  -6 2329.27   56.09
   2   0  -6 2357.96   51.69
   2   0  -6 2234.88   57.59
  -2   0   6 2301.77   58.19
  -2   0   6 2254.27   55.39
   1   0  -6  370.66   14.80
   1   0  -6  378.36   10.90
   1   0  -6  380.96   12.00
  -1   0   6  358.96   14.80
  -1   0   6  361.96   11.80
   0   0  -6 1416.66   33.40
   0   0  -6 1308.17   38.80
   0   0  -6 1401.66   35.10
   0   0  -6 1370.96   33.80
   0   0   6 1379.56   35.20
   0   0   6 1381.36   39.20
  -1   0  -6 2725.33   67.19
  -1   0  -6 2671.53   70.19
  -1   0  -6 2730.93   62.99
   1   0   6 2817.12   70.99
   1   0   6 2761.92   67.89
   1   0   6 2771.82   63.69
  -2   0  -6 4188.38  100.89
  -2   0  -6 4218.08   95.19
   2   0   6 4099.09  103.39
   2   0   6 4195.38   95.19
   2   0   6 4158.28  101.79
  -3   0  -6   85.59    6.10
   3   0   6   86.89    6.00
   3   0   6   87.69    8.50
  -4   0  -6 5212.98  125.89
   4   0   6 5439.76  136.09
   4   0   6 5666.73  126.69
   5   0   6  105.29    8.40
   5   0   6  106.49   11.70
   6   0   6 1601.64   47.10
   6   0   6 1586.04   56.79
   7   0   6   33.90    6.80
   7   0   6   36.00    9.40
   8   0   6  974.60   47.70
   8   0   6 1097.99   38.70
   9   0   6  148.99   20.60
   9   0   6  189.68   17.00
  12  -1  -6   -4.40    9.60
  11  -1  -6  670.93   36.20
  11  -1  -6  656.93   35.50
  10  -1  -6    0.60    5.60
  10  -1  -6    6.20    5.90
   9  -1  -6 1441.86   51.19
   9  -1  -6 1468.05   52.69
   8  -1  -6  532.05   25.10
   8  -1  -6  510.35   25.90
   7  -1  -6 4108.29  106.99
   7  -1  -6 4113.59  104.29
   6  -1  -6  257.87   13.50
   6  -1  -6  276.57   15.50
  -6   1   6  245.48   12.50
   5  -1  -6 1990.20   51.09
   5  -1  -6 1984.90   54.69
  -5   1   6 1923.11   49.50
   4  -1  -6 4503.15  105.99
   4  -1  -6 4528.35  101.09
  -4   1   6 4442.76  100.19
  -4   1   6 4278.47  104.29
   3  -1  -6 1463.15   38.90
   3  -1  -6 1456.25   33.20
  -3   1   6 1456.35   40.40
  -3   1   6 1443.96   37.90
  -3   1   6 1428.86   32.70
   2  -1  -6 3897.01   87.59
   2  -1  -6 3749.52   91.69
  -2   1   6 3794.72   86.79
  -2   1   6 3792.22   91.39
   1  -1  -6  193.98   12.50
   1  -1  -6  205.18    7.10
   1  -1  -6  196.58    6.70
  -1   1   6  205.98    6.90
  -1   1   6  198.68    6.80
  -1   1   6  200.38   10.80
   0  -1  -6 6239.98  132.69
   0  -1  -6 5916.11  142.49
   0  -1  -6 6141.89  132.79
   0  -1  -6 6268.67  136.89
   0   1   6 5857.81  142.19
   0   1   6 6122.89  137.59
  -1  -1  -6 1763.02   46.40
  -1  -1  -6 1809.12   43.60
  -1  -1  -6 1723.03   49.80
   1   1   6 1796.12   50.59
   1   1   6 1781.22   47.40
   1   1   6 1760.82   40.70
  -2  -1  -6 3371.96   85.99
  -2  -1  -6 3540.65   79.29
   2   1   6 3462.05   89.99
   2   1   6 3528.75   79.19
   2   1   6 3507.55   87.99
  -3  -1  -6   31.70    3.70
   3   1   6   37.00    3.80
   3   1   6   31.90    6.20
   3   1   6   16.20    4.50
  -4  -1  -6 1179.38   36.00
   4   1   6 1223.78   34.40
   4   1   6 1247.28   44.40
   5   1   6  456.75   18.50
   5   1   6  486.15   26.20
   6   1   6  867.41   39.40
   6   1   6  852.11   29.80
   7   1   6  129.89   11.80
   8   1   6  494.05   24.40
   8   1   6  523.05   33.90
   9   1   6  115.19   20.40
   9   1   6  138.19   16.00
  12  -2  -6   94.09   15.80
  12  -2  -6   88.19   17.40
  11  -2  -6 1000.40   45.10
  10  -2  -6   65.39   11.60
  10  -2  -6   66.89   12.00
   9  -2  -6 1067.29   41.40
   9  -2  -6 1118.09   43.10
   8  -2  -6  867.31   35.10
   8  -2  -6  858.81   33.30
   7  -2  -6 2329.27   63.69
   7  -2  -6 2267.07   66.29
   6  -2  -6 3166.38   78.59
   6  -2  -6 3099.59   82.19
  -6   2   6 3131.39   77.19
   5  -2  -6 2202.38   60.09
   5  -2  -6 2325.07   56.09
  -5   2   6 2199.28   55.09
   4  -2  -6 2578.74   59.49
   4  -2  -6 2560.54   64.79
  -4   2   6 2552.54   59.19
  -4   2   6 2609.64   66.89
  -4   2   6 2466.15   63.59
   3  -2  -6  899.11   26.00
  -3   2   6  886.51   20.20
  -3   2   6  894.41   20.50
  -3   2   6  889.81   25.30
  -3   2   6  862.21   28.20
   2  -2  -6 2790.72   72.49
   2  -2  -6 3000.90   67.39
  -2   2   6 2942.61   66.79
  -2   2   6 2896.51   63.89
  -2   2   6 2962.80   63.99
  -2   2   6 2796.62   72.49
   1  -2  -6 3377.46   73.59
   1  -2  -6 3157.28   82.29
   1  -2  -6 3341.67   75.59
  -1   2   6 3362.66   82.99
  -1   2   6 3316.77   73.59
  -1   2   6 3408.86   76.29
   0  -2  -6 3410.46   85.59
   0  -2  -6 3427.86   79.69
   0   2   6 3376.26   80.69
   0   2   6 3367.96   85.49
  -1  -2  -6    6.60    2.30
   1   2   6    4.50    2.50
   1   2   6    6.90    2.70
  -2  -2  -6 4033.10   90.69
   2   2   6 4056.09  102.19
   2   2   6 4031.40  104.19
   2   2   6 4199.68   91.09
  -3  -2  -6   83.49    5.10
   3   2   6   89.29    8.20
   3   2   6   80.49    9.00
   3   2   6   73.29    9.00
   4   2   6 1293.47   35.60
   4   2   6 1303.87   46.30
   5   2   6  176.28   16.30
   5   2   6  199.98   11.10
   6   2   6  468.95   28.80
   6   2   6  438.56   19.30
   7   2   6  284.97   16.70
   7   2   6  310.37   25.10
   8   2   6  213.78   23.20
   8   2   6  179.98   15.70
   9   2   6  364.06   24.20
   9   2   6  378.66   31.80
  12  -3  -6   88.89   16.70
  12  -3  -6   78.19   15.50
  11  -3  -6  642.04   34.50
  11  -3  -6  607.24   32.90
  10  -3  -6  293.27   20.60
  10  -3  -6  288.77   27.70
   9  -3  -6 1322.37   49.10
   9  -3  -6 1435.86   48.20
   8  -3  -6  683.23   27.90
   8  -3  -6  667.23   29.60
   7  -3  -6  638.34   24.60
   7  -3  -6  653.83   27.40
   6  -3  -6 4055.59   96.99
   6  -3  -6 4023.40  101.39
  -6   3   6 3998.70  100.49
   5  -3  -6    5.50    2.00
   5  -3  -6    7.80    3.20
  -5   3   6    8.30    2.80
   4  -3  -6 3981.10   94.29
  -4   3   6 3987.70   89.79
  -4   3   6 3932.61   93.69
  -4   3   6 3936.91   97.39
  -4   3   6 3849.21   87.99
   3  -3  -6   92.79    6.00
  -3   3   6   90.89    7.50
  -3   3   6   89.79    5.80
  -3   3   6   88.39    4.00
  -3   3   6   85.39    4.40
   2  -3  -6 5596.24  120.69
   2  -3  -6 5160.18  127.69
   2  -3  -6 5328.97  119.79
  -2   3   6 5362.06  128.29
  -2   3   6 5446.15  120.39
  -2   3   6 5518.65  120.49
   1  -3  -6    5.20    0.80
   1  -3  -6    3.10    2.60
   1  -3  -6   10.70    2.20
  -1   3   6    5.90    1.90
  -1   3   6    5.40    2.50
  -1   3   6    5.00    0.70
   0  -3  -6 5225.98  122.79
   0   3   6 5327.57  124.19
   0   3   6 5421.76  128.79
   1   3   6  292.57   16.10
   1   3   6  294.07   14.90
  -2  -3  -6  462.35   12.50
   2   3   6  478.75   12.80
   2   3   6  484.85   21.90
   2   3   6  501.45   23.10
  -3  -3  -6 1465.95   36.70
   3   3   6 1474.45   49.60
   3   3   6 1508.55   37.50
   3   3   6 1538.45   52.49
  -4  -3  -6  987.00   29.20
   4   3   6  987.00   28.60
   4   3   6 1020.20   40.50
   5   3   6  432.66   26.40
   5   3   6  425.36   17.10
   6   3   6  219.28   13.20
   6   3   6  204.18   21.90
   7   3   6  194.88   14.10
   7   3   6  235.68   23.10
   8   3   6   35.00   12.50
   8   3   6   49.80   10.20
  12  -4  -6  171.78   19.80
  12  -4  -6  155.58   18.70
  11  -4  -6  471.85   29.30
  11  -4  -6  543.95   30.10
  10  -4  -6  233.88   17.40
   9  -4  -6  288.27   19.50
   9  -4  -6  237.38   16.50
   8  -4  -6 2145.29   61.09
   8  -4  -6 2101.69   64.19
   7  -4  -6  412.06   18.40
   7  -4  -6  412.46   20.60
   6  -4  -6 1344.47   41.80
   6  -4  -6 1330.17   38.00
  -6   4   6 1312.47   38.10
   5  -4  -6  270.57   13.80
  -5   4   6  271.57   10.50
  -5   4   6  296.47   15.90
  -5   4   6  288.17   12.30
   4  -4  -6 1327.97   36.10
  -4   4   6 1246.58   38.90
  -4   4   6 1210.28   31.30
  -4   4   6 1238.38   33.00
  -4   4   6 1236.28   35.40
   3  -4  -6   32.20    3.70
  -3   4   6   32.30    3.00
  -3   4   6   28.60    3.80
  -3   4   6   35.50    5.20
  -3   4   6   27.80    3.50
   2  -4  -6 1783.02   42.20
   2  -4  -6 1678.53   43.50
  -2   4   6 1776.92   42.30
  -2   4   6 1772.42   50.39
  -2   4   6 1805.22   44.90
   1  -4  -6 1650.53   42.90
  -1   4   6 1682.93   48.80
  -1   4   6 1650.93   43.70
  -1   4   6 1618.34   36.50
  -1   4   6 1634.34   36.60
   0   4   6 3724.53   91.69
   0   4   6 3728.13   95.09
   1   4   6  950.30   33.10
   1   4   6  956.50   34.30
   2   4   6  868.81   33.10
   2   4   6  795.32   20.00
   2   4   6  753.12   31.10
   2   4   6  855.81   21.50
  -3  -4  -6  557.14   16.70
   3   4   6  586.94   28.10
   3   4   6  591.44   17.30
   3   4   6  607.74   28.10
   4   4   6  201.78    9.80
   4   4   6  171.58   16.30
   5   4   6 1067.99   31.40
   5   4   6  985.80   44.80
   6   4   6  173.68   11.90
   6   4   6  157.78   19.10
   7   4   6  460.05   21.20
   7   4   6  467.35   32.90
  12  -5  -6  299.37   24.20
  12  -5  -6  321.77   25.10
  11  -5  -6  471.35   29.50
  11  -5  -6  478.95   27.50
  10  -5  -6  462.75   35.90
  10  -5  -6  532.95   26.80
   9  -5  -6  108.59   10.80
   9  -5  -6   86.39   11.30
   8  -5  -6 1532.65   47.50
   8  -5  -6 1520.45   50.69
   7  -5  -6    1.30    3.20
   7  -5  -6    1.60    2.50
   6  -5  -6 1904.71   54.19
  -6   5   6 1914.61   48.30
  -6   5   6 1782.42   50.69
  -6   5   6 1890.91   56.69
   5  -5  -6    5.70    2.30
  -5   5   6    3.70    2.70
  -5   5   6    1.30    1.50
  -5   5   6    3.00    2.70
   4  -5  -6 1100.89   31.00
  -4   5   6  985.90   29.50
  -4   5   6  966.20   27.50
  -4   5   6 1002.80   30.50
  -4   5   6 1021.20   34.40
   3  -5  -6  611.24   19.10
  -3   5   6  618.54   19.40
  -3   5   6  573.54   23.30
  -3   5   6  580.24   18.80
  -3   5   6  558.94   19.90
   2  -5  -6 3201.88   73.59
   2  -5  -6 3053.39   79.49
  -2   5   6 3205.78   73.59
  -2   5   6 3216.38   77.29
  -2   5   6 3215.88   82.89
   1  -5  -6  625.04   22.00
  -1   5   6  674.13   26.40
  -1   5   6  668.83   23.40
  -1   5   6  669.13   16.70
  -1   5   6  646.64   16.30
   0   5   6  509.05   21.50
   0   5   6  534.35   23.20
   1   5   6 2588.24   71.89
   1   5   6 2497.75   70.79
   2   5   6  498.15   13.40
   2   5   6  525.15   24.90
   2   5   6  524.55   25.40
   2   5   6  486.45   13.30
   3   5   6  638.64   30.70
   3   5   6  628.34   18.20
   3   5   6  613.64   18.30
   4   5   6   72.99   12.10
   4   5   6   80.39    6.80
   4   5   6   81.69    8.10
   5   5   6  669.63   36.10
   5   5   6  599.84   21.20
   6   5   6   89.29   10.20
   6   5   6   74.29   15.90
   7   5   6  380.36   32.30
  12  -6  -6  418.26   28.80
  12  -6  -6  438.56   28.00
  11  -6  -6  108.59   14.80
  11  -6  -6  124.49   15.20
  10  -6  -6 1672.73   58.49
  10  -6  -6 1627.54   54.79
   9  -6  -6    7.40    4.20
   9  -6  -6    5.50    4.80
   8  -6  -6  858.01   34.10
   8  -6  -6  831.62   31.10
  -8   6   6  820.02   28.40
   7  -6  -6   99.69   10.00
  -7   6   6  108.39    8.00
   6  -6  -6  896.71   31.00
  -6   6   6  844.72   26.00
  -6   6   6  777.32   31.80
  -6   6   6  849.02   32.90
   5  -6  -6  181.68   11.10
  -5   6   6  183.08    9.40
  -5   6   6  167.68   10.80
   4  -6  -6 1234.18   35.00
  -4   6   6 1146.99   35.50
  -4   6   6 1204.88   39.50
  -4   6   6 1191.28   35.50
  -4   6   6 1170.88   33.50
   3  -6  -6 1327.37   35.30
   3  -6  -6 1202.88   35.80
  -3   6   6 1306.17   41.50
  -3   6   6 1320.37   36.70
  -3   6   6 1251.27   35.20
   2  -6  -6 1023.80   28.00
  -2   6   6  919.01   26.40
  -2   6   6  998.00   31.10
  -2   6   6  976.50   34.00
  -1   6   6  707.23   19.10
  -1   6   6  690.23   27.80
  -1   6   6  700.23   18.50
  -1   6   6  750.02   26.70
   0   6   6  717.63   17.90
   0   6   6  755.22   29.00
   0   6   6  762.72   29.90
   1   6   6  470.55   23.10
   1   6   6  446.26   11.30
   1   6   6  457.05   22.60
   2   6   6   29.30    3.20
   2   6   6   26.10    3.00
   2   6   6   24.50    6.70
   2   6   6   40.30    7.70
   3   6   6 1114.49   45.60
   3   6   6 1093.09   28.50
   3   6   6 1123.69   28.60
   4   6   6   48.80    6.20
   4   6   6   67.89   13.10
   5   6   6  601.54   36.30
   6   6   6   71.29   15.20
  12  -7  -6  565.04   31.70
  12  -7  -6  512.75   32.70
  11  -7  -6   11.30    7.10
  11  -7  -6   14.40    8.10
  10  -7  -6  912.11   40.20
  10  -7  -6  885.91   36.70
 -10   7   6  921.01   34.00
   9  -7  -6  284.07   20.00
  -9   7   6  270.67   15.50
   8  -7  -6  734.43   31.40
  -8   7   6  721.73   33.30
  -8   7   6  744.63   26.50
   7  -7  -6  183.38   13.50
  -7   7   6  155.38   14.20
  -7   7   6  163.88   10.30
   6  -7  -6  471.25   23.70
  -6   7   6  423.06   17.20
  -6   7   6  426.76   22.10
   5  -7  -6  585.84   22.30
  -5   7   6  557.74   20.30
  -5   7   6  525.45   24.40
   4  -7  -6 1273.37   37.20
  -4   7   6 1305.97   51.19
  -4   7   6 1246.78   37.00
   3  -7  -6 1196.28   34.10
  -3   7   6 1198.78   36.50
  -3   7   6 1135.19   33.80
  -3   7   6 1227.08   40.60
  -2   7   6   41.00    5.10
  -2   7   6   45.20    6.90
  -2   7   6   46.60    4.30
  -2   7   6   41.70    6.20
  -1   7   6 1653.83   41.00
  -1   7   6 1689.23   50.59
  -1   7   6 1731.83   51.99
  -1   7   6 1610.74   40.10
   0   7   6   70.59    8.80
   0   7   6   89.79    9.90
   0   7   6   72.59    4.50
   0   7   6   79.49    4.30
   1   7   6 1063.49   25.80
   1   7   6 1068.79   40.80
   1   7   6 1093.79   39.80
   1   7   6 1046.50   25.70
   2   7   6   11.70    5.50
   2   7   6   17.10    3.50
   2   7   6   16.00    3.20
   2   7   6   17.60    7.00
   3   7   6  487.45   29.30
   3   7   6  490.95   14.40
   4   7   6   38.40   11.70
   5   7   6  493.55   33.10
  12  -8  -6  670.73   46.90
 -12   8   6  648.54   31.90
  11  -8  -6   48.70   10.30
 -11   8   6   59.39   10.40
  10  -8  -6  628.74   32.00
 -10   8   6  629.74   27.00
   9  -8  -6  265.07   19.30
  -9   8   6  323.67   17.20
  -9   8   6  326.57   25.30
   8  -8  -6  478.45   24.70
  -8   8   6  520.35   21.60
  -8   8   6  510.15   27.80
   7  -8  -6  660.63   28.40
  -7   8   6  746.13   32.20
  -7   8   6  687.73   25.10
   6  -8  -6  585.14   24.50
  -6   8   6  579.84   22.10
  -6   8   6  604.94   27.60
   5  -8  -6  537.45   21.90
  -5   8   6  526.05   21.10
  -5   8   6  540.45   25.30
   4  -8  -6  198.18   11.70
  -4   8   6  179.68   13.60
  -4   8   6  209.88   12.40
   3  -8  -6 1309.07   38.50
  -3   8   6 1324.37   44.30
  -3   8   6 1321.57   38.40
  -3   8   6 1392.96   42.10
  -2   8   6   93.29    9.70
  -2   8   6   82.29    6.00
  -2   8   6   84.99    9.60
  -1   8   6  557.44   17.20
  -1   8   6  617.04   26.50
  -1   8   6  574.14   25.80
  -1   8   6  552.84   18.00
   0   8   6  347.97   12.00
   0   8   6  337.47   11.60
   0   8   6  364.46   20.30
   0   8   6  370.16   21.50
   1   8   6  844.42   21.90
   1   8   6  873.21   35.00
   1   8   6  876.41   22.00
   1   8   6  896.81   38.20
   2   8   6   -0.30    2.90
   2   8   6    2.40    5.70
   3   8   6  536.15   32.40
   4   8   6   63.69   14.90
   5   8   6  460.05   39.80
 -12   9   6  413.46   25.40
  11  -9  -6  368.36   25.60
 -11   9   6  376.76   25.50
 -11   9   6  334.27   27.30
  10  -9  -6  469.05   27.40
 -10   9   6  462.25   23.00
 -10   9   6  451.75   29.60
  -9   9   6  214.78   19.50
  -9   9   6  242.08   15.50
   8  -9  -6  596.34   28.10
  -8   9   6  561.64   24.00
  -8   9   6  630.44   31.00
   7  -9  -6  411.76   21.80
  -7   9   6  426.16   24.00
  -7   9   6  454.65   20.00
   6  -9  -6  343.77   18.50
  -6   9   6  352.36   17.40
  -6   9   6  330.67   20.50
   5  -9  -6  613.04   28.20
  -5   9   6  629.44   24.80
  -5   9   6  645.44   28.40
   4  -9  -6   47.60    7.40
  -4   9   6   59.59    9.30
  -4   9   6   57.89    7.80
  -3   9   6 1159.48   39.10
  -3   9   6 1076.09   39.90
  -3   9   6 1117.29   32.50
  -2   9   6   79.89    9.90
  -2   9   6   60.59    8.40
  -2   9   6   84.09   10.10
  -2   9   6   70.29    6.20
  -1   9   6  941.31   26.50
  -1   9   6  949.60   37.50
  -1   9   6  956.00   28.20
  -1   9   6  990.20   36.70
   0   9   6   -0.20    5.30
   0   9   6    3.20    5.20
   1   9   6  132.59   15.60
   1   9   6  111.79   12.70
   2   9   6   64.69   13.90
   3   9   6  320.17   26.70
   4   9   6  151.88   36.90
  11 -10  -6  316.47   24.40
 -11  10   6  264.97   24.90
 -11  10   6  330.87   21.80
  10 -10  -6  301.17   23.00
 -10  10   6  350.16   25.80
 -10  10   6  284.07   19.00
   9 -10  -6  269.57   20.10
  -9  10   6  246.68   16.90
  -9  10   6  260.17   21.30
   8 -10  -6  339.47   21.30
  -8  10   6  336.97   18.40
  -8  10   6  326.07   26.70
   7 -10  -6  372.26   21.20
  -7  10   6  382.96   19.60
  -7  10   6  421.46   24.60
   6 -10  -6  120.09   11.60
  -6  10   6  133.99   13.90
  -6  10   6  122.59   11.40
   5 -10  -6  808.62   30.60
  -5  10   6  820.22   31.40
  -5  10   6  824.72   34.40
   4 -10  -6   55.59    8.20
  -4  10   6   35.80    7.40
  -4  10   6   28.40    7.10
  -3  10   6  551.14   20.30
  -3  10   6  579.44   27.10
  -3  10   6  566.14   26.30
  -2  10   6    6.00    3.40
  -2  10   6    6.10    5.30
  -2  10   6   10.20    5.60
  -1  10   6  327.67   21.70
  -1  10   6  331.87   19.60
  -1  10   6  350.66   13.50
   0  10   6   32.30    7.50
   1  10   6  296.87   23.60
   2  10   6   56.19   14.30
  10 -11  -6   88.79   15.20
 -10  11   6   67.29   13.40
 -10  11   6   57.09   13.90
   9 -11  -6  164.48   17.00
  -9  11   6  242.58   21.50
  -9  11   6  226.38   17.00
   8 -11  -6    2.70    7.00
  -8  11   6    2.60    7.80
  -8  11   6    1.00    5.70
   7 -11  -6  380.76   22.30
  -7  11   6  382.26   21.10
  -7  11   6  345.87   23.00
   6 -11  -6   -3.80    5.10
  -6  11   6   -2.70    4.90
  -6  11   6    1.00    5.90
   5 -11  -6  526.05   24.70
  -5  11   6  550.74   28.00
  -5  11   6  529.25   25.70
  -4  11   6   11.90    5.00
  -4  11   6   20.40    6.60
  -4  11   6   22.10    7.10
  -3  11   6  503.15   19.60
  -3  11   6  526.85   26.70
  -3  11   6  479.05   25.10
  -2  11   6   -2.60    5.60
  -2  11   6    8.40    7.30
  -2  11   6    0.00    3.90
  -1  11   6   34.10    9.40
  -1  11   6   26.60    8.10
   0  11   6   88.79   15.80
   0  11   6   99.79   14.00
   1  11   6  198.08   21.80
   9 -12  -6  259.97   21.60
  -9  12   6  275.57   24.00
  -9  12   6  249.58   20.00
   8 -12  -6   16.90    8.20
  -8  12   6    7.30    7.60
  -7  12   6  282.17   19.50
  -7  12   6  318.17   22.80
   6 -12  -6   35.60    9.20
  -6  12   6   49.10   10.20
  -6  12   6   30.30    9.20
   5 -12  -6  204.18   16.60
  -5  12   6  185.48   16.70
  -5  12   6  173.98   17.40
  -5  12   6  192.28   14.40
  -4  12   6  218.08   14.30
  -4  12   6  203.48   17.30
  -4  12   6  193.38   22.80
  -3  12   6  138.89   13.00
  -3  12   6  120.29   14.80
  -3  12   6  154.08   16.40
  -2  12   6  191.18   16.80
  -2  12   6  203.28   19.60
  -1  12   6  133.89   17.80
  -1  12   6  144.79   15.60
   8 -13  -6   24.30   10.60
  -8  13   6   15.80    9.90
  -8  13   6   12.60    9.90
   7 -13  -6  220.38   21.10
  -7  13   6  248.08   19.90
  -7  13   6  227.48   21.10
  -6  13   6  165.58   18.50
  -6  13   6  134.59   17.80
  -5  13   6  156.68   17.80
  -5  13   6  182.48   16.10
  -4  13   6  220.28   19.90
  -4  13   6  216.08   19.00
  -3  13   6   88.89   16.30
  -2  14  -7  441.16   30.60
  -3  14  -7   70.49   14.10
  -4  14  -7  265.47   24.10
  -4  14  -7  291.97   35.40
  -5  14  -7   -2.30    8.90
   1  13  -7  240.48   24.40
   1  13  -7  242.38   21.60
   0  13  -7  266.37   23.60
   0  13  -7  234.68   20.50
  -1  13  -7   15.80    8.90
  -1  13  -7   25.20    9.50
  -2  13  -7  332.37   24.90
  -2  13  -7  321.47   22.60
  -3  13  -7   -6.10    5.90
  -3  13  -7    5.50    6.90
  -4  13  -7  489.95   28.90
  -4  13  -7  497.35   30.10
  -5  13  -7    2.60    6.50
  -5  13  -7    0.30    6.50
   5 -13   7   -1.10    8.50
  -6  13  -7  326.27   24.50
   6 -13   7  319.27   26.50
  -7  13  -7   53.29   12.80
   7 -13   7   92.49   18.00
   3  12  -7   83.09   16.90
   3  12  -7   63.09   12.60
   2  12  -7  361.86   24.80
   2  12  -7  404.16   29.00
   1  12  -7   53.59   10.90
   1  12  -7   49.40   11.30
   0  12  -7  875.91   38.30
   0  12  -7  747.03   38.50
  -1  12  -7   -1.30    6.80
  -1  12  -7   15.60    6.80
  -2  12  -7  439.56   26.10
  -2  12  -7  426.66   26.60
  -3  12  -7   21.50    7.60
  -3  12  -7    6.30    5.20
  -4  12  -7  451.75   27.10
  -4  12  -7  471.05   27.00
  -5  12  -7   62.59   13.10
   5 -12   7   95.79   15.50
  -6  12  -7  345.27   23.50
   6 -12   7  303.07   24.40
  -7  12  -7  138.29   16.90
   7 -12   7  110.09   18.70
  -8  12  -7  305.67   37.60
   4  11  -7  272.37   24.10
   4  11  -7  344.57   33.60
   3  11  -7   75.39   15.50
   3  11  -7   95.09   14.50
   2  11  -7  601.34   31.50
   2  11  -7  678.23   35.60
   1  11  -7    6.70    7.10
   1  11  -7    5.00    5.60
   0  11  -7  691.83   32.10
   0  11  -7  644.74   33.10
  -1  11  -7   97.69   13.00
  -2  11  -7  749.62   35.40
  -2  11  -7  736.43   44.70
  -3  11  -7  126.69   21.20
  -3  11  -7   66.99   10.60
  -4  11  -7  584.54   29.00
  -4  11  -7  513.55   18.00
   4 -11   7  586.44   32.20
  -5  11  -7   84.39   11.50
   5 -11   7   62.79   12.00
  -6  11  -7  393.06   24.40
   6 -11   7  394.16   26.70
  -7  11  -7  176.28   17.40
   7 -11   7  186.38   19.60
  -8  11  -7  105.59   15.40
   8 -11   7  108.39   17.40
  -9  11  -7  349.37   26.40
   9 -11   7  327.67   28.70
   5  10  -7   51.19   12.30
   5  10  -7   44.10   12.80
   4  10  -7  475.65   31.70
   4  10  -7  463.65   28.00
   3  10  -7   21.20    7.40
   3  10  -7    8.90    7.10
   2  10  -7 1230.28   65.59
   2  10  -7 1101.39   46.70
   1  10  -7   25.00    7.00
   1  10  -7   23.20    7.40
   0  10  -7  957.70   38.00
   0  10  -7  923.01   38.80
  -1  10  -7  179.38   15.80
  -1  10  -7  209.38   16.00
  -2  10  -7  394.26   22.30
  -2  10  -7  364.16   21.60
  -3  10  -7  609.14   17.60
  -3  10  -7  672.23   29.80
  -3  10  -7  600.04   18.20
  -3  10  -7  652.83   29.90
   3 -10   7  620.34   31.60
  -4  10  -7  484.35   25.10
   4 -10   7  445.16   26.50
  -5  10  -7  382.66   22.30
   5 -10   7  322.47   22.90
  -6  10  -7  307.47   20.60
   6 -10   7  339.97   23.30
  -7  10  -7  652.93   32.20
   7 -10   7  687.43   35.50
  -8  10  -7   27.80    8.10
   8 -10   7   16.10    8.40
  -9  10  -7  333.77   24.90
   9 -10   7  256.37   24.20
   6   9  -7  462.35   33.10
   6   9  -7  464.35   29.50
   5   9  -7   20.70    8.60
   5   9  -7   13.30    8.10
   4   9  -7  565.54   32.00
   4   9  -7  502.55   28.50
   3   9  -7  161.48   15.30
   3   9  -7  159.78   16.80
   2   9  -7  341.67   21.10
   2   9  -7  334.87   21.90
   1   9  -7  833.52   35.20
   1   9  -7  791.52   33.60
   0   9  -7  730.03   31.60
   0   9  -7  722.83   30.80
  -1   9  -7  540.85   26.20
  -1   9  -7  565.64   26.20
  -2   9  -7  105.99   11.00
  -2   9  -7   82.79   10.00
  -3   9  -7  755.12   24.90
  -3   9  -7  915.81   34.00
   3  -9   7  808.22   35.50
  -4   9  -7  120.59   12.10
   4  -9   7  108.69   13.00
  -5   9  -7  817.72   33.60
   5  -9   7  774.42   35.20
  -6   9  -7   15.30    5.30
   6  -9   7    9.50    6.20
  -7   9  -7 1174.88   45.40
   7  -9   7 1215.58   48.10
  -8   9  -7   62.89   12.00
   8  -9   7   62.49   12.80
  -9   9  -7  558.54   31.70
   9  -9   7  522.75   30.60
   9  -9   7  534.55   34.30
 -10   9  -7   34.50   10.80
  10  -9   7   34.30   12.60
   7   8  -7    4.00    9.60
   7   8  -7   16.30    8.50
   6   8  -7  470.35   29.20
   6   8  -7  500.25   32.80
   5   8  -7   50.99   12.00
   5   8  -7   34.60    9.20
   4   8  -7 1270.77   50.19
   4   8  -7 1261.17   47.50
   3   8  -7  123.99   13.00
   3   8  -7  128.69   13.70
   2   8  -7  460.95   24.80
   2   8  -7  440.16   23.40
   1   8  -7  872.01   34.70
   1   8  -7  904.21   34.70
   0   8  -7  199.38   14.50
   0   8  -7  233.08   15.40
  -1   8  -7 1238.68   42.00
  -1   8  -7 1325.57   43.60
  -2   8  -7   49.70    4.80
  -2   8  -7   45.10    7.20
   2  -8   7   67.29    9.70
  -3   8  -7 1667.33   47.80
  -3   8  -7 1874.11   54.99
   3  -8   7 1812.62   57.69
  -4   8  -7   63.89    8.70
   4  -8   7   63.69    9.50
  -5   8  -7 1974.40   60.09
   5  -8   7 1910.71   61.79
  -6   8  -7   16.40    5.40
   6  -8   7   22.30    7.00
  -7   8  -7  937.11   49.20
   7  -8   7  853.81   52.29
   7  -8   7  861.41   38.00
   8  -8   7  333.77   23.20
   8  -8   7  337.67   25.40
   9  -8   7  521.65   30.50
   9  -8   7  493.25   32.90
  10  -8   7  299.17   37.10
  10  -8   7  166.38   19.90
   8   7  -7  549.54   38.00
   8   7  -7  599.04   34.90
   7   7  -7   46.00   10.40
   7   7  -7   45.50   11.60
   6   7  -7  680.93   36.60
   6   7  -7  638.54   33.60
  -6  -7   7  673.83   21.10
   5   7  -7  285.47   22.20
   5   7  -7  329.47   22.00
  -5  -7   7  325.07    9.60
  -5  -7   7  267.97   10.60
   4   7  -7  749.42   33.40
   4   7  -7  779.52   35.10
   3   7  -7 1382.96   48.80
   3   7  -7 1416.96   48.10
   2   7  -7  838.72   33.60
   2   7  -7  859.71   33.30
   1   7  -7 1674.73   51.49
   1   7  -7 1632.44   50.99
   0   7  -7  115.79   10.50
   0   7  -7  109.69   10.00
  -1   7  -7  762.72   27.70
  -1   7  -7  721.33   28.20
  -1   7  -7  689.83   18.30
  -2   7  -7   35.80    5.70
  -2   7  -7   36.50    4.70
   2  -7   7   39.10    8.20
  -3   7  -7 1871.51   54.59
  -3   7  -7 1830.02   50.99
   3  -7   7 1897.41   57.89
  -4   7  -7   45.30    6.90
   4  -7   7   35.50    7.10
  -5   7  -7 2110.29   63.19
   5  -7   7 2142.29   64.79
   6  -7   7  248.08   17.80
   6  -7   7  233.88   18.50
   7  -7   7  707.73   32.60
   7  -7   7  695.03   35.20
   8  -7   7   64.29   12.70
   8  -7   7  108.19   13.90
   9  -7   7  318.17   23.20
   9  -7   7  294.37   25.20
  10  -7   7  285.97   23.10
  10  -7   7  260.47   25.90
   9   6  -7   94.29   18.10
   9   6  -7   51.29   14.20
   8   6  -7  461.75   32.80
   8   6  -7  481.65   30.60
   7   6  -7  409.66   26.60
   7   6  -7  395.86   28.00
   6   6  -7  736.63   36.40
   6   6  -7  661.43   33.10
   5   6  -7  494.85   27.60
   5   6  -7  551.84   27.70
  -5  -6   7  538.25   18.10
  -5  -6   7  521.75   18.00
   4   6  -7  610.84   28.30
   4   6  -7  624.94   29.40
  -4  -6   7  628.74   17.50
  -4  -6   7  638.74   17.60
   3   6  -7 1179.88   41.40
   3   6  -7 1146.89   40.70
   2   6  -7   82.39   11.30
   2   6  -7   67.29    8.50
   1   6  -7 3023.60   79.69
   0   6  -7  139.89   10.00
   0   6  -7  133.09   10.50
  -1   6  -7  985.80   31.80
  -1   6  -7  944.31   26.30
  -2   6  -7  158.98    9.20
  -2   6  -7  143.69   10.20
   2  -6   7  154.78   12.00
  -3   6  -7 3056.89   86.09
  -3   6  -7 3056.49   89.09
   3  -6   7 3605.84  106.79
   4  -6   7   33.40    7.40
   4  -6   7   28.30    6.30
   5  -6   7  936.21   35.30
   5  -6   7  925.11   37.70
   6  -6   7  721.33   30.40
   6  -6   7  647.84   32.50
   7  -6   7  337.07   23.40
   7  -6   7  325.87   20.50
   8  -6   7  264.97   19.30
   8  -6   7  268.07   22.80
   9  -6   7  427.36   30.70
   9  -6   7  461.75   27.00
  10  -6   7  328.87   28.40
  10  -6   7  263.37   22.50
   9   5  -7  178.58   21.50
   9   5  -7  219.88   22.30
   8   5  -7  465.65   29.50
   8   5  -7  490.15   31.50
   7   5  -7  528.65   30.60
   7   5  -7  475.35   28.00
   6   5  -7  125.59   14.30
   6   5  -7  112.79   13.20
   5   5  -7 2869.01   83.49
   5   5  -7 2933.01   83.29
   4   5  -7  492.25   24.20
   4   5  -7  556.44   25.40
  -4  -5   7  515.55   17.00
   3   5  -7 1357.26   43.00
   3   5  -7 1256.67   42.30
  -3  -5   7 1294.17   32.30
   2   5  -7   84.39    8.10
   2   5  -7   87.59    8.60
  -2  -5   7   92.09    3.70
   1   5  -7 1521.15   45.00
   1   5  -7 1474.95   43.50
   0   5  -7  154.38    6.80
   0   5  -7  150.08   10.40
   0   5  -7  174.78   10.30
  -1   5  -7 1056.19   32.70
  -1   5  -7 1033.00   30.10
   1  -5   7 1131.99   36.60
  -2   5  -7  769.12   25.70
  -2   5  -7  803.62   27.00
   2  -5   7  774.82   28.80
   3  -5   7 1763.12   53.49
   3  -5   7 1794.32   52.19
   4  -5   7  857.31   33.70
   4  -5   7  842.52   31.20
   5  -5   7  670.73   27.20
   5  -5   7  608.64   29.30
   6  -5   7  386.76   20.60
   6  -5   7  402.76   24.30
   7  -5   7    5.40    4.60
   7  -5   7   12.10    6.60
   8  -5   7  587.64   33.60
   8  -5   7  549.45   27.90
   9  -5   7   78.19   16.00
   9  -5   7   84.29   13.00
  10  -5   7  333.67   24.50
  10  -5   7  363.66   29.80
  10   4  -7  132.99   21.80
  10   4  -7  169.48   21.30
   9   4  -7  636.04   35.60
   9   4  -7  638.24   37.40
   8   4  -7  269.37   22.10
   8   4  -7  339.77   23.90
   7   4  -7  657.13   32.10
   7   4  -7  595.74   31.40
   6   4  -7   65.89    9.70
   6   4  -7   75.09   10.40
   5   4  -7 2047.70   61.99
   5   4  -7 2029.50   61.99
   4   4  -7  250.67   15.20
   4   4  -7  242.88   15.30
  -4  -4   7  252.47   11.40
   3   4  -7 2282.87   64.09
   3   4  -7 2316.77   63.29
  -3  -4   7 2367.16   56.39
   2   4  -7   19.90    4.40
   2   4  -7   11.00    3.50
  -2  -4   7   12.60    2.30
   1   4  -7  927.41   29.80
   1   4  -7  942.91   28.30
  -1  -4   7  807.32   26.20
  -1  -4   7  872.81   23.80
   0   4  -7   66.69    5.70
   0   4  -7   84.39    7.50
   0   4  -7   59.99    4.80
   0   4  -7   79.09    6.80
   0  -4   7   68.39    5.00
  -1   4  -7 3329.77   79.39
  -1   4  -7 3130.09   78.69
  -1   4  -7 3297.37   82.79
   1  -4   7 3238.98   82.79
   2  -4   7  647.94   25.10
   2  -4   7  702.03   25.20
   3  -4   7  126.09    9.50
   3  -4   7  132.79   10.70
   4  -4   7 1629.54   47.70
   4  -4   7 1567.04   50.89
   5  -4   7  221.68   16.30
   6  -4   7  924.71   34.20
   6  -4   7  946.51   39.70
   7  -4   7   50.49    8.80
   7  -4   7   30.80    7.30
   8  -4   7  610.94   29.10
   8  -4   7  617.54   34.80
   9  -4   7    1.50    6.30
   9  -4   7   -1.20    6.80
  10  -4   7  441.46   27.30
  10  -4   7  430.46   32.70
  10   3  -7  149.99   19.20
  10   3  -7  158.08   21.40
   9   3  -7  677.93   38.10
   9   3  -7  721.23   37.00
   8   3  -7  137.49   15.50
   8   3  -7  157.28   16.00
   7   3  -7 1687.83   57.19
   7   3  -7 1663.73   57.09
   6   3  -7   85.09    9.90
   6   3  -7   75.69    9.30
   5   3  -7 2637.64   75.19
   5   3  -7 2771.42   74.49
   4   3  -7  535.65   22.60
   4   3  -7  516.55   21.50
  -4  -3   7  511.95   18.70
   3   3  -7 1228.48   36.50
   3   3  -7 1250.67   38.20
  -3  -3   7 1218.58   33.30
  -3  -3   7 1186.88   34.10
   2   3  -7  886.11   27.00
   2   3  -7  852.31   28.50
  -2  -3   7  866.61   25.00
   1   3  -7 2660.03   70.99
   1   3  -7 2839.92   65.89
   1   3  -7 2718.43   69.49
   1   3  -7 2854.21   67.39
  -1  -3   7 2750.12   66.39
  -1  -3   7 2776.42   66.49
   0   3  -7  923.91   30.00
   0   3  -7  966.20   29.60
   0   3  -7  966.70   28.30
   0   3  -7  922.81   28.90
   0   3  -7  966.50   27.50
   0  -3   7  995.20   28.00
  -1   3  -7 2666.13   69.39
  -1   3  -7 2696.63   69.29
  -1   3  -7 2841.82   70.89
   1  -3   7 2860.91   69.39
   1  -3   7 2721.23   70.39
   1  -3   7 2815.72   70.29
  -2   3  -7 3735.73   93.69
  -2   3  -7 3720.83   91.69
   2  -3   7 3922.31   93.09
   2  -3   7 3843.42   94.99
   3  -3   7  735.83   28.10
   3  -3   7  739.63   25.60
   4  -3   7  508.55   20.50
   4  -3   7  482.05   23.40
   5  -3   7   29.10    5.50
   5  -3   7   17.90    5.30
   6  -3   7 1208.48   46.40
   6  -3   7 1158.88   39.50
   7  -3   7    6.10    4.60
   7  -3   7    7.20    5.20
   8  -3   7  768.52   39.80
   8  -3   7  791.12   33.10
   9  -3   7    4.80    8.10
  10  -3   7  372.26   25.50
  10  -3   7  527.65   54.49
  11   2  -7  362.46   33.00
  11   2  -7  353.76   29.30
  10   2  -7   24.70   10.30
  10   2  -7   31.30   10.20
   9   2  -7  915.51   41.50
   9   2  -7  909.71   41.50
   8   2  -7   67.09   10.90
   8   2  -7   48.10   10.10
   7   2  -7  684.43   30.30
   7   2  -7  716.13   31.80
   6   2  -7  832.32   33.50
   6   2  -7  920.61   33.50
   5   2  -7 2513.45   67.39
   5   2  -7 2483.45   74.39
   4   2  -7  264.47   14.70
   4   2  -7  296.47   13.90
  -4  -2   7  295.57   13.40
  -4  -2   7  300.27   12.90
   3   2  -7  805.82   26.70
   3   2  -7  788.72   24.10
  -3  -2   7  750.92   22.40
  -3  -2   7  724.73   23.60
   2   2  -7  429.86   15.30
   2   2  -7  480.35   17.90
  -2  -2   7  450.45   16.30
  -2  -2   7  463.15   14.50
  -2  -2   7  469.05   17.00
   1   2  -7 2102.49   52.99
   1   2  -7 2136.59   52.49
   1   2  -7 1929.51   56.29
   1   2  -7 2166.08   53.79
   1   2  -7 2171.88   51.39
  -1  -2   7 2123.39   53.89
   0   2  -7 1462.15   39.10
   0   2  -7 1487.15   37.20
   0   2  -7 1434.06   40.10
   0   2  -7 1447.76   38.60
   0   2  -7 1413.96   39.40
   0  -2   7 1426.66   39.80
  -1   2  -7  470.65   16.60
  -1   2  -7  422.26   18.00
  -1   2  -7  447.46   17.60
   1  -2   7  508.25   19.00
   1  -2   7  461.05   17.20
   1  -2   7  456.45   17.60
  -2   2  -7 3277.77   82.59
  -2   2  -7 3308.07   83.79
   2  -2   7 3363.36   83.99
   2  -2   7 3332.57   84.69
   2  -2   7 3340.87   80.59
   3  -2   7  388.16   15.90
   3  -2   7  389.36   18.90
   4  -2   7 1954.40   52.19
   4  -2   7 1865.71   57.99
   5  -2   7  315.67   20.00
   5  -2   7  314.47   15.80
   6  -2   7  373.56   23.50
   6  -2   7  333.87   17.70
   7  -2   7   24.20    7.50
   7  -2   7    9.30    4.70
   8  -2   7  954.00   46.10
   8  -2   7  984.30   37.80
   9  -2   7   13.90    9.90
   9  -2   7   12.40    7.60
  10  -2   7  424.96   26.80
  10  -2   7  436.86   34.00
  11   1  -7  223.08   22.10
  11   1  -7  240.98   23.30
  10   1  -7    3.20    6.60
   9   1  -7  968.40   41.00
   9   1  -7  901.51   45.30
   8   1  -7   24.40    7.50
   8   1  -7   13.00    6.00
   7   1  -7  713.93   31.20
   7   1  -7  753.12   30.30
   6   1  -7  639.54   27.80
   6   1  -7  694.73   26.40
   5   1  -7  122.29   10.00
   5   1  -7  139.69    9.30
  -5  -1   7  121.99    8.20
   4   1  -7 1619.84   46.70
   4   1  -7 1614.24   43.10
  -4  -1   7 1620.54   41.80
  -4  -1   7 1656.33   45.30
   3   1  -7 1545.55   38.90
   3   1  -7 1532.75   42.60
  -3  -1   7 1557.44   42.00
  -3  -1   7 1542.45   37.60
  -3  -1   7 1506.35   41.40
   2   1  -7  971.80   29.00
   2   1  -7  982.60   25.90
   2   1  -7  986.30   29.30
  -2  -1   7  989.00   25.10
  -2  -1   7 1024.90   30.00
  -2  -1   7 1179.78   37.40
   1   1  -7   19.30    2.90
   1   1  -7   14.90    2.50
   1   1  -7   14.80    1.90
   1   1  -7   18.90    3.50
   1   1  -7   14.90    3.40
  -1  -1   7    9.30    2.20
  -1  -1   7   23.80    3.80
   0   1  -7 7596.64  169.78
   0   1  -7 7073.49  177.28
   0   1  -7 7686.83  168.88
   0   1  -7 7814.62  169.88
   0  -1   7 7618.94  169.68
   0  -1   7 7600.64  173.68
  -1   1  -7  320.17   15.40
  -1   1  -7  316.57   11.80
  -1   1  -7  300.97   13.40
   1  -1   7  341.67   12.70
   1  -1   7  316.17   15.20
   1  -1   7  311.47   13.70
  -2   1  -7 1678.03   43.60
  -2   1  -7 1681.33   47.90
   2  -1   7 1731.53   48.80
   2  -1   7 1718.03   44.10
   2  -1   7 1759.92   50.49
  -3   1  -7  330.17   18.90
   3  -1   7  309.47   13.10
   3  -1   7  294.57   16.40
  -4   1  -7 2335.07   62.09
   4  -1   7 2492.75   62.59
   4  -1   7 2452.25   70.79
   5  -1   7   14.10    3.80
   5  -1   7    6.40    4.30
   6  -1   7 1037.00   34.70
   6  -1   7  986.20   42.50
   7  -1   7   21.50    8.80
   7  -1   7   27.10    6.30
   8  -1   7  865.51   34.00
   8  -1   7  866.81   43.70
   9  -1   7  109.49   14.90
   9  -1   7  103.39   18.10
  11   0  -7  421.06   29.20
  11   0  -7  443.16   29.80
  10   0  -7   42.60   10.50
  10   0  -7   56.49   11.80
   9   0  -7  993.80   42.00
   9   0  -7 1011.80   40.80
   8   0  -7  872.11   34.80
   8   0  -7  865.81   36.50
   7   0  -7  718.13   28.50
   7   0  -7  701.43   30.20
   6   0  -7  588.94   22.80
   6   0  -7  580.34   25.30
   5   0  -7   77.49    6.50
   5   0  -7   79.49    7.70
  -5   0   7   66.49    5.70
   4   0  -7  579.54   21.90
   4   0  -7  606.74   18.60
  -4   0   7  588.64   17.50
  -4   0   7  643.64   22.70
   3   0  -7  182.38    9.70
   3   0  -7  183.88    6.70
  -3   0   7  170.38    9.90
  -3   0   7  171.28    8.90
  -3   0   7  174.48    5.90
   2   0  -7 2684.93   64.69
   2   0  -7 2692.13   59.69
   2   0  -7 2762.22   59.99
   2   0  -7 2720.33   68.09
  -2   0   7 2715.13   67.89
  -2   0   7 2586.64   63.89
   1   0  -7  378.76   16.30
   1   0  -7  402.56   11.90
   1   0  -7  409.96   13.10
  -1   0   7  392.66   12.80
  -1   0   7  403.06   16.80
  -1   0   7  391.76   11.70
   0   0  -7 2641.04   62.39
   0   0  -7 2657.63   60.29
   0   0  -7 2603.34   60.79
   0   0  -7 2551.14   67.59
   0   0   7 2534.45   67.49
   0   0   7 2624.74   62.59
  -1   0  -7  169.58    9.40
  -1   0  -7  162.88    6.80
   1   0   7  166.48   11.10
   1   0   7  153.58    7.10
   1   0   7  155.58    9.30
  -2   0  -7 3138.39   73.69
  -2   0  -7 3115.59   79.69
   2   0   7 3112.59   73.89
   2   0   7 3150.28   83.49
   2   0   7 3309.37   81.49
  -3   0  -7   11.90    2.90
   3   0   7   13.80    4.50
   3   0   7    8.10    2.50
   3   0   7   12.00    4.60
   4   0   7  277.37   12.70
   4   0   7  272.57   18.70
   5   0   7  551.94   27.80
   5   0   7  504.05   20.10
   6   0   7  971.00   33.00
   6   0   7 1035.60   43.60
   7   0   7  190.58   13.60
   7   0   7  209.98   23.40
   8   0   7  843.62   32.90
   8   0   7  806.42   43.20
   9   0   7  268.77   20.60
   9   0   7  310.87   28.80
  12  -1  -7   98.29   20.40
  12  -1  -7   93.69   17.50
  11  -1  -7  708.83   37.00
  11  -1  -7  681.23   36.60
  10  -1  -7  298.47   21.20
  10  -1  -7  274.87   21.70
   9  -1  -7 1313.87   47.70
   9  -1  -7 1400.06   50.99
   8  -1  -7  875.81   36.00
   8  -1  -7  869.71   33.40
   7  -1  -7  364.56   20.40
   7  -1  -7  390.86   18.50
   6  -1  -7 1409.46   39.80
   6  -1  -7 1372.26   43.60
  -6   1   7 1297.47   37.70
   5  -1  -7  891.81   25.90
   5  -1  -7  890.71   30.30
  -5   1   7  848.62   24.50
   4  -1  -7 1692.33   46.20
   4  -1  -7 1685.23   40.30
  -4   1   7 1607.94   44.70
  -4   1   7 1688.03   39.50
  -4   1   7 1688.33   47.40
   3  -1  -7  899.81   26.60
  -3   1   7  871.81   25.50
  -3   1   7  888.11   28.80
   2  -1  -7 3992.10   97.09
  -2   1   7 4048.70   91.39
  -2   1   7 3977.90   97.49
   1  -1  -7    4.60    2.40
   1  -1  -7    4.30    1.20
   1  -1  -7    9.00    1.50
  -1   1   7    5.90    1.30
  -1   1   7    6.00    1.40
  -1   1   7    6.20    2.80
   0  -1  -7 1884.01   41.10
   0  -1  -7 1718.63   44.10
   0  -1  -7 1763.22   40.10
   0  -1  -7 1658.03   49.70
   0   1   7 1742.23   45.10
   0   1   7 1786.92   50.39
  -1  -1  -7  406.56   18.40
  -1  -1  -7  388.26   10.80
  -1  -1  -7  399.96   11.00
   1   1   7  403.86   19.10
   1   1   7  393.96   16.40
  -2  -1  -7 1718.43   41.00
   2   1   7 1601.24   40.80
   2   1   7 1764.52   52.89
   2   1   7 1787.22   50.49
  -3  -1  -7  329.67   12.30
   3   1   7  337.87   28.90
   3   1   7  340.57   18.80
   3   1   7  374.26   12.90
  -4  -1  -7 1596.84   43.30
   4   1   7 1639.64   43.00
   4   1   7 1626.24   53.79
   5   1   7   91.49   12.10
   5   1   7   83.89    7.40
   6   1   7  334.37   23.50
   6   1   7  318.27   15.80
   7   1   7  541.95   23.50
   7   1   7  555.24   33.30
   8   1   7  338.67   28.00
   8   1   7  307.77   19.10
   9   1   7  194.38   19.70
   9   1   7  264.87   27.50
  12  -2  -7  204.48   21.70
  12  -2  -7  183.08   20.30
  11  -2  -7  703.03   37.20
  11  -2  -7  756.72   36.70
  10  -2  -7  660.13   33.30
  10  -2  -7  613.34   30.70
   9  -2  -7  545.85   28.70
   9  -2  -7  587.34   27.50
   8  -2  -7 1235.88   40.70
   8  -2  -7 1109.89   42.20
   7  -2  -7  649.04   27.60
   7  -2  -7  628.44   24.30
   6  -2  -7 1634.24   49.20
   6  -2  -7 1662.33   44.40
  -6   2   7 1578.94   42.80
   5  -2  -7  123.29    6.80
   5  -2  -7  130.59    9.60
  -5   2   7  145.09   10.60
  -5   2   7  131.29    6.70
   4  -2  -7 3944.21   93.29
  -4   2   7 3872.81   95.49
  -4   2   7 3708.43   91.29
   3  -2  -7 1390.06   36.50
  -3   2   7 1364.86   40.40
  -3   2   7 1309.57   35.40
   2  -2  -7 1686.13   40.40
   2  -2  -7 1558.54   46.60
   2  -2  -7 1701.43   36.50
  -2   2   7 1589.04   46.50
  -2   2   7 1676.43   36.70
  -2   2   7 1632.44   39.60
   1  -2  -7  101.19    3.90
   1  -2  -7  111.09    5.40
  -1   2   7  102.99    5.60
  -1   2   7  112.69    9.10
   0  -2  -7 3134.09   74.99
   0   2   7 3121.79   81.69
   0   2   7 3182.98   76.29
   1   2   7   17.50    4.90
   1   2   7   15.30    3.70
  -2  -2  -7  105.59    4.30
   2   2   7  114.89   10.70
   2   2   7  108.49    9.60
   2   2   7  108.99    4.40
  -3  -2  -7  322.57   11.10
   3   2   7  342.17   19.30
   3   2   7  350.16   20.30
   3   2   7  336.87   11.60
  -4  -2  -7  893.81   26.30
   4   2   7  956.40   38.60
   4   2   7  971.60   27.30
   5   2   7  612.24   21.50
   5   2   7  638.84   32.20
   6   2   7  293.17   23.20
   6   2   7  319.17   15.30
   7   2   7  724.83   39.60
   7   2   7  661.83   26.10
   8   2   7  104.29   18.60
   8   2   7   79.79   12.90
  12  -3  -7  241.88   22.30
  12  -3  -7  187.48   21.00
  11  -3  -7  358.96   25.00
  11  -3  -7  354.36   23.80
  10  -3  -7  584.64   31.50
  10  -3  -7  568.74   28.40
   9  -3  -7    7.00    4.50
   9  -3  -7    2.50    4.20
   8  -3  -7  781.92   33.00
   8  -3  -7  827.62   30.40
   7  -3  -7  385.06   17.10
   7  -3  -7  365.66   19.60
  -7   3   7  373.16   16.40
   6  -3  -7 1943.41   49.70
   6  -3  -7 1872.91   54.89
  -6   3   7 1891.11   49.10
   5  -3  -7   33.10    4.80
   5  -3  -7   33.20    3.50
  -5   3   7   36.50    3.80
  -5   3   7   49.10    6.40
   4  -3  -7 1450.75   40.10
  -4   3   7 1441.36   39.40
  -4   3   7 1468.85   34.40
  -4   3   7 1428.36   43.30
  -4   3   7 1408.66   33.30
   3  -3  -7    8.30    2.10
  -3   3   7    6.50    1.30
  -3   3   7    4.20    1.80
  -3   3   7    7.70    3.30
   2  -3  -7  901.61   23.10
   2  -3  -7  866.61   22.60
  -2   3   7  883.01   22.70
  -2   3   7  902.11   30.90
  -2   3   7  882.01   23.20
   1  -3  -7  441.76   14.80
  -1   3   7  434.06   21.30
  -1   3   7  469.85   20.60
   0   3   7 1840.52   50.19
   0   3   7 1928.01   55.29
   1   3   7 1400.26   45.20
   1   3   7 1353.36   41.70
   2   3   7 1169.68   39.80
  -3  -3  -7   18.30    2.80
   3   3   7   21.60    6.30
   3   3   7   26.70    3.10
   3   3   7   12.90    5.50
  -4  -3  -7  145.79    7.80
   4   3   7  154.78   14.70
   4   3   7  144.69    7.80
   5   3   7  865.91   27.00
   5   3   7  908.31   41.00
   6   3   7   73.89   14.30
   6   3   7   57.19    8.00
   7   3   7  822.82   44.00
   7   3   7  745.13   27.60
   8   3   7   24.90   18.90
  12  -4  -7  325.67   24.70
  12  -4  -7  338.17   25.90
  11  -4  -7  149.69   16.10
  11  -4  -7  123.09   16.00
  10  -4  -7  581.74   28.20
  10  -4  -7  592.84   34.50
   9  -4  -7    1.70    3.80
   9  -4  -7    4.30    4.10
   8  -4  -7  810.12   29.80
   8  -4  -7  831.92   33.60
   7  -4  -7   39.30    6.80
   7  -4  -7   37.60    5.70
  -7   4   7   30.10    6.30
   6  -4  -7 1161.18   37.60
   6  -4  -7 1193.88   33.00
  -6   4   7 1140.99   39.60
  -6   4   7 1092.99   32.60
   5  -4  -7   35.80    5.10
  -5   4   7   39.60    4.20
  -5   4   7   42.00    6.20
  -5   4   7   37.30    3.20
   4  -4  -7 1405.56   37.90
  -4   4   7 1278.67   36.90
  -4   4   7 1325.87   34.10
  -4   4   7 1321.87   32.90
  -4   4   7 1397.76   42.50
   3  -4  -7  549.45   17.40
  -3   4   7  551.94   17.40
  -3   4   7  553.44   16.20
  -3   4   7  541.25   22.50
  -3   4   7  531.05   16.60
   2  -4  -7  539.75   17.10
   2  -4  -7  562.24   15.50
  -2   4   7  569.94   20.50
  -2   4   7  543.95   15.30
  -2   4   7  574.04   23.50
   1  -4  -7  414.36   15.40
  -1   4   7  414.26   16.10
  -1   4   7  416.26   20.00
   0  -4  -7  391.86   16.40
   0   4   7  418.46   20.40
   0   4   7  405.96   17.70
   1   4   7  706.83   29.20
   1   4   7  682.03   27.00
   2   4   7  185.68   14.60
   2   4   7  167.98   18.10
   3   4   7 1190.28   45.10
   3   4   7 1203.78   29.70
   3   4   7 1260.67   45.60
   3   4   7 1226.08   28.90
   4   4   7   61.09   10.90
   5   4   7  689.43   21.90
   5   4   7  682.73   36.00
   6   4   7    1.00    7.70
   6   4   7    1.10    4.50
   7   4   7  808.72   45.60
  12  -5  -7  593.24   32.80
  12  -5  -7  573.44   34.40
  11  -5  -7   21.30    7.70
  11  -5  -7   18.60    8.30
  10  -5  -7  605.54   28.20
  10  -5  -7  569.24   32.60
   9  -5  -7   43.30    9.10
   9  -5  -7   36.80    9.40
   8  -5  -7 1092.39   35.90
   8  -5  -7 1083.99   40.10
   7  -5  -7  145.79   12.10
  -7   5   7  161.28   10.80
  -7   5   7  175.18   14.10
  -7   5   7  181.28    9.50
   6  -5  -7  635.64   25.00
  -6   5   7  640.04   19.90
  -6   5   7  668.23   27.90
  -6   5   7  601.24   26.20
   5  -5  -7  492.85   19.40
  -5   5   7  479.45   15.30
  -5   5   7  441.76   16.70
   4  -5  -7 1593.64   42.30
  -4   5   7 1552.24   40.70
  -4   5   7 1532.75   47.60
  -4   5   7 1539.95   39.10
  -4   5   7 1498.75   41.90
   3  -5  -7 1443.56   38.90
   3  -5  -7 1554.94   39.30
  -3   5   7 1505.95   39.30
  -3   5   7 1524.85   47.00
  -3   5   7 1566.44   39.90
   2  -5  -7  682.63   18.50
   2  -5  -7  635.84   23.60
  -2   5   7  672.43   26.80
  -2   5   7  687.83   22.40
  -2   5   7  675.63   18.10
  -1   5   7 1455.65   41.70
  -1   5   7 1407.26   45.60
   0   5   7  759.22   30.20
   0   5   7  744.13   27.90
   1   5   7  275.97   17.50
   1   5   7  269.67   16.60
   2   5   7  196.58   15.30
   2   5   7  185.38   15.00
   3   5   7 1035.00   42.10
   4   5   7   10.50    6.40
   4   5   7    6.20    2.40
   5   5   7  608.54   35.60
   5   5   7  568.14   20.80
   6   5   7   -7.10    7.60
  12  -6  -7  607.14   32.60
  12  -6  -7  613.34   34.90
  11  -6  -7   -2.20    6.10
  11  -6  -7   -3.30    6.00
  10  -6  -7  498.45   25.00
  10  -6  -7  485.55   27.80
   9  -6  -7   97.79   12.10
   9  -6  -7  110.19   10.80
   8  -6  -7  804.12   33.00
  -8   6   7  771.02   34.80
  -8   6   7  818.52   27.00
   7  -6  -7  793.02   30.90
  -7   6   7  821.02   33.90
  -7   6   7  776.42   25.10
   6  -6  -7 1175.38   37.30
  -6   6   7 1136.49   40.60
  -6   6   7 1120.59   31.70
  -6   6   7 1097.99   34.40
   5  -6  -7  595.64   22.20
  -5   6   7  601.84   26.20
  -5   6   7  567.84   21.20
  -5   6   7  609.74   19.60
   4  -6  -7 1072.39   31.60
  -4   6   7 1030.10   30.30
  -4   6   7 1044.20   32.30
  -4   6   7 1232.68   52.89
  -4   6   7 1021.80   31.60
   3  -6  -7 1047.30   28.90
   3  -6  -7  973.40   30.00
  -3   6   7 1030.70   29.00
  -3   6   7 1012.30   30.70
  -3   6   7 1062.99   37.00
   2  -6  -7  237.48    9.30
  -2   6   7  234.48    8.90
  -2   6   7  245.58   15.70
  -2   6   7  261.47   13.20
  -1   6   7 1303.37   41.80
  -1   6   7 1504.45   59.49
   0   6   7   65.89    8.10
   0   6   7   60.29    8.60
   1   6   7 1580.74   52.19
   1   6   7 1607.54   52.39
   2   6   7  168.28   14.60
   2   6   7  174.48   15.60
   3   6   7  874.71   39.60
   4   6   7   10.00    8.10
   5   6   7  624.94   37.00
   6   6   7   17.70   11.40
  12  -7  -7  438.06   29.70
  12  -7  -7  492.25   29.20
  11  -7  -7   44.90   10.50
 -11   7   7   28.30    8.00
  10  -7  -7  339.47   23.40
 -10   7   7  375.56   19.30
   9  -7  -7  434.36   24.80
  -9   7   7  460.35   27.40
  -9   7   7  463.75   19.90
   8  -7  -7  649.14   29.00
  -8   7   7  632.94   23.10
  -8   7   7  601.84   30.40
   7  -7  -7  613.84   25.90
  -7   7   7  566.84   20.80
  -7   7   7  596.54   28.60
  -6   7   7  538.05   26.00
  -6   7   7  559.74   19.90
   5  -7  -7 1133.09   35.30
  -5   7   7 1124.99   40.30
  -5   7   7 1123.89   33.30
   4  -7  -7  105.29    7.90
  -4   7   7   81.79    9.40
  -4   7   7   98.19    7.60
   3  -7  -7 1410.06   38.40
  -3   7   7 1480.95   42.10
  -3   7   7 1375.46   46.50
  -3   7   7 1424.66   39.00
  -2   7   7   19.60    3.90
  -2   7   7   14.70    2.80
  -2   7   7   21.70    4.80
  -2   7   7   18.80    5.20
  -1   7   7 1538.55   47.30
  -1   7   7 1448.16   33.80
  -1   7   7 1565.84   49.80
   0   7   7   41.40    7.90
   0   7   7   30.70    6.90
   1   7   7 1126.49   42.70
   1   7   7 1065.89   41.10
   2   7   7   38.10    9.30
   2   7   7   56.99   11.00
   4   7   7   74.19   15.50
   5   7   7  368.26   29.80
  12  -8  -7  434.56   42.70
 -12   8   7  374.96   23.30
  11  -8  -7  100.79   14.40
 -11   8   7   84.29   16.20
 -11   8   7   75.59   12.30
  10  -8  -7  261.97   20.70
 -10   8   7  272.37   16.30
 -10   8   7  254.97   22.70
   9  -8  -7  372.66   22.60
  -9   8   7  382.06   25.60
  -9   8   7  380.06   18.00
   8  -8  -7  372.36   20.90
  -8   8   7  333.17   23.90
  -8   8   7  358.36   23.10
   7  -8  -7  450.35   21.80
  -7   8   7  411.16   17.80
  -7   8   7  426.96   24.00
   6  -8  -7  310.07   16.70
  -6   8   7  301.17   14.60
  -6   8   7  290.57   19.10
   5  -8  -7  357.16   16.90
  -5   8   7  368.16   16.60
  -5   8   7  364.86   20.70
   4  -8  -7    6.50    2.60
  -4   8   7    0.40    3.40
  -4   8   7    8.60    3.50
   3  -8  -7  859.51   27.00
  -3   8   7  855.71   34.00
  -3   8   7  838.62   26.70
  -3   8   7  903.91   31.10
  -2   8   7   17.40    5.60
  -2   8   7   17.20    5.50
  -2   8   7   18.70    4.00
  -2   8   7   17.00    3.50
  -1   8   7 1087.69   39.90
  -1   8   7 1112.69   39.30
  -1   8   7  991.60   28.40
  -1   8   7 1083.99   25.30
   0   8   7   10.40    5.20
   0   8   7   12.40    5.70
   1   8   7  671.73   33.10
   1   8   7  689.13   31.60
   2   8   7  134.99   18.80
   3   8   7  331.37   25.90
   4   8   7  361.46   28.90
  11  -9  -7  212.38   20.10
 -11   9   7  269.07   18.80
 -11   9   7  282.77   25.30
  10  -9  -7  408.76   25.40
 -10   9   7  390.46   20.60
 -10   9   7  353.86   26.40
  -9   9   7  204.68   19.00
  -9   9   7  201.38   13.80
   8  -9  -7  148.99   14.20
  -8   9   7  145.69   11.00
  -8   9   7  153.98   15.70
   7  -9  -7  790.92   31.80
  -7   9   7  859.71   36.80
  -7   9   7  817.02   29.10
   6  -9  -7   42.70    7.10
  -6   9   7   26.10    7.60
   5  -9  -7  723.33   27.40
  -5   9   7  772.12   32.90
   4  -9  -7   11.60    4.70
  -4   9   7    1.80    3.60
  -4   9   7    9.70    4.90
  -3   9   7  841.12   27.50
  -3   9   7  873.21   35.40
  -3   9   7  843.72   25.60
  -3   9   7  893.21   32.70
  -2   9   7    0.90    4.50
  -2   9   7    5.60    4.40
  -2   9   7    8.30    4.70
  -2   9   7    2.60    2.60
  -1   9   7  501.65   16.10
  -1   9   7  578.34   27.90
  -1   9   7  549.15   26.40
  -1   9   7  555.44   14.30
   0   9   7  106.59   13.80
   0   9   7  150.28   14.70
   1   9   7  178.58   16.30
   2   9   7  184.88   20.70
   3   9   7  186.98   21.70
  11 -10  -7  330.27   25.30
 -11  10   7  293.67   24.60
 -11  10   7  342.77   27.90
  10 -10  -7   21.40    9.40
 -10  10   7   28.40    9.70
 -10  10   7   31.50    8.90
   9 -10  -7  332.97   22.50
  -9  10   7  360.06   19.50
  -9  10   7  368.76   25.70
   8 -10  -7   54.79   10.00
  -8  10   7   45.20   10.90
  -8  10   7   48.00    8.70
   7 -10  -7  656.43   28.70
  -7  10   7  666.73   26.60
  -7  10   7  633.04   31.90
   6 -10  -7    6.90    4.90
  -6  10   7   10.10    5.60
  -6  10   7    8.50    4.80
   5 -10  -7  329.57   17.70
  -5  10   7  305.97   20.50
  -5  10   7  329.17   18.20
   4 -10  -7   20.10    5.20
  -4  10   7   14.20    5.40
  -4  10   7   29.40    7.90
  -3  10   7  306.57   18.90
  -3  10   7  272.87   12.60
  -3  10   7  274.97   18.80
  -2  10   7   90.99    6.70
  -2  10   7   71.89   11.30
  -2  10   7  109.69   12.70
  -1  10   7  385.86   22.60
  -1  10   7  361.76   23.20
   0  10   7  208.48   19.60
   0  10   7  192.08   17.00
   1  10   7  196.18   17.90
   1  10   7  177.68   19.40
   2  10   7  111.89   19.20
  10 -11  -7    5.40    8.20
 -10  11   7    6.60    9.60
 -10  11   7   20.60    9.10
   9 -11  -7  400.26   24.90
  -9  11   7  418.06   28.30
  -9  11   7  421.46   22.80
  -8  11   7   27.50    7.20
  -8  11   7   21.80    8.90
   7 -11  -7  569.14   27.20
  -7  11   7  597.14   31.00
  -7  11   7  552.74   25.70
   6 -11  -7    4.50    5.30
  -6  11   7   -0.10    5.50
  -6  11   7    0.70    5.00
   5 -11  -7  384.66   20.20
  -5  11   7  337.07   22.30
  -5  11   7  363.96   20.90
  -4  11   7  201.98   15.90
  -4  11   7  160.68   11.00
  -4  11   7  182.58   16.90
  -3  11   7  129.09   14.50
  -3  11   7  147.19   14.90
  -3  11   7  166.88   10.30
  -2  11   7  252.57   21.40
  -2  11   7  236.38   18.30
  -1  11   7  129.09   16.30
  -1  11   7  136.99   15.60
   0  11   7  192.28   20.70
   0  11   7  229.58   19.60
   1  11   7   55.29   12.40
   9 -12  -7  275.07   22.40
  -9  12   7  316.87   21.30
  -9  12   7  300.07   25.40
   8 -12  -7   92.89   14.30
  -8  12   7   63.79   11.70
  -8  12   7   67.79   14.90
   7 -12  -7   76.69   12.70
  -7  12   7   90.39   15.00
  -7  12   7   85.99   13.30
   6 -12  -7  119.19   15.00
  -6  12   7  118.59   15.80
  -6  12   7  130.79   15.10
  -5  12   7  111.79   11.90
  -5  12   7   88.39   13.60
  -5  12   7  115.79   25.20
  -4  12   7  544.55   30.70
  -4  12   7  508.15   27.70
  -4  12   7  514.75   24.90
  -3  12   7  128.29   15.40
  -3  12   7   88.89   13.90
  -2  12   7  308.77   21.20
  -2  12   7  294.47   23.30
  -1  12   7   41.40   11.90
   7 -13  -7  156.68   19.40
  -7  13   7  227.08   20.10
  -7  13   7  208.68   22.10
  -6  13   7  165.88   19.50
  -6  13   7  111.99   15.70
  -6  13   7  142.89   18.00
  -5  13   7  110.79   16.50
  -5  13   7  130.39   17.60
  -4  13   7  239.78   20.80
  -4  13   7  244.38   21.60
   1  13  -8    9.50    9.60
   1  13  -8   17.60    9.70
   0  13  -8  332.27   31.00
   0  13  -8  331.27   25.10
  -1  13  -8   39.20   10.20
  -1  13  -8   24.50    9.70
  -2  13  -8  159.58   18.40
  -2  13  -8  175.58   18.40
  -3  13  -8   -2.80    6.50
  -3  13  -8   14.10    7.60
  -4  13  -8  135.69   16.80
  -4  13  -8  150.18   17.70
  -5  13  -8  112.19   15.90
  -5  13  -8  103.39   15.70
  -6  13  -8   52.79   16.10
   2  12  -8  345.67   27.90
   2  12  -8  302.47   23.80
   1  12  -8    3.70    7.10
   1  12  -8   10.70    7.30
   0  12  -8   89.29   14.60
   0  12  -8   83.69   13.90
  -1  12  -8  116.09   15.10
  -1  12  -8  136.49   16.50
  -2  12  -8  214.58   19.70
  -2  12  -8  228.48   18.90
  -3  12  -8   25.20    7.20
  -3  12  -8   34.30    9.60
  -4  12  -8  196.98   17.70
  -4  12  -8  160.68   16.40
  -5  12  -8  217.18   19.30
   5 -12   8  235.08   22.50
  -6  12  -8   84.49   13.80
   6 -12   8  101.79   15.80
  -7  12  -8  235.18   20.40
   7 -12   8  233.78   23.30
  -8  12  -8   19.30    9.00
   8 -12   8   -5.50   10.00
   4  11  -8  293.57   23.70
   4  11  -8  288.67   34.50
   3  11  -8  221.68   20.80
   3  11  -8  197.58   21.30
   2  11  -8  712.73   37.20
   2  11  -8  684.03   34.10
   1  11  -8   48.70   12.20
   1  11  -8   58.89   12.30
   0  11  -8  273.97   21.10
   0  11  -8  303.77   21.50
  -1  11  -8   86.69   12.20
  -1  11  -8   85.19   12.80
  -2  11  -8  298.37   20.50
  -2  11  -8  271.47   20.00
  -3  11  -8  281.97   20.50
  -3  11  -8  283.27   20.30
  -4  11  -8   91.79   12.90
   4 -11   8   89.59   13.50
  -5  11  -8  376.76   23.60
   5 -11   8  365.56   25.90
  -6  11  -8   -3.90    4.80
   6 -11   8    7.30    7.30
  -7  11  -8  445.46   27.30
   7 -11   8  487.75   30.80
  -8  11  -8   18.10    8.90
   8 -11   8   15.50   10.00
   5  10  -8   13.30    9.80
   5  10  -8   10.20    8.60
   4  10  -8  421.86   27.30
   4  10  -8  394.16   28.30
   3  10  -8  180.28   19.20
   3  10  -8  170.28   17.30
   2  10  -8   95.19   13.70
   2  10  -8   97.09   13.00
   1  10  -8  402.76   23.80
   1  10  -8  413.26   26.10
   0  10  -8  351.66   21.60
   0  10  -8  349.77   22.10
  -1  10  -8  201.28   16.30
  -1  10  -8  182.48   16.20
  -2  10  -8  315.47   20.30
  -2  10  -8  344.27   21.10
  -3  10  -8  694.13   21.40
  -3  10  -8  851.01   35.10
  -3  10  -8  794.72   33.60
   3 -10   8  756.92   36.30
  -4  10  -8   83.49   10.80
   4 -10   8   67.89   12.20
  -5  10  -8  281.47   19.80
   5 -10   8  284.37   21.40
  -6  10  -8    6.40    4.90
   6 -10   8   14.90    7.90
  -7  10  -8  480.15   26.90
   7 -10   8  385.36   26.90
  -8  10  -8    6.70    6.00
   8 -10   8    5.40    8.00
  -9  10  -8  251.47   34.50
   9 -10   8  279.07   26.70
   6   9  -8  286.07   27.10
   6   9  -8  282.77   24.40
   5   9  -8   90.49   15.40
   5   9  -8  102.09   16.50
   4   9  -8  338.77   23.50
   4   9  -8  362.06   25.30
   3   9  -8  424.76   25.60
   3   9  -8  371.66   25.80
   2   9  -8  119.39   13.30
   2   9  -8  127.89   14.10
   1   9  -8  244.18   17.60
   1   9  -8  237.08   17.70
   0   9  -8   78.29   10.70
   0   9  -8   78.99   10.30
  -1   9  -8  689.23   30.10
  -1   9  -8  694.33   30.40
  -2   9  -8  123.89   11.70
  -2   9  -8  104.59   11.60
  -3   9  -8 1090.59   39.70
   3  -9   8 1052.39   42.90
  -4   9  -8   58.19    9.00
   4  -9   8   48.20   10.40
  -5   9  -8  876.91   35.70
   5  -9   8  849.41   38.10
  -6   9  -8   -3.30    3.90
  -7   9  -8  266.17   20.20
   7  -9   8  323.77   22.50
  -8   9  -8   64.89   12.30
   8  -9   8   79.99   14.10
  -9   9  -8  348.97   25.20
   9  -9   8  275.47   24.00
   7   8  -8  131.19   18.90
   7   8  -8  104.09   19.70
   6   8  -8  404.16   29.30
   6   8  -8  382.96   26.60
   5   8  -8  133.39   16.70
   5   8  -8  125.99   15.90
   4   8  -8   13.20    6.10
   4   8  -8   17.40    7.40
   3   8  -8  701.43   32.20
   3   8  -8  678.63   32.60
   2   8  -8  134.09   13.20
   2   8  -8  133.19   13.10
   1   8  -8  716.73   30.80
   1   8  -8  739.63   31.10
   0   8  -8  179.88   13.80
   0   8  -8  195.08   14.50
  -1   8  -8  693.73   28.90
  -1   8  -8  650.43   27.50
  -2   8  -8    2.60    2.60
  -2   8  -8    4.90    3.40
  -2   8  -8    4.10    3.10
   2  -8   8   -1.80    3.30
  -3   8  -8  803.42   31.10
  -3   8  -8  726.03   25.90
   3  -8   8  748.33   33.10
  -4   8  -8   56.99    8.30
   4  -8   8   66.49   10.10
  -5   8  -8  626.24   28.90
   5  -8   8  689.73   31.70
  -6   8  -8  233.38   17.10
   6  -8   8  182.58   16.40
  -7   8  -8  636.74   31.10
   7  -8   8  641.34   34.90
   7  -8   8  614.04   38.30
   8  -8   8   21.40    8.60
   8  -8   8    9.40    7.00
   9  -8   8  171.68   18.70
   9  -8   8  201.38   22.30
  10  -8   8  277.67   27.30
   8   7  -8  236.38   24.00
   8   7  -8  216.88   24.50
   7   7  -8  426.36   30.20
   7   7  -8  328.77   25.90
   6   7  -8  287.97   23.20
   6   7  -8  283.57   22.40
   5   7  -8  621.24   31.20
   5   7  -8  590.44   31.80
   4   7  -8   61.09   10.10
   4   7  -8   95.69   11.90
   3   7  -8  261.27   18.20
   3   7  -8  273.67   18.30
   2   7  -8   23.40    6.00
   2   7  -8   38.20    7.40
   1   7  -8 2389.56   67.69
   1   7  -8 2280.57   66.39
   0   7  -8  175.78   12.30
   0   7  -8  147.19   11.80
  -1   7  -8 1026.70   27.80
  -1   7  -8 1172.08   38.60
  -1   7  -8 1078.49   36.30
  -2   7  -8  316.57   16.60
  -2   7  -8  256.27   12.60
   2  -7   8  263.17   17.40
  -3   7  -8 1652.83   50.09
   3  -7   8 1608.64   52.99
  -4   7  -8   11.60    4.00
   4  -7   8    7.10    4.40
  -5   7  -8  848.72   33.50
   5  -7   8  776.62   33.50
   6  -7   8  255.37   20.40
   6  -7   8  279.77   19.30
   7  -7   8  461.65   26.40
   8  -7   8  246.38   22.50
   8  -7   8  220.28   19.20
   9  -7   8  376.06   29.70
   9  -7   8  392.96   26.00
  10  -7   8  226.48   22.60
  10  -7   8  260.27   26.90
   9   6  -8  140.49   22.40
   8   6  -8  199.38   21.00
   8   6  -8  182.88   22.20
  -8  -6   8  212.08   15.90
   7   6  -8  711.63   35.80
   7   6  -8  702.43   37.60
  -7  -6   8  643.84   25.10
   6   6  -8   39.90    9.90
   6   6  -8   50.99   10.50
  -6  -6   8   41.60    6.60
   5   6  -8  930.51   38.80
   5   6  -8  925.11   38.30
  -5  -6   8  884.91   25.60
  -5  -6   8  855.51   25.70
   4   6  -8   66.79    9.40
   4   6  -8   63.29    9.30
  -4  -6   8   55.59    4.00
  -4  -6   8   54.69    4.10
   3   6  -8  721.13   29.90
   3   6  -8  673.23   29.30
   2   6  -8   33.00    6.60
   1   6  -8 1671.13   51.29
   1   6  -8 1724.93   50.59
   0   6  -8  108.49    8.70
   0   6  -8   68.59    4.00
   0   6  -8   74.19    9.10
  -1   6  -8 1371.36   40.90
  -1   6  -8 1298.77   35.80
  -2   6  -8  278.57   13.70
  -2   6  -8  309.27   16.10
   2  -6   8  321.77   19.60
  -3   6  -8  766.82   28.70
   3  -6   8  769.62   30.70
   4  -6   8  640.74   29.10
   4  -6   8  643.24   27.70
   5  -6   8 1197.88   42.60
   5  -6   8 1219.58   45.70
   6  -6   8   34.80    9.30
   6  -6   8   35.60    8.20
   7  -6   8  167.18   17.80
   7  -6   8  184.98   16.00
   8  -6   8  403.06   28.70
   9  -6   8   66.09   12.80
   9  -6   8   88.69   17.00
  10  -6   8  443.96   28.40
  10  -6   8  468.45   35.40
   9   5  -8  397.66   30.30
   9   5  -8  407.26   29.50
   8   5  -8  124.79   16.80
   8   5  -8  108.49   16.40
   7   5  -8  826.12   39.20
   6   5  -8   87.89   11.60
   6   5  -8   69.69   11.30
  -6  -5   8   95.39    8.50
   5   5  -8  413.46   23.50
   5   5  -8  433.16   23.60
  -5  -5   8  446.16   16.90
   4   5  -8   25.20    6.40
   4   5  -8   16.50    5.20
  -4  -5   8   24.90    3.60
   3   5  -8 1000.40   34.90
   3   5  -8  951.20   35.10
  -3  -5   8  962.10   25.80
   2   5  -8   69.49    7.60
   2   5  -8   64.69   11.60
  -2  -5   8   65.59    4.10
   1   5  -8 1674.13   49.60
   1   5  -8 1728.23   48.20
  -1  -5   8 1649.13   40.50
   0   5  -8   82.69    5.60
   0   5  -8   92.19    7.50
   0   5  -8   94.99    8.50
  -1   5  -8  526.65   19.50
  -1   5  -8  600.24   21.90
  -1   5  -8  588.74   23.10
   1  -5   8  589.14   24.60
  -2   5  -8  488.65   20.00
  -2   5  -8  533.25   20.90
   2  -5   8  520.35   22.80
   3  -5   8  212.88   14.40
   3  -5   8  215.48   13.80
   4  -5   8  940.81   36.80
   4  -5   8  972.60   34.60
   5  -5   8  134.09   11.70
   5  -5   8  171.98   15.10
   6  -5   8 1227.78   48.50
   6  -5   8 1297.87   44.20
   7  -5   8  410.46   27.00
   7  -5   8  437.76   23.60
   8  -5   8  617.94   35.30
   8  -5   8  613.14   30.00
   9  -5   8    3.80    7.90
   9  -5   8    7.30    7.20
  10  -5   8  632.34   41.90
  10  -5   8  612.84   33.00
  10   4  -8  149.29   20.80
  10   4  -8  138.99   20.20
   9   4  -8  769.62   39.90
   9   4  -8  790.02   41.50
   8   4  -8   25.80    9.10
   8   4  -8   38.40   10.40
   7   4  -8  667.43   32.40
   7   4  -8  586.74   30.70
   6   4  -8    5.50    4.40
   6   4  -8    6.20    4.90
   5   4  -8 1148.39   43.80
   5   4  -8 1199.08   43.20
  -5  -4   8 1241.38   36.10
   4   4  -8    6.20    3.10
   4   4  -8    4.30    3.50
  -4  -4   8    7.70    2.60
   3   4  -8  836.22   30.70
   3   4  -8  790.02   28.60
  -3  -4   8  827.22   24.20
   2   4  -8  699.23   24.40
   2   4  -8  631.84   25.10
  -2  -4   8  682.23   20.60
   1   4  -8 2221.28   55.99
   1   4  -8 2164.68   52.19
   1   4  -8 2200.28   58.49
  -1  -4   8 2137.29   55.49
  -1  -4   8 1960.70   53.89
   0   4  -8  119.79    7.60
   0   4  -8  121.79    9.20
   0   4  -8  109.89    8.60
   0   4  -8  116.79    7.80
   0  -4   8  113.59    7.10
  -1   4  -8  252.57   14.10
  -1   4  -8  261.37   12.60
   1  -4   8  286.07   13.10
   1  -4   8  291.17   15.30
   2  -4   8 1561.54   47.00
   2  -4   8 1568.04   46.40
   3  -4   8  130.09   10.90
   3  -4   8  122.59    9.70
   4  -4   8  592.94   24.50
   4  -4   8  604.14   27.50
   5  -4   8   44.40    6.70
   5  -4   8   28.70    7.80
   6  -4   8 1216.98   47.30
   6  -4   8 1186.98   41.10
   7  -4   8   43.00    8.60
   7  -4   8   66.19   11.90
   8  -4   8 1019.90   47.30
   8  -4   8 1021.30   39.70
   9  -4   8  107.59   18.50
   9  -4   8  139.59   15.00
  10  -4   8  428.06   33.40
  10  -4   8  435.46   26.90
  10   3  -8   -0.70    8.60
  10   3  -8   23.80   10.20
   9   3  -8  735.53   48.20
   9   3  -8  806.42   39.40
   8   3  -8    4.60    5.80
   8   3  -8   14.60    6.90
   7   3  -8  575.84   29.30
   7   3  -8  546.45   27.60
   6   3  -8   74.59    9.10
   6   3  -8   54.59    8.60
   5   3  -8 2314.17   67.59
   5   3  -8 2378.16   65.89
  -5  -3   8 2315.47   61.69
   4   3  -8  384.36   17.50
   4   3  -8  348.47   18.50
  -4  -3   8  379.46   15.50
   3   3  -8 1877.71   51.59
   3   3  -8 1956.00   54.39
  -3  -3   8 1930.81   49.50
  -3  -3   8 1873.61   49.10
   2   3  -8  625.74   21.20
   2   3  -8  625.34   23.30
  -2  -3   8  646.04   20.80
  -2  -3   8  608.24   19.90
   1   3  -8 1354.46   39.00
   1   3  -8 1375.06   36.40
   1   3  -8 1282.47   36.00
  -1  -3   8 1352.46   37.00
   0   3  -8  834.42   26.90
   0   3  -8  853.91   24.90
   0   3  -8  809.22   26.40
   0   3  -8  823.62   26.40
   0   3  -8  764.12   27.00
   0  -3   8  834.92   26.20
  -1   3  -8  522.55   20.90
  -1   3  -8  545.65   20.30
  -1   3  -8  504.95   20.50
   1  -3   8  549.95   21.20
   1  -3   8  538.25   20.70
   1  -3   8  554.74   20.70
   2  -3   8 1921.61   54.89
   2  -3   8 1973.60   54.79
   2  -3   8 1942.21   53.29
   3  -3   8    5.50    3.00
   3  -3   8    0.60    1.90
   4  -3   8 2693.13   76.99
   4  -3   8 2684.43   71.09
   5  -3   8  679.03   26.00
   5  -3   8  595.14   29.40
   6  -3   8  795.42   37.10
   6  -3   8  826.42   31.20
   7  -3   8   71.09    9.60
   7  -3   8   77.09   12.80
   8  -3   8  764.12   32.90
   8  -3   8  832.52   42.10
   9  -3   8  253.57   20.00
   9  -3   8  270.07   26.00
  11   2  -8  267.27   25.20
  10   2  -8   86.09   15.30
  10   2  -8   87.69   15.50
   9   2  -8  787.02   37.30
   9   2  -8  705.43   36.50
   8   2  -8  168.68   16.20
   8   2  -8  139.49   14.10
   7   2  -8  518.05   26.70
   7   2  -8  513.05   25.00
   6   2  -8  606.34   25.60
   6   2  -8  607.24   27.40
   5   2  -8 1638.34   50.69
   5   2  -8 1601.44   47.30
  -5  -2   8 1666.73   47.20
   4   2  -8  975.50   29.80
   4   2  -8  980.70   33.00
  -4  -2   8  870.71   27.30
  -4  -2   8  993.20   30.20
   3   2  -8 1275.57   38.80
   3   2  -8 1274.87   35.50
  -3  -2   8 1307.87   36.90
  -3  -2   8 1287.47   33.80
   2   2  -8 3084.79   71.09
   2   2  -8 3004.80   74.39
  -2  -2   8 2824.72   72.99
  -2  -2   8 2955.70   69.39
  -2  -2   8 3003.40   73.79
   1   2  -8 1235.58   33.90
   1   2  -8 1179.58   30.70
   1   2  -8 1115.39   34.60
   1   2  -8 1091.49   33.40
   1   2  -8 1171.28   32.30
  -1  -2   8 1184.38   34.60
   0   2  -8 1977.30   52.39
   0   2  -8 2024.20   49.60
   0   2  -8 1910.81   53.49
   0   2  -8 1968.10   51.59
   0   2  -8 2046.90   51.39
   0  -2   8 2033.40   53.79
  -1   2  -8  936.41   28.20
  -1   2  -8  895.31   30.90
  -1   2  -8  923.21   29.50
   1  -2   8  934.91   29.00
   1  -2   8  962.60   31.30
   1  -2   8  946.51   29.80
   2  -2   8 1742.23   50.39
   2  -2   8 1795.32   47.60
   2  -2   8 1751.32   51.79
  -3   2  -8  109.89    8.40
   3  -2   8  114.59   10.10
   3  -2   8  137.59    8.90
   4  -2   8 1921.71   52.19
   4  -2   8 1843.52   59.59
   5  -2   8  119.89    9.50
   5  -2   8  113.99   12.40
   6  -2   8 1209.68   39.40
   6  -2   8 1176.48   47.50
   7  -2   8   86.09   10.20
   7  -2   8   78.29   13.50
   8  -2   8  595.94   35.70
   8  -2   8  580.94   27.40
   9  -2   8  403.56   28.70
   9  -2   8  441.16   32.80
  11   1  -8  186.48   21.00
  11   1  -8  204.28   21.90
  10   1  -8  156.38   17.60
  10   1  -8  161.68   18.80
   9   1  -8  699.13   50.29
   9   1  -8  715.33   34.00
   8   1  -8  205.78   17.00
   8   1  -8  220.68   16.30
   7   1  -8  547.25   26.60
   7   1  -8  552.04   24.80
   6   1  -8 1122.29   39.90
   6   1  -8 1134.99   36.70
   5   1  -8  206.68   13.40
   5   1  -8  227.08   11.80
  -5  -1   8  218.48   12.80
  -5  -1   8  210.08   10.50
   4   1  -8 1221.48   33.30
   4   1  -8 1170.38   37.30
  -4  -1   8 1238.98   36.50
  -4  -1   8 1172.28   31.50
   3   1  -8  450.35   14.60
   3   1  -8  492.45   18.50
  -3  -1   8  438.56   13.40
  -3  -1   8  439.06   17.80
   2   1  -8 4676.93  110.99
   2   1  -8 4840.22  106.19
   2   1  -8 4787.42  110.09
   2   1  -8 4553.74  105.39
  -2  -1   8 4641.14  111.99
  -2  -1   8 4678.13  108.99
   1   1  -8   60.99    4.40
   1   1  -8   58.29    4.90
   1   1  -8   49.00    5.50
   1   1  -8   59.29    3.80
   1   1  -8   55.59    6.10
  -1  -1   8   63.19    6.30
   0   1  -8 3114.19   74.19
   0   1  -8 2905.81   78.29
   0   1  -8 3018.10   73.79
   0   1  -8 3157.18   73.29
   0  -1   8 3162.28   78.99
   0  -1   8 3159.18   74.19
  -1   1  -8   19.20    3.10
   1  -1   8   23.70    3.90
   1  -1   8   20.60    4.30
   1  -1   8   25.00    3.70
  -2   1  -8 2287.37   56.89
   2  -1   8 2293.37   57.39
   2  -1   8 2375.96   65.29
   2  -1   8 2240.38   62.19
  -3   1  -8    9.20    3.00
   3  -1   8   16.10    3.70
   3  -1   8   13.60    4.70
   4  -1   8 2339.17   59.89
   4  -1   8 2247.28   68.19
   5  -1   8  286.37   14.60
   5  -1   8  295.67   19.90
   6  -1   8  299.57   18.40
   6  -1   8  351.46   23.70
   7  -1   8  245.68   15.50
   8  -1   8  381.36   28.90
   8  -1   8  401.36   22.20
   9  -1   8  344.27   30.40
  11   0  -8  279.27   23.60
  11   0  -8  300.67   25.20
  10   0  -8  289.27   21.40
  10   0  -8  267.57   22.10
   9   0  -8  639.54   30.30
   9   0  -8  651.43   32.80
   8   0  -8  363.26   22.40
   8   0  -8  345.07   20.20
   7   0  -8  472.45   21.20
   7   0  -8  444.36   23.30
   6   0  -8 1471.05   42.40
   6   0  -8 1451.65   46.60
  -6   0   8 1430.06   40.10
   5   0  -8    5.40    2.30
   5   0  -8    4.30    2.70
  -5   0   8    4.30    2.80
  -5   0   8    8.90    2.60
   4   0  -8 2339.87   55.39
   4   0  -8 2341.47   61.49
  -4   0   8 2293.47   53.89
  -4   0   8 2312.87   61.79
   3   0  -8  377.86   15.20
   3   0  -8  366.06   10.30
  -3   0   8  335.67   14.00
  -3   0   8  368.36   16.30
   2   0  -8 3314.27   76.99
   2   0  -8 3332.87   71.69
   2   0  -8 3081.29   80.19
   2   0  -8 3180.48   71.29
  -2   0   8 3307.87   81.79
  -2   0   8 3170.28   76.09
   1   0  -8   16.00    4.20
   1   0  -8   11.70    2.30
   1   0  -8   12.70    2.00
   1   0  -8   17.10    3.10
  -1   0   8   13.80    2.00
  -1   0   8    7.60    3.00
   0   0  -8 1910.61   45.10
   0   0  -8 1888.01   47.40
   0   0  -8 1903.21   45.50
   0   0   8 1759.22   50.09
   0   0   8 1892.31   53.29
  -1   0  -8  314.47   10.90
  -1   0  -8  314.77   10.80
   1   0   8  311.77   16.70
   1   0   8  317.27   14.50
  -2   0  -8 1026.50   28.00
   2   0   8 1029.70   37.10
   2   0   8 1071.79   34.90
  -3   0  -8  846.62   25.60
   3   0   8  888.21   35.00
   3   0   8  895.11   26.10
   3   0   8  908.61   33.60
  -4   0  -8 2096.29   55.19
   4   0   8 2165.48   55.39
   4   0   8 2211.68   66.39
   5   0   8  509.55   27.70
   5   0   8  550.94   20.90
   6   0   8  325.17   23.70
   6   0   8  344.57   16.70
   7   0   8  717.53   28.00
   7   0   8  740.63   39.30
   8   0   8   69.69   12.40
   8   0   8   80.29   16.80
   9   0   8  382.16   24.10
   9   0   8  438.66   35.30
  12  -1  -8  105.19   17.80
  12  -1  -8  177.68   21.00
  11  -1  -8  469.45   29.60
  11  -1  -8  399.46   32.40
  10  -1  -8  637.54   33.40
  10  -1  -8  689.93   32.90
   9  -1  -8  648.34   32.20
   9  -1  -8  657.83   29.50
   8  -1  -8  605.04   26.00
   8  -1  -8  610.44   29.20
   7  -1  -8  207.98   15.20
   7  -1  -8  211.88   12.80
   6  -1  -8 2787.72   70.89
   6  -1  -8 3218.58   95.39
  -6   1   8 2650.14   68.89
   5  -1  -8  207.18   12.50
   5  -1  -8  209.38    9.20
  -5   1   8  187.08   12.60
  -5   1   8  210.98    8.40
   4  -1  -8 3809.32   92.49
   4  -1  -8 3868.61   83.59
  -4   1   8 3716.03   94.09
  -4   1   8 3706.53   82.79
   3  -1  -8   38.20    4.30
  -3   1   8   38.20    5.20
   2  -1  -8 2627.44   61.89
  -2   1   8 2634.74   68.69
  -2   1   8 2497.35   60.89
   1  -1  -8  226.88    8.80
   1  -1  -8  209.48    7.90
   1  -1  -8  225.98    8.20
  -1   1   8  222.38    8.30
  -1   1   8  223.18   13.20
   0  -1  -8 4157.28   91.59
   0  -1  -8 4160.28   91.49
   0  -1  -8 4158.88   96.19
   0   1   8 4062.79  103.69
   0   1   8 4111.09   96.99
  -1  -1  -8 1354.66   31.50
  -1  -1  -8 1310.67   31.70
   1   1   8 1381.46   44.20
   1   1   8 1348.86   39.50
  -2  -1  -8 2015.40   47.40
   2   1   8 1971.30   57.19
   2   1   8 2054.89   61.29
   2   1   8 2015.10   47.70
  -3  -1  -8  976.50   26.20
   3   1   8  931.61   35.50
   3   1   8  970.60   30.20
   3   1   8  950.10   37.70
   4   1   8  590.24   28.40
   4   1   8  606.14   19.90
   5   1   8  380.66   16.30
   5   1   8  401.56   24.70
   6   1   8  188.58   18.70
   6   1   8  195.38   12.20
   7   1   8  746.03   40.50
   7   1   8  759.72   28.40
   8   1   8    5.90    9.80
   8   1   8    9.60    7.50
  12  -2  -8  126.59   20.30
  12  -2  -8  155.78   19.80
  11  -2  -8  250.17   20.80
  11  -2  -8  279.77   22.10
  10  -2  -8 1026.10   40.20
  10  -2  -8  974.00   42.80
   9  -2  -8  168.78   13.70
   9  -2  -8  155.68   15.50
   8  -2  -8 1036.10   40.10
   8  -2  -8 1058.19   35.80
   7  -2  -8   76.59    7.40
   7  -2  -8   71.29    8.80
  -7   2   8   66.49    6.80
   6  -2  -8 1494.15   46.10
   6  -2  -8 1501.05   39.70
  -6   2   8 1434.96   38.40
   5  -2  -8    2.70    1.40
   5  -2  -8    1.60    2.20
  -5   2   8    0.20    2.20
  -5   2   8    0.40    1.20
   4  -2  -8 3969.70   92.79
  -4   2   8 3852.91   96.19
  -4   2   8 3607.94   90.59
   3  -2  -8    2.80    1.60
  -3   2   8    1.60    1.60
  -3   2   8   11.50    3.60
   2  -2  -8  523.15   12.40
   2  -2  -8  527.65   16.00
  -2   2   8  530.25   12.60
  -2   2   8  534.55   15.40
  -2   2   8  548.95   22.50
   1  -2  -8  361.26   11.80
   1  -2  -8  340.57    9.50
  -1   2   8  327.87   17.20
  -1   2   8  345.17   12.30
   0  -2  -8 1961.00   50.09
   0   2   8 2007.70   57.79
   0   2   8 1941.41   51.29
  -1  -2  -8 1081.39   33.20
   1   2   8 1097.49   34.90
   1   2   8 1109.99   39.00
  -2  -2  -8  954.20   21.60
   2   2   8  959.20   37.20
   2   2   8 1005.10   34.90
  -3  -2  -8 1237.08   30.50
   3   2   8 1254.97   30.90
   3   2   8 1239.88   43.60
   3   2   8 1211.68   45.50
  -4  -2  -8  337.77   12.60
   4   2   8  325.77   21.40
   4   2   8  355.66   12.90
   5   2   8  746.13   24.00
   5   2   8  749.13   36.40
   6   2   8   68.69    8.30
   6   2   8   77.99   15.10
   7   2   8 1232.88   45.30
   7   2   8 1282.77   56.29
   8   2   8    4.70   10.60
  12  -3  -8  208.08   21.60
  12  -3  -8  211.78   21.30
  11  -3  -8   69.39   13.50
  11  -3  -8   60.59   12.50
  10  -3  -8  845.82   35.00
  10  -3  -8  832.22   38.20
   9  -3  -8   38.60    9.00
   9  -3  -8   36.20    7.10
   8  -3  -8 1204.08   38.30
   8  -3  -8 1188.28   43.20
   7  -3  -8  139.29    9.00
   7  -3  -8  106.29   10.40
  -7   3   8  122.19    8.70
   6  -3  -8  552.44   23.10
   6  -3  -8  562.74   18.20
  -6   3   8  531.65   17.60
  -6   3   8  556.74   24.90
   5  -3  -8  333.87   15.50
  -5   3   8  305.87    9.80
  -5   3   8  305.07    9.10
  -5   3   8  299.07   16.60
   4  -3  -8 1342.77   37.60
  -4   3   8 1267.77   36.40
  -4   3   8 1366.96   42.40
   3  -3  -8  632.84   19.70
  -3   3   8  654.43   25.50
  -3   3   8  628.34   19.20
   2  -3  -8 1259.37   31.40
   2  -3  -8 1313.37   31.80
  -2   3   8 1300.37   32.30
  -2   3   8 1304.87   41.70
  -2   3   8 1300.57   31.30
   1  -3  -8 1389.06   35.80
  -1   3   8 1349.36   43.90
  -1   3   8 1366.96   36.80
   0  -3  -8  510.25   18.80
   0   3   8  540.05   20.30
   0   3   8  537.65   24.00
   1   3   8 1540.65   56.79
   1   3   8 1632.44   47.90
   2   3   8   94.19   11.00
   2   3   8  106.89   10.30
   3   3   8 1109.09   43.80
   3   3   8 1149.29   42.40
   4   3   8   -1.30    4.40
   4   3   8    9.90    2.50
   5   3   8  940.21   43.40
   5   3   8  999.50   28.10
   6   3   8   81.09   15.60
   6   3   8  108.89    9.50
   7   3   8  617.14   38.60
  12  -4  -8  541.85   30.70
  12  -4  -8  560.04   34.30
  11  -4  -8    3.50    6.20
  11  -4  -8   -0.40    6.10
  10  -4  -8  733.83   35.40
  10  -4  -8  734.63   31.40
   9  -4  -8   43.40    8.30
   9  -4  -8   41.50    7.30
   8  -4  -8  561.54   22.80
   8  -4  -8  618.54   28.10
   7  -4  -8  309.37   13.80
   7  -4  -8  300.07   17.50
  -7   4   8  295.47   13.80
  -7   4   8  313.27   19.20
   6  -4  -8  740.43   27.40
  -6   4   8  680.73   21.50
  -6   4   8  732.33   29.80
  -6   4   8  711.83   20.70
   5  -4  -8  712.43   25.30
  -5   4   8  726.53   19.00
  -5   4   8  721.73   20.10
   4  -4  -8  610.64   20.60
  -4   4   8  561.24   24.60
  -4   4   8  607.74   20.30
  -4   4   8  609.64   16.00
  -4   4   8  576.14   16.30
   3  -4  -8  279.17   10.80
  -3   4   8  256.97   10.40
  -3   4   8  267.87   15.70
  -3   4   8  273.67    9.60
  -3   4   8  272.17    9.90
   2  -4  -8   90.19    5.60
   2  -4  -8  100.79    4.40
  -2   4   8   99.79    8.20
  -2   4   8  110.39    9.80
  -2   4   8   99.69    4.20
   1  -4  -8  667.93   24.70
  -1   4   8  729.93   29.10
  -1   4   8  742.93   24.10
   0   4   8  113.39    9.10
   0   4   8  112.09   11.30
   1   4   8 1192.68   40.30
   1   4   8 1258.87   43.80
   2   4   8   14.00    5.00
   2   4   8   27.40    7.10
   3   4   8 1150.88   45.20
   3   4   8 1149.78   44.20
   4   4   8    2.30    5.50
   5   4   8  862.61   42.20
   6   4   8  101.89   17.90
   7   4   8  399.16   32.20
  12  -5  -8  665.23   37.40
  11  -5  -8   28.40    9.50
  11  -5  -8   23.50    7.90
  10  -5  -8  719.53   30.80
  10  -5  -8  773.02   35.80
   9  -5  -8  213.18   14.10
   9  -5  -8  208.78   16.80
   8  -5  -8  703.63   30.30
   8  -5  -8  689.53   25.40
  -8   5   8  687.13   32.10
  -8   5   8  703.43   23.40
   7  -5  -8  597.34   25.70
  -7   5   8  532.05   26.70
  -7   5   8  595.04   19.10
  -7   5   8  600.44   21.50
   6  -5  -8  540.25   22.30
  -6   5   8  531.25   16.40
  -6   5   8  527.35   24.80
  -6   5   8  485.05   18.00
   5  -5  -8 1860.21   50.79
  -5   5   8 1867.71   47.10
  -5   5   8 1908.31   56.69
  -5   5   8 1753.72   46.10
   4  -5  -8 2009.70   50.89
  -4   5   8 2062.19   48.00
  -4   5   8 1875.31   48.40
  -4   5   8 1920.01   50.29
  -4   5   8 1876.81   63.09
   3  -5  -8 1612.14   40.10
   3  -5  -8 1541.95   40.20
  -3   5   8 1554.84   49.90
  -3   5   8 1580.94   40.00
  -3   5   8 1635.14   41.20
   2  -5  -8  216.18    7.10
   2  -5  -8  199.78   14.80
  -2   5   8  217.48   14.70
  -2   5   8  212.48   10.90
  -2   5   8  214.68    8.30
   1  -5  -8 1656.23   45.50
  -1   5   8 1721.63   47.60
  -1   5   8 1602.44   57.69
   0   5   8   16.50    4.90
   0   5   8   17.20    5.80
   1   5   8 1491.65   66.19
   1   5   8 1521.15   51.09
   2   5   8   -0.40    4.20
   2   5   8    2.20    4.30
   3   5   8 1021.30   42.70
   3   5   8 1019.30   42.10
   4   5   8  237.98   21.10
   5   5   8  208.08   21.60
   6   5   8  329.57   29.00
  12  -6  -8  361.96   28.20
  12  -6  -8  366.06   27.30
  11  -6  -8  193.78   16.90
  11  -6  -8  183.58   18.70
  10  -6  -8  523.35   28.90
  10  -6  -8  521.45   24.80
   9  -6  -8 1144.49   43.80
  -9   6   8 1169.78   35.80
  -9   6   8 1135.09   46.30
   8  -6  -8 1077.29   40.20
  -8   6   8 1123.69   33.10
  -8   6   8 1157.78   44.50
   7  -6  -8 1152.48   39.20
  -7   6   8 1125.39   34.90
  -7   6   8 1127.99   31.90
  -7   6   8 1120.09   42.30
   6  -6  -8  434.76   19.60
  -6   6   8  442.96   23.10
  -6   6   8  441.96   15.40
   5  -6  -8 1099.99   33.90
  -5   6   8 1107.29   30.50
  -5   6   8 1069.09   32.10
  -5   6   8 1119.79   40.00
   4  -6  -8  355.26   14.40
  -4   6   8  338.87   14.80
  -4   6   8  330.47   14.50
  -4   6   8  345.87   13.80
  -4   6   8  386.26   20.10
   3  -6  -8 2017.10   49.00
   3  -6  -8 1823.72   50.59
  -3   6   8 2021.50   52.09
  -3   6   8 1970.90   48.70
  -3   6   8 2071.39   60.69
  -2   6   8   39.30    5.70
  -2   6   8   49.80    2.50
  -2   6   8   46.80    7.40
  -1   6   8 1378.76   42.40
  -1   6   8 1328.17   45.80
   0   6   8   49.30    7.70
   0   6   8   54.29    8.60
   1   6   8 1382.66   47.50
   1   6   8 1322.97   47.90
   2   6   8   28.10    8.30
   2   6   8   14.80    6.90
   3   6   8  725.13   36.30
   4   6   8  197.78   20.00
   5   6   8  117.99   18.40
  12  -7  -8  380.26   28.20
 -12   7   8  402.26   23.60
 -12   7   8  451.45   49.80
  11  -7  -8   98.09   14.80
 -11   7   8  106.39   16.10
 -11   7   8  106.29   12.50
  10  -7  -8  156.28   16.30
 -10   7   8  172.28   12.50
 -10   7   8  150.98   17.80
   9  -7  -8  249.58   18.60
  -9   7   8  261.07   13.90
   8  -7  -8  266.37   17.80
  -8   7   8  284.07   13.40
  -8   7   8  294.77   20.70
   7  -7  -8  843.62   31.90
  -7   7   8  806.92   25.80
  -7   7   8  849.02   35.70
   6  -7  -8  124.19   11.60
  -6   7   8  111.89   10.50
  -6   7   8  108.99   12.10
  -6   7   8  109.49    7.60
   5  -7  -8 1452.45   41.80
  -5   7   8 1429.76   48.60
  -5   7   8 1370.46   41.60
  -5   7   8 1471.55   39.80
   4  -7  -8  148.29    9.00
  -4   7   8  149.88    9.60
  -4   7   8  160.28   13.90
  -4   7   8  147.89    9.90
  -4   7   8  146.29   13.20
   3  -7  -8 1417.26   37.70
  -3   7   8 1431.26   37.40
  -3   7   8 1456.55   42.20
  -3   7   8 1439.96   48.20
  -2   7   8   51.79    2.80
  -2   7   8   46.80    6.80
  -2   7   8   54.69    9.00
  -1   7   8 1152.38   41.60
  -1   7   8 1085.69   39.30
   0   7   8   55.39    9.10
   0   7   8   49.80    8.70
   1   7   8  680.23   32.00
   1   7   8  700.43   32.20
   2   7   8  209.18   18.50
   2   7   8  197.98   18.40
   3   7   8  372.46   26.30
   4   7   8  363.56   28.10
   5   7   8  177.18   25.10
 -12   8   8  474.05   33.90
 -12   8   8  482.55   39.80
  11  -8  -8  309.37   23.90
 -11   8   8  349.47   27.10
 -11   8   8  324.77   19.10
  10  -8  -8  173.08   16.70
 -10   8   8  185.58   19.40
 -10   8   8  234.98   14.70
   9  -8  -8  173.68   15.70
  -9   8   8  172.98   17.40
  -9   8   8  150.48   11.30
   8  -8  -8  117.29   12.30
  -8   8   8  101.09    8.60
  -8   8   8  123.99   13.90
   7  -8  -8  490.95   23.50
  -7   8   8  558.34   20.50
  -7   8   8  537.65   28.10
   6  -8  -8    1.80    3.40
  -6   8   8    2.30    4.30
  -6   8   8   -0.90    2.70
   5  -8  -8 1141.99   35.70
  -5   8   8 1143.29   42.70
  -5   8   8 1157.68   35.20
   4  -8  -8  204.98   11.40
  -4   8   8  223.88   16.60
  -4   8   8  207.98   12.50
  -3   8   8  404.76   18.90
  -3   8   8  374.36   21.80
  -3   8   8  379.26   13.10
  -3   8   8  370.36   14.10
  -2   8   8   53.79    2.90
  -2   8   8   59.99    8.00
  -2   8   8   70.39    9.50
  -1   8   8  452.65   24.40
  -1   8   8  480.45   24.00
   0   8   8  451.15   24.70
   0   8   8  427.56   24.40
   1   8   8  357.96   23.10
   1   8   8  344.27   22.90
   2   8   8  324.57   24.30
   2   8   8  301.47   22.10
   3   8   8   49.90   12.80
   4   8   8   61.09   16.00
  11  -9  -8  193.08   19.60
 -11   9   8  196.78   16.50
 -11   9   8  198.08   22.50
  10  -9  -8   -1.80    6.50
 -10   9   8   12.00    8.70
 -10   9   8    5.90    5.90
  -9   9   8  407.56   26.70
  -9   9   8  385.06   18.70
   8  -9  -8    6.80    5.00
  -8   9   8    8.80    4.80
  -8   9   8    8.80    7.50
   7  -9  -8  864.01   32.40
  -7   9   8  836.72   37.30
  -7   9   8  790.82   28.50
   6  -9  -8   10.40    4.50
  -6   9   8    6.90    4.20
  -6   9   8   11.80    5.90
   5  -9  -8  670.83   25.50
  -5   9   8  690.73   32.10
  -5   9   8  697.73   26.30
   4  -9  -8   37.80    6.40
  -4   9   8   36.50    7.10
  -4   9   8   31.30    7.80
  -3   9   8  139.79   13.00
  -3   9   8  148.59   12.30
  -3   9   8  153.68   14.70
  -3   9   8  149.69    7.90
  -2   9   8  120.09   12.00
  -2   9   8  123.39   13.20
  -1   9   8  300.57   19.80
  -1   9   8  277.67   19.70
   0   9   8  425.56   24.80
   0   9   8  396.56   25.00
   1   9   8  317.97   22.60
   1   9   8  306.27   23.90
   2   9   8  388.06   28.30
   3   9   8   32.70   12.70
  11 -10  -8  222.78   21.50
 -11  10   8  241.78   18.90
  10 -10  -8   -1.50    7.00
 -10  10   8    7.90    7.60
 -10  10   8    8.60    7.60
   9 -10  -8  493.65   28.00
  -9  10   8  599.54   25.30
  -9  10   8  630.64   34.20
   8 -10  -8   60.19   11.20
  -8  10   8   40.70    8.10
  -8  10   8   81.59   13.00
   7 -10  -8  658.83   28.20
  -7  10   8  627.04   25.70
   6 -10  -8  150.38   12.90
  -6  10   8  122.29   15.00
  -6  10   8  165.68   12.20
  -5  10   8  379.56   19.70
  -5  10   8  373.36   23.80
  -4  10   8  272.37   12.90
  -4  10   8  297.57   17.80
  -4  10   8  265.87   20.20
  -3  10   8  218.08   15.90
  -3  10   8  199.78    9.40
  -3  10   8  202.98   17.10
  -2  10   8  756.52   33.90
  -2  10   8  726.53   32.70
  -1  10   8  138.99   15.20
  -1  10   8   99.19   13.60
   0  10   8  431.46   27.50
   0  10   8  431.86   25.70
   1  10   8   48.20   12.60
   1  10   8   56.89   11.80
  10 -11  -8    3.20    8.20
 -10  11   8    5.70    9.90
 -10  11   8   -1.20    8.80
   9 -11  -8  344.67   22.80
  -9  11   8  320.07   25.50
  -9  11   8  312.67   20.20
  -8  11   8  139.19   13.70
  -8  11   8  112.59   16.10
   7 -11  -8  280.17   18.80
  -7  11   8  257.17   21.40
  -7  11   8  290.87   18.10
   6 -11  -8  180.18   14.50
  -6  11   8  169.98   17.00
  -6  11   8  190.88   15.10
   5 -11  -8   67.49   10.20
  -5  11   8   44.90    8.70
  -5  11   8   53.39   11.50
  -4  11   8  268.47   19.00
  -4  11   8  273.57   21.10
  -4  11   8  246.98   13.00
  -3  11   8  175.38   16.80
  -3  11   8  132.19   16.10
  -2  11   8  335.57   22.10
  -2  11   8  293.07   30.60
  -1  11   8   11.20    8.00
  -1  11   8   21.40    9.40
   0  11   8  372.46   27.50
   0  11   8  265.97   22.00
   9 -12  -8  169.58   19.10
  -9  12   8  154.78   20.20
  -9  12   8  160.98   18.40
   8 -12  -8  251.07   20.80
  -8  12   8  248.08   19.50
  -8  12   8  279.67   23.70
   7 -12  -8  237.38   19.00
  -7  12   8  274.47   19.50
  -7  12   8  234.98   22.00
   6 -12  -8  240.68   18.40
  -6  12   8  251.77   19.50
  -6  12   8  255.47   21.70
  -5  12   8  129.19   15.80
  -5  12   8  120.59   16.30
  -4  12   8  324.87   22.90
  -4  12   8  341.87   23.50
  -3  12   8   -8.20    7.70
  -3  12   8   13.00    9.00
  -2  12   8  451.35   29.10
  -2  12   8  432.16   25.90
   0  13  -9   88.69   23.00
   0  13  -9  123.99   17.50
  -1  13  -9  112.29   16.30
  -1  13  -9  100.79   16.30
  -2  13  -9  248.88   22.30
  -2  13  -9  223.88   21.00
  -3  13  -9   70.29   14.10
  -3  13  -9   83.29   14.90
  -4  13  -9   48.60   12.40
  -4  13  -9   74.19   15.00
  -5  13  -9  149.39   28.00
  -5  13  -9  138.49   25.00
  -6  13  -9   79.69   15.60
   6 -13   9  108.19   19.50
   2  12  -9  232.38   21.60
   2  12  -9  271.87   24.70
   1  12  -9   13.20    9.70
   1  12  -9   45.50   11.30
   0  12  -9  186.08   19.10
   0  12  -9  176.28   19.60
  -1  12  -9  198.08   18.60
  -1  12  -9  184.58   18.20
  -2  12  -9  118.99   15.70
  -2  12  -9  135.59   15.90
  -3  12  -9  299.17   22.60
  -3  12  -9  315.07   22.40
  -4  12  -9   25.00    9.30
  -4  12  -9   17.40    7.50
  -5  12  -9  210.58   19.40
   5 -12   9  191.28   21.10
  -6  12  -9    4.50    7.20
   6 -12   9    3.70    9.80
  -7  12  -9  321.07   32.20
   4  11  -9  274.07   24.30
   4  11  -9  333.97   43.80
   3  11  -9   38.40   11.00
   3  11  -9   33.80    9.00
   2  11  -9  326.77   24.00
   2  11  -9  357.46   26.40
   1  11  -9  210.18   19.40
   1  11  -9  183.08   17.60
   0  11  -9   77.49   12.50
   0  11  -9   98.79   13.90
  -1  11  -9  490.25   28.40
  -1  11  -9  554.84   29.10
  -2  11  -9  256.67   20.10
  -2  11  -9  266.87   20.00
  -3  11  -9  421.86   25.10
  -3  11  -9  418.26   25.20
  -4  11  -9   47.60    9.90
  -4  11  -9   24.00    7.80
   4 -11   9   29.30    8.70
  -5  11  -9  359.36   23.60
   5 -11   9  346.67   25.80
  -6  11  -9    5.60    6.20
   6 -11   9    6.70    7.10
  -7  11  -9  394.16   26.50
   7 -11   9  381.56   28.20
  -8  11  -9   46.00   12.60
   5  10  -9   47.40   13.40
   5  10  -9   61.39   13.80
   4  10  -9  313.77   23.70
   4  10  -9  291.17   24.50
   3  10  -9  216.08   19.90
   3  10  -9  250.67   21.60
   2  10  -9  424.26   26.80
   2  10  -9  473.85   27.20
   1  10  -9  391.16   36.20
   1  10  -9  375.16   24.30
   0  10  -9   48.60   10.40
   0  10  -9   57.09   10.00
  -1  10  -9 1021.90   40.40
  -1  10  -9  953.70   39.70
  -2  10  -9   93.29   11.80
  -2  10  -9   71.79   10.40
  -3  10  -9  754.22   33.00
  -3  10  -9  701.13   33.00
  -4  10  -9    2.50    6.20
   4 -10   9    5.60    7.10
  -5  10  -9  689.23   32.50
   5 -10   9  639.04   34.30
  -6  10  -9   38.60   10.10
   6 -10   9   45.30   11.90
  -7  10  -9  631.54   32.60
   7 -10   9  630.54   35.10
  -8  10  -9  103.89   15.30
   8 -10   9   82.39   16.90
   6   9  -9  163.88   20.40
   6   9  -9  182.18   21.70
   5   9  -9  136.39   17.60
   5   9  -9  104.29   16.20
   4   9  -9  135.09   16.30
   4   9  -9  133.39   16.90
   3   9  -9  529.35   37.30
   3   9  -9  587.44   30.60
   2   9  -9  159.88   15.40
   2   9  -9  136.79   15.10
   1   9  -9  496.05   26.40
   1   9  -9  541.75   27.40
   0   9  -9   42.30    8.60
   0   9  -9   41.40    8.40
  -1   9  -9  674.43   30.70
  -1   9  -9  733.63   31.30
  -2   9  -9    3.30    3.60
  -2   9  -9    2.10    2.20
  -2   9  -9    0.50    3.90
  -3   9  -9  473.95   23.90
  -3   9  -9  451.35   18.80
   3  -9   9  501.75   27.80
  -4   9  -9   26.40    6.50
   4  -9   9   15.40    6.90
  -5   9  -9  297.07   19.60
   5  -9   9  275.37   21.10
  -6   9  -9  391.06   23.60
   6  -9   9  363.36   24.80
  -7   9  -9 1033.30   42.70
   7  -9   9  924.51   42.80
  -8   9  -9  136.69   16.90
   8  -9   9  148.99   17.50
  -9   9  -9  152.28   26.60
   9  -9   9  166.28   19.90
   7   8  -9  280.77   25.50
   7   8  -9  333.07   29.00
   6   8  -9  173.58   19.20
   6   8  -9  192.58   20.40
   5   8  -9  342.87   24.10
   5   8  -9  362.16   25.60
   4   8  -9   63.19   11.70
   4   8  -9   46.70   12.20
   3   8  -9  940.41   39.10
   3   8  -9  922.71   39.20
   2   8  -9   65.19   10.00
   2   8  -9   56.29    9.20
   1   8  -9  851.71   34.20
   1   8  -9  831.32   34.40
   0   8  -9   45.70    7.40
   0   8  -9   33.60    6.70
  -1   8  -9 1295.07   44.60
  -1   8  -9 1270.17   43.20
  -2   8  -9   56.59    6.40
  -2   8  -9   69.69    8.60
  -2   8  -9   66.89    8.90
  -3   8  -9 1121.79   39.80
   3  -8   9 1108.69   43.10
  -4   8  -9   47.80    8.00
   4  -8   9   30.80    7.80
  -5   8  -9  437.96   23.50
   5  -8   9  385.46   23.90
  -6   8  -9  471.15   31.90
   6  -8   9  429.06   25.80
  -7   8  -9  109.59   13.50
   7  -8   9  139.59   17.00
   7  -8   9  131.89   15.80
   8  -8   9  519.55   32.70
   8  -8   9  494.25   30.00
   9  -8   9   91.49   17.90
   9  -8   9   77.89   15.10
   8   7  -9   49.50   13.20
   8   7  -9   44.00   14.10
   7   7  -9  636.84   38.00
   7   7  -9  711.53   37.40
   6   7  -9   97.39   14.90
   6   7  -9  103.09   15.00
   5   7  -9 1180.68   47.80
   5   7  -9 1162.98   47.70
   4   7  -9    0.90    4.70
   4   7  -9    6.40    5.50
   3   7  -9  994.60   39.40
   3   7  -9 1023.20   39.70
   2   7  -9   35.80    6.80
   2   7  -9   37.20    7.60
   1   7  -9 1935.91   58.09
   1   7  -9 1920.71   58.89
   0   7  -9  380.76   20.10
   0   7  -9  360.26   18.70
  -1   7  -9 1145.09   38.70
  -1   7  -9  978.20   28.40
  -1   7  -9 1056.89   36.10
  -2   7  -9  445.76   18.60
  -2   7  -9  481.55   23.10
  -2   7  -9  482.25   22.10
   2  -7   9  483.05   24.70
  -3   7  -9 1000.10   35.70
   3  -7   9  983.40   38.40
  -4   7  -9  342.87   19.20
   4  -7   9  316.87   20.10
  -5   7  -9  475.15   24.20
   5  -7   9  456.25   24.90
   6  -7   9  842.02   36.40
   6  -7   9  835.52   38.90
   7  -7   9  122.69   14.70
   7  -7   9  116.09   15.70
   8  -7   9  242.68   22.60
   8  -7   9  214.38   19.20
   9  -7   9   28.00    9.50
   9  -7   9   20.80   11.50
   8   6  -9   22.50   10.30
   8   6  -9   31.30   10.80
   7   6  -9  809.62   38.80
   7   6  -9  717.23   38.50
  -7  -6   9  733.93   26.40
   6   6  -9   45.70   10.10
   6   6  -9   40.30   14.60
  -6  -6   9   36.50    6.20
   5   6  -9  993.80   40.80
   5   6  -9 1019.70   41.20
  -5  -6   9  914.91   27.00
  -5  -6   9  989.10   27.70
   4   6  -9   67.79   10.00
   4   6  -9   77.59   10.60
  -4  -6   9   72.49    4.60
  -4  -6   9   72.29    4.60
   3   6  -9  773.92   31.30
   3   6  -9  723.83   31.20
   2   6  -9  315.87   18.30
   2   6  -9  324.97   18.00
   1   6  -9 2035.40   57.89
   1   6  -9 1995.80   59.19
   0   6  -9  587.34   25.00
   0   6  -9  562.64   17.50
   0   6  -9  611.54   23.80
  -1   6  -9 1846.22   51.69
  -1   6  -9 1771.82   52.89
  -1   6  -9 1713.73   47.00
  -2   6  -9  619.64   24.20
  -2   6  -9  536.25   22.10
   2  -6   9  616.04   27.00
  -3   6  -9  731.23   28.10
   3  -6   9  687.53   29.50
  -4   6  -9  635.24   26.80
   4  -6   9  643.34   28.40
   4  -6   9  613.74   29.20
   5  -6   9   96.19   11.90
   5  -6   9   88.89   10.90
   6  -6   9 1698.03   60.69
   6  -6   9 1690.53   56.09
   7  -6   9   60.49   11.00
   7  -6   9   93.39   13.80
   8  -6   9  711.83   33.80
   8  -6   9  656.53   37.40
   9  -6   9   17.10    9.30
   9  -6   9   13.40    8.30
   9   5  -9  230.38   24.30
   9   5  -9  248.98   24.40
  -9  -5   9  284.87   20.40
   8   5  -9   18.80    9.90
   8   5  -9   10.30    7.60
  -8  -5   9    3.20    6.20
   7   5  -9  825.52   39.20
   7   5  -9  807.72   38.60
  -7  -5   9  852.91   30.40
   6   5  -9   63.59   11.10
   6   5  -9   59.49   10.30
  -6  -5   9   60.09    7.10
   5   5  -9  720.63   31.50
   5   5  -9  724.23   32.50
  -5  -5   9  714.53   23.80
   4   5  -9  173.28   13.40
   4   5  -9  205.18   15.10
  -4  -5   9  166.88    8.90
   3   5  -9 1026.70   36.10
   3   5  -9 1041.30   37.60
  -3  -5   9 1055.09   28.50
   2   5  -9  651.03   27.00
   2   5  -9  697.63   26.00
  -2  -5   9  649.24   19.30
   1   5  -9  542.55   21.20
   1   5  -9  471.35   21.90
  -1  -5   9  509.45   16.60
   0   5  -9  554.64   21.30
   0   5  -9  598.44   23.60
   0   5  -9  546.15   18.70
   0  -5   9  529.45   18.50
  -1   5  -9  366.66   16.50
  -1   5  -9  325.87   15.30
  -1   5  -9  393.56   18.20
  -2   5  -9 2579.84   68.49
   2  -5   9 2597.54   71.99
   3  -5   9   29.80    6.80
   4  -5   9 1475.35   50.49
   4  -5   9 1503.85   48.00
   5  -5   9   14.40    5.60
   5  -5   9   22.90    7.20
   6  -5   9  924.51   36.30
   6  -5   9  920.21   40.80
   7  -5   9    2.10    5.20
   8  -5   9  677.53   37.70
   8  -5   9  702.23   38.80
   9  -5   9  100.49   18.40
   9  -5   9  116.49   15.80
  10   4  -9   81.79   16.80
   9   4  -9  508.95   32.10
   9   4  -9  541.15   33.50
   8   4  -9   91.69   13.40
   8   4  -9   76.49   13.70
   7   4  -9  560.74   29.80
   7   4  -9  553.54   30.20
  -7  -4   9  573.84   24.80
   6   4  -9  120.89   12.50
   6   4  -9  124.99   13.20
  -6  -4   9  143.89   10.50
   5   4  -9  826.22   33.80
  -5  -4   9  770.62   26.40
   4   4  -9   58.79    7.50
   4   4  -9   41.50    7.10
  -4  -4   9   45.30    5.20
   3   4  -9  266.77   14.20
   3   4  -9  245.88   15.30
  -3  -4   9  237.88   11.30
   2   4  -9 1882.51   51.29
   2   4  -9 1835.22   53.59
  -2  -4   9 1855.91   48.00
   1   4  -9  390.16   14.70
   1   4  -9  424.76   18.70
   1   4  -9  401.56   16.30
  -1  -4   9  381.46   14.90
   0   4  -9  190.18   10.40
   0   4  -9  179.48   11.30
   0  -4   9  170.18    9.70
  -1   4  -9   80.39    7.90
  -1   4  -9   94.29    7.40
  -1   4  -9   96.09    8.20
   1  -4   9   91.59    7.80
   2  -4   9 1860.31   53.59
   2  -4   9 1747.73   52.19
   3  -4   9    4.90    3.40
   3  -4   9    2.20    2.50
   4  -4   9 1349.36   42.80
   4  -4   9 1302.77   46.30
   5  -4   9  138.49   11.70
   5  -4   9  116.29   12.70
   6  -4   9  887.11   34.40
   6  -4   9  902.21   40.20
   7  -4   9   64.39   10.60
   7  -4   9   88.49   18.50
   8  -4   9  840.12   35.60
   8  -4   9  850.41   43.40
   9  -4   9  396.56   25.10
   9  -4   9  355.66   29.70
  10   3  -9   14.10    9.60
  10   3  -9   15.30    9.60
   9   3  -9  602.84   33.90
   9   3  -9  566.74   32.10
   8   3  -9  283.77   20.80
   7   3  -9  921.61   37.30
   7   3  -9  870.51   38.20
   6   3  -9  663.03   30.20
   6   3  -9  621.14   32.30
  -6  -3   9  675.13   26.00
   5   3  -9 1406.46   47.00
   5   3  -9 1354.36   43.70
  -5  -3   9 1430.76   41.60
   4   3  -9  227.38   14.50
   4   3  -9  236.98   13.10
  -4  -3   9  214.58   11.80
   3   3  -9  372.16   18.20
   3   3  -9  390.86   16.50
  -3  -3   9  399.16   16.00
  -3  -3   9  390.56   14.90
   2   3  -9 2535.25   62.59
   2   3  -9 2511.15   65.79
  -2  -3   9 2459.05   62.89
  -2  -3   9 2365.16   60.19
   1   3  -9  133.59    9.20
   1   3  -9  129.79   11.00
   1   3  -9  114.49    7.30
  -1  -3   9  122.29    8.20
   0   3  -9 4191.78  103.99
   0   3  -9 4451.15  102.09
   0  -3   9 4376.46  104.89
  -1   3  -9    2.70    2.20
   1  -3   9    0.00    1.90
   1  -3   9    0.30    1.80
   2  -3   9 1969.40   56.89
   2  -3   9 1978.40   56.49
   2  -3   9 1991.70   54.79
   3  -3   9  124.29   10.80
   3  -3   9  115.59    9.20
   4  -3   9 1907.31   60.39
   4  -3   9 1964.10   55.29
   5  -3   9  279.47   19.40
   6  -3   9  917.01   34.10
   6  -3   9  949.90   41.80
   7  -3   9  383.26   40.10
   7  -3   9  369.66   20.60
   8  -3   9  277.07   24.90
   8  -3   9  277.87   19.00
   9  -3   9  190.98   18.60
   9  -3   9  233.38   25.00
  11   2  -9  559.64   38.90
  11   2  -9  617.54   36.60
  10   2  -9  275.57   24.40
  10   2  -9  321.77   24.50
   9   2  -9  489.85   29.90
   9   2  -9  486.05   28.50
   8   2  -9  653.23   30.80
   8   2  -9  681.93   33.30
   7   2  -9  712.23   30.20
   7   2  -9  759.02   33.80
   6   2  -9 1475.25   45.50
   6   2  -9 1416.86   48.50
  -6  -2   9 1424.16   44.80
   5   2  -9  121.59   10.90
   5   2  -9  119.79    9.20
  -5  -2   9  128.19    9.60
   4   2  -9 1955.80   55.69
   4   2  -9 1954.30   51.19
  -4  -2   9 1932.81   52.79
  -4  -2   9 1869.61   48.70
   3   2  -9   33.60    4.10
   3   2  -9   26.60    4.90
  -3  -2   9   36.20    4.80
  -3  -2   9   31.40    3.60
   2   2  -9 3474.45   82.39
   2   2  -9 3500.95   83.09
   2   2  -9 3460.25   86.49
   2   2  -9 3507.35   86.39
  -2  -2   9 3576.04   86.69
   1   2  -9  388.66   17.40
   1   2  -9  445.66   17.10
   1   2  -9  438.06   17.90
   1   2  -9  444.76   16.10
   1   2  -9  438.06   14.60
  -1  -2   9  406.16   17.70
   0   2  -9 2578.34   71.29
   0   2  -9 2755.12   68.29
   0   2  -9 2831.12   66.79
   0  -2   9 2854.91   72.29
  -1   2  -9  124.59    8.00
   1  -2   9  118.39    9.50
   1  -2   9  123.59    9.00
  -2   2  -9  307.07   13.80
   2  -2   9  325.87   14.80
   2  -2   9  311.07   16.20
   2  -2   9  310.67   17.30
   3  -2   9  170.88   13.00
   3  -2   9  171.08   10.70
   4  -2   9 1011.60   33.00
   4  -2   9 1038.70   39.20
   5  -2   9  590.84   29.80
   5  -2   9  593.44   23.80
   6  -2   9 1149.89   38.50
   6  -2   9 1148.99   47.30
   7  -2   9  551.84   32.80
   7  -2   9  508.55   23.90
   8  -2   9  207.48   22.80
   8  -2   9  199.58   16.60
   9  -2   9  182.18   18.60
   9  -2   9  240.48   25.70
  11   1  -9  327.37   26.10
  11   1  -9  325.37   25.90
  10   1  -9  469.05   30.40
  10   1  -9  490.35   28.70
   9   1  -9  368.26   23.00
   9   1  -9  395.56   25.60
   8   1  -9  513.55   25.10
   8   1  -9  483.55   27.10
   7   1  -9  423.76   23.40
   7   1  -9  423.76   20.80
   6   1  -9 1339.27   46.10
   6   1  -9 1441.06   42.40
  -6  -1   9 1403.16   44.50
   5   1  -9  518.85   24.60
   5   1  -9  526.85   19.40
  -5  -1   9  498.35   21.30
   4   1  -9  988.90   32.60
   4   1  -9  933.41   27.20
  -4  -1   9  947.91   25.60
  -4  -1   9  987.70   32.00
   3   1  -9   17.60    2.60
   3   1  -9   20.00    4.00
  -3  -1   9   18.40    2.40
  -3  -1   9   17.60    3.90
   2   1  -9 5539.45  125.19
   2   1  -9 5590.54  120.89
   2   1  -9 5310.87  119.99
   2   1  -9 5005.10  126.29
  -2  -1   9 5209.18  123.79
  -2  -1   9 5529.95  128.39
   1   1  -9    7.90    2.30
   1   1  -9   10.40    3.70
   1   1  -9   14.60    2.90
   1   1  -9   12.80    2.00
  -1  -1   9    7.30    3.20
   0   1  -9 2883.61   69.99
   0   1  -9 2851.51   70.49
   0   1  -9 2821.42   68.99
   0  -1   9 2912.21   70.59
   0  -1   9 2941.91   76.09
  -1   1  -9  408.16   14.60
  -1   1  -9  409.86   14.80
   1  -1   9  406.46   19.70
   1  -1   9  403.96   17.20
  -2   1  -9 1269.67   35.40
   2  -1   9 1370.16   44.30
   2  -1   9 1291.37   40.80
   2  -1   9 1274.97   36.20
   3  -1   9  735.63   24.10
   3  -1   9  743.83   29.90
   3  -1   9  720.53   31.20
   4  -1   9 1192.98   35.20
   4  -1   9 1123.99   42.30
   5  -1   9  697.23   25.30
   5  -1   9  693.83   32.90
   6  -1   9  110.09   14.60
   7  -1   9  519.35   32.40
   7  -1   9  527.35   23.80
   8  -1   9   -0.70    6.60
   9  -1   9  396.86   28.80
   9  -1   9  413.96   33.80
  11   0  -9  333.97   24.80
  11   0  -9  371.86   27.80
  10   0  -9  533.95   28.70
  10   0  -9  542.35   31.70
   9   0  -9  231.48   19.00
   9   0  -9  232.58   17.20
   8   0  -9 1143.49   44.40
   8   0  -9 1165.78   40.30
   7   0  -9    1.20    3.70
   7   0  -9   -2.40    2.70
   6   0  -9 3317.27   81.79
   6   0  -9 3374.36   88.59
  -6   0   9 3278.27   87.29
  -6   0   9 3201.88   78.99
   5   0  -9  120.09    7.30
   5   0  -9  130.49   10.30
  -5   0   9  137.09   10.60
  -5   0   9  136.79    6.80
   4   0  -9 2672.13   61.39
   4   0  -9 2703.33   69.19
  -4   0   9 2594.64   59.79
  -4   0   9 2624.04   70.19
   3   0  -9    4.20    0.90
   3   0  -9    2.40    1.90
   3   0  -9    3.40    0.80
  -3   0   9    1.80    1.90
  -3   0   9    4.40    2.00
   2   0  -9 2211.18   48.10
   2   0  -9 2123.69   53.29
   2   0  -9 2075.49   47.60
  -2   0   9 2024.40   52.29
  -2   0   9 2156.28   58.89
   1   0  -9  817.42   23.10
   1   0  -9  736.93   23.70
   1   0  -9  848.52   22.30
  -1   0   9  792.02   21.90
  -1   0   9  813.22   29.40
   0   0  -9  511.75   16.10
   0   0  -9  512.25   17.80
   0   0   9  498.55   17.80
   0   0   9  545.05   23.00
  -1   0  -9  229.28    9.00
  -1   0  -9  220.38    9.00
  -1   0  -9  229.58   11.90
   1   0   9  228.88   14.70
   1   0   9  224.08   12.30
  -2   0  -9  201.98    8.90
   2   0   9  199.68    9.30
   2   0   9  193.48   17.20
   2   0   9  195.48   12.80
  -3   0  -9 1247.18   35.30
   3   0   9 1306.47   44.40
   3   0   9 1365.26   47.60
   3   0   9 1337.17   35.70
  -4   0  -9  469.25   17.80
   4   0   9  454.35   17.60
   4   0   9  482.05   25.30
   5   0   9  717.83   24.70
   5   0   9  694.03   33.80
   6   0   9   25.70    8.20
   6   0   9   23.30    5.50
   7   0   9  329.87   26.70
   7   0   9  328.67   17.90
   8   0   9    2.60    7.30
   8   0   9    3.30    9.50
  12  -1  -9  251.87   23.90
  12  -1  -9  245.28   24.50
  11  -1  -9   36.10   10.10
  11  -1  -9   44.70   11.40
  10  -1  -9  918.01   37.90
  10  -1  -9  882.61   41.20
   9  -1  -9  121.59   12.10
   9  -1  -9  113.69   13.40
   8  -1  -9  921.81   33.00
   8  -1  -9  923.41   38.00
   7  -1  -9   71.29    9.10
   7  -1  -9   76.49    7.30
  -7   1   9   48.10    8.10
  -7   1   9   55.89    6.80
   6  -1  -9 1268.07   42.10
   6  -1  -9 1293.07   35.60
  -6   1   9 1244.78   33.70
  -6   1   9 1306.67   48.70
   5  -1  -9    5.90    2.50
   5  -1  -9    3.60    1.60
  -5   1   9    5.10    1.30
  -5   1   9    7.10    3.50
   4  -1  -9 2372.66   62.19
  -4   1   9 2355.36   64.89
   3  -1  -9  931.71   28.00
  -3   1   9  925.81   27.00
  -3   1   9  920.41   31.90
   2  -1  -9 3518.85   81.19
  -2   1   9 3499.45   89.19
  -2   1   9 3358.26   80.09
   1  -1  -9  897.61   23.50
   1  -1  -9  853.11   23.90
   1  -1  -9  885.71   23.50
  -1   1   9  891.31   32.20
  -1   1   9  892.61   24.00
   0  -1  -9 3906.91   92.09
   0  -1  -9 3908.51   87.09
   0  -1  -9 3844.12   87.09
   0   1   9 3983.40  101.09
   0   1   9 3888.51   93.09
  -1  -1  -9  318.57    9.30
  -1  -1  -9  309.97    9.10
  -1  -1  -9  317.87   14.70
   1   1   9  306.77   15.20
   1   1   9  317.97   18.10
  -2  -1  -9 1070.79   27.30
   2   1   9 1126.29   37.50
   2   1   9 1097.19   40.90
  -3  -1  -9 1005.30   27.60
   3   1   9 1027.10   41.20
   3   1   9 1204.88   55.49
   3   1   9 1039.80   30.90
  -4  -1  -9  137.59    8.40
   4   1   9  126.29    7.80
   4   1   9  129.49   12.90
   5   1   9 1066.09   44.90
   5   1   9 1093.59   32.10
   6   1   9    3.50    4.10
   7   1   9  644.34   25.20
   7   1   9  652.03   38.30
   8   1   9  100.39   20.40
  12  -2  -9  207.98   21.20
  11  -2  -9   -9.80    6.60
  11  -2  -9    7.70    7.30
  10  -2  -9 1337.47   52.29
  10  -2  -9 1347.87   47.40
   9  -2  -9    8.60    4.30
   9  -2  -9    7.10    5.50
   8  -2  -9 1389.76   48.30
   8  -2  -9 1327.17   41.50
   7  -2  -9    1.20    3.00
   7  -2  -9    6.90    2.80
  -7   2   9    7.50    4.60
  -7   2   9   -2.80    5.00
   6  -2  -9 2001.20   59.09
   6  -2  -9 2087.99   50.39
  -6   2   9 2079.89   60.79
  -6   2   9 2001.90   49.00
   5  -2  -9  406.86   18.50
  -5   2   9  420.56   20.20
   4  -2  -9 1765.12   48.10
  -4   2   9 1661.53   46.30
  -4   2   9 1879.71   53.19
   3  -2  -9 2863.51   68.39
  -3   2   9 2693.33   74.89
  -3   2   9 2844.72   67.19
   2  -2  -9  270.07    7.00
   2  -2  -9  283.37   10.30
  -2   2   9  268.27    7.00
  -2   2   9  297.57   16.30
  -2   2   9  258.47    9.50
   1  -2  -9 1384.26   35.00
   1  -2  -9 1366.66   31.90
  -1   2   9 1406.76   45.00
  -1   2   9 1360.66   35.80
   0  -2  -9  836.92   26.30
   0   2   9  910.91   33.80
   0   2   9  892.71   28.00
   1   2   9 1700.33   54.69
   1   2   9 1716.13   49.70
   2   2   9    4.00    3.10
   2   2   9    1.70    3.20
  -3  -2  -9 1870.81   43.50
   3   2   9 1979.90   63.99
   3   2   9 1963.10   60.79
   3   2   9 1855.11   43.70
   4   2   9   11.10    5.10
   5   2   9  582.74   32.30
   5   2   9  602.44   19.70
   6   2   9   52.99   12.80
   6   2   9   52.79    8.00
   7   2   9  313.77   27.60
  12  -3  -9  384.86   26.10
  12  -3  -9  382.76   28.80
  11  -3  -9   10.10    8.30
  11  -3  -9   10.40    7.80
  10  -3  -9  774.22   31.90
  10  -3  -9  712.53   35.40
   9  -3  -9   16.40    5.40
   9  -3  -9   21.00    7.40
   8  -3  -9  200.08   15.50
   8  -3  -9  171.68   11.20
  -8   3   9  174.58   15.20
   7  -3  -9  233.38   15.30
   7  -3  -9  209.78   10.50
  -7   3   9  214.08   15.60
  -7   3   9  196.18    9.90
   6  -3  -9  348.67   17.70
  -6   3   9  318.87   10.20
  -6   3   9  328.27   10.90
  -6   3   9  347.87   19.20
   5  -3  -9 1259.87   38.10
  -5   3   9 1205.48   42.10
   4  -3  -9 1050.09   30.90
  -4   3   9  988.90   29.60
  -4   3   9 1015.90   35.90
   3  -3  -9 1555.54   39.20
  -3   3   9 1494.15   38.10
  -3   3   9 1439.46   46.50
   2  -3  -9  198.98    7.40
   2  -3  -9  209.28    7.40
  -2   3   9  220.88   14.30
  -2   3   9  197.48    7.00
  -2   3   9  202.38    8.00
   1  -3  -9  556.34   18.10
  -1   3   9  588.64   19.50
  -1   3   9  556.44   25.30
   0  -3  -9  297.57   13.60
   0   3   9  288.77   21.40
   0   3   9  306.77   14.80
   1   3   9 1237.48   40.20
   1   3   9 1247.28   44.50
   2   3   9    9.30    4.80
   2   3   9   18.50    5.40
   3   3   9 2179.18   67.49
   3   3   9 2114.49   69.79
   4   3   9   44.10   10.60
   5   3   9  806.32   23.30
   5   3   9  827.22   40.20
   6   3   9   14.50   10.10
   7   3   9  393.16   31.80
  12  -4  -9  383.66   25.30
  12  -4  -9  363.86   27.40
  11  -4  -9  103.59   13.10
  11  -4  -9  103.49   15.10
  10  -4  -9  965.20   35.80
  10  -4  -9  927.61   41.10
   9  -4  -9   70.29    8.50
   9  -4  -9   62.39   10.50
  -9   4   9   87.49   12.00
   8  -4  -9 1474.45   49.70
   8  -4  -9 1506.45   42.30
  -8   4   9 1417.26   41.10
  -8   4   9 1496.45   52.39
   7  -4  -9  677.83   28.10
  -7   4   9  665.03   30.00
  -7   4   9  673.13   21.20
  -7   4   9  662.83   19.70
   6  -4  -9  447.26   20.20
  -6   4   9  441.16   12.60
  -6   4   9  424.66   13.50
  -6   4   9  448.66   22.60
   5  -4  -9 1393.06   40.60
  -5   4   9 1383.66   30.90
  -5   4   9 1352.16   31.00
  -5   4   9 1363.66   45.60
   4  -4  -9  121.79    7.90
  -4   4   9  128.79    8.00
  -4   4   9  133.59   11.20
   3  -4  -9 1663.13   40.80
  -3   4   9 1560.34   38.70
  -3   4   9 1549.14   40.00
  -3   4   9 1720.13   57.89
  -3   4   9 1637.04   38.90
   2  -4  -9   21.60    3.20
   2  -4  -9   22.40    1.70
  -2   4   9   19.90    1.50
  -2   4   9   13.40    7.80
   1  -4  -9 2704.33   67.59
  -1   4   9 2775.02   69.29
  -1   4   9 2737.03   77.29
   0   4   9  361.86   17.40
   0   4   9  334.17   20.10
   1   4   9 1402.96   48.70
   1   4   9 1331.87   44.30
   2   4   9  251.47   17.40
   2   4   9  272.77   19.40
   3   4   9 1198.68   46.20
   3   4   9 1206.78   47.90
   4   4   9  269.17   21.50
   5   4   9  268.17   23.60
   6   4   9  287.87   27.10
  12  -5  -9  335.27   23.30
  12  -5  -9  330.07   26.50
  11  -5  -9  568.14   32.70
  11  -5  -9  602.54   28.30
  10  -5  -9  309.47   18.00
  10  -5  -9  341.27   23.20
 -10   5   9  344.27   24.50
   9  -5  -9  868.71   36.60
   9  -5  -9  836.32   29.80
  -9   5   9  858.21   38.70
   8  -5  -9 1514.75   49.10
  -8   5   9 1343.37   40.30
  -8   5   9 1435.96   38.30
  -8   5   9 1429.36   51.49
   7  -5  -9 1457.05   46.10
  -7   5   9 1357.16   36.10
  -7   5   9 1413.76   38.40
  -7   5   9 1471.35   49.99
   6  -5  -9   76.59    8.00
  -6   5   9   73.09    9.40
  -6   5   9   73.79    4.50
  -6   5   9   65.69    5.50
   5  -5  -9 2091.59   55.19
  -5   5   9 2023.60   61.99
  -5   5   9 2032.90   48.00
  -5   5   9 2018.80   48.80
   4  -5  -9   67.19    6.10
  -4   5   9   65.09    6.40
  -4   5   9   62.79    4.80
  -4   5   9   67.19    8.60
  -4   5   9   65.99    4.50
   3  -5  -9 1010.00   28.10
  -3   5   9 1097.79   29.50
  -3   5   9 1016.50   27.30
  -3   5   9 1071.79   38.80
  -2   5   9   35.70    7.10
  -2   5   9   41.10    5.20
  -1   5   9 2543.35   73.99
  -1   5   9 2569.94   67.39
   0   5   9   31.50    6.10
   0   5   9   35.70    7.60
   1   5   9  642.84   28.30
   1   5   9  655.33   30.80
   2   5   9  127.89   14.10
   2   5   9  163.68   14.70
   3   5   9  734.43   35.80
   3   5   9  758.62   36.50
   4   5   9  302.77   25.00
   5   5   9  499.95   33.00
   6   5   9  399.06   32.50
  12  -6  -9  371.66   27.60
  12  -6  -9  397.16   24.20
 -12   6   9  263.57   29.30
  11  -6  -9  539.45   31.40
 -11   6   9  607.04   35.40
 -11   6   9  558.14   24.50
  10  -6  -9  580.04   30.50
 -10   6   9  576.64   32.70
 -10   6   9  585.64   24.50
   9  -6  -9  789.42   34.90
  -9   6   9  763.72   42.40
  -9   6   9  821.12   26.40
   8  -6  -9  828.02   33.00
  -8   6   9  792.32   24.40
  -8   6   9  749.03   26.90
  -8   6   9  778.62   35.50
   7  -6  -9 1064.19   37.30
  -7   6   9 1058.19   29.20
  -7   6   9 1065.19   41.50
   6  -6  -9   43.10    6.50
  -6   6   9   36.40    5.70
  -6   6   9   35.80    4.20
  -6   6   9   34.40    7.80
   5  -6  -9 2783.22   69.19
  -5   6   9 2675.03   64.29
  -5   6   9 2725.43   77.69
  -5   6   9 2591.94   65.49
   4  -6  -9    0.80    1.90
  -4   6   9    7.40    3.30
  -4   6   9   -0.80    2.90
  -4   6   9    2.70    3.60
  -4   6   9   -0.80    2.00
   3  -6  -9 2260.07   59.89
   3  -6  -9 2460.05   57.39
  -3   6   9 2507.75   61.69
  -3   6   9 2488.45   71.69
  -3   6   9 2374.66   56.59
  -2   6   9    5.10    2.80
  -2   6   9   -1.90    3.40
  -1   6   9 1374.66   43.60
  -1   6   9 1433.86   49.00
   0   6   9  449.06   26.80
   0   6   9  454.95   24.60
   1   6   9 1102.19   42.90
   1   6   9  994.60   39.70
   2   6   9  692.83   33.90
   2   6   9  725.53   34.80
   3   6   9  271.77   21.90
   4   6   9  489.35   31.70
   5   6   9  183.18   22.90
  12  -7  -9  239.38   23.90
 -12   7   9  242.18   24.50
 -12   7   9  183.68   17.50
  11  -7  -9  470.45   28.90
 -11   7   9  531.75   33.30
 -11   7   9  483.35   22.40
  10  -7  -9  264.57   20.10
 -10   7   9  221.48   21.00
 -10   7   9  247.28   14.10
   9  -7  -9 1102.49   42.10
  -9   7   9 1077.49   33.20
  -9   7   9 1094.09   45.70
   8  -7  -9   15.50    6.20
  -8   7   9   14.90    5.50
  -8   7   9   15.50    3.90
   7  -7  -9  659.43   27.10
  -7   7   9  651.13   24.20
  -7   7   9  655.53   21.50
  -7   7   9  691.63   32.20
   6  -7  -9   75.69    8.00
  -6   7   9   77.29    8.60
  -6   7   9   65.29    6.10
  -6   7   9   35.80    8.20
   5  -7  -9 1465.55   41.50
  -5   7   9 1319.37   40.30
  -5   7   9 1506.85   39.60
  -5   7   9 1439.96   49.90
   4  -7  -9   47.10    5.10
  -4   7   9   34.50    5.40
  -4   7   9   40.20    8.60
  -4   7   9   47.40    8.10
  -4   7   9   40.70    6.50
   3  -7  -9  980.80   25.80
  -3   7   9  923.91   24.80
  -3   7   9  941.01   30.90
  -3   7   9  975.40   38.30
  -2   7   9   24.10    7.30
  -2   7   9   41.40    6.80
  -1   7   9  153.78   14.20
  -1   7   9  157.78   15.50
   0   7   9  182.28   14.80
   0   7   9  166.38   15.20
   1   7   9  212.98   17.30
   1   7   9  216.18   18.40
   2   7   9  565.44   31.30
   2   7   9  554.64   31.00
   3   7   9  176.88   19.60
   4   7   9  191.08   21.70
 -12   8   9   42.40   12.90
  11  -8  -9  285.97   23.30
 -11   8   9  302.97   17.60
 -11   8   9  299.47   25.50
  10  -8  -9    6.70    7.30
 -10   8   9    7.50    7.30
 -10   8   9    8.50    5.00
   9  -8  -9  857.61   36.10
  -9   8   9  839.02   40.00
  -9   8   9  868.51   28.60
   8  -8  -9    5.40    5.00
  -8   8   9    1.80    3.70
  -8   8   9    1.90    7.20
   7  -8  -9  478.55   22.60
  -7   8   9  492.25   27.50
  -7   8   9  485.45   18.70
   6  -8  -9   76.39    8.60
  -6   8   9   78.09    7.40
  -6   8   9   61.99   10.40
   5  -8  -9  641.54   23.40
  -5   8   9  628.54   30.30
  -5   8   9  637.94   23.00
   4  -8  -9  132.49    8.80
  -4   8   9  143.79   10.30
  -4   8   9  141.39    9.80
  -4   8   9  121.99   13.30
  -3   8   9  339.87   21.50
  -3   8   9  314.27   10.80
  -3   8   9  323.07   10.20
  -3   8   9  320.67   16.90
  -2   8   9  524.65   27.20
  -2   8   9  560.84   24.70
  -1   8   9  256.37   18.90
  -1   8   9  228.98   16.60
   0   8   9  679.63   32.90
   0   8   9  698.93   32.50
   1   8   9  113.99   14.80
   1   8   9  132.59   15.70
   2   8   9  450.65   28.10
   2   8   9  447.36   29.10
   3   8   9   10.20    8.90
  11  -9  -9  609.94   33.50
 -11   9   9  671.93   38.30
  10  -9  -9   78.79   14.00
 -10   9   9   96.89   16.60
 -10   9   9   95.79   10.70
  -9   9   9  830.52   40.00
  -9   9   9  759.22   27.50
   8  -9  -9  174.58   14.70
  -8   9   9  166.58   11.80
  -8   9   9  137.59   16.50
   7  -9  -9  569.14   24.70
  -7   9   9  482.85   29.30
  -7   9   9  572.94   21.80
   6  -9  -9  595.64   24.30
  -6   9   9  612.84   23.40
  -6   9   9  572.74   30.00
   5  -9  -9  367.76   16.90
  -5   9   9  335.97   22.30
  -5   9   9  327.47   16.70
   4  -9  -9  701.33   23.50
  -4   9   9  698.03   32.80
  -3   9   9  211.28    7.20
  -3   9   9  205.38   17.30
  -3   9   9  240.78   15.70
  -2   9   9  243.18   17.10
  -2   9   9  256.87   19.30
  -1   9   9    8.40    6.60
  -1   9   9   12.60    7.00
   0   9   9  613.54   32.10
   0   9   9  665.63   33.30
   1   9   9    3.80    9.20
   1   9   9    3.20    7.30
   2   9   9  295.27   25.30
  10 -10  -9  107.59   16.00
 -10  10   9  137.79   18.60
 -10  10   9  128.29   17.70
   9 -10  -9  380.16   23.60
  -9  10   9  384.76   19.40
  -9  10   9  386.16   27.30
   8 -10  -9  175.38   15.50
  -8  10   9  183.98   13.20
  -8  10   9  185.88   18.10
   7 -10  -9   85.89   11.00
  -7  10   9   83.69   10.20
  -7  10   9  100.19   13.80
   6 -10  -9  673.63   27.00
  -6  10   9  684.93   27.00
  -6  10   9  644.84   48.50
   5 -10  -9  137.49   11.50
  -5  10   9  144.19   15.70
  -5  10   9  137.09   12.40
  -4  10   9  999.40   36.20
  -4  10   9  961.10   27.40
  -4  10   9  984.10   41.70
  -3  10   9  212.98   16.40
  -3  10   9  242.98   18.70
  -2  10   9  577.14   28.70
  -2  10   9  537.75   29.20
  -1  10   9   28.30    9.80
  -1  10   9   20.70    7.40
   0  10   9  542.55   32.10
   0  10   9  530.05   29.90
   1  10   9    3.70    9.60
   1  10   9   16.80   11.20
   9 -11  -9  243.18   19.90
  -9  11   9  285.37   24.90
  -9  11   9  264.67   22.30
   8 -11  -9  506.75   29.60
  -8  11   9  556.54   32.60
  -8  11   9  538.45   24.60
   7 -11  -9   91.09   12.80
  -7  11   9  117.39   16.60
  -7  11   9   99.79   12.30
   6 -11  -9  461.55   22.40
  -6  11   9  447.86   27.80
  -6  11   9  435.56   22.40
  -5  11   9   65.79   12.10
  -5  11   9   63.09   13.50
  -5  11   9   56.79    9.00
  -4  11   9  391.36   23.20
  -4  11   9  378.56   25.10
  -3  11   9   -4.60    7.40
  -3  11   9    3.20    7.20
  -2  11   9  395.56   25.70
  -2  11   9  430.86   27.20
  -1  11   9  151.18   20.20
  -1  11   9  136.69   18.00
   8 -12  -9  383.86   24.10
  -8  12   9  346.87   27.40
   7 -12  -9   11.90    8.90
  -7  12   9    1.60    9.20
  -7  12   9    3.50    9.20
  -6  12   9  283.27   24.10
  -6  12   9  294.27   21.00
  -5  12   9   -2.70    8.70
  -5  12   9    5.20    8.10
  -4  12   9  201.38   20.10
  -4  12   9  213.08   19.90
  -3  12   9    9.00   10.40
  -3  12   9    8.50    9.40
   0  13 -10   97.99   17.40
   0  13 -10   85.99   17.50
  -1  13 -10  236.08   27.60
  -1  13 -10  155.48   22.50
  -2  13 -10   60.99   13.10
  -2  13 -10   29.10    9.90
  -3  13 -10  181.18   19.70
  -3  13 -10  172.68   18.90
  -5  13 -10  317.37   25.00
  -5  13 -10  267.97   22.90
   2  12 -10  119.19   18.60
   2  12 -10   82.29   16.10
   1  12 -10  183.98   19.00
   1  12 -10  131.39   17.40
   0  12 -10   71.59   14.00
   0  12 -10   58.59   12.20
  -1  12 -10  354.86   25.40
  -1  12 -10  360.76   24.70
  -2  12 -10   20.50    7.30
  -2  12 -10   29.70    9.10
  -3  12 -10  532.35   30.00
  -3  12 -10  480.95   29.30
  -4  12 -10   15.10    7.10
  -4  12 -10   21.40    7.30
  -5  12 -10  409.16   26.50
  -5  12 -10  363.56   25.70
   5 -12  10  392.96   29.40
  -6  12 -10    4.70    7.50
   6 -12  10   -2.90    7.90
   4  11 -10  160.88   30.00
   4  11 -10  202.28   36.60
   3  11 -10  294.27   26.10
   3  11 -10  251.67   22.70
   2  11 -10   90.79   14.70
   2  11 -10  113.49   16.50
   1  11 -10  476.75   29.80
   1  11 -10  529.35   29.60
   0  11 -10   10.20    6.80
   0  11 -10   14.30    6.60
  -1  11 -10  598.74   31.30
  -1  11 -10  619.64   32.30
  -2  11 -10    3.80    6.00
  -2  11 -10    8.60    6.40
  -3  11 -10  657.33   32.80
  -3  11 -10  694.53   34.10
  -4  11 -10  161.98   16.60
  -4  11 -10  167.08   16.80
  -5  11 -10  604.74   31.30
   5 -11  10  578.44   34.30
  -6  11 -10   91.39   14.10
   6 -11  10   87.69   15.50
  -7  11 -10  231.18   21.40
   7 -11  10  215.08   23.20
   5  10 -10  186.08   21.80
   5  10 -10  188.18   21.00
   4  10 -10    5.70    8.10
   4  10 -10   15.50    9.60
   3  10 -10  558.04   32.30
   3  10 -10  593.34   32.70
   2  10 -10  139.59   16.20
   2  10 -10  126.99   15.50
   1  10 -10  304.47   21.80
   1  10 -10  304.37   21.80
   0  10 -10   33.50    9.00
   0  10 -10   70.89   11.80
  -1  10 -10  669.03   31.40
  -1  10 -10  627.14   35.90
  -2  10 -10   -2.90    5.00
  -2  10 -10    3.60    4.30
  -3  10 -10  738.33   34.50
  -3  10 -10  756.62   43.20
  -4  10 -10  166.88   15.20
   4 -10  10  155.68   17.40
  -5  10 -10  546.25   29.10
   5 -10  10  565.04   32.30
  -6  10 -10  144.29   16.00
   6 -10  10  129.49   17.00
  -7  10 -10  312.67   23.00
   7 -10  10  301.97   24.30
  -8  10 -10  167.98   25.60
   8 -10  10  128.09   19.50
   6   9 -10   46.50   13.20
   6   9 -10   87.29   17.90
   5   9 -10  422.16   28.80
   5   9 -10  429.86   29.70
   4   9 -10   40.40   10.80
   4   9 -10   14.50    8.10
   3   9 -10  666.53   33.70
   2   9 -10  142.59   23.70
   2   9 -10  177.28   16.50
   1   9 -10  463.75   25.40
   1   9 -10  456.05   25.90
   0   9 -10   37.40    8.50
   0   9 -10   62.29   10.30
  -1   9 -10  492.15   26.00
  -1   9 -10  511.65   25.70
  -2   9 -10  520.15   26.40
  -2   9 -10  477.25   24.50
  -2   9 -10  437.96   15.00
  -3   9 -10  468.55   25.70
  -3   9 -10  514.35   25.60
   3  -9  10  521.95   29.00
  -4   9 -10  198.48   15.60
   4  -9  10  185.98   17.70
  -5   9 -10  242.78   18.30
   5  -9  10  231.78   21.30
  -6   9 -10  527.85   28.00
   6  -9  10  441.16   28.30
  -7   9 -10   57.09   11.60
   7  -9  10   69.69   14.30
  -8   9 -10  417.46   27.60
   8  -9  10  421.86   28.90
   7   8 -10  426.06   32.80
   7   8 -10  489.75   32.90
   6   8 -10   27.10    9.20
   6   8 -10   29.70   10.30
   5   8 -10  928.11   42.90
   5   8 -10  891.61   41.80
   4   8 -10   13.70    7.60
   4   8 -10   20.60    8.10
   3   8 -10  571.44   29.70
   3   8 -10  592.34   30.20
   2   8 -10   28.30    8.40
   2   8 -10   40.10    8.30
   1   8 -10  573.94   27.90
   1   8 -10  568.34   26.90
   0   8 -10  297.47   18.40
   0   8 -10  312.37   19.40
  -1   8 -10 1092.09   38.80
  -1   8 -10 1152.28   41.20
  -1   8 -10 1016.20   27.30
  -2   8 -10  449.76   22.20
  -2   8 -10  408.26   17.40
  -2   8 -10  452.85   23.70
  -3   8 -10  163.78   13.40
   3  -8  10  157.28   15.50
  -4   8 -10   56.29    8.50
   4  -8  10   62.59   10.80
  -5   8 -10  104.39   12.00
   5  -8  10   85.39   12.90
  -6   8 -10  371.66   23.30
  -7   8 -10    1.70    5.80
   7  -8  10    5.30    6.40
   8  -8  10  648.84   37.50
   8  -8  10  624.44   33.80
   9  -8  10    5.60    9.40
   9  -8  10   25.20   11.90
   8   7 -10   -1.50   10.50
   7   7 -10  540.75   34.30
   7   7 -10  612.84   34.70
   6   7 -10    4.60    7.10
   6   7 -10    7.40    7.00
   5   7 -10  858.91   39.90
   5   7 -10  870.21   39.50
   4   7 -10   94.69   12.40
   4   7 -10  110.69   13.50
   3   7 -10 1976.50   61.99
   3   7 -10 1899.91   62.19
   2   7 -10   16.70    5.60
   2   7 -10   17.80    6.50
   1   7 -10  804.82   32.70
   1   7 -10  775.32   31.10
   0   7 -10  815.92   32.70
   0   7 -10  842.02   31.40
  -1   7 -10 1100.49   37.10
  -1   7 -10 1002.10   29.90
  -1   7 -10 1040.60   38.00
  -2   7 -10 1262.27   43.20
  -2   7 -10 1205.28   41.10
  -3   7 -10  305.17   17.90
   3  -7  10  326.77   20.40
  -4   7 -10  854.01   33.50
   4  -7  10  800.42   35.00
  -5   7 -10   46.20    8.40
   5  -7  10   33.40    9.00
   6  -7  10 1054.59   43.10
   6  -7  10 1129.99   52.49
   7  -7  10   31.80    8.40
   7  -7  10   17.40    7.60
   8  -7  10  562.04   34.90
   8  -7  10  531.95   30.50
   9  -7  10   82.89   15.60
   8   6 -10    0.20    8.50
   8   6 -10   -6.90    7.80
   7   6 -10  591.24   34.30
   7   6 -10  627.74   35.30
  -7  -6  10  628.34   23.50
   6   6 -10  121.69   14.90
   6   6 -10  122.79   15.70
  -6  -6  10  138.29    9.40
   5   6 -10  507.35   27.30
   5   6 -10  499.55   27.60
  -5  -6  10  494.95   17.10
   4   6 -10  660.63   30.30
   4   6 -10  655.33   31.20
  -4  -6  10  664.63   18.70
   3   6 -10 1938.01   61.09
   3   6 -10 1973.00   59.59
  -3  -6  10 1936.91   44.90
   2   6 -10 1062.09   38.70
   2   6 -10 1051.99   36.80
  -2  -6  10 1009.00   25.70
   1   6 -10  917.51   34.40
   0   6 -10 1081.49   37.80
   0   6 -10 1217.98   47.50
   0   6 -10  999.60   29.70
  -1   6 -10   57.59    7.10
  -1   6 -10   53.69    7.90
  -1   6 -10   52.89    6.80
  -2   6 -10 1108.69   36.60
  -2   6 -10 1063.39   37.60
   2  -6  10 1043.40   39.10
  -3   6 -10  463.45   21.20
   3  -6  10  367.96   21.40
  -4   6 -10  704.93   29.70
   4  -6  10  757.02   32.30
   4  -6  10  778.52   33.90
   5  -6  10   72.29   10.20
   5  -6  10   52.29   10.40
   6  -6  10  834.32   35.20
   6  -6  10  772.82   38.10
   7  -6  10   32.20    8.60
   7  -6  10   27.20    9.10
   8  -6  10  595.94   36.00
   8  -6  10  515.15   29.30
   9  -6  10   55.79   12.20
   9  -6  10   47.50   14.40
   9   5 -10  211.58   23.40
   9   5 -10  261.27   25.00
  -9  -5  10  239.88   19.70
   8   5 -10  101.59   15.10
   8   5 -10  103.49   16.40
  -8  -5  10   89.99   11.30
   7   5 -10  486.85   29.10
   7   5 -10  536.15   30.90
  -7  -5  10  518.65   22.20
   6   5 -10  173.38   16.80
   6   5 -10  102.29   12.90
  -6  -5  10  158.98   11.00
   5   5 -10  548.25   27.20
   5   5 -10  622.84   30.10
  -5  -5  10  588.84   21.00
   4   5 -10   50.69    8.10
   4   5 -10   66.69    8.50
  -4  -5  10   60.29    5.80
   3   5 -10  768.12   30.90
   3   5 -10  697.03   28.10
  -3  -5  10  714.63   22.40
   2   5 -10  683.43   27.90
   2   5 -10  684.73   25.90
  -2  -5  10  632.14   20.50
   1   5 -10   46.50    4.80
   1   5 -10   46.10    6.60
   1   5 -10   42.40    5.90
  -1  -5  10   44.60    4.70
   0   5 -10 1684.33   46.40
   0   5 -10 1541.35   43.70
   0  -5  10 1599.04   43.90
  -1   5 -10   17.50    7.30
  -1   5 -10    8.70    4.40
  -1   5 -10    8.00    2.90
  -2   5 -10 2349.36   67.79
   2  -5  10 2330.57   85.19
   3  -5  10  413.86   22.10
   3  -5  10  446.36   22.10
   4  -5  10 1367.36   48.90
   4  -5  10 1414.96   46.40
   5  -5  10   32.50    8.00
   5  -5  10   36.60    7.90
   6  -5  10  620.44   33.20
   6  -5  10  663.23   30.00
   7  -5  10  313.67   25.10
   7  -5  10  314.17   20.80
   8  -5  10  473.55   31.90
   8  -5  10  416.06   25.50
   9  -5  10  240.68   21.50
   9  -5  10  225.08   25.90
  10   4 -10    8.30   11.10
  10   4 -10    7.70   10.40
 -10  -4  10    8.70   12.00
   9   4 -10  329.77   25.60
   9   4 -10  328.67   26.10
  -9  -4  10  310.27   21.80
   8   4 -10  304.27   22.70
   8   4 -10  333.47   24.70
  -8  -4  10  319.47   19.20
   7   4 -10  404.16   24.30
   7   4 -10  435.36   26.70
   6   4 -10  627.64   29.10
   6   4 -10  648.54   31.80
  -6  -4  10  684.83   25.40
   5   4 -10  794.22   33.40
   5   4 -10  716.13   30.40
  -5  -4  10  746.63   26.10
   4   4 -10 1674.83   53.79
   4   4 -10 1672.13   50.79
  -4  -4  10 1724.23   46.80
   3   4 -10  256.07   14.20
   3   4 -10  250.77   15.80
  -3  -4  10  257.97   12.30
   2   4 -10 2256.47   59.89
   2   4 -10 2219.78   63.39
  -2  -4  10 2252.17   57.59
   1   4 -10   64.79    7.20
   1   4 -10   60.29    5.80
  -1  -4  10   57.59    5.90
   0   4 -10 1202.48   37.40
   0   4 -10 1276.17   37.10
   0   4 -10 1285.77   39.50
   0  -4  10 1294.87   37.80
  -1   4 -10   67.59    7.30
  -1   4 -10   66.19    6.50
   1  -4  10   84.79    7.80
   2  -4  10 1786.12   53.79
   2  -4  10 1822.02   53.49
   3  -4  10  157.98   12.10
   3  -4  10  150.98   12.80
   4  -4  10  462.95   21.80
   4  -4  10  464.05   24.80
   5  -4  10  690.33   28.80
   5  -4  10  697.93   33.30
   6  -4  10  612.44   27.50
   6  -4  10  560.44   31.60
   7  -4  10  359.16   21.60
   7  -4  10  354.86   26.10
   8  -4  10  410.96   30.20
   8  -4  10  453.35   26.10
   9  -4  10  169.08   29.60
   9  -4  10  133.49   18.00
  10   3 -10  346.77   27.40
  10   3 -10  285.47   25.30
 -10  -3  10  387.56   25.60
   9   3 -10  350.36   25.30
   9   3 -10  373.06   27.10
  -9  -3  10  355.06   22.70
   8   3 -10  700.33   35.30
   8   3 -10  624.74   31.30
  -8  -3  10  639.34   28.80
   7   3 -10  214.48   16.60
   7   3 -10  251.17   19.00
  -7  -3  10  230.58   15.00
   6   3 -10  598.54   26.30
   6   3 -10  625.14   29.40
  -6  -3  10  571.54   23.90
   5   3 -10   59.99    7.50
   5   3 -10   56.19    8.70
  -5  -3  10   70.19    7.40
   4   3 -10 1940.81   57.69
   4   3 -10 1867.41   53.29
  -4  -3  10 1992.10   53.19
   3   3 -10  183.18   12.20
   3   3 -10  161.58    9.80
  -3  -3  10  147.19    8.50
  -3  -3  10  159.58   10.20
   2   3 -10 3317.47   82.69
   2   3 -10 3454.45   86.19
   2   3 -10 3357.36   82.09
  -2  -3  10 3348.17   83.99
   1   3 -10  129.29    9.50
   1   3 -10  116.19    8.90
   1   3 -10  130.29    9.20
   1   3 -10  131.89    7.90
  -1  -3  10  142.29    9.70
   0   3 -10 2493.05   61.39
   0   3 -10 2501.25   64.09
   0   3 -10 2368.06   63.89
   0  -3  10 2370.66   64.69
  -1   3 -10  102.19    8.10
   1  -3  10  101.09    9.20
   1  -3  10   99.49    8.40
   2  -3  10 3226.18   84.59
   2  -3  10 3129.29   82.09
   2  -3  10 3235.18   85.89
   3  -3  10  217.48   17.20
   3  -3  10  210.18   13.10
   4  -3  10 1093.09   36.20
   4  -3  10 1046.80   40.40
   5  -3  10  801.52   30.20
   5  -3  10  762.12   35.20
   6  -3  10  645.64   33.90
   6  -3  10  643.54   27.60
   7  -3  10  663.53   36.90
   7  -3  10  687.83   29.80
   8  -3  10  340.87   21.60
   8  -3  10  345.27   28.30
   9  -3  10  330.07   34.30
   9  -3  10  294.37   23.30
  11   2 -10  454.65   33.10
  11   2 -10  501.45   32.50
  10   2 -10  312.17   25.40
  10   2 -10  252.47   23.70
   9   2 -10  124.19   15.50
   9   2 -10  211.48   19.50
  -9  -2  10  194.38   16.50
   8   2 -10  958.40   41.70
   8   2 -10  968.80   38.60
  -8  -2  10 1004.80   38.20
   7   2 -10  326.67   22.00
   7   2 -10  345.57   19.70
  -7  -2  10  375.86   20.10
   6   2 -10 3531.25   91.49
   6   2 -10 3540.85   97.09
  -6  -2  10 3625.54   92.59
   5   2 -10  142.19   11.80
   5   2 -10  132.89    9.60
  -5  -2  10  114.49    9.60
  -5  -2  10  121.19    8.10
   4   2 -10 2949.80   79.69
   4   2 -10 3027.50   74.29
  -4  -2  10 3127.69   77.99
  -4  -2  10 2903.71   75.59
   3   2 -10  110.09    7.10
   3   2 -10  111.09    9.30
  -3  -2  10  105.09    8.60
  -3  -2  10  106.59    6.20
   2   2 -10 2921.31   71.69
   2   2 -10 3038.10   72.79
   2   2 -10 3060.89   76.49
  -2  -2  10 3013.40   77.59
   1   2 -10  354.56   13.00
   1   2 -10  333.87   15.00
   1   2 -10  351.06   14.40
  -1  -2  10  348.57   16.80
   0   2 -10 2004.00   52.59
   0   2 -10 1955.80   53.19
   0   2 -10 2056.69   51.19
   0  -2  10 2001.40   56.89
  -1   2 -10 2597.04   70.89
  -1   2 -10 2589.24   67.59
  -1   2 -10 2776.32   67.79
   1  -2  10 2738.23   70.69
   1  -2  10 2813.32   74.49
  -2   2 -10 1528.35   43.40
   2  -2  10 1571.54   44.70
   2  -2  10 1583.44   47.90
   2  -2  10 1605.94   50.79
   3  -2  10 1266.67   38.40
   3  -2  10 1255.77   43.10
   4  -2  10  822.72   28.80
   4  -2  10  843.02   35.20
   5  -2  10 1466.35   53.79
   5  -2  10 1520.55   45.80
   6  -2  10  115.89   14.40
   6  -2  10  122.59   11.60
   7  -2  10  787.82   40.70
   7  -2  10  772.12   31.00
   8  -2  10   33.00   11.10
   8  -2  10   25.80    8.80
  11   1 -10  358.66   29.30
  11   1 -10  386.66   27.10
  10   1 -10  588.94   31.00
  10   1 -10  574.74   33.80
   9   1 -10   38.30    8.60
   9   1 -10   49.10   12.00
   8   1 -10  739.73   30.60
   8   1 -10  738.43   34.80
  -8  -1  10  724.23   31.90
   7   1 -10   20.20    6.60
   7   1 -10   21.40    4.80
  -7  -1  10   27.00    7.00
   6   1 -10 3795.72   92.59
   6   1 -10 3720.33   99.29
  -6  -1  10 3800.82   96.99
  -6  -1  10 3580.74   88.89
   5   1 -10    9.20    3.80
   5   1 -10   22.50    4.00
  -5  -1  10   13.40    2.90
  -5  -1  10   13.90    4.20
   4   1 -10  839.42   26.90
   4   1 -10  805.32   29.10
  -4  -1  10  826.52   29.40
  -4  -1  10  786.12   21.70
   3   1 -10  416.66   13.60
   3   1 -10  419.86   13.40
   3   1 -10  422.76   17.90
  -3  -1  10  421.36   19.00
   2   1 -10 1136.59   29.00
   2   1 -10 1131.39   33.50
   2   1 -10 1151.38   29.80
  -2  -1  10 1140.89   36.80
  -2  -1  10 1102.49   32.70
   1   1 -10  147.19    8.50
   1   1 -10  149.39    7.90
  -1  -1  10  127.99   10.20
   0   1 -10 1666.03   42.80
   0   1 -10 1617.14   45.70
   0   1 -10 1592.94   43.90
   0  -1  10 1670.43   49.99
   0  -1  10 1617.64   43.80
  -1   1 -10 1452.95   42.50
  -1   1 -10 1501.25   38.80
  -1   1 -10 1388.96   38.50
   1  -1  10 1500.25   47.40
   1  -1  10 1426.66   42.40
  -2   1 -10  654.53   21.90
   2  -1  10  633.84   25.90
   2  -1  10  661.73   28.90
   2  -1  10  648.64   22.10
  -3   1 -10  409.26   16.70
   3  -1  10  433.96   24.00
   3  -1  10  421.96   21.70
   3  -1  10  434.86   17.30
   4  -1  10  268.17   13.40
   4  -1  10  258.37   18.30
   5  -1  10  938.21   41.10
   5  -1  10  990.90   32.20
   6  -1  10   21.80    7.60
   6  -1  10    6.10    4.90
   7  -1  10 1283.27   42.10
   7  -1  10 1263.97   54.99
   8  -1  10   -3.50    9.40
   8  -1  10   -8.20    7.40
  11   0 -10   98.29   16.60
  10   0 -10  818.42   36.20
  10   0 -10  852.71   40.80
   9   0 -10   15.20    5.80
   8   0 -10 1478.75   53.29
   8   0 -10 1514.55   47.60
  -8   0  10 1560.54   52.39
   7   0 -10   29.90    5.60
   7   0 -10   23.20    7.10
  -7   0  10   31.70    7.20
   6   0 -10 2942.51   80.69
   6   0 -10 2931.01   72.29
  -6   0  10 2849.91   69.69
  -6   0  10 2946.31   79.79
   5   0 -10   13.70    4.20
   5   0 -10    9.20    2.40
  -5   0  10   11.50    2.10
  -5   0  10    9.90    4.00
   4   0 -10 1466.05   34.20
   4   0 -10 1442.86   43.10
  -4   0  10 1486.65   45.40
   3   0 -10  798.02   25.90
  -3   0  10  743.13   26.60
  -3   0  10  767.92   28.60
   2   0 -10  776.02   19.70
   2   0 -10  832.32   25.10
  -2   0  10  805.32   24.40
  -2   0  10  851.61   30.40
   1   0 -10 1058.19   29.50
   1   0 -10 1089.79   28.90
   1   0 -10 1048.70   30.40
  -1   0  10 1116.79   37.40
  -1   0  10 1079.09   28.60
   0   0 -10 1438.96   39.50
   0   0 -10 1479.45   37.00
   0   0 -10 1401.56   37.00
   0   0  10 1530.45   47.30
   0   0  10 1420.26   39.70
  -1   0 -10 1114.99   30.00
  -1   0 -10 1160.68   39.30
  -1   0 -10 1117.79   30.20
   1   0  10 1122.49   40.50
   1   0  10 1174.48   35.80
  -2   0 -10   59.69    4.70
  -2   0 -10   59.09    5.20
   2   0  10   63.49    7.50
   2   0  10   63.19    8.90
  -3   0 -10 1747.43   46.40
   3   0  10 1828.12   47.20
   3   0  10 1900.11   58.89
   3   0  10 1839.92   60.89
  -4   0 -10   90.29    8.40
   4   0  10  100.39    7.60
   4   0  10  103.49   12.20
   5   0  10  875.11   28.80
   5   0  10  905.91   40.30
   6   0  10   87.59    9.50
   7   0  10 1084.99   50.59
   7   0  10 1097.39   36.40
   8   0  10   10.10   10.60
  12  -1 -10  450.45   32.60
  12  -1 -10  481.65   30.50
  11  -1 -10    3.20    7.70
  11  -1 -10  -10.40    7.50
  10  -1 -10 1156.58   42.90
  10  -1 -10 1112.89   47.70
   9  -1 -10   62.19   11.50
   8  -1 -10 1420.66   51.19
   8  -1 -10 1497.05   44.70
  -8   1  10 1441.96   50.59
   7  -1 -10 1322.07   37.90
   7  -1 -10 1268.37   45.00
  -7   1  10 1275.37   35.80
  -7   1  10 1335.37   45.70
   6  -1 -10 1056.89   29.20
   6  -1 -10 1062.09   37.40
  -6   1  10 1020.30   27.30
  -6   1  10 1087.59   38.10
   5  -1 -10  558.54   22.70
   5  -1 -10  528.35   12.70
  -5   1  10  516.45   23.40
   4  -1 -10  655.13   24.00
  -4   1  10  670.73   26.70
   3  -1 -10 3000.70   72.09
  -3   1  10 2883.01   78.09
  -3   1  10 2836.92   70.29
   2  -1 -10  556.34   17.90
  -2   1  10  509.85   16.90
  -2   1  10  578.14   24.40
   1  -1 -10 1464.25   36.50
   1  -1 -10 1465.05   36.70
   1  -1 -10 1469.35   36.90
  -1   1  10 1448.66   46.90
  -1   1  10 1469.85   37.10
   0  -1 -10  286.47    9.10
   0  -1 -10  282.27    9.10
   0  -1 -10  283.07   12.40
   0   1  10  314.47   18.10
   0   1  10  257.27   12.50
  -1  -1 -10  623.44   16.70
  -1  -1 -10  643.94   16.50
   1   1  10  665.93   25.00
   1   1  10  716.33   30.10
  -2  -1 -10  110.19    5.10
  -2  -1 -10  118.69    5.00
   2   1  10  142.39   13.60
   2   1  10  117.99   10.50
  -3  -1 -10 1208.78   31.30
   3   1  10 1227.18   31.80
   3   1  10 1264.07   44.40
   3   1  10 1261.67   47.90
  -4  -1 -10  185.08   10.40
   4   1  10  186.88    9.40
   4   1  10  144.49   14.80
   5   1  10  623.84   21.20
   5   1  10  610.44   32.70
   6   1  10   15.00    5.20
   6   1  10   25.30   10.10
   7   1  10  401.26   31.00
  12  -2 -10  375.16   26.30
  12  -2 -10  441.16   31.60
  11  -2 -10   35.80   10.90
  11  -2 -10   46.60   10.10
  10  -2 -10  563.14   26.30
  10  -2 -10  510.95   30.20
   9  -2 -10  153.08   15.60
   9  -2 -10  197.48   13.60
  -9   2  10  178.58   16.70
   8  -2 -10  573.84   22.00
   8  -2 -10  560.74   27.70
  -8   2  10  557.44   20.80
  -8   2  10  616.74   29.70
   7  -2 -10 2260.77   65.49
   7  -2 -10 2214.38   54.99
  -7   2  10 2074.29   53.19
  -7   2  10 2211.18   66.39
   6  -2 -10  960.20   24.00
  -6   2  10  921.11   23.00
  -6   2  10 1016.00   36.80
   5  -2 -10  979.30   32.60
  -5   2  10  953.80   35.40
   4  -2 -10  560.74   20.60
  -4   2  10  532.45   23.90
  -4   2  10  528.55   22.40
   3  -2 -10 2190.18   54.79
  -3   2  10 2208.68   63.39
  -3   2  10 2120.89   53.39
   2  -2 -10  168.38    4.80
   2  -2 -10  178.98    7.90
  -2   2  10  171.48    7.30
  -2   2  10  185.58   13.30
   1  -2 -10 2938.51   65.99
   1  -2 -10 2955.80   69.79
  -1   2  10 3006.40   71.09
  -1   2  10 2983.20   82.09
   0  -2 -10    7.30    3.00
   0   2  10    7.30    4.20
   0   2  10   17.90    4.00
   1   2  10 2080.49   59.49
   1   2  10 2203.88   66.39
   2   2  10   74.29    9.30
   2   2  10   85.89   11.50
   3   2  10 2080.99   69.29
   3   2  10 2110.59   65.39
  -4  -2 -10  159.38    6.10
   4   2  10  152.38    6.20
   4   2  10  137.09   15.40
   5   2  10  749.53   37.50
   6   2  10  326.57   26.50
   7   2  10  229.78   26.10
  12  -3 -10  718.63   59.09
  12  -3 -10  578.94   31.00
  11  -3 -10  141.09   15.10
  11  -3 -10  167.38   18.50
  10  -3 -10  403.26   25.60
  10  -3 -10  396.36   20.80
 -10   3  10  411.26   26.80
   9  -3 -10  700.13   26.20
   9  -3 -10  662.83   32.20
  -9   3  10  696.23   33.90
   8  -3 -10  333.97   20.40
   8  -3 -10  308.67   14.30
  -8   3  10  346.57   21.70
  -8   3  10  313.17   13.70
   7  -3 -10 1967.70   58.29
  -7   3  10 1894.81   60.19
  -7   3  10 1858.91   45.90
   6  -3 -10  274.97   15.50
  -6   3  10  234.48   16.40
   5  -3 -10 2368.96   62.79
  -5   3  10 2316.57   67.99
   4  -3 -10   16.30    3.60
  -4   3  10   15.90    3.40
  -4   3  10   14.60    4.70
   3  -3 -10 1677.63   42.90
  -3   3  10 1751.92   58.49
  -3   3  10 1642.54   42.00
   2  -3 -10  113.59    4.90
   2  -3 -10  103.89    5.00
  -2   3  10  123.59   11.50
  -2   3  10  114.79    5.70
  -1   3  10 3500.15   94.89
  -1   3  10 3538.45   84.69
   0  -3 -10   -0.10    2.80
   0   3  10   -3.10    2.70
   0   3  10    2.50    2.60
   1   3  10  788.92   30.00
   1   3  10  807.12   34.70
   2   3  10  464.95   23.50
   2   3  10  446.66   26.10
   3   3  10  337.27   23.60
   3   3  10  385.56   23.10
   4   3  10  183.98   18.00
   5   3  10  275.27   23.40
   6   3  10  534.25   34.60
  12  -4 -10  196.38   22.10
  12  -4 -10  213.08   19.30
 -12   4  10  185.18   22.40
  11  -4 -10  587.24   33.60
  11  -4 -10  651.33   28.90
 -11   4  10  618.64   35.70
  10  -4 -10  379.26   24.80
  10  -4 -10  374.16   19.60
 -10   4  10  335.17   24.90
   9  -4 -10  842.22   29.00
   9  -4 -10  888.21   37.40
  -9   4  10  905.11   39.90
   8  -4 -10  165.88   14.10
  -8   4  10  198.18    9.10
  -8   4  10  189.48   16.00
  -8   4  10  185.68   10.20
   7  -4 -10 1123.79   38.90
  -7   4  10 1132.39   42.20
  -7   4  10 1081.59   27.10
  -7   4  10 1063.29   27.80
   6  -4 -10  276.77   15.20
  -6   4  10  246.28   17.00
   5  -4 -10  736.83   25.60
  -5   4  10  703.83   30.40
   4  -4 -10  155.98    9.00
  -4   4  10  165.88    9.20
  -4   4  10  177.98   13.60
  -3   4  10 1240.38   43.20
  -3   4  10 1172.98   30.70
  -3   4  10 1220.38   28.80
   2  -4 -10  248.68   10.00
  -2   4  10  276.57   17.90
   1  -4 -10 2573.94   65.99
  -1   4  10 2718.13   77.39
  -1   4  10 2721.43   68.29
   0   4  10  138.79   13.30
   0   4  10  143.29   11.00
   1   4  10 1326.27   45.20
   1   4  10 1469.15   51.09
   2   4  10  454.75   26.60
   2   4  10  404.46   23.20
   3   4  10  422.56   25.20
   3   4  10  409.16   26.90
   4   4  10  720.13   36.50
   5   4  10  434.66   30.40
   6   4  10  270.47   26.80
  12  -5 -10  224.28   22.50
 -12   5  10  181.18   23.50
  11  -5 -10  628.34   34.30
  11  -5 -10  593.24   27.10
 -11   5  10  668.83   37.50
  10  -5 -10  219.28   19.10
 -10   5  10  213.98   20.00
 -10   5  10  212.48   12.50
   9  -5 -10  981.10   39.90
  -9   5  10  960.30   29.10
  -9   5  10 1042.00   47.20
   8  -5 -10   40.60    8.70
  -8   5  10   40.10    9.20
  -8   5  10   42.50    6.40
  -8   5  10   38.80    4.40
   7  -5 -10 1806.52   54.29
  -7   5  10 1865.41   59.69
  -7   5  10 1735.93   42.10
  -7   5  10 1748.93   43.10
   6  -5 -10  109.49    9.60
  -6   5  10   94.99    3.60
  -6   5  10   88.59   10.90
   5  -5 -10 2137.79   56.69
  -5   5  10 2119.39   64.99
   4  -5 -10   42.70    4.50
  -4   5  10   31.40    2.90
  -4   5  10   33.00    7.20
  -4   5  10   38.20    5.50
  -4   5  10   33.00    3.10
   3  -5 -10 1614.84   39.30
  -3   5  10 1544.35   38.70
  -3   5  10 1697.43   42.20
  -3   5  10 1667.03   53.79
  -2   5  10  309.47   13.70
  -2   5  10  287.27   18.90
  -1   5  10 1424.56   43.00
  -1   5  10 1465.25   50.29
   0   5  10  332.97   21.10
   0   5  10  335.97   18.10
   1   5  10  181.58   14.50
   1   5  10  173.28   15.90
   2   5  10  810.62   37.50
   2   5  10  789.32   35.20
   3   5  10  207.88   18.80
   3   5  10  231.88   31.00
   4   5  10  820.22   41.10
   5   5  10  138.79   19.60
  12  -6 -10  127.99   19.70
 -12   6  10   92.19   20.00
  11  -6 -10  655.53   34.20
 -11   6  10  617.04   24.40
 -11   6  10  613.54   36.00
  10  -6 -10    3.30    6.10
 -10   6  10    3.40    4.40
 -10   6  10    2.10    5.80
   9  -6 -10  938.11   38.20
  -9   6  10  921.91   27.50
  -9   6  10  897.81   40.60
   8  -6 -10    2.70    4.10
  -8   6  10    4.40    2.60
  -8   6  10    6.60    4.70
  -8   6  10   -4.60    5.60
   7  -6 -10  719.73   28.70
  -7   6  10  722.53   33.30
  -7   6  10  701.13   21.40
   6  -6 -10  275.17   14.80
  -6   6  10  257.57    9.40
  -6   6  10  264.97   19.00
  -6   6  10  249.68   10.10
   5  -6 -10  718.63   24.50
  -5   6  10  734.83   20.40
  -5   6  10  738.53   32.40
  -5   6  10  718.13   21.00
   4  -6 -10  164.78    8.60
  -4   6  10  158.08   14.20
  -4   6  10  169.58   10.10
  -4   6  10  159.58    8.30
  -4   6  10  144.79    8.60
   3  -6 -10  553.84   26.10
   3  -6 -10  586.64   15.90
  -3   6  10  626.34   21.10
  -3   6  10  645.24   29.60
  -3   6  10  572.94   15.10
  -2   6  10  579.54   22.40
  -2   6  10  579.94   28.50
  -1   6  10  922.91   38.40
  -1   6  10  980.80   34.00
   0   6  10  605.54   30.10
   0   6  10  604.44   27.10
   1   6  10  271.07   20.60
   1   6  10  277.07   18.90
   2   6  10  638.44   32.00
   2   6  10  584.54   32.20
   3   6  10  168.38   18.80
   4   6  10  413.06   30.30
 -12   7  10    5.00    9.70
  11  -7 -10  517.35   30.40
 -11   7  10  495.45   32.20
 -11   7  10  475.35   24.10
  10  -7 -10   12.00    7.70
 -10   7  10   24.20    8.70
 -10   7  10   20.00    5.60
   9  -7 -10  821.02   34.90
  -9   7  10  795.82   38.20
  -9   7  10  773.72   24.70
   8  -7 -10   68.09   10.20
  -8   7  10   54.69   11.10
  -8   7  10   67.39    6.30
   7  -7 -10  798.22   30.10
  -7   7  10  734.03   24.30
  -7   7  10  780.42   22.90
  -7   7  10  772.62   35.60
   6  -7 -10    4.20    3.70
  -6   7  10   12.00    3.20
  -6   7  10    5.30    4.20
  -6   7  10    9.20    5.60
   5  -7 -10  428.16   17.40
  -5   7  10  430.36   15.60
  -5   7  10  410.96   23.90
  -5   7  10  389.46   16.30
   4  -7 -10  277.07   11.60
  -4   7  10  266.97   19.10
  -4   7  10  248.48   11.20
  -4   7  10  267.77   12.70
  -4   7  10  251.97   13.90
  -3   7  10  145.39   14.50
  -3   7  10  139.19   10.10
  -2   7  10  573.64   28.40
  -2   7  10  546.85   23.30
  -1   7  10  139.19   14.50
  -1   7  10  147.19   12.50
   0   7  10  555.34   29.70
   0   7  10  598.34   28.30
   1   7  10   10.30    7.00
   1   7  10   12.20    7.20
   2   7  10  523.45   31.30
   2   7  10  542.85   31.60
   3   7  10  103.99   16.90
   4   7  10  352.46   29.80
  11  -8 -10  552.84   32.10
 -11   8  10  518.85   34.20
  10  -8 -10  131.39   16.20
 -10   8  10  151.48   17.80
 -10   8  10  159.28   11.70
   9  -8 -10  769.62   33.40
  -9   8  10  750.12   38.00
  -9   8  10  744.73   24.90
   8  -8 -10  129.39   13.10
  -8   8  10  136.39   15.90
  -8   8  10  124.79    8.90
   7  -8 -10   35.20    7.20
  -7   8  10   29.00    6.00
  -7   8  10   26.90    8.60
   6  -8 -10  301.47   19.80
  -6   8  10  322.87   22.20
  -6   8  10  275.77   13.10
   5  -8 -10  274.17   13.40
  -5   8  10  260.37   13.30
  -5   8  10  297.57   20.80
   4  -8 -10  503.15   17.20
  -4   8  10  506.45   27.60
  -4   8  10  469.35   16.50
  -4   8  10  545.15   20.90
  -3   8  10   29.80    6.30
  -3   8  10   33.50    9.00
  -2   8  10  748.53   34.60
  -2   8  10  784.62   30.70
  -1   8  10   35.70    8.00
  -1   8  10   45.30   10.40
   0   8  10  260.17   19.90
   0   8  10  264.97   20.80
   1   8  10    8.20    7.00
   1   8  10   24.20    8.90
   2   8  10  295.87   24.10
   2   8  10  294.97   24.60
   3   8  10  112.69   19.50
  11  -9 -10  233.38   21.10
 -11   9  10  222.88   26.20
  10  -9 -10  392.56   25.40
 -10   9  10  413.86   29.40
  -9   9  10  621.74   22.90
  -9   9  10  595.84   34.40
   8  -9 -10  188.98   15.50
  -8   9  10  204.18   19.00
  -8   9  10  190.08   12.10
   7  -9 -10   84.29   10.30
  -7   9  10   78.49    8.30
  -7   9  10   86.39   13.50
   6  -9 -10  529.65   22.30
  -6   9  10  517.95   20.60
  -6   9  10  522.75   34.50
   5  -9 -10  144.19   10.50
  -5   9  10  145.59   15.60
  -5   9  10  137.19   11.20
  -4   9  10  777.22   29.40
  -4   9  10  744.53   35.50
  -4   9  10  762.52   25.60
  -3   9  10  218.48   15.50
  -3   9  10  229.68   19.00
  -2   9  10  682.73   30.10
  -2   9  10  676.03   33.40
  -1   9  10   21.30    8.50
  -1   9  10   39.50   11.40
   0   9  10  502.75   29.40
   0   9  10  503.45   29.70
   1   9  10  104.19   17.30
   1   9  10  125.59   18.50
  10 -10 -10  381.46   25.00
 -10  10  10  355.66   28.40
   9 -10 -10   90.29   14.40
  -9  10  10   96.59   15.90
   8 -10 -10  568.44   27.00
  -8  10  10  520.65   32.40
  -8  10  10  606.44   33.80
   7 -10 -10  174.78   13.90
  -7  10  10  176.98   18.40
  -7  10  10  174.78   14.80
   6 -10 -10  669.83   25.90
  -6  10  10  630.44   34.00
  -6  10  10  657.53   29.00
   5 -10 -10    0.90    4.70
  -5  10  10    6.80    5.80
  -5  10  10   -0.50    6.90
  -4  10  10  943.51   35.10
  -4  10  10  917.01   41.60
  -3  10  10   11.50    7.20
  -3  10  10   19.50    8.10
  -2  10  10  818.82   37.90
  -2  10  10  825.12   36.40
  -1  10  10   63.19   13.70
   0  10  10  392.26   27.20
   0  10  10  461.35   30.50
   9 -11 -10   68.79   14.20
  -9  11  10   74.69   16.50
   8 -11 -10  185.98   17.10
  -8  11  10  171.88   20.20
   7 -11 -10   42.40    9.30
  -7  11  10   38.50    8.70
  -7  11  10   42.60   12.70
  -6  11  10  424.36   22.30
  -6  11  10  430.16   28.00
  -5  11  10    9.80    8.50
  -5  11  10    6.50    7.80
  -4  11  10  327.97   21.70
  -4  11  10  350.76   24.50
  -3  11  10   26.80    9.80
  -3  11  10   44.10   11.50
  -2  11  10  343.47   25.00
  -2  11  10  405.06   27.20
  -7  12  10   -4.50    9.30
  -6  12  10  251.37   24.20
  -5  12  10   83.09   16.50
  -5  12  10   94.09   17.20
  -1  13 -11  217.98   21.50
  -1  13 -11  155.98   20.30
  -2  13 -11   18.30   10.10
  -2  13 -11    6.50   11.10
  -3  13 -11  232.58   22.70
  -3  13 -11  263.07   23.30
  -4  13 -11   15.00    8.90
  -4  13 -11   25.70   10.10
   2  12 -11   16.90    9.80
   2  12 -11   35.00   16.90
   1  12 -11  780.72   39.00
   1  12 -11  760.22   40.30
   0  12 -11    0.20    6.70
   0  12 -11    0.20    7.50
  -1  12 -11  461.65   28.80
  -1  12 -11  465.65   29.10
  -2  12 -11    4.90    6.90
  -2  12 -11   -8.30    6.50
  -3  12 -11  161.98   17.50
  -3  12 -11  148.09   17.40
  -4  12 -11   78.09   14.70
  -4  12 -11   78.39   14.20
  -5  12 -11  488.85   30.70
  -5  12 -11  511.55   30.60
  -6  12 -11   44.60   10.50
   6 -12  11   47.80   13.40
   3  11 -11  369.26   28.50
   3  11 -11  380.16   27.30
   2  11 -11   28.70   10.10
   2  11 -11   31.60   10.40
   1  11 -11  685.13   34.70
   1  11 -11  602.94   34.10
   0  11 -11   14.70    7.80
   0  11 -11   20.10    7.90
  -1  11 -11  302.27   22.70
  -1  11 -11  387.46   24.90
  -2  11 -11  157.68   16.40
  -2  11 -11  115.99   14.70
  -3  11 -11  267.27   20.90
  -3  11 -11  261.27   20.50
  -4  11 -11  234.18   19.60
  -4  11 -11  275.17   21.70
  -5  11 -11  924.21   40.20
   5 -11  11  758.42   40.70
  -6  11 -11  235.98   21.20
   6 -11  11  237.08   22.90
  -7  11 -11  242.48   22.40
   7 -11  11  256.47   39.10
   5  10 -11  282.07   31.80
   5  10 -11  361.46   29.10
   4  10 -11    0.80    8.40
   4  10 -11  -11.00    7.60
   3  10 -11  699.23   35.90
   3  10 -11  665.33   35.70
   2  10 -11  193.88   18.80
   2  10 -11  175.08   17.90
   1  10 -11  792.72   37.20
   1  10 -11  836.82   37.90
   0  10 -11  267.57   20.10
   0  10 -11  268.57   20.40
  -1  10 -11  547.65   32.90
  -1  10 -11  565.64   29.70
  -2  10 -11  309.77   21.80
  -2  10 -11  327.67   21.30
  -3  10 -11  335.87   22.70
  -3  10 -11  314.57   21.40
  -4  10 -11  480.45   27.70
  -4  10 -11  493.05   27.30
   4 -10  11  452.75   29.40
  -5  10 -11  240.98   19.50
   5 -10  11  213.48   20.80
  -6  10 -11  199.08   18.30
   6 -10  11  233.48   22.30
  -7  10 -11   26.40    9.30
   7 -10  11    7.30    9.50
   6   9 -11   -0.50    9.70
   5   9 -11  420.26   29.50
   5   9 -11  365.36   27.30
   4   9 -11   -3.00    6.60
   4   9 -11    5.50    6.10
   3   9 -11  521.65   29.90
   3   9 -11  503.65   29.20
   2   9 -11  270.67   20.70
   2   9 -11  267.67   20.50
   1   9 -11  184.68   15.90
   1   9 -11  181.88   19.10
   0   9 -11  297.47   20.00
   0   9 -11  311.57   20.40
  -1   9 -11  337.37   20.60
  -1   9 -11  346.07   21.70
  -2   9 -11  238.58   17.60
  -2   9 -11  267.27   19.30
  -3   9 -11  173.68   15.00
  -3   9 -11  163.28   15.20
   4  -9  11 1000.30   63.29
  -5   9 -11  149.59   15.40
   5  -9  11  157.98   17.30
  -6   9 -11  348.27   23.40
   6  -9  11  333.87   25.70
  -7   9 -11   22.60    8.70
   7  -9  11   40.50   11.40
   8  -9  11  422.46   29.70
   7   8 -11  353.76   28.90
   6   8 -11    7.40    8.70
   6   8 -11    2.30    8.30
   5   8 -11  578.34   33.00
   5   8 -11  627.84   34.40
   4   8 -11  383.56   25.60
   4   8 -11  358.06   24.50
   3   8 -11 1221.98   46.90
   3   8 -11 1204.58   57.39
   2   8 -11  478.85   25.90
   2   8 -11  407.26   23.50
   1   8 -11  537.05   27.60
   1   8 -11  504.35   25.40
   0   8 -11  517.95   25.70
   0   8 -11  554.24   27.10
  -1   8 -11  321.77   20.10
  -1   8 -11  304.37   11.90
  -1   8 -11  328.27   18.90
  -2   8 -11  493.95   23.80
  -2   8 -11  436.36   19.50
  -2   8 -11  475.75   24.80
  -3   8 -11    0.30    4.10
  -3   8 -11    9.20    4.90
   3  -8  11    4.90    5.40
  -4   8 -11 1156.38   42.50
   4  -8  11 1094.09   45.20
   5  -8  11    3.80    6.50
  -6   8 -11  841.72   37.80
   6  -8  11  840.32   39.60
  -7   8 -11   63.09   13.00
   7  -8  11   24.60    8.10
  -8   8 -11  274.57   23.20
   8  -8  11  225.58   22.30
   8  -8  11  245.28   24.50
   8   7 -11   25.20   12.00
   8   7 -11   20.40   11.60
   7   7 -11  521.45   32.90
   7   7 -11  468.45   31.60
   6   7 -11   79.99   14.90
   6   7 -11   71.79   14.30
   5   7 -11  398.56   25.50
   5   7 -11  454.55   27.70
   4   7 -11 1192.38   45.60
   4   7 -11 1110.19   45.70
   3   7 -11  393.26   22.50
   3   7 -11  390.46   23.30
   2   7 -11  439.16   24.30
   2   7 -11  475.85   23.70
   1   7 -11  102.89   10.40
   1   7 -11   91.89   11.00
   0   7 -11  719.63   21.70
   0   7 -11  791.92   32.10
   0   7 -11  731.43   29.30
  -1   7 -11   32.50    7.10
  -1   7 -11   35.80    6.30
  -1   7 -11   15.90    5.00
  -2   7 -11 1294.57   44.10
  -2   7 -11 1400.96   46.80
  -3   7 -11    3.20    3.80
   3  -7  11    0.40    4.70
  -4   7 -11 1101.29   40.80
   4  -7  11 1116.39   43.80
  -5   7 -11    1.30    4.70
   5  -7  11    1.20    5.30
   6  -7  11  789.42   36.70
   6  -7  11  817.32   39.90
   7  -7  11   45.00   11.90
   7  -7  11   64.49   12.20
   8  -7  11  253.27   24.50
   8  -7  11  249.08   21.70
   8   6 -11  133.99   18.90
   8   6 -11   88.69   17.50
   7   6 -11  401.86   27.80
   7   6 -11  350.96   27.60
  -7  -6  11  402.06   18.00
   6   6 -11  381.66   25.80
   6   6 -11  364.96   24.50
  -6  -6  11  318.07   14.50
   5   6 -11  459.05   26.00
   5   6 -11  445.06   26.80
  -5  -6  11  494.15   16.80
   4   6 -11  950.90   37.20
   4   6 -11  891.11   38.10
  -4  -6  11  911.21   25.20
   3   6 -11  452.95   22.70
   3   6 -11  503.35   25.50
  -3  -6  11  443.76   14.20
   2   6 -11  835.42   31.70
   2   6 -11  881.11   34.50
  -2  -6  11  789.12   22.90
   1   6 -11   65.49    7.80
   1   6 -11   57.09    8.50
   0   6 -11  985.70   35.30
   0   6 -11  948.01   32.60
   0   6 -11  859.01   27.80
  -1   6 -11   -2.80    2.80
  -1   6 -11    4.30    2.90
  -2   6 -11 1693.93   53.39
  -2   6 -11 1761.32   52.09
  -3   6 -11   25.50    5.90
   3  -6  11   33.90    8.60
  -4   6 -11 1175.58   41.80
   4  -6  11 1180.98   43.60
   4  -6  11 1170.98   45.20
   5  -6  11  385.06   25.20
   5  -6  11  440.16   24.80
   6  -6  11  485.55   34.70
   6  -6  11  439.96   25.90
   7  -6  11  359.96   35.40
   7  -6  11  349.87   27.30
   8  -6  11  327.07   23.80
   8  -6  11  296.47   26.30
   9   5 -11  328.17   27.70
   9   5 -11  337.17   28.10
  -9  -5  11  351.86   32.90
   8   5 -11  443.66   30.10
   8   5 -11  399.56   28.20
  -8  -5  11  427.56   21.70
   7   5 -11  423.36   26.20
   7   5 -11  412.96   27.30
  -7  -5  11  431.76   20.40
   6   5 -11  587.34   31.70
   6   5 -11  625.04   30.30
  -6  -5  11  623.54   23.30
   5   5 -11   13.40    5.80
   5   5 -11    5.90    4.60
  -5  -5  11   11.50    4.00
   4   5 -11 1056.39   40.50
   4   5 -11 1020.70   37.40
  -4  -5  11 1010.70   30.70
   3   5 -11   60.69    8.80
   3   5 -11   92.89    9.30
  -3  -5  11   83.09    6.50
   2   5 -11 1072.59   35.50
   2   5 -11 1058.49   38.20
  -2  -5  11 1049.09   30.90
   1   5 -11  215.98   12.50
   1   5 -11  181.18   10.40
   1   5 -11  209.28   14.10
  -1  -5  11  190.98   10.60
   0   5 -11  972.70   32.10
   0   5 -11 1084.09   33.80
   0   5 -11 1025.80   35.70
   0  -5  11 1047.90   32.50
  -1   5 -11   49.70    6.10
  -1   5 -11   47.50    7.20
  -2   5 -11  738.13   28.80
  -2   5 -11  731.63   27.70
   2  -5  11  749.53   30.60
  -3   5 -11  105.39    9.70
   3  -5  11  100.89   10.80
   3  -5  11   87.49   10.30
   4  -5  11  770.62   33.90
   4  -5  11  698.43   30.50
   5  -5  11  593.94   31.10
   5  -5  11  593.34   27.70
   6  -5  11  126.39   13.60
   6  -5  11  102.09   14.60
   7  -5  11  246.08   22.90
   7  -5  11  241.18   19.10
   8  -5  11  189.88   22.10
   8  -5  11  150.48   17.80
  10   4 -11  299.37   27.20
  10   4 -11  287.67   26.40
 -10  -4  11  293.47   23.40
   9   4 -11  186.18   20.50
   9   4 -11  214.98   20.80
  -9  -4  11  177.58   17.30
   8   4 -11  511.95   29.50
   8   4 -11  495.85   31.10
  -8  -4  11  488.45   23.90
   7   4 -11  106.49   17.70
   7   4 -11  137.49   14.40
  -7  -4  11  150.08   12.20
   6   4 -11  924.01   36.50
   6   4 -11  916.41   39.90
  -6  -4  11  971.40   34.40
   5   4 -11  191.38   15.70
   5   4 -11  171.68   13.20
  -5  -4  11  177.98   11.50
   4   4 -11 1924.01   59.69
   4   4 -11 1874.31   55.39
  -4  -4  11 1934.71   52.69
   3   4 -11   41.60    6.10
   3   4 -11   51.69    7.60
  -3  -4  11   52.59    6.10
   2   4 -11 1935.61   56.69
   2   4 -11 1964.70   53.39
  -2  -4  11 1887.61   51.89
   1   4 -11   11.90    3.70
   1   4 -11    5.00    2.60
   1   4 -11    4.90    2.50
  -1  -4  11    1.50    2.40
   0   4 -11 1038.20   32.20
   0   4 -11 1022.00   34.20
   0  -4  11 1025.60   33.60
  -1   4 -11  614.94   22.90
  -1   4 -11  659.93   24.90
   1  -4  11  594.74   24.80
  -2   4 -11  982.80   33.30
   2  -4  11  946.11   35.00
   2  -4  11  996.00   35.30
   3  -4  11  423.86   22.20
   4  -4  11  555.34   25.40
   4  -4  11  579.64   28.60
   5  -4  11 1110.19   45.80
   5  -4  11 1183.38   41.10
   6  -4  11  302.47   18.60
   6  -4  11  231.78   20.70
   7  -4  11  542.15   33.40
   7  -4  11  536.35   27.20
   8  -4  11   -1.20    7.20
   8  -4  11    3.80    8.40
  10   3 -11  653.63   36.70
  10   3 -11  687.53   39.90
 -10  -3  11  732.43   35.70
   9   3 -11   68.89   14.00
   9   3 -11   73.39   13.20
  -9  -3  11   61.19   12.20
   8   3 -11  762.12   35.00
   8   3 -11  822.52   39.60
  -8  -3  11  811.32   33.10
   7   3 -11   -3.10    4.60
   7   3 -11   -1.30    4.20
  -7  -3  11   -3.40    3.70
   6   3 -11 1687.03   57.39
   6   3 -11 1708.13   52.39
  -6  -3  11 1705.33   51.09
   5   3 -11  346.17   20.40
   5   3 -11  362.66   17.70
  -5  -3  11  324.77   16.80
   4   3 -11 2600.04   74.39
   4   3 -11 2679.33   69.69
  -4  -3  11 2734.83   70.79
   3   3 -11  894.61   28.60
   3   3 -11  844.72   28.00
   3   3 -11  869.91   34.80
  -3  -3  11  894.81   30.00
   2   3 -11 1555.64   43.40
   2   3 -11 1625.84   47.60
   2   3 -11 1578.54   44.50
  -2  -3  11 1606.84   46.50
   1   3 -11  363.76   16.50
   1   3 -11  385.56   15.20
   1   3 -11  398.36   17.90
  -1  -3  11  371.66   17.60
   0   3 -11 1734.33   45.70
   0   3 -11 1649.83   47.70
   0  -3  11 1684.13   49.99
  -1   3 -11 2925.71   74.39
  -1   3 -11 2898.41   73.39
   1  -3  11 2872.91   78.59
   2  -3  11 1838.42   57.49
   2  -3  11 1889.11   53.89
   2  -3  11 1855.01   55.49
   3  -3  11  861.61   31.40
   3  -3  11  927.31   35.30
   4  -3  11  267.37   15.90
   4  -3  11  233.98   17.60
   5  -3  11  430.36   25.80
   5  -3  11  392.26   20.40
   6  -3  11   84.19   14.00
   6  -3  11  120.79   12.10
   7  -3  11  685.03   30.80
   7  -3  11  745.33   40.00
   8  -3  11   31.60    9.60
   8  -3  11   36.70   13.00
  10   2 -11  495.25   32.40
  10   2 -11  433.16   29.00
 -10  -2  11  459.35   29.20
   9   2 -11   74.59   13.40
   9   2 -11   54.89   11.50
  -9  -2  11   47.40    9.90
   8   2 -11 1076.79   40.50
  -8  -2  11 1108.29   41.10
   7   2 -11   37.60    8.80
   7   2 -11   23.30    6.30
  -7  -2  11   20.40    5.70
   6   2 -11 1184.08   37.80
   6   2 -11 1188.68   43.40
  -6  -2  11 1157.18   40.50
   5   2 -11  156.48   13.10
   5   2 -11  158.28   10.00
  -5  -2  11  131.49   11.00
  -5  -2  11  133.69    8.30
   4   2 -11 2615.24   71.39
   4   2 -11 2631.04   64.59
  -4  -2  11 2465.45   61.59
  -4  -2  11 2589.54   69.69
   3   2 -11  273.97   11.80
   3   2 -11  308.77   15.80
   3   2 -11  267.57   11.90
  -3  -2  11  275.77   15.10
   2   2 -11  574.94   22.10
   2   2 -11  559.14   19.30
   2   2 -11  556.24   18.50
  -2  -2  11  597.94   24.00
   1   2 -11  531.65   19.70
   1   2 -11  583.84   21.30
   1   2 -11  563.14   18.40
  -1  -2  11  554.74   23.40
   0   2 -11 1119.09   31.90
   0   2 -11 1128.79   33.30
   0   2 -11 1042.10   33.50
   0  -2  11 1138.79   38.10
  -1   2 -11 2688.73   66.89
   1  -2  11 2577.54   69.59
   1  -2  11 2659.13   74.39
  -2   2 -11 1043.40   32.40
   2  -2  11 1058.69   36.80
   2  -2  11 1101.19   40.30
   2  -2  11 1071.29   34.00
   3  -2  11 1975.20   60.19
   3  -2  11 1923.91   54.09
   4  -2  11  152.18   14.10
   4  -2  11  127.09   10.40
   5  -2  11  892.31   31.90
   5  -2  11  849.12   38.80
   6  -2  11   12.50    8.60
   6  -2  11    6.90    4.70
   7  -2  11 1384.46   57.29
   7  -2  11 1261.87   43.80
   8  -2  11    6.40    9.40
   8  -2  11   -0.70    8.00
  11   1 -11   88.49   17.10
 -11  -1  11   79.19   16.80
  10   1 -11  744.63   38.80
  10   1 -11  708.93   33.90
 -10  -1  11  753.62   36.70
   9   1 -11   38.50    8.50
   9   1 -11   41.50   10.00
  -9  -1  11   51.49   10.80
   8   1 -11  840.62   33.60
   8   1 -11  914.81   39.60
  -8  -1  11  891.91   36.20
   7   1 -11   23.30    7.50
   7   1 -11   30.50    6.30
  -7  -1  11   24.00    7.20
   6   1 -11  639.74   23.10
   6   1 -11  665.03   29.10
  -6  -1  11  627.24   20.70
  -6  -1  11  678.23   27.80
   5   1 -11  311.07   12.70
   5   1 -11  282.17   16.70
  -5  -1  11  278.27   10.80
  -5  -1  11  310.17   17.10
   4   1 -11  573.84   23.30
   4   1 -11  555.04   16.90
   4   1 -11  528.25   16.70
  -4  -1  11  534.45   23.20
   3   1 -11 1332.67   33.30
   3   1 -11 1339.67   32.90
   3   1 -11 1278.47   39.40
  -3  -1  11 1313.57   42.30
   2   1 -11 1582.14   39.80
   2   1 -11 1632.84   40.70
   2   1 -11 1608.14   44.90
  -2  -1  11 1697.63   50.29
   1   1 -11  730.43   23.30
   1   1 -11  709.13   20.60
   1   1 -11  684.03   24.10
   1   1 -11  706.43   22.10
  -1  -1  11  714.03   28.20
   0   1 -11  206.78   10.00
   0   1 -11  186.18   10.10
   0   1 -11  201.08   12.70
   0  -1  11  206.28   14.30
   0  -1  11  206.28   10.80
  -1   1 -11 1717.23   44.30
  -1   1 -11 1604.64   45.00
   1  -1  11 1682.93   48.60
   1  -1  11 1781.02   54.69
  -2   1 -11  293.57   13.40
  -2   1 -11  338.77   13.70
   2  -1  11  326.67   20.20
   2  -1  11  340.67   18.00
  -3   1 -11  805.42   26.90
   3  -1  11  863.11   34.40
   3  -1  11  848.32   27.60
   3  -1  11  905.31   37.90
   4  -1  11   52.99    6.90
   4  -1  11   59.99   10.00
   5  -1  11  952.60   41.50
   5  -1  11  910.11   31.00
   6  -1  11  174.68   18.40
   6  -1  11  162.38   14.20
   7  -1  11  517.85   33.90
   7  -1  11  510.95   24.00
   8  -1  11   90.99   18.40
  11   0 -11   66.29   15.40
  11   0 -11   52.69   12.80
 -11   0  11   51.49   13.50
  10   0 -11  924.61   43.60
  10   0 -11  890.71   37.20
 -10   0  11  931.21   41.80
   9   0 -11    8.80    5.00
   9   0 -11   -0.40    5.70
  -9   0  11    3.80    5.70
   8   0 -11  804.02   35.70
   8   0 -11  767.02   28.90
  -8   0  11  769.12   33.90
   7   0 -11  355.56   21.30
   7   0 -11  381.66   16.30
  -7   0  11  318.87   14.10
  -7   0  11  376.56   20.80
   6   0 -11  699.93   29.40
   6   0 -11  715.23   22.20
  -6   0  11  693.53   29.10
  -6   0  11  677.53   19.90
   5   0 -11  268.87    9.40
   5   0 -11  328.07   24.30
  -5   0  11  276.87   19.10
  -5   0  11  259.97    8.20
   4   0 -11  187.28   11.90
  -4   0  11  192.18   13.30
   3   0 -11  395.76   16.70
  -3   0  11  389.76   19.80
   2   0 -11  405.76   11.20
   2   0 -11  414.36   15.90
   2   0 -11  370.16   16.40
  -2   0  11  442.56   21.30
   1   0 -11  832.92   23.90
   1   0 -11  794.72   25.10
   1   0 -11  858.01   24.80
  -1   0  11  858.71   32.40
   0   0 -11  121.99    6.70
   0   0 -11  117.09    6.80
   0   0 -11  111.89    8.30
   0   0  11  117.89    8.00
  -1   0 -11 1540.25   40.40
  -1   0 -11 1635.74   40.20
   1   0  11 1652.03   47.40
   1   0  11 1608.34   53.19
  -2   0 -11   28.60    3.60
  -2   0 -11   23.40    4.50
   2   0  11   36.10    6.80
   2   0  11   19.50    5.80
  -3   0 -11 1359.66   37.30
   3   0  11 1391.26   38.00
   3   0  11 1442.56   48.60
   3   0  11 1464.35   52.99
  -4   0 -11   46.20    7.10
   4   0  11   39.10    9.40
   4   0  11   35.20    6.10
   5   0  11  738.33   36.50
   5   0  11  757.62   25.60
   6   0  11  157.48   18.70
   6   0  11  148.59   12.00
   7   0  11  473.65   33.70
  11  -1 -11    7.10    7.30
  11  -1 -11   11.30    8.10
 -11   1  11    7.30    8.60
  10  -1 -11  303.27   19.40
  10  -1 -11  307.07   23.80
 -10   1  11  302.47   23.60
   9  -1 -11  376.36   19.40
   9  -1 -11  356.76   26.90
  -9   1  11  372.36   24.20
   8  -1 -11  377.06   23.20
   8  -1 -11  379.26   17.20
  -8   1  11  370.96   22.70
  -8   1  11  384.66   18.70
   7  -1 -11 1299.27   46.20
   7  -1 -11 1406.16   37.30
  -7   1  11 1374.96   47.30
  -7   1  11 1309.77   34.90
   6  -1 -11  247.08    8.40
   6  -1 -11  243.18   15.60
  -6   1  11  246.28   16.40
  -6   1  11  234.58    7.30
   5  -1 -11 1976.90   57.59
  -5   1  11 2118.69   61.69
   4  -1 -11  732.43   26.20
  -4   1  11  752.72   32.20
   3  -1 -11 1520.35   41.10
  -3   1  11 1395.46   39.20
  -3   1  11 1499.15   47.90
   2  -1 -11   55.69    5.70
   2  -1 -11   59.79    5.10
  -2   1  11   53.89    7.90
   1  -1 -11 1712.43   43.20
   1  -1 -11 1603.54   41.10
   1  -1 -11 1610.24   41.00
  -1   1  11 1719.33   67.39
  -1   1  11 1649.73   41.80
   0  -1 -11  166.88    6.40
   0  -1 -11  156.88    6.20
   0  -1 -11  173.58   10.80
   0   1  11  143.39   12.90
   0   1  11  161.48    9.80
  -1  -1 -11 2180.68   49.30
   1   1  11 2224.08   67.89
   1   1  11 2165.18   60.49
  -2  -1 -11  271.97   10.60
  -2  -1 -11  266.67    8.00
   2   1  11  286.77   20.10
   2   1  11  275.57   16.90
  -3  -1 -11 1201.88   29.70
  -3  -1 -11 1190.68   29.50
   3   1  11 1261.57   49.20
   3   1  11 1182.88   44.00
  -4  -1 -11  328.67   12.20
   4   1  11  308.47   21.80
   5   1  11  192.38   10.10
   5   1  11  156.28   17.70
   6   1  11  586.94   35.30
   7   1  11  453.25   33.80
  12  -2 -11  486.85   32.40
 -12   2  11  509.95   34.00
  11  -2 -11  263.67   19.40
  11  -2 -11  248.18   23.30
 -11   2  11  271.57   24.00
  10  -2 -11  595.04   33.50
  10  -2 -11  700.33   28.60
 -10   2  11  686.53   35.90
   9  -2 -11  830.42   37.30
   9  -2 -11  786.22   28.90
  -9   2  11  845.82   37.80
   8  -2 -11  155.68   14.40
   8  -2 -11  151.08    9.50
  -8   2  11  159.38   14.70
   7  -2 -11 2335.97   68.09
   7  -2 -11 2318.77   54.49
  -7   2  11 2328.37   69.79
  -7   2  11 2237.18   52.99
   6  -2 -11  301.37   17.20
  -6   2  11  283.57   18.20
   5  -2 -11  740.53   27.30
  -5   2  11  738.33   30.80
   4  -2 -11    6.00    2.90
  -4   2  11    6.20    3.40
   3  -2 -11 3448.85   82.69
  -3   2  11 3454.55   93.19
   2  -2 -11   43.20    4.50
   2  -2 -11   46.30    1.80
   2  -2 -11   45.20    6.30
  -2   2  11   50.49    7.50
   1  -2 -11 1926.61   44.10
   1  -2 -11 1945.51   48.60
   1  -2 -11 1980.40   44.40
  -1   2  11 2021.30   61.09
  -1   2  11 1998.80   52.29
   0  -2 -11  767.72   25.20
   0   2  11  771.52   26.70
   0   2  11  835.92   34.30
   1   2  11 2351.36   72.69
   1   2  11 2372.36   65.59
   2   2  11  420.86   26.00
   2   2  11  416.26   25.30
   3   2  11  784.32   33.80
   3   2  11  728.53   36.70
   4   2  11  575.84   31.00
   5   2  11  175.28   18.80
   6   2  11  619.24   37.00
  12  -3 -11   90.59   19.60
 -12   3  11  157.48   21.10
  11  -3 -11  658.73   36.20
  11  -3 -11  726.23   30.50
 -11   3  11  709.23   38.60
  10  -3 -11  374.66   25.00
  10  -3 -11  423.56   20.30
 -10   3  11  423.36   27.40
   9  -3 -11  614.34   22.80
   9  -3 -11  638.44   31.30
  -9   3  11  642.64   32.40
   8  -3 -11   25.30    4.40
   8  -3 -11   33.90    7.70
  -8   3  11   25.30    6.90
  -8   3  11   26.10    5.00
   7  -3 -11 2137.39   63.69
  -7   3  11 2171.38   67.09
  -6   3  11  141.59   13.10
   5  -3 -11 1415.46   42.30
  -5   3  11 1425.56   48.20
   4  -3 -11    0.60    2.40
  -4   3  11    6.50    4.00
  -4   3  11    6.00    2.90
   3  -3 -11 1977.70   49.30
  -3   3  11 1891.31   48.10
  -3   3  11 2093.89   61.99
   2  -3 -11   76.29    3.90
   2  -3 -11   73.59    3.60
   2  -3 -11   73.89    4.20
  -2   3  11   81.19    4.60
  -2   3  11   91.49   10.30
   1  -3 -11 2734.23   68.09
  -1   3  11 2867.91   69.89
  -1   3  11 2881.91   81.59
   0   3  11  256.97   18.20
   0   3  11  246.38   13.70
   1   3  11  405.66   20.40
   1   3  11  437.56   25.00
   2   3  11  810.42   37.70
   2   3  11  808.42   33.50
   3   3  11  340.57   22.20
   3   3  11  333.87   24.50
   4   3  11  557.14   31.40
   5   3  11  125.59   18.10
   6   3  11 1352.96   59.29
 -12   4  11  528.35   45.20
  11  -4 -11  713.83   29.00
  11  -4 -11  713.23   37.30
 -11   4  11  761.82   39.40
  10  -4 -11   71.39    9.00
  10  -4 -11   85.79   13.60
 -10   4  11  109.99   15.40
   9  -4 -11  692.83   32.30
  -9   4  11  714.63   45.50
  -9   4  11  664.53   20.90
   8  -4 -11   14.70    6.10
  -8   4  11   14.60    2.90
  -8   4  11   11.10    5.90
  -8   4  11   10.00    3.10
   7  -4 -11 1315.87   43.30
  -7   4  11 1241.78   46.90
   6  -4 -11   22.80    5.30
  -6   4  11    8.70    4.20
   5  -4 -11 2711.73   69.69
  -5   4  11 2673.63   78.09
   4  -4 -11   28.20    4.20
  -4   4  11   34.60    8.10
  -4   4  11   26.40    4.80
   3  -4 -11  968.80   25.30
  -3   4  11  957.70   37.50
  -3   4  11  939.11   24.60
   2  -4 -11  351.96   12.50
  -2   4  11  401.16   22.60
   1  -4 -11 1626.94   44.60
  -1   4  11 1756.32   47.30
  -1   4  11 1659.83   55.89
   0   4  11 1172.98   39.10
   0   4  11 1269.87   46.80
   1   4  11  408.16   24.90
   2   4  11  776.62   37.40
   2   4  11  801.02   34.50
   3   4  11  190.08   17.70
   3   4  11  182.08   18.80
   4   4  11  280.87   23.70
   5   4  11  106.19   18.30
  12  -5 -11  134.89   28.30
 -12   5  11  101.39   22.60
  11  -5 -11  883.41   41.30
 -11   5  11  885.71   43.70
  10  -5 -11    6.20    6.80
 -10   5  11    6.70    4.10
 -10   5  11   -3.50    6.70
   9  -5 -11  501.05   26.30
  -9   5  11  494.85   29.10
  -9   5  11  453.75   15.30
   8  -5 -11  420.86   22.80
  -8   5  11  426.16   11.80
  -8   5  11  410.96   12.20
  -8   5  11  471.45   26.60
   7  -5 -11 1465.15   47.60
  -7   5  11 1567.74   54.39
   6  -5 -11   41.80    6.50
  -6   5  11   26.90    7.20
   5  -5 -11 1556.84   43.40
  -5   5  11 1523.05   52.89
   4  -5 -11  627.14   19.80
  -4   5  11  605.34   29.30
  -4   5  11  594.84   19.30
   3  -5 -11 1154.38   27.90
  -3   5  11 1170.68   44.00
  -3   5  11 1132.89   30.50
  -3   5  11 1186.58   28.70
  -3   5  11 1212.18   31.00
  -2   5  11  549.85   20.20
  -2   5  11  601.94   29.10
  -1   5  11  279.27   19.70
  -1   5  11  307.97   15.60
   0   5  11  914.31   39.30
   0   5  11  930.81   34.10
   1   5  11  179.28   17.10
   1   5  11  185.78   15.20
   2   5  11  751.02   34.10
   2   5  11  660.13   36.60
   3   5  11   49.99   11.30
   4   5  11  615.54   35.70
   5   5  11   12.20   10.90
 -12   6  11   -0.30    9.10
  11  -6 -11  794.92   38.80
 -11   6  11  745.03   40.80
  10  -6 -11  -11.10    5.80
 -10   6  11    7.90    4.30
 -10   6  11   10.50    8.00
   9  -6 -11  479.25   26.30
  -9   6  11  494.65   15.90
  -9   6  11  570.24   31.00
   8  -6 -11  476.35   24.00
  -8   6  11  436.26   13.10
  -8   6  11  483.55   27.90
  -8   6  11  445.06   12.70
   7  -6 -11  907.91   33.20
  -7   6  11  905.01   39.40
   6  -6 -11  170.48   11.50
  -6   6  11  183.28   16.10
   5  -6 -11  640.44   22.50
  -5   6  11  686.23   31.90
   4  -6 -11  850.51   23.80
  -4   6  11  843.02   23.10
  -4   6  11  800.52   23.20
  -4   6  11  777.62   22.80
  -4   6  11  854.81   36.50
   3  -6 -11  123.49    8.00
  -3   6  11  128.29    8.40
  -3   6  11  127.59   13.70
  -2   6  11 3691.73  103.49
  -2   6  11 3741.23   92.49
  -1   6  11  231.78   14.20
  -1   6  11  213.38   17.80
   0   6  11  703.03   34.10
   0   6  11  684.63   29.70
   1   6  11   68.39   10.60
   1   6  11   73.99   12.30
   2   6  11  713.83   37.10
   2   6  11  691.73   34.70
   3   6  11    1.30    7.60
   4   6  11  421.66   31.10
  11  -7 -11  358.66   26.30
 -11   7  11  460.95   31.20
  10  -7 -11  130.89   15.90
 -10   7  11  100.89   15.70
   9  -7 -11  570.24   28.00
  -9   7  11  539.35   31.80
  -9   7  11  489.25   17.50
   8  -7 -11  341.07   19.80
  -8   7  11  325.97   11.40
  -8   7  11  334.87   23.90
   7  -7 -11  261.97   15.90
  -7   7  11  249.48    8.70
  -7   7  11  252.87    9.30
  -7   7  11  247.28   19.70
   6  -7 -11  846.22   29.70
  -6   7  11  869.81   23.60
  -6   7  11  884.41   23.20
  -6   7  11  980.10   40.50
   5  -7 -11  527.85   19.10
  -5   7  11  481.35   17.00
  -5   7  11  552.54   29.00
   4  -7 -11  426.76   16.50
  -4   7  11  463.05   17.20
  -4   7  11  417.76   13.70
  -4   7  11  464.05   26.10
  -3   7  11   20.30    7.20
  -3   7  11   11.30    4.80
  -2   7  11 1334.87   49.70
  -2   7  11 1310.67   41.90
  -1   7  11  134.99   12.50
  -1   7  11  107.39   13.60
   0   7  11  434.36   27.50
   0   7  11  435.16   24.60
   1   7  11   57.29   13.00
   1   7  11   81.89   13.20
   2   7  11  577.84   33.10
   2   7  11  615.04   35.00
   3   7  11  132.59   20.30
  11  -8 -11  327.77   24.70
 -11   8  11  411.26   41.10
  10  -8 -11   90.39   14.80
 -10   8  11  122.69   17.20
   9  -8 -11  210.38   17.00
  -9   8  11  246.78   21.70
   8  -8 -11  253.07   17.00
  -8   8  11  220.38   20.40
  -8   8  11  247.78   11.20
   7  -8 -11  195.98   13.70
  -7   8  11  171.18    9.10
  -7   8  11  203.08   18.30
   6  -8 -11  879.91   29.60
  -6   8  11  832.12   38.90
  -6   8  11  872.91   25.70
   5  -8 -11   40.40    6.10
  -5   8  11   42.00    6.90
  -5   8  11   33.70    9.00
  -4   8  11 1448.96   41.00
  -4   8  11 1302.87   31.70
  -4   8  11 1392.76   52.49
  -3   8  11    4.70    5.40
  -3   8  11    7.60    5.80
  -2   8  11  733.93   29.80
  -2   8  11  713.73   34.70
  -1   8  11   39.70    9.50
  -1   8  11   42.30   11.50
   0   8  11  555.04   31.40
   0   8  11  607.84   30.70
   1   8  11  121.29   16.70
   1   8  11   74.19   15.60
   2   8  11  313.87   26.10
  10  -9 -11  468.85   27.40
 -10   9  11  495.55   33.20
   9  -9 -11  101.29   17.90
  -9   9  11   95.09   16.40
   8  -9 -11  969.30   36.60
  -8   9  11  986.90   44.70
   7  -9 -11  248.28   15.60
  -7   9  11  257.67   21.60
  -7   9  11  213.38   12.10
   6  -9 -11  941.61   32.30
  -6   9  11 1066.89   45.30
  -6   9  11  971.60   30.70
   5  -9 -11    1.10    4.10
  -5   9  11   -0.50    4.80
  -5   9  11   -2.00    6.10
  -4   9  11  433.86   20.50
  -4   9  11  394.16   25.60
  -3   9  11  538.25   30.10
  -3   9  11  545.85   25.30
  -2   9  11  575.14   31.50
  -2   9  11  592.84   28.20
  -1   9  11  191.18   18.90
  -1   9  11  183.58   18.40
   0   9  11  539.15   32.50
   0   9  11  530.55   31.70
   1   9  11  240.28   22.60
   1   9  11  225.18   23.30
  10 -10 -11  442.86   27.10
 -10  10  11  443.76   34.30
   9 -10 -11   31.90    9.40
  -9  10  11   40.30   11.80
   8 -10 -11  558.34   26.30
  -8  10  11  518.45   32.80
   7 -10 -11   18.90    6.70
  -7  10  11   23.50   10.30
   6 -10 -11 1216.98   40.20
  -6  10  11 1202.28   50.39
  -6  10  11 1237.08   38.40
  -5  10  11   27.70   10.00
  -5  10  11   30.50    8.00
  -4  10  11  364.16   20.60
  -4  10  11  339.77   24.70
  -3  10  11  117.79   16.10
  -3  10  11  140.79   15.90
  -2  10  11  459.45   26.80
  -2  10  11  436.66   27.90
  -1  10  11  105.09   18.00
  -1  10  11   85.19   15.90
   8 -11 -11  396.56   23.10
  -8  11  11  390.86   29.90
  -7  11  11   38.30   12.10
  -6  11  11  350.96   26.70
  -5  11  11  327.97   25.80
  -4  11  11  174.78   19.10
  -4  11  11  184.18   18.60
  -3  11  11  135.09   18.20
  -3  11  11  171.58   19.50
   1  12 -12  240.78   23.50
   1  12 -12  358.76   37.30
   0  12 -12    1.70    7.60
   0  12 -12   17.40    9.10
  -1  12 -12  381.06   26.60
  -1  12 -12  296.67   24.20
  -2  12 -12   59.59   12.60
  -2  12 -12   41.70   10.80
  -3  12 -12  260.77   21.80
  -3  12 -12  251.47   22.00
  -4  12 -12  154.68   18.20
  -4  12 -12  111.99   19.90
  -5  12 -12  127.49   17.60
  -5  12 -12  168.48   18.80
   3  11 -12  193.58   22.20
   2  11 -12  171.28   19.60
   2  11 -12  178.38   19.10
   1  11 -12  406.46   27.30
   1  11 -12  371.96   26.50
   0  11 -12  288.07   22.20
   0  11 -12  266.37   22.20
  -1  11 -12  144.89   16.10
  -1  11 -12  174.88   17.80
  -2  11 -12  326.27   23.80
  -2  11 -12  279.47   21.50
  -3  11 -12  223.18   19.80
  -3  11 -12  214.08   18.80
  -4  11 -12  337.07   23.90
  -4  11 -12  347.17   24.30
  -5  11 -12   52.89   11.50
  -5  11 -12   84.69   14.30
  -6  11 -12  406.36   31.50
   6 -11  12  401.56   34.40
   4  10 -12   76.29   16.40
   4  10 -12   62.99   13.30
   3  10 -12   98.29   15.90
   3  10 -12  137.59   18.10
   2  10 -12  282.77   22.60
   2  10 -12  313.77   23.90
   1  10 -12  431.96   27.00
   1  10 -12  502.55   29.00
   0  10 -12  442.66   26.60
   0  10 -12  447.06   26.40
  -1  10 -12  584.04   30.90
  -1  10 -12  605.84   30.50
  -2  10 -12  204.98   18.00
  -2  10 -12  160.68   15.80
  -3  10 -12   47.50   10.50
  -3  10 -12   55.39   11.10
  -4  10 -12  606.34   31.00
  -4  10 -12  620.54   32.70
  -5  10 -12   40.70    9.80
   5 -10  12   39.30   11.50
  -6  10 -12  542.35   31.00
   6 -10  12  517.45   32.90
  -7  10 -12   30.10   16.60
   7 -10  12    8.10   10.00
   6   9 -12   30.30   12.20
   6   9 -12   10.30   11.20
   5   9 -12  480.85   31.20
   5   9 -12  461.15   31.40
   4   9 -12  108.29   16.50
   4   9 -12  124.59   16.50
   3   9 -12  309.67   22.70
   3   9 -12  262.67   21.80
   2   9 -12  453.65   26.90
   2   9 -12  452.75   26.30
   1   9 -12  197.98   17.70
   1   9 -12  169.28   15.60
   0   9 -12  379.76   22.90
   0   9 -12  384.66   27.90
  -1   9 -12  329.77   20.70
  -2   9 -12  733.53   32.60
  -3   9 -12   -0.70    4.70
  -3   9 -12    8.00    5.80
  -4   9 -12 1020.80   41.00
  -4   9 -12  981.20   41.40
   4  -9  12  972.90   43.90
  -5   9 -12   -3.10    5.30
   5  -9  12    2.70    6.50
  -6   9 -12  440.76   26.70
   6  -9  12  397.96   28.00
  -7   9 -12    7.10    7.90
   7  -9  12    4.10    9.00
   7   8 -12  118.39   20.30
   7   8 -12  146.69   20.70
   6   8 -12  241.38   23.00
   6   8 -12  227.28   22.10
   5   8 -12  311.07   25.00
   5   8 -12  404.56   27.40
   4   8 -12  248.48   21.30
   4   8 -12  256.47   21.00
   3   8 -12  196.28   18.00
   3   8 -12  202.58   17.10
   2   8 -12  760.72   33.90
   2   8 -12  798.12   36.00
   1   8 -12  162.88   14.10
   1   8 -12  141.49   14.30
   0   8 -12  327.67   21.00
   0   8 -12  335.97   20.20
  -1   8 -12  165.48   14.80
  -1   8 -12  162.28   13.40
  -2   8 -12  774.82   33.60
  -2   8 -12  726.83   31.10
  -3   8 -12   24.80    6.60
  -3   8 -12   21.50    6.70
  -4   8 -12 1004.10   39.90
   4  -8  12 1072.79   44.80
  -5   8 -12   81.89   12.00
   5  -8  12   64.09   13.00
  -6   8 -12  373.76   24.30
   6  -8  12  344.77   24.90
  -7   8 -12   71.39   13.50
   7  -8  12   80.69   15.40
  -8   8 -12  320.57   26.10
   8  -8  12  304.97   28.60
   8  -8  12  280.17   25.30
   7   7 -12  470.45   31.40
   7   7 -12  424.26   30.30
   6   7 -12  229.98   21.90
   6   7 -12  233.48   20.60
   5   7 -12  106.69   15.00
   5   7 -12   95.49   14.20
   4   7 -12  300.57   29.30
   4   7 -12  298.77   20.50
   3   7 -12   29.80    7.60
   3   7 -12   12.80    5.50
   2   7 -12  775.72   31.80
   2   7 -12  705.33   32.80
   1   7 -12   60.19    8.80
   1   7 -12   81.79   10.80
   0   7 -12 2316.17   65.59
   0   7 -12 2437.06   69.49
   0   7 -12 2087.79   58.69
  -1   7 -12    0.60    2.80
  -1   7 -12    1.60    4.10
  -2   7 -12  886.71   35.50
  -2   7 -12  872.31   33.80
  -3   7 -12  234.58   16.00
  -3   7 -12  243.38   17.40
   3  -7  12  244.08   19.20
  -4   7 -12 1344.57   47.10
   4  -7  12 1303.27   49.40
   5  -7  12  383.26   24.60
  -6   7 -12  342.87   22.60
   6  -7  12  339.47   26.10
   6  -7  12  313.77   23.50
   7  -7  12  399.46   29.20
   7  -7  12  410.16   27.40
   8  -7  12  141.49   21.80
   8  -7  12  105.09   18.20
   8   6 -12  350.26   27.60
   8   6 -12  380.86   28.80
   7   6 -12  385.76   28.20
   7   6 -12  352.76   30.80
   6   6 -12  698.83   36.30
   6   6 -12  650.93   33.20
  -6  -6  12  681.33   23.10
   5   6 -12   11.30    6.20
  -5  -6  12    5.50    3.60
   4   6 -12  622.34   29.40
   4   6 -12  651.33   32.30
  -4  -6  12  677.73   20.40
   3   6 -12    2.50    4.20
   3   6 -12   10.50    5.00
  -3  -6  12    7.40    3.00
   2   6 -12  757.62   32.60
   2   6 -12  777.62   30.30
  -2  -6  12  744.23   23.10
   1   6 -12    1.60    2.80
   1   6 -12    4.10    3.40
  -1  -6  12    3.90    3.00
   0   6 -12 1414.26   42.40
   0   6 -12 1609.84   50.09
   0   6 -12 1523.05   46.40
  -1   6 -12  378.56   18.80
  -1   6 -12  336.97   19.50
  -2   6 -12  336.07   19.00
  -2   6 -12  306.97   17.20
  -3   6 -12  650.53   28.10
   3  -6  12  677.63   30.80
  -4   6 -12  487.35   24.90
   4  -6  12  481.05   26.30
   5  -6  12 1029.20   44.10
   5  -6  12 1054.19   42.10
   6  -6  12  527.65   32.20
   6  -6  12  550.74   29.70
   7  -6  12  463.55   31.00
   7  -6  12  424.76   26.30
   8  -6  12   51.59   12.40
   8  -6  12   48.00   14.50
   9   5 -12  233.18   33.80
   9   5 -12  353.36   27.70
   8   5 -12  306.87   25.70
   8   5 -12  324.97   28.60
  -8  -5  12  274.07   18.30
   7   5 -12   97.59   14.40
   7   5 -12   85.09   14.10
  -7  -5  12   86.89   10.70
   6   5 -12  782.82   34.10
   6   5 -12  741.73   42.10
  -6  -5  12  753.32   27.30
   5   5 -12    0.50    4.20
   5   5 -12    3.60    4.50
  -5  -5  12    5.50    3.60
   4   5 -12  958.30   36.00
   4   5 -12 1031.70   40.40
  -4  -5  12  981.10   31.00
   3   5 -12  115.89   11.60
   3   5 -12  101.79    9.80
  -3  -5  12  113.49    8.40
   2   5 -12 1706.13   53.49
   2   5 -12 1689.73   49.80
  -2  -5  12 1630.54   45.80
   1   5 -12   42.30    6.10
   1   5 -12   39.40    8.50
   1   5 -12   51.99    7.80
  -1  -5  12   44.00    6.00
   0   5 -12 1542.25   48.40
   0   5 -12 1558.84   45.50
   0  -5  12 1525.25   45.30
  -1   5 -12  512.65   22.00
  -1   5 -12  469.75   22.00
  -2   5 -12  454.75   21.00
  -2   5 -12  448.76   21.50
  -3   5 -12 1484.75   47.10
   3  -5  12 1410.76   48.70
   4  -5  12  227.88   18.20
   4  -5  12  284.67   18.40
   5  -5  12  967.10   41.60
   5  -5  12  846.12   36.00
   6  -5  12  153.78   18.20
   6  -5  12  146.59   15.60
   7  -5  12  381.16   28.10
   7  -5  12  397.66   29.70
   8  -5  12    2.40    9.20
   8  -5  12   38.30   13.80
   9   4 -12   30.90   10.50
   9   4 -12   16.50   10.10
  -9  -4  12   10.50    8.50
   8   4 -12 1704.23   64.39
   8   4 -12 1692.13   59.29
  -8  -4  12 1696.33   53.69
   7   4 -12    4.60    5.50
   7   4 -12    5.40    6.10
  -7  -4  12   17.40    6.10
   6   4 -12 1074.99   44.60
   6   4 -12 1085.59   40.10
  -6  -4  12 1169.28   37.60
   5   4 -12   89.39    9.40
   5   4 -12   93.39   11.80
  -5  -4  12   88.29    8.50
   4   4 -12 2402.86   69.99
   4   4 -12 2311.07   64.29
  -4  -4  12 2231.68   61.79
   3   4 -12   12.20    4.70
   3   4 -12    6.50    3.60
  -3  -4  12   11.60    4.20
   2   4 -12 1025.60   36.00
   2   4 -12  975.50   32.30
  -2  -4  12 1023.00   33.00
   1   4 -12 1210.88   39.50
   1   4 -12 1171.58   35.60
  -1  -4  12 1150.98   37.10
   0   4 -12 1263.67   37.40
   0  -4  12 1206.58   39.70
  -1   4 -12  716.43   33.90
  -1   4 -12  849.02   28.10
   1  -4  12  778.12   30.40
  -2   4 -12  246.78   14.50
  -2   4 -12  265.57   15.90
   2  -4  12  244.78   15.90
   3  -4  12 1881.91   59.29
   3  -4  12 1848.12   56.69
   4  -4  12    3.80    4.60
   4  -4  12   27.60    7.00
   5  -4  12  875.81   35.00
   5  -4  12  869.71   39.40
   6  -4  12   11.90    7.20
   6  -4  12    5.70    5.90
   7  -4  12  475.25   32.20
   7  -4  12  476.65   26.10
   8  -4  12   37.60   12.90
   8  -4  12   37.90   11.40
  10   3 -12  451.55   29.70
  10   3 -12  443.66   46.90
 -10  -3  12  496.45   29.20
   9   3 -12   61.79   12.70
   9   3 -12   50.49   11.30
  -9  -3  12   56.79   12.60
   8   3 -12 1563.04   53.99
   8   3 -12 1607.34   60.79
  -8  -3  12 1619.54   52.69
   7   3 -12  108.19   11.80
   7   3 -12  107.89   14.10
  -7  -3  12  153.48   12.40
   6   3 -12  905.31   33.20
   6   3 -12  893.21   38.40
  -6  -3  12  937.21   38.30
   5   3 -12  502.75   21.40
   5   3 -12  502.35   25.70
  -5  -3  12  532.65   22.80
   4   3 -12 1493.65   43.40
   4   3 -12 1558.34   49.50
  -4  -3  12 1427.16   40.50
  -4  -3  12 1555.34   46.40
   3   3 -12 1059.89   36.30
   3   3 -12 1006.30   31.70
   3   3 -12  961.00   31.20
  -3  -3  12 1049.99   34.80
   2   3 -12 1775.82   52.09
   2   3 -12 1792.62   47.30
   2   3 -12 1648.64   47.60
  -2  -3  12 1759.02   50.99
   1   3 -12 1471.85   40.80
   1   3 -12 1489.25   44.50
   1   3 -12 1433.16   42.90
  -1  -3  12 1519.85   46.00
   0   3 -12  827.02   28.80
   0   3 -12  844.32   27.00
   0  -3  12  851.51   31.70
  -1   3 -12 2662.13   70.29
  -1   3 -12 2748.23   70.19
   1  -3  12 2682.33   93.09
  -2   3 -12  547.25   22.10
   2  -3  12  557.74   24.80
   2  -3  12  546.35   26.60
   3  -3  12  872.91   35.10
   3  -3  12  844.42   31.40
   4  -3  12   15.50    5.80
   4  -3  12   18.00    7.10
   5  -3  12 1154.08   47.10
   5  -3  12 1177.38   40.60
   6  -3  12    0.00    6.20
   6  -3  12    1.60    5.30
   7  -3  12  738.83   40.40
   7  -3  12  727.63   31.80
   8  -3  12  374.16   31.50
  10   2 -12 1138.09   46.40
  10   2 -12 1112.99   51.49
 -10  -2  12 1178.28   46.80
   9   2 -12   63.99   11.60
   9   2 -12   56.29   12.50
  -9  -2  12   56.99   11.30
   8   2 -12  926.81   41.50
   8   2 -12  932.01   35.70
  -8  -2  12  911.01   36.70
   7   2 -12  121.69   14.10
   7   2 -12  132.59   11.60
  -7  -2  12  151.08   13.30
   6   2 -12  802.72   28.40
   6   2 -12  822.32   34.60
  -6  -2  12  792.42   31.40
   5   2 -12  653.53   22.70
   5   2 -12  647.24   28.50
  -5  -2  12  693.43   27.30
  -5  -2  12  589.64   19.90
   4   2 -12  862.01   26.20
   4   2 -12  833.92   26.10
   4   2 -12  863.91   32.50
  -4  -2  12  907.61   32.60
   3   2 -12 2303.37   64.09
   3   2 -12 2296.87   58.49
   3   2 -12 2280.77   57.29
  -3  -2  12 2389.16   65.39
   2   2 -12 1259.87   38.30
   2   2 -12 1200.78   33.30
  -2  -2  12 1205.78   40.40
   1   2 -12 1572.84   44.60
   1   2 -12 1546.15   40.90
  -1  -2  12 1544.05   48.60
   0   2 -12  209.38   12.50
   0   2 -12  217.28   11.70
   0   2 -12  225.08   11.10
   0  -2  12  215.48   14.80
  -1   2 -12 2542.65   64.89
   1  -2  12 2601.84   73.99
   1  -2  12 2436.76   67.59
  -2   2 -12  181.78   10.80
   2  -2  12  208.38   14.20
   2  -2  12  177.58   14.90
   3  -2  12 1480.35   50.29
   3  -2  12 1540.35   45.20
   4  -2  12   81.79   11.50
   4  -2  12  101.29    8.90
   5  -2  12 1146.69   47.10
   6  -2  12   26.60    9.30
   6  -2  12   26.30    7.20
   7  -2  12  534.05   34.10
   7  -2  12  590.24   26.90
  11   1 -12   53.89   13.00
  11   1 -12   20.00   10.00
 -11  -1  12   46.50   12.90
  10   1 -12  832.42   42.50
  10   1 -12  780.32   35.40
 -10  -1  12  846.72   39.00
   9   1 -12  406.76   22.40
   9   1 -12  431.36   28.00
  -9  -1  12  448.56   26.00
   8   1 -12  668.93   27.40
   8   1 -12  701.13   34.10
  -8  -1  12  708.23   31.90
   7   1 -12  228.38   13.00
   7   1 -12  210.58   17.30
  -7  -1  12  235.68   16.70
   6   1 -12   46.10    8.10
   6   1 -12   50.39    5.90
  -6  -1  12   56.29    5.80
  -6  -1  12   56.79    8.60
   5   1 -12 1640.74   50.29
  -5  -1  12 1511.95   38.20
  -5  -1  12 1560.74   52.19
   4   1 -12  648.54   18.40
   4   1 -12  636.84   25.90
   4   1 -12  661.23   18.40
  -4  -1  12  648.44   27.10
   3   1 -12 1886.71   52.99
   3   1 -12 1928.11   45.30
   3   1 -12 1855.91   44.70
  -3  -1  12 1898.81   56.59
   2   1 -12   67.49    4.60
   2   1 -12   64.09    5.10
   2   1 -12   63.89    6.50
  -2  -1  12   71.59    8.80
   1   1 -12 2377.06   59.39
   1   1 -12 2218.08   60.09
   1   1 -12 2361.86   55.99
  -1  -1  12 2246.58   66.49
   0   1 -12    3.80    2.00
   0   1 -12    7.50    3.40
   0  -1  12    1.80    3.30
   0  -1  12    4.20    2.20
  -1   1 -12  939.41   27.50
  -1   1 -12  878.21   27.60
   1  -1  12  943.81   32.10
   1  -1  12  933.61   37.10
  -2   1 -12   94.99    7.00
  -2   1 -12   89.09    7.90
   2  -1  12   98.09   12.10
   2  -1  12   99.59    9.80
  -3   1 -12  642.54   21.90
   3  -1  12  649.04   29.50
   3  -1  12  670.63   33.10
   4  -1  12  190.88   11.90
   4  -1  12  188.38   16.80
   5  -1  12  623.14   33.30
   5  -1  12  636.64   24.50
   6  -1  12  291.77   24.50
   6  -1  12  258.37   20.80
   7  -1  12  191.68   21.40
  11   0 -12   86.19   16.80
  11   0 -12   92.19   15.60
 -11   0  12   87.49   16.40
  10   0 -12  194.68   16.80
  10   0 -12  222.28   21.20
 -10   0  12  232.18   20.40
   9   0 -12  671.13   34.70
   9   0 -12  687.63   28.00
  -9   0  12  670.43   32.90
   8   0 -12  543.85   22.10
   8   0 -12  521.35   28.50
  -8   0  12  561.64   28.30
   7   0 -12  855.51   26.20
   7   0 -12  799.02   34.40
  -7   0  12  852.91   34.50
  -7   0  12  760.12   23.20
   6   0 -12   62.69    4.80
   6   0 -12   59.39    9.10
  -6   0  12   71.39    9.80
  -6   0  12   62.29    4.00
   5   0 -12 1083.99   37.40
  -5   0  12 1100.19   39.30
   4   0 -12  147.79   10.70
  -4   0  12  161.68   13.10
   3   0 -12 2216.28   58.69
  -3   0  12 2166.98   71.59
   2   0 -12    2.10    2.10
   2   0 -12    1.10    1.10
   2   0 -12   -0.10    2.90
   2   0 -12    2.30    1.60
   1   0 -12 1424.06   37.50
   1   0 -12 1421.16   36.20
   1   0 -12 1404.66   38.20
  -1   0  12 1486.35   48.40
   0   0 -12 2712.33   66.49
   0   0 -12 2819.52   66.49
   0   0 -12 2761.82   69.99
   0   0  12 2862.51   80.49
   0   0  12 2756.02   70.29
  -1   0 -12 2010.70   48.50
  -1   0 -12 1921.91   48.90
   1   0  12 2015.50   63.59
   1   0  12 1991.10   56.19
  -2   0 -12  114.79    6.70
  -2   0 -12  134.09    7.50
   2   0  12  151.88   12.20
   2   0  12  129.29   13.90
  -3   0 -12 1114.39   30.20
   3   0  12 1117.19   42.00
   3   0  12 1112.69   46.40
   4   0  12  563.74   19.70
   4   0  12  553.34   29.40
   5   0  12  429.06   27.60
   5   0  12  426.46   17.60
   6   0  12  624.94   36.50
   7   0  12    8.10    9.90
  11  -1 -12  773.42   34.20
  11  -1 -12  774.92   41.50
 -11   1  12  895.51   42.20
  10  -1 -12  137.99   13.20
  10  -1 -12  116.79   16.40
 -10   1  12  159.28   17.20
   9  -1 -12  828.02   29.50
   9  -1 -12  815.92   39.90
  -9   1  12  786.22   36.80
   8  -1 -12  113.79   13.10
   8  -1 -12  117.79    8.60
  -8   1  12  113.59   13.40
   7  -1 -12 1815.32   58.29
   7  -1 -12 1869.51   44.70
  -7   1  12 1759.12   42.80
  -7   1  12 1945.11   60.49
   6  -1 -12   36.60    7.30
  -6   1  12   25.90    6.80
   5  -1 -12 2071.29   58.59
  -5   1  12 2013.80   61.89
   4  -1 -12  658.03   24.90
  -4   1  12  720.13   30.30
   3  -1 -12 4572.84  106.89
  -3   1  12 4606.94  116.49
  -3   1  12 4269.07  104.79
   2  -1 -12  282.27   12.70
   2  -1 -12  278.37   11.90
  -2   1  12  280.07   18.00
   1  -1 -12 1509.85   41.90
   1  -1 -12 1434.46   38.00
   1  -1 -12 1475.55   37.70
  -1   1  12 1537.75   50.69
  -1   1  12 1538.35   45.60
   0  -1 -12 1636.14   45.50
   0  -1 -12 1693.03   39.80
   0  -1 -12 1712.23   40.00
   0   1  12 1688.73   56.19
   0   1  12 1706.83   47.00
  -1  -1 -12  234.28    6.00
  -1  -1 -12  205.08    5.50
   1   1  12  196.98   16.50
   1   1  12  226.48   13.60
   2   1  12  919.41   40.20
   3   1  12  501.65   29.80
   3   1  12  469.45   25.50
  -4  -1 -12 1069.39   25.90
   4   1  12 1094.19   44.80
   5   1  12  165.58   19.00
   6   1  12 1457.45   60.39
  11  -2 -12 1141.39   50.59
  11  -2 -12 1206.68   55.39
 -11   2  12 1214.78   51.79
  10  -2 -12   48.60    9.10
  10  -2 -12   39.40    9.10
 -10   2  12   58.99   12.10
   9  -2 -12 1025.00   31.60
   9  -2 -12  987.60   42.30
  -9   2  12 1026.80   43.30
   8  -2 -12   70.19    7.10
   8  -2 -12   84.99   11.70
  -8   2  12   63.59    5.00
  -8   2  12   76.09   11.10
   7  -2 -12  764.72   32.20
  -7   2  12  829.02   35.10
   6  -2 -12   -1.80    2.90
  -6   2  12    2.00    3.70
   5  -2 -12 1812.42   51.99
  -5   2  12 1765.02   57.09
   4  -2 -12  855.51   28.40
  -4   2  12  877.81   35.40
   3  -2 -12 1671.03   43.80
  -3   2  12 1696.53   53.99
  -3   2  12 1564.94   42.30
   2  -2 -12 1589.24   41.00
  -2   2  12 1707.23   55.09
   1  -2 -12 1212.98   33.30
  -1   2  12 1278.07   45.90
  -1   2  12 1284.87   34.50
   0  -2 -12 1108.89   34.00
   0   2  12 1183.58   44.60
   0   2  12 1179.58   35.90
   1   2  12  984.60   35.00
   1   2  12  981.60   41.00
   2   2  12 1491.65   50.79
   2   2  12 1650.53   58.79
   3   2  12  409.86   27.60
   3   2  12  438.66   24.80
   4   2  12  938.61   42.00
   5   2  12   15.40    9.00
   6   2  12 1047.90   50.59
  12  -3 -12  146.49   20.40
 -12   3  12  197.38   31.80
  11  -3 -12  808.42   40.70
 -11   3  12  779.52   40.70
  10  -3 -12   26.90    9.50
  10  -3 -12   13.90    5.40
 -10   3  12   11.90    8.50
   9  -3 -12 1106.39   44.40
   8  -3 -12   39.60    8.70
  -8   3  12   53.29   10.30
   7  -3 -12 1218.28   42.60
  -7   3  12 1243.08   46.70
   6  -3 -12  117.99   10.30
  -6   3  12  125.49   12.90
   5  -3 -12 3272.07   82.49
  -5   3  12 3171.98   90.29
   4  -3 -12  734.73   24.10
  -4   3  12  751.12   32.70
  -4   3  12  669.43   22.50
   3  -3 -12 1161.98   31.10
  -3   3  12 1111.89   30.10
  -3   3  12 1199.38   43.60
   2  -3 -12  283.17    6.90
   2  -3 -12  254.67    6.60
   2  -3 -12  250.37    8.40
  -2   3  12  299.27   19.40
  -2   3  12  280.77    9.00
   1  -3 -12   63.19    6.00
  -1   3  12   76.89    6.80
  -1   3  12   79.09   10.30
   0   3  12  913.41   38.90
   0   3  12  923.81   31.50
   1   3  12  137.19   11.90
   1   3  12  138.09   15.10
   2   3  12 1751.62   56.79
   2   3  12 1733.33   62.79
   3   3  12    3.20    7.00
   3   3  12    4.40    6.10
   4   3  12  790.42   44.50
   5   3  12   12.90    9.90
  12  -4 -12    1.10    9.30
 -12   4  12    9.00   10.60
  11  -4 -12  773.22   39.00
 -11   4  12  758.92   40.20
  10  -4 -12    2.60    6.20
 -10   4  12   -1.80    6.20
   9  -4 -12  640.24   31.20
  -9   4  12  603.54   16.00
  -9   4  12  683.43   34.00
   8  -4 -12  110.29   12.30
  -8   4  12  101.99   13.60
   7  -4 -12  795.52   31.90
  -7   4  12  890.51   38.00
   6  -4 -12  149.39   11.60
  -6   4  12  138.59   13.90
   5  -4 -12  370.96   16.50
  -5   4  12  393.36   22.90
   4  -4 -12 1549.14   40.30
  -4   4  12 1485.95   52.19
  -4   4  12 1432.56   38.90
   3  -4 -12  478.35   14.10
  -3   4  12  513.65   26.80
   2  -4 -12  311.07   11.60
  -2   4  12  357.16   13.40
  -2   4  12  330.97   21.40
   1  -4 -12  113.29    8.50
  -1   4  12  117.19   12.90
  -1   4  12  119.99    9.10
   0   4  12  407.36   24.80
   0   4  12  379.06   19.00
   1   4  12   79.59   10.60
   1   4  12  104.59   13.50
   2   4  12  686.93   32.00
   3   4  12   -1.80    6.40
   3   4  12   -7.10    6.30
   4   4  12  319.87   24.80
   5   4  12  361.76   29.00
 -12   5  12  227.18   24.40
  11  -5 -12  604.94   33.90
 -11   5  12  586.84   35.40
  10  -5 -12  152.88   16.50
 -10   5  12  188.88   19.00
   9  -5 -12  535.75   28.20
  -9   5  12  537.35   30.90
   8  -5 -12  709.23   30.90
  -8   5  12  712.93   36.60
   7  -5 -12 1405.86   46.00
  -7   5  12 1482.05   53.79
   6  -5 -12  982.60   32.60
  -6   5  12  876.91   38.50
   5  -5 -12  195.28   11.20
  -5   5  12  204.08   16.90
   4  -5 -12  974.20   27.30
  -4   5  12 1011.40   40.90
  -4   5  12  962.80   26.70
  -3   5  12   11.60    5.70
  -3   5  12   15.70    2.90
  -3   5  12   11.40    2.70
   2  -5 -12 1013.00   30.30
  -2   5  12 1041.10   31.20
  -2   5  12 1075.99   42.70
  -1   5  12   -5.10    3.50
  -1   5  12    1.30    5.10
   0   5  12  928.81   34.50
   0   5  12  913.01   40.60
   1   5  12  195.58   19.00
   1   5  12  179.78   15.30
   2   5  12  742.43   35.20
   2   5  12  761.92   39.10
   3   5  12   72.69   14.70
   4   5  12   52.59   13.00
  11  -6 -12  295.87   24.30
 -11   6  12  327.37   27.20
  10  -6 -12  170.78   17.90
 -10   6  12  154.78   18.90
   9  -6 -12  168.28   15.80
  -9   6  12  122.09   16.10
   8  -6 -12  709.73   30.50
  -8   6  12  752.32   36.70
   7  -6 -12   12.20    4.80
  -7   6  12    7.70    5.60
   6  -6 -12 2119.99   58.69
  -6   6  12 2192.78   70.99
   5  -6 -12    0.40    2.70
  -5   6  12    3.60    5.10
  -4   6  12 1008.60   41.20
  -4   6  12  927.01   24.60
  -3   6  12    5.30    3.40
  -3   6  12    7.00    4.90
  -3   6  12    1.10    4.00
  -2   6  12  607.54   31.20
  -2   6  12  631.04   23.60
  -1   6  12   -0.70    4.90
  -1   6  12    5.90    5.20
   0   6  12  429.56   22.60
   0   6  12  414.66   30.80
   1   6  12  219.38   19.10
   1   6  12  282.27   22.90
   2   6  12  556.44   33.50
   2   6  12  562.54   31.30
   3   6  12  227.88   23.60
  11  -7 -12  257.67   22.10
 -11   7  12  228.08   25.20
  10  -7 -12  129.49   16.00
 -10   7  12  181.28   19.30
   9  -7 -12  259.07   19.20
  -9   7  12  269.87   22.90
   8  -7 -12  920.11   35.10
  -8   7  12  872.61   41.20
   7  -7 -12   34.60    7.00
  -7   7  12   23.30    8.10
   6  -7 -12  726.13   26.10
  -6   7  12  748.43   36.20
   5  -7 -12   38.50    6.00
  -5   7  12   25.50    8.30
  -4   7  12  770.32   23.90
  -4   7  12  799.22   37.40
  -3   7  12   15.70    7.70
  -3   7  12   22.10    5.80
  -2   7  12  774.52   29.10
  -2   7  12  776.92   36.60
  -1   7  12  274.47   17.80
  -1   7  12  277.67   23.40
   0   7  12  563.24   31.70
   0   7  12  532.05   27.30
   1   7  12  329.07   24.50
   1   7  12  335.57   24.00
   2   7  12  214.28   22.10
   2   7  12  225.98   23.20
  11  -8 -12  166.78   19.50
 -11   8  12  151.48   21.10
  10  -8 -12  147.99   17.00
 -10   8  12  188.58   21.10
   9  -8 -12   11.30    6.60
  -9   8  12    7.60    7.20
   8  -8 -12 1084.39   38.70
  -8   8  12 1039.30   46.70
   7  -8 -12   37.30    7.80
  -7   8  12   19.80    8.60
   6  -8 -12  626.74   23.20
  -6   8  12  628.84   34.00
   5  -8 -12   22.10    4.40
  -5   8  12   22.70    4.80
  -5   8  12   24.00    7.80
  -4   8  12  162.58   17.60
  -4   8  12  200.68   12.40
  -3   8  12  116.29   11.50
  -3   8  12  163.78   16.70
  -2   8  12  467.55   28.00
  -2   8  12  460.05   23.00
  -1   8  12  133.99   16.60
  -1   8  12  174.78   15.90
   0   8  12  237.58   22.10
   0   8  12  185.48   19.30
   1   8  12  308.57   25.00
   1   8  12  282.57   24.90
  10  -9 -12  430.76   26.30
 -10   9  12  472.35   47.30
   9  -9 -12   20.00    7.90
  -9   9  12    4.00    8.20
   8  -9 -12  257.57   17.60
  -8   9  12  241.38   22.80
   7  -9 -12  141.59   12.00
  -7   9  12  157.78   18.50
   6  -9 -12  721.73   35.20
  -6   9  12  671.33   36.20
  -5   9  12   56.89   13.40
  -5   9  12   35.50    7.30
  -4   9  12  181.58   18.40
  -4   9  12  199.78   14.80
  -3   9  12  339.77   24.20
  -3   9  12  284.07   18.80
  -2   9  12  436.36   28.60
  -2   9  12  488.05   25.60
  -1   9  12  219.88   20.30
  -1   9  12  251.47   21.70
   0   9  12  118.19   18.50
   0   9  12  124.69   19.60
   9 -10 -12  161.08   16.50
  -9  10  12  150.28   23.40
   8 -10 -12  216.88   18.80
  -8  10  12  216.28   22.40
  -7  10  12  178.98   20.30
  -6  10  12  268.67   23.20
  -5  10  12  212.38   21.10
  -4  10  12  156.68   18.70
  -3  10  12  213.88   19.20
  -3  10  12  230.38   21.10
  -2  10  12   36.80   11.90
  -2  10  12   27.10   10.40
  -7  11  12  107.29   18.50
  -6  11  12  166.48   20.70
  -5  11  12   64.19   14.50
  -4  11  12   49.20   12.20
   0  12 -13  163.88   19.90
   0  12 -13  171.98   20.40
  -1  12 -13  250.17   22.60
  -2  12 -13  402.56   27.20
  -3  12 -13   18.30   13.60
  -3  12 -13   28.60    9.30
  -4  12 -13  176.48   19.30
  -4  12 -13  158.28   20.40
   3  11 -13  185.68   20.90
   3  11 -13  137.89   20.80
   2  11 -13  227.18   23.20
   2  11 -13  202.98   21.30
   1  11 -13  101.29   16.80
   1  11 -13   71.89   14.90
   0  11 -13  425.56   27.10
   0  11 -13  400.56   27.20
  -1  11 -13  153.48   17.10
  -1  11 -13  129.59   16.90
  -2  11 -13  706.63   35.80
  -2  11 -13  821.92   38.50
  -3  11 -13   21.20    8.20
  -3  11 -13    1.60    6.30
  -4  11 -13  508.25   29.60
  -4  11 -13  470.45   30.40
  -5  11 -13   47.00   11.30
  -5  11 -13   74.39   15.40
   4  10 -13  250.57   37.30
   4  10 -13  219.28   21.80
   3  10 -13  329.37   25.90
   3  10 -13  373.86   26.90
   2  10 -13  550.94   32.00
   2  10 -13  569.34   32.40
   1  10 -13  204.08   18.80
   1  10 -13  242.58   20.70
   0  10 -13  413.56   26.20
   0  10 -13  385.86   24.70
  -1  10 -13    0.00    5.70
  -1  10 -13   -5.90    4.80
  -2  10 -13  776.12   35.70
  -2  10 -13  790.12   37.40
  -3  10 -13   -0.90    6.20
  -3  10 -13    5.20    6.10
  -4  10 -13  587.74   32.20
  -4  10 -13  559.74   30.20
  -5  10 -13  158.48   17.90
  -5  10 -13  172.88   17.90
   5 -10  13  138.19   19.30
  -6  10 -13  153.38   18.20
   6 -10  13  202.98   23.30
   5   9 -13  122.09   18.60
   5   9 -13  107.69   18.10
   4   9 -13  235.88   21.90
   4   9 -13  267.57   23.10
   3   9 -13  235.58   20.70
   3   9 -13  205.78   19.30
   2   9 -13  390.76   25.80
   1   9 -13   23.30    8.10
   1   9 -13   20.10    7.60
   0   9 -13  930.11   38.80
   0   9 -13  957.60   40.80
  -1   9 -13    3.20    5.40
  -1   9 -13   -2.80    4.40
  -2   9 -13  568.94   29.50
  -2   9 -13  501.35   30.80
  -3   9 -13   52.69   10.40
  -3   9 -13   61.49   10.20
  -4   9 -13  609.04   32.00
  -4   9 -13  655.63   31.80
  -5   9 -13   13.20    7.00
   5  -9  13   16.60    8.80
  -6   9 -13   88.59   14.20
   6  -9  13   53.49   12.60
  -7   9 -13  238.58   25.80
   7  -9  13  186.08   23.40
   6   8 -13  458.25   30.80
   6   8 -13  389.46   29.50
   5   8 -13   71.29   14.70
   5   8 -13  109.49   16.20
   4   8 -13  507.35   30.40
   4   8 -13  452.15   28.60
   3   8 -13   16.10    7.20
   3   8 -13    7.20    6.40
   2   8 -13  686.03   33.80
   2   8 -13  675.83   31.80
   1   8 -13   38.80    9.50
   1   8 -13   26.40    7.20
   0   8 -13 1330.17   46.70
   0   8 -13 1318.87   48.80
  -1   8 -13   92.69   11.90
  -1   8 -13   81.49   10.10
  -2   8 -13  587.24   27.60
  -2   8 -13  593.64   29.40
  -3   8 -13  220.48   17.00
  -3   8 -13  199.98   17.20
  -4   8 -13   38.20    9.00
  -4   8 -13   36.70    8.90
   4  -8  13   38.30   10.40
  -5   8 -13  306.27   21.10
   5  -8  13  292.67   23.20
  -6   8 -13  126.19   15.40
   6  -8  13  126.79   17.30
  -7   8 -13  482.55   29.70
   7  -8  13  490.15   31.70
   7   7 -13   30.30   11.30
   7   7 -13   27.00   11.20
   6   7 -13  595.44   35.60
   6   7 -13  697.13   35.80
   5   7 -13    0.70    5.60
   5   7 -13    1.20    6.20
   4   7 -13  461.05   28.00
   4   7 -13  436.46   25.60
   3   7 -13  362.46   23.80
   3   7 -13  407.86   23.00
   2   7 -13  976.60   40.10
   2   7 -13  948.71   36.90
   1   7 -13  456.85   23.40
   1   7 -13  491.45   25.90
   0   7 -13  695.13   24.40
   0   7 -13  753.92   30.20
   0   7 -13  799.02   33.70
  -1   7 -13  901.51   34.30
  -1   7 -13  926.71   37.10
  -2   7 -13  407.56   21.70
  -2   7 -13  396.76   22.70
  -3   7 -13  571.74   27.10
  -3   7 -13  637.04   29.50
  -4   7 -13  197.18   16.10
   4  -7  13  183.38   17.50
  -5   7 -13  309.57   21.10
   5  -7  13  275.07   30.80
  -6   7 -13  108.09   14.40
   6  -7  13   78.99   15.30
   7  -7  13  576.84   36.00
   7  -7  13  582.84   33.10
   8   6 -13  346.47   37.40
   8   6 -13  272.97   25.40
   7   6 -13   40.10   15.20
   7   6 -13   52.89   13.10
   6   6 -13  683.03   33.90
   6   6 -13  668.83   36.40
  -6  -6  13  699.33   24.10
   5   6 -13  101.99   13.20
   5   6 -13  107.89   16.40
  -5  -6  13  107.39    8.40
   4   6 -13  806.62   36.80
   4   6 -13  769.82   32.60
  -4  -6  13  758.22   24.00
   3   6 -13  146.29   13.90
   3   6 -13  149.39   13.10
  -3  -6  13  129.99    8.50
   2   6 -13  818.82   34.90
   2   6 -13  905.51   33.30
  -2  -6  13  817.92   26.40
   1   6 -13  901.01   33.00
   1   6 -13  860.61   35.10
  -1  -6  13  883.91   28.70
   0   6 -13  845.72   30.80
   0   6 -13  768.62   32.50
  -1   6 -13  881.81   34.90
  -1   6 -13  924.31   33.30
  -2   6 -13   38.50    8.10
  -2   6 -13   33.30    6.20
  -3   6 -13 1627.74   53.39
  -3   6 -13 1638.04   52.39
  -4   6 -13  326.07   20.00
   4  -6  13  292.77   20.80
   5  -6  13 1007.70   41.70
   5  -6  13 1006.30   56.09
   6  -6  13   12.80    8.10
   7  -6  13  723.53   36.30
   7  -6  13  721.63   40.30
   9   5 -13    8.00    9.90
   9   5 -13   19.70   11.30
   8   5 -13  700.83   39.90
  -8  -5  13  754.22   30.40
   7   5 -13   16.70    8.40
   7   5 -13   25.70    8.40
   6   5 -13  990.10   39.70
   6   5 -13  976.10   44.20
  -6  -5  13 1033.30   34.20
   5   5 -13  156.48   15.90
   5   5 -13  162.98   13.90
  -5  -5  13  175.28   11.70
   4   5 -13  634.84   30.60
   4   5 -13  608.54   26.70
  -4  -5  13  656.73   23.90
   3   5 -13  448.06   23.90
   3   5 -13  405.76   20.30
  -3  -5  13  418.66   17.90
   2   5 -13  276.87   15.30
   2   5 -13  252.87   17.00
  -2  -5  13  239.48   13.30
   1   5 -13 2431.56   69.29
   1   5 -13 2361.86   64.69
  -1  -5  13 2354.66   63.99
   0   5 -13  500.95   30.70
   0   5 -13  559.14   24.80
   0  -5  13  523.35   22.70
  -1   5 -13 1103.29   36.80
  -1   5 -13 1119.39   38.80
  -2   5 -13   64.69    8.10
  -2   5 -13   67.49    8.80
  -3   5 -13  235.28   15.70
  -3   5 -13  236.58   16.00
   4  -5  13    6.30    4.90
   4  -5  13   11.70    6.10
   5  -5  13  694.83   35.20
   5  -5  13  710.03   32.50
   6  -5  13   29.30   10.10
   6  -5  13   32.80   10.10
   7  -5  13  507.25   29.60
   7  -5  13  513.75   34.10
   9   4 -13  208.78   22.90
   9   4 -13  215.68   20.90
  -9  -4  13  194.78   19.10
   8   4 -13  539.65   29.20
   8   4 -13  504.25   32.40
  -8  -4  13  554.64   26.60
   7   4 -13  177.78   18.50
   7   4 -13  157.98   15.00
  -7  -4  13  175.48   14.30
   6   4 -13  864.11   39.60
   6   4 -13  930.61   35.00
  -6  -4  13  871.21   32.50
   5   4 -13   47.70    9.70
   5   4 -13   46.70    7.70
  -5  -4  13   49.40   10.00
   4   4 -13  818.02   34.60
   4   4 -13  798.82   29.70
  -4  -4  13  842.62   30.10
   3   4 -13  552.44   22.60
   3   4 -13  615.14   27.20
  -3  -4  13  546.35   22.80
   2   4 -13  139.49   10.10
   2   4 -13  141.39   11.90
  -2  -4  13  121.59   10.00
   1   4 -13  958.50   34.30
   1   4 -13  975.90   31.00
  -1  -4  13  902.91   32.70
   0   4 -13    9.00    3.70
   0   4 -13   12.80    3.80
   0  -4  13    8.40    4.10
  -1   4 -13  895.31   32.30
  -1   4 -13  902.71   31.10
   1  -4  13  948.41   35.50
  -2   4 -13   41.40    6.70
  -2   4 -13   53.99    7.90
  -3   4 -13 1242.98   41.30
   3  -4  13 1260.07   45.60
   4  -4  13   24.40    7.30
   4  -4  13   23.10    6.50
   5  -4  13  818.02   39.50
   5  -4  13  933.51   35.70
   6  -4  13   32.90    9.20
   6  -4  13   25.40    9.50
   7  -4  13  425.06   30.60
   7  -4  13  388.66   25.20
  10   3 -13  586.14   33.00
  10   3 -13  567.34   36.50
 -10  -3  13  583.34   32.40
   9   3 -13  129.09   18.40
   9   3 -13   98.29   15.30
  -9  -3  13  122.19   15.80
   8   3 -13  377.16   27.00
   8   3 -13  427.16   23.60
  -8  -3  13  450.45   24.10
   7   3 -13  394.66   21.10
   7   3 -13  524.45   44.10
  -7  -3  13  440.66   22.80
   6   3 -13  217.98   17.70
   6   3 -13  220.88   14.20
  -6  -3  13  233.48   15.50
   5   3 -13  614.84   24.10
   5   3 -13  659.33   30.50
  -5  -3  13  668.03   27.30
   4   3 -13  427.76   18.10
   4   3 -13  419.56   17.90
   4   3 -13  445.56   22.80
  -4  -3  13  474.85   21.50
   3   3 -13 2938.81   78.69
   3   3 -13 2752.12   71.89
   3   3 -13 2799.12   71.79
  -3  -3  13 2933.91   77.69
   2   3 -13    3.90    3.20
   2   3 -13    0.60    3.80
   2   3 -13   22.50    4.90
  -2  -3  13    5.80    3.10
   1   3 -13 1739.93   54.79
   1   3 -13 1761.82   51.59
   1   3 -13 1774.72   47.70
  -1  -3  13 1807.52   54.09
   0   3 -13   61.19    7.10
   0   3 -13   46.00    5.60
   0  -3  13   45.00    7.40
  -1   3 -13   66.69    7.20
  -1   3 -13   73.09    7.60
   1  -3  13   71.69    8.90
  -2   3 -13   83.69    8.20
   2  -3  13   68.69   10.20
   2  -3  13   92.59    9.90
   3  -3  13 1068.99   40.80
   4  -3  13  612.84   26.60
   4  -3  13  689.73   32.60
   5  -3  13  590.74   32.20
   5  -3  13  552.24   25.80
   6  -3  13  235.18   22.40
   6  -3  13  221.68   17.70
   7  -3  13  226.18   19.80
   7  -3  13  248.88   24.90
  10   2 -13  142.39   20.30
  10   2 -13  157.38   17.40
 -10  -2  13  161.48   18.80
   9   2 -13  467.75   24.90
   9   2 -13  448.16   30.30
  -9  -2  13  447.56   26.40
   8   2 -13  322.97   18.90
   8   2 -13  321.77   23.80
  -8  -2  13  332.67   21.20
   7   2 -13  560.24   30.10
   7   2 -13  557.24   23.50
  -7  -2  13  587.94   27.60
   6   2 -13  171.48   14.80
   6   2 -13  151.18   10.40
  -6  -2  13  122.99    8.80
  -6  -2  13  183.68   13.90
   5   2 -13  625.04   22.10
   5   2 -13  693.73   30.00
  -5  -2  13  692.33   28.50
   4   2 -13  113.09   10.80
   4   2 -13  110.89    7.20
   4   2 -13  106.09    7.40
  -4  -2  13  122.59   11.10
   3   2 -13  406.06   15.70
   3   2 -13  438.16   15.40
   3   2 -13  436.56   20.80
  -3  -2  13  469.15   22.40
   2   2 -13  500.05   17.30
   2   2 -13  482.55   18.10
   2   2 -13  528.75   21.60
  -2  -2  13  523.65   23.70
   1   2 -13 1021.40   32.80
   1   2 -13 1147.09   31.40
   1   2 -13 1075.49   34.30
  -1  -2  13 1122.19   40.60
   0   2 -13   89.09    7.20
   0   2 -13   91.89    8.00
   0  -2  13   96.79   10.50
  -1   2 -13  749.82   25.60
   1  -2  13  750.92   28.40
   1  -2  13  765.92   33.30
  -2   2 -13   12.60    3.70
   2  -2  13   20.00    5.60
   2  -2  13   13.40    7.70
  -3   2 -13  774.52   26.40
   3  -2  13  723.93   32.10
   4  -2  13  435.96   20.20
   4  -2  13  418.16   25.10
   5  -2  13  423.06   21.00
   5  -2  13  416.56   26.60
   6  -2  13  353.86   26.70
   6  -2  13  326.37   19.60
   7  -2  13    4.70    9.10
 -11  -1  13  152.98   20.00
  10   1 -13   16.70    8.60
  10   1 -13   23.00    9.80
 -10  -1  13   26.70   10.50
   9   1 -13  496.05   24.00
   9   1 -13  475.75   30.10
  -9  -1  13  470.05   27.30
   8   1 -13  254.67   15.30
  -8  -1  13  238.68   18.50
   7   1 -13  918.51   29.60
   7   1 -13  943.71   39.30
  -7  -1  13  944.51   37.50
  -7  -1  13  881.91   26.60
   6   1 -13  142.59    8.50
   6   1 -13  129.19   12.60
  -6  -1  13  143.79    7.30
  -6  -1  13  141.69   13.20
   5   1 -13 2669.33   62.99
   5   1 -13 2714.03   63.29
   5   1 -13 2747.03   76.19
  -5  -1  13 2702.33   76.99
   4   1 -13    3.10    3.30
   4   1 -13    1.80    1.30
  -4  -1  13    1.30    2.90
   3   1 -13  992.20   25.10
   3   1 -13  966.20   24.60
   3   1 -13 1020.50   33.70
  -3  -1  13 1051.29   37.90
   2   1 -13    9.40    2.60
   2   1 -13    2.80    2.70
   2   1 -13    4.30    1.70
  -2  -1  13    6.40    3.90
   1   1 -13  554.04   19.50
   1   1 -13  573.44   20.70
   1   1 -13  555.14   17.90
  -1  -1  13  550.64   26.20
   0   1 -13  375.36   16.90
   0   1 -13  364.16   15.70
   0   1 -13  374.26   15.20
   0  -1  13  360.36   16.00
   0  -1  13  363.06   21.20
  -1   1 -13  745.83   23.40
  -1   1 -13  700.23   23.80
   1  -1  13  737.63   27.70
   1  -1  13  717.53   33.00
  -2   1 -13  389.76   16.70
  -2   1 -13  431.36   16.20
   2  -1  13  450.25   26.10
  -3   1 -13   54.49    6.30
   3  -1  13   76.69   12.00
   3  -1  13   60.29   10.20
  -4   1 -13  826.12   26.10
   4  -1  13  721.73   35.10
   5  -1  13  148.79   12.40
   5  -1  13  175.38   18.90
   6  -1  13  343.17   26.60
   7  -1  13   55.19   15.10
 -11   0  13  597.14   34.50
  10   0 -13    9.60    7.30
  10   0 -13    1.40    7.20
 -10   0  13   19.50    8.20
   9   0 -13  824.52   30.10
   9   0 -13  786.42   38.70
  -9   0  13  849.41   37.90
   8   0 -13   81.39    8.50
   8   0 -13   85.19   12.50
  -8   0  13   71.59   11.50
   7   0 -13  955.30   37.50
  -7   0  13  878.41   36.80
  -7   0  13  842.92   22.90
   6   0 -13   -0.20    3.80
  -6   0  13    4.30    4.10
   5   0 -13  834.32   31.40
  -5   0  13  789.12   33.40
   4   0 -13 1344.37   41.70
  -4   0  13 1314.07   46.10
   3   0 -13  873.41   29.00
  -3   0  13  818.52   34.10
   2   0 -13  239.68   14.80
   2   0 -13  257.27   12.50
   2   0 -13  229.38    7.30
  -2   0  13  246.98   16.80
   1   0 -13 1277.47   32.60
   1   0 -13 1253.67   34.60
   1   0 -13 1163.68   34.60
   1   0 -13 1228.28   33.60
  -1   0  13 1303.17   45.60
   0   0 -13  158.88   10.60
   0   0 -13  185.18    8.80
   0   0 -13  178.68    9.20
   0   0  13  181.28   10.80
   0   0  13  189.98   15.60
  -1   0 -13  735.13   22.60
  -1   0 -13  794.52   22.50
   1   0  13  848.52   36.50
   1   0  13  801.22   29.30
  -2   0 -13  312.97   11.50
   2   0  13  313.17   18.40
   2   0  13  318.37   22.50
  -3   0 -13   38.90    4.70
   3   0  13   46.80   11.70
   3   0  13   44.30    9.00
  -4   0 -13  719.83   21.50
   4   0  13  746.23   35.10
   5   0  13   58.19   12.40
   6   0  13  516.55   34.10
  11  -1 -13  274.07   24.30
 -11   1  13  312.87   25.80
  10  -1 -13    3.20    6.40
  10  -1 -13   -9.70    5.90
 -10   1  13    0.60    6.90
   9  -1 -13  816.62   38.40
   9  -1 -13  795.62   26.90
  -9   1  13  864.41   51.39
   8  -1 -13   -1.60    3.00
   8  -1 -13   11.90    6.30
  -8   1  13   -6.70    4.50
  -8   1  13    3.50    3.00
   7  -1 -13 1399.16   49.20
  -7   1  13 1470.45   51.69
   6  -1 -13  330.97   18.80
  -6   1  13  298.27   19.70
  -5   1  13 1575.74   53.09
   4  -1 -13  386.96   18.30
  -4   1  13  438.06   23.30
   3  -1 -13  818.62   26.60
  -3   1  13  757.92   33.30
   2  -1 -13  867.01   26.20
  -2   1  13  869.81   36.00
   1  -1 -13 1089.99   30.00
   1  -1 -13 1064.29   29.20
   1  -1 -13 1127.29   29.90
  -1   1  13 1114.89   42.50
  -1   1  13 1162.48   31.60
   0  -1 -13 1058.59   33.40
   0  -1 -13 1149.58   27.50
   0  -1 -13 1150.08   27.40
   0   1  13 1132.49   44.10
   0   1  13 1162.38   34.90
   1   1  13  504.75   27.90
   1   1  13  466.85   21.60
   2   1  13 1410.76   47.40
   2   1  13 1377.96   53.69
   3   1  13   90.79   12.20
   3   1  13   92.69   21.70
   4   1  13  954.40   41.80
   5   1  13    6.20    7.60
   6   1  13  310.87   26.90
  11  -2 -13  342.97   26.10
 -11   2  13  305.37   25.40
  10  -2 -13    3.30    7.00
 -10   2  13   13.20    7.00
   9  -2 -13 1010.10   46.90
  -9   2  13  993.50   43.30
   8  -2 -13   59.19   10.60
  -8   2  13   67.39   11.20
   7  -2 -13  440.66   23.30
  -7   2  13  467.55   26.00
   6  -2 -13 1040.60   37.40
  -6   2  13 1089.69   42.10
   5  -2 -13  441.96   20.10
  -5   2  13  478.75   25.40
   4  -2 -13 1035.20   32.30
  -4   2  13  979.30   39.50
   3  -2 -13  624.34   22.50
   3  -2 -13  720.83   22.60
  -3   2  13  691.73   31.50
   2  -2 -13  487.05   15.30
  -2   2  13  456.85   25.20
   1  -2 -13  139.79    7.90
  -1   2  13  134.09    8.00
  -1   2  13  128.89   13.30
   0   2  13 1403.96   41.50
   0   2  13 1368.76   51.19
   1   2  13  296.07   17.00
   1   2  13  339.97   22.80
   2   2  13  777.82   38.10
   2   2  13  753.92   32.40
   3   2  13    2.20    9.40
   3   2  13    2.60    5.90
   4   2  13  788.22   38.50
   5   2  13   88.89   17.20
  11  -3 -13  311.77   25.30
 -11   3  13  424.86   29.20
  10  -3 -13   63.59   12.90
 -10   3  13   37.30   10.50
   9  -3 -13  864.01   42.90
  -9   3  13 1025.90   43.70
   8  -3 -13  198.58   16.00
  -8   3  13  158.08   16.30
   7  -3 -13  870.31   34.00
  -7   3  13  829.22   37.40
   6  -3 -13   17.50    5.40
  -6   3  13   16.20    6.20
   5  -3 -13  160.48   11.10
  -5   3  13  174.18   15.60
   4  -3 -13  785.02   24.90
  -4   3  13  700.03   23.40
  -4   3  13  750.32   33.80
   3  -3 -13  630.14   19.10
   3  -3 -13  601.94   19.50
  -3   3  13  656.53   31.20
  -2   3  13  415.06   11.00
  -2   3  13  422.36   24.30
   1  -3 -13   77.19    7.00
  -1   3  13   78.09    7.00
  -1   3  13   64.49   10.60
   0   3  13 1114.59   45.80
   0   3  13 1187.58   37.80
   1   3  13   74.19   12.20
   2   3  13  759.22   32.80
   2   3  13  701.73   37.10
   3   3  13   70.39   14.30
   3   3  13   81.19   13.30
   4   3  13  305.87   24.50
   5   3  13   93.69   18.90
  11  -4 -13  642.24   35.20
 -11   4  13  598.74   36.00
  10  -4 -13  154.28   17.30
 -10   4  13  140.99   17.20
   9  -4 -13  712.03   33.80
  -9   4  13  805.32   38.40
   8  -4 -13  526.55   26.30
  -8   4  13  531.05   40.70
   7  -4 -13  192.48   14.40
  -7   4  13  179.58   16.60
  -6   4  13  350.76   22.90
   5  -4 -13  127.89    9.40
  -5   4  13  128.29   14.20
   4  -4 -13  722.93   22.50
  -4   4  13  702.03   33.30
   3  -4 -13   25.90    2.40
  -3   4  13   24.10    8.20
   2  -4 -13  793.52   22.40
  -2   4  13  862.11   37.50
  -2   4  13  855.11   23.60
   1  -4 -13    0.90    3.90
  -1   4  13   -0.90    4.20
  -1   4  13    3.90    3.60
   0   4  13  407.06   19.90
   0   4  13  387.66   25.40
   1   4  13  101.29   11.90
   2   4  13  486.25   30.80
   2   4  13  479.65   26.50
   3   4  13   44.70   12.00
   3   4  13   17.90    9.70
   4   4  13   93.09   18.10
  11  -5 -13  237.68   21.70
 -11   5  13  217.78   22.10
  10  -5 -13  529.95   29.50
 -10   5  13  484.45   30.80
   9  -5 -13  365.86   23.00
  -9   5  13  379.66   26.50
   8  -5 -13  456.55   23.60
  -8   5  13  458.05   28.00
   7  -5 -13   46.70    8.50
  -7   5  13   67.49   11.50
   6  -5 -13  519.75   21.80
  -6   5  13  560.94   30.10
   5  -5 -13    5.70    2.80
  -5   5  13    4.00    5.00
   4  -5 -13  916.31   24.80
  -4   5  13  923.51   39.80
  -4   5  13  885.61   24.10
  -3   5  13   65.79   10.80
  -2   5  13  736.83   34.70
  -2   5  13  691.83   22.90
  -1   5  13  218.38   13.60
  -1   5  13  221.28   19.30
   1   5  13  371.66   22.00
   1   5  13  366.16   26.30
   2   5  13  312.57   22.70
   2   5  13  361.46   27.40
   3   5  13  352.66   26.50
  11  -6 -13   89.09   15.90
 -11   6  13  136.29   20.70
  10  -6 -13  377.06   25.20
 -10   6  13  462.65   30.60
   9  -6 -13   43.90    9.60
  -9   6  13   62.89   12.70
   8  -6 -13  908.61   35.20
  -8   6  13  872.31   41.20
   7  -6 -13   61.19    9.00
  -7   6  13   66.79   12.50
   6  -6 -13  754.52   26.80
  -6   6  13  761.72   37.90
   5  -6 -13  156.38    9.50
  -5   6  13  194.48   18.30
  -4   6  13 1332.27   51.69
  -3   6  13   17.40    5.40
  -3   6  13   20.90    8.00
  -3   6  13   16.70    4.70
  -2   6  13  798.22   27.50
  -2   6  13  790.32   37.50
  -1   6  13  415.26   20.70
  -1   6  13  407.16   26.40
   0   6  13  365.96   26.10
   0   6  13  367.06   21.80
   1   6  13  361.06   26.80
   1   6  13  375.46   24.70
   2   6  13  154.78   20.10
   2   6  13  155.48   20.10
   3   6  13  160.78   21.70
  11  -7 -13   50.99   12.60
 -11   7  13   50.19   13.80
  10  -7 -13  455.75   26.50
 -10   7  13  408.16   29.20
   9  -7 -13   11.00    7.20
  -9   7  13    6.60    7.50
   8  -7 -13  526.45   25.30
  -8   7  13  562.24   32.60
   7  -7 -13   18.60    5.60
  -7   7  13   10.80    8.00
   6  -7 -13  568.44   21.80
  -6   7  13  623.74   34.00
   5  -7 -13   20.90    3.90
  -5   7  13   23.80    8.40
  -4   7  13  514.75   14.80
  -4   7  13  563.24   31.80
  -3   7  13  143.49   16.30
  -3   7  13  158.28   10.70
  -2   7  13  626.14   25.20
  -2   7  13  608.84   33.40
  -1   7  13  140.69   14.10
  -1   7  13  162.28   17.40
   0   7  13  171.78   17.30
   0   7  13  159.08   18.30
   1   7  13  533.25   33.10
   1   7  13  542.25   31.00
   2   7  13  311.57   26.80
   2   7  13  302.67   27.30
  10  -8 -13  452.75   26.80
 -10   8  13  466.35   35.50
  -9   8  13   15.50    8.90
   8  -8 -13  565.14   25.80
  -8   8  13  544.15   32.90
   7  -8 -13   26.10    5.90
  -7   8  13   23.40   10.50
  -6   8  13  584.14   33.50
  -5   8  13  158.48   18.20
  -4   8  13  694.73   36.70
  -4   8  13  699.13   31.10
  -3   8  13  262.97   15.60
  -3   8  13  280.67   22.30
  -2   8  13  231.58   21.10
  -2   8  13  222.58   16.80
  -1   8  13  128.19   17.40
  -1   8  13  118.09   15.50
   0   8  13   53.79   13.00
   0   8  13   48.00   13.10
   9  -9 -13  140.39   15.70
  -9   9  13  129.09   19.80
   8  -9 -13  280.77   18.20
  -8   9  13  303.27   25.70
   7  -9 -13  150.08   13.60
  -7   9  13  133.59   19.00
  -6   9  13  213.08   21.40
  -5   9  13  381.66   27.70
  -4   9  13  163.58   18.50
  -3   9  13  404.56   28.00
  -2   9  13   74.89   15.70
  -2   9  13   84.39   14.90
  -1   9  13  226.28   22.80
  -1   9  13  241.28   22.00
  -8  10  13  154.78   24.60
  -7  10  13  282.87   25.00
  -6  10  13  183.88   21.20
  -5  10  13  346.57   27.80
  -4  10  13   25.70    9.90
  -3  10  13  442.56   30.30
  -2  12 -14  325.57   34.50
   2  11 -14  168.28   20.40
   2  11 -14  179.78   21.50
   1  11 -14   23.00    9.70
   1  11 -14    3.00    8.20
   0  11 -14  259.77   22.30
   0  11 -14  302.47   24.20
  -1  11 -14  227.28   21.00
  -1  11 -14  183.98   19.10
  -2  11 -14  440.76   28.80
  -2  11 -14  411.86   27.20
  -3  11 -14   42.00   11.10
  -3  11 -14   44.20   11.60
  -4  11 -14  368.76   30.90
  -4  11 -14  415.76   27.60
   4  10 -14  249.88   24.40
   4  10 -14  229.18   24.90
   3  10 -14  104.89   15.90
   3  10 -14  129.59   17.30
   2  10 -14  319.87   24.40
   2  10 -14  260.77   22.40
   1  10 -14    9.40    7.90
   1  10 -14   13.70    8.60
   0  10 -14  205.28   19.00
   0  10 -14  218.08   20.20
  -1  10 -14   20.20    7.50
  -1  10 -14    7.30    7.10
  -2  10 -14  138.99   15.20
  -2  10 -14  155.78   16.70
  -3  10 -14   55.69   11.80
  -3  10 -14   34.00    9.30
  -4  10 -14  259.47   22.20
  -4  10 -14  255.37   20.80
  -5  10 -14  129.59   17.20
  -5  10 -14  199.28   20.50
   5   9 -14   14.20   14.00
   5   9 -14   49.30   12.80
   4   9 -14  213.08   20.90
   4   9 -14  193.38   20.90
   3   9 -14   -9.90    6.40
   3   9 -14    4.40    7.10
   2   9 -14  540.95   30.00
   2   9 -14  537.25   31.20
   1   9 -14  129.79   15.80
   0   9 -14  238.68   20.30
   0   9 -14  282.47   26.00
  -1   9 -14   94.39   13.90
  -1   9 -14   89.69   16.30
  -2   9 -14  354.16   22.50
  -2   9 -14  457.55   26.70
  -3   9 -14   -1.60    6.20
  -3   9 -14    9.90    5.60
  -4   9 -14  123.09   14.20
  -4   9 -14  136.29   16.90
  -5   9 -14  236.18   20.20
  -5   9 -14  238.08   21.10
  -6   9 -14    3.50    7.70
   6  -9  14   11.80   10.20
   6   8 -14  337.37   26.80
   5   8 -14   23.40   10.10
   5   8 -14   12.70    8.60
   4   8 -14  558.34   33.10
   3   8 -14   10.90    5.90
   3   8 -14   12.00    7.40
   2   8 -14  488.65   26.90
   2   8 -14  544.95   29.70
   1   8 -14    3.90    5.30
   1   8 -14    4.40    5.90
   0   8 -14   18.90    6.50
   0   8 -14   29.00   10.60
  -1   8 -14  203.78   15.80
  -2   8 -14  122.19   16.40
  -2   8 -14  128.39   13.30
  -3   8 -14  357.26   23.30
  -3   8 -14  352.06   28.60
  -4   8 -14  333.47   22.50
  -4   8 -14  307.97   20.90
  -5   8 -14  368.36   24.10
  -5   8 -14  318.27   23.50
   5  -8  14  318.37   25.00
  -6   8 -14   23.00    9.40
   6  -8  14   15.80   10.10
   7   7 -14   -1.70   10.10
   7   7 -14   12.60   11.60
   6   7 -14  433.56   28.30
   6   7 -14  356.36   27.80
   5   7 -14  142.29   16.00
   5   7 -14  120.79   16.40
   4   7 -14  675.53   32.90
   4   7 -14  746.53   36.80
   3   7 -14  619.84   32.10
   3   7 -14  650.63   30.10
   2   7 -14  379.36   21.50
   2   7 -14  380.86   24.00
   1   7 -14  387.66   23.40
   1   7 -14  373.16   21.00
   0   7 -14  508.35   24.40
   0   7 -14  568.84   28.20
  -1   7 -14  436.36   24.60
  -1   7 -14  494.05   24.10
  -2   7 -14  108.99   12.90
  -2   7 -14  109.69   11.80
  -3   7 -14  888.61   37.40
  -3   7 -14  927.01   36.70
  -4   7 -14   31.70    8.60
  -4   7 -14   54.49   16.00
  -5   7 -14  398.56   24.30
   5  -7  14  357.46   25.70
  -6   7 -14   11.60    7.70
   6  -7  14   14.50   10.10
  -7   7 -14  729.23   45.70
   7  -7  14  605.14   35.50
   7  -7  14  588.04   41.50
   8   6 -14  320.67   27.40
   8   6 -14  365.36   29.80
   7   6 -14   76.89   15.40
   6   6 -14  616.94   31.60
   6   6 -14  712.63   37.50
  -6  -6  14  637.54   25.50
   5   6 -14  200.18   17.00
   5   6 -14  187.28   18.90
  -5  -6  14  212.38   12.00
   4   6 -14  705.53   31.30
  -4  -6  14  726.33   23.90
   3   6 -14  361.66   20.60
   3   6 -14  355.66   22.70
  -3  -6  14  313.47   14.50
   2   6 -14   10.40    5.00
   2   6 -14    7.90    3.60
  -2  -6  14    8.60    3.90
   1   6 -14  559.34   24.80
   1   6 -14  562.84   27.50
  -1  -6  14  540.15   21.90
   0   6 -14  242.78   17.10
   0   6 -14  246.48   15.40
  -1   6 -14 1198.28   42.40
  -1   6 -14 1126.69   39.50
  -2   6 -14  325.87   18.90
  -2   6 -14  341.67   20.00
  -3   6 -14 1021.90   38.10
  -3   6 -14  995.00   38.70
  -4   6 -14   13.00    6.30
  -4   6 -14   25.60    7.70
   4  -6  14   23.60    7.60
  -5   6 -14  384.56   23.50
   5  -6  14  394.66   25.50
   5  -6  14  348.37   25.60
   6  -6  14   39.90   11.10
   6  -6  14   11.10    9.70
   7  -6  14  429.06   29.40
   7  -6  14  462.75   32.70
   8   5 -14  351.56   29.80
   8   5 -14  347.27   28.20
  -8  -5  14  421.66   34.60
   7   5 -14   99.49   15.60
   7   5 -14  111.19   14.80
  -7  -5  14   89.89   12.20
   6   5 -14  468.55   25.30
   6   5 -14  497.15   30.30
  -6  -5  14  481.05   21.70
   5   5 -14  374.26   21.40
   5   5 -14  543.95   42.80
  -5  -5  14  424.06   19.50
   4   5 -14  494.55   23.70
   4   5 -14  541.15   28.50
  -4  -5  14  539.65   21.60
   3   5 -14  838.22   32.50
   3   5 -14  853.61   35.40
  -3  -5  14  789.82   28.70
   2   5 -14  820.52   30.20
   2   5 -14  810.42   33.80
  -2  -5  14  837.12   29.40
   1   5 -14  625.04   28.20
   1   5 -14  601.94   27.30
  -1  -5  14  575.84   24.20
   0   5 -14  271.77   16.90
   0   5 -14  241.98   14.40
   0  -5  14  256.67   16.10
  -1   5 -14  927.01   34.70
  -1   5 -14  938.61   33.20
  -2   5 -14   92.29    9.90
  -2   5 -14  105.69   11.10
  -3   5 -14 1227.08   42.60
  -3   5 -14 1237.88   43.40
  -4   5 -14   15.10    5.40
   4  -5  14   20.10    6.80
   4  -5  14   17.40    7.80
   5  -5  14  525.85   30.90
   5  -5  14  520.25   27.80
   6  -5  14  104.39   16.50
   6  -5  14  114.89   15.80
   7  -5  14  276.47   24.20
   7  -5  14  276.07   25.80
   9   4 -14    7.80   12.70
  -9  -4  14    4.40    9.70
   8   4 -14  432.76   29.90
   8   4 -14  480.95   26.60
  -8  -4  14  449.95   24.40
   7   4 -14  436.06   24.10
   7   4 -14  556.44   31.80
  -7  -4  14  491.45   24.30
   6   4 -14  292.27   24.10
   6   4 -14  263.37   17.00
  -6  -4  14  302.07   17.90
   5   4 -14  458.65   21.40
   5   4 -14  480.35   26.90
  -5  -4  14  470.45   22.00
   4   4 -14   26.20    7.90
   4   4 -14   32.20    6.60
  -4  -4  14   34.10    6.90
   3   4 -14  528.05   25.70
   3   4 -14  528.65   21.90
  -3  -4  14  537.45   23.20
   2   4 -14   48.20    6.50
   2   4 -14   55.99    8.50
  -2  -4  14   50.59    7.60
   1   4 -14 1531.25   43.10
   1   4 -14 1411.96   46.30
  -1  -4  14 1384.96   46.00
   0   4 -14   50.39    7.60
   0   4 -14   49.99    6.50
   0  -4  14   59.69    8.90
  -1   4 -14  560.84   22.80
  -1   4 -14  535.95   23.60
   1  -4  14  503.25   25.80
  -2   4 -14   61.09    8.50
  -2   4 -14   52.79    7.80
  -3   4 -14 1260.77   41.40
   3  -4  14 1223.88   45.60
  -4   4 -14   27.30    6.40
   4  -4  14   27.00    7.50
   4  -4  14   44.80    9.90
   5  -4  14  279.27   23.10
   5  -4  14  294.07   19.90
   6  -4  14  181.18   20.60
   6  -4  14  224.18   19.70
   7  -4  14  320.07   28.90
   7  -4  14  297.97   27.30
   9   3 -14   80.99   14.50
   9   3 -14  109.59   17.10
  -9  -3  14  103.09   15.60
   8   3 -14  117.79   12.90
   8   3 -14   87.29   15.20
  -8  -3  14  122.29   14.50
   7   3 -14  653.53   34.50
  -7  -3  14  644.24   29.30
   6   3 -14   20.20    7.10
   6   3 -14   18.80    5.60
  -6  -3  14   27.80    7.30
   5   3 -14 1030.10   40.80
   5   3 -14 1009.00   32.80
  -5  -3  14 1063.49   38.10
   4   3 -14  192.08   14.70
   4   3 -14  215.88   11.70
   4   3 -14  194.98   12.10
   3   3 -14  363.56   19.80
   3   3 -14  356.96   15.40
   3   3 -14  338.07   15.90
  -3  -3  14  336.07   22.00
   2   3 -14   55.19    7.50
   2   3 -14   38.70    5.40
   2   3 -14   33.40    7.20
  -2  -3  14   64.59   10.50
   1   3 -14 1513.75   45.80
   1   3 -14 1442.16   41.20
  -1  -3  14 1488.85   48.70
   0   3 -14  128.69    8.80
   0  -3  14  107.99   11.50
  -1   3 -14 1110.79   35.40
  -1   3 -14 1076.99   36.40
   1  -3  14 1063.69   41.40
   2  -3  14  440.86   25.70
   2  -3  14  444.66   22.80
  -3   3 -14  780.92   29.00
   3  -3  14  831.62   35.00
  -4   3 -14  398.36   19.60
   4  -3  14  408.26   25.40
   5  -3  14  201.98   16.50
   5  -3  14  226.48   20.70
   6  -3  14  317.57   21.10
   6  -3  14  326.17   26.50
   7  -3  14   25.70   13.10
  10   2 -14  338.87   44.40
 -10  -2  14  301.17   24.20
   9   2 -14  686.93   37.80
   9   2 -14  635.14   28.90
  -9  -2  14  614.04   32.10
   8   2 -14  135.99   17.30
   8   2 -14  142.99   12.60
  -8  -2  14  137.49   15.10
   7   2 -14  813.42   37.80
   7   2 -14  836.12   29.20
  -7  -2  14  811.62   34.30
   6   2 -14    4.30    5.00
   6   2 -14    2.00    3.50
  -6  -2  14    0.10    4.10
   5   2 -14  784.92   24.30
   5   2 -14  721.93   23.70
   5   2 -14  857.61   34.20
  -5  -2  14  814.32   32.90
   4   2 -14   54.79    8.20
   4   2 -14   58.49    6.10
   4   2 -14   54.19    5.30
  -4  -2  14   53.59    8.40
   3   2 -14  871.21   32.20
   3   2 -14  853.71   25.70
   3   2 -14  892.01   25.30
  -3  -2  14  891.41   34.80
   2   2 -14  307.97   12.70
   2   2 -14  332.47   17.10
   2   2 -14  331.17   14.20
  -2  -2  14  327.87   19.30
   1   2 -14  681.23   24.50
   1   2 -14  709.13   25.90
   1   2 -14  732.63   22.90
  -1  -2  14  705.63   30.60
   0   2 -14  941.11   29.30
   0   2 -14  938.81   30.70
   0  -2  14  953.10   37.90
  -1   2 -14  772.42   26.50
   1  -2  14  780.12   35.10
   1  -2  14  813.22   29.90
  -2   2 -14  814.72   27.60
   2  -2  14  842.22   33.10
   2  -2  14  841.02   37.90
  -3   2 -14  148.69   10.30
   3  -2  14  132.79   13.80
  -4   2 -14  841.42   29.10
   4  -2  14  886.51   38.60
   5  -2  14  260.47   21.70
   6  -2  14  471.85   31.60
  10   1 -14   62.79   14.80
 -10  -1  14   73.89   14.70
   9   1 -14  787.02   39.60
   9   1 -14  716.73   29.10
  -9  -1  14  892.61   57.09
   8   1 -14    3.10    4.20
   8   1 -14    9.10    6.40
  -8  -1  14    4.40    5.30
   7   1 -14 1196.38   34.00
   7   1 -14 1201.18   46.50
  -7  -1  14 1217.58   45.30
   6   1 -14   18.90    3.10
   6   1 -14    8.80    5.30
   6   1 -14   19.80    3.80
  -6  -1  14   19.20    6.60
   5   1 -14 1237.48   43.40
  -5  -1  14 1296.47   46.00
   4   1 -14   22.50    5.60
  -4  -1  14   18.20    6.00
   3   1 -14  921.21   32.20
   3   1 -14  905.71   21.60
  -3  -1  14 1002.00   37.70
   2   1 -14  300.77   10.60
   2   1 -14  291.27   11.10
   2   1 -14  292.27   15.00
  -2  -1  14  283.87   18.60
   1   1 -14 1820.72   45.20
   1   1 -14 1726.43   46.90
   1   1 -14 1738.93   48.20
  -1  -1  14 1780.62   57.89
   0   1 -14  431.56   16.80
   0   1 -14  425.16   16.80
   0  -1  14  409.06   23.80
  -1   1 -14  290.07   12.90
   1  -1  14  276.97   16.00
   1  -1  14  307.37   21.10
  -2   1 -14  958.80   30.70
  -2   1 -14 1069.89   30.20
   2  -1  14 1044.10   44.20
   2  -1  14 1028.00   38.10
  -3   1 -14   83.79    7.20
   3  -1  14   74.79   13.00
   3  -1  14   85.19   11.20
  -4   1 -14  822.22   32.30
   4  -1  14  811.02   37.40
   5  -1  14    6.30    8.30
   6  -1  14 1236.88   54.49
  11   0 -14  774.32   42.60
 -11   0  14  789.52   40.50
  10   0 -14   18.30    9.40
 -10   0  14   25.20   10.00
   9   0 -14  710.23   29.50
   9   0 -14  686.93   36.40
  -9   0  14  758.42   36.40
   8   0 -14   14.00    7.10
  -8   0  14   13.20    7.00
   7   0 -14 1040.90   41.10
  -7   0  14 1033.60   41.70
   6   0 -14  212.48   16.00
  -6   0  14  208.78   16.70
   5   0 -14 2083.49   60.69
  -5   0  14 1998.50   64.29
   4   0 -14  347.27   17.80
  -4   0  14  314.07   20.10
   3   0 -14  674.93   25.00
  -3   0  14  671.73   31.10
   2   0 -14  921.01   22.30
   2   0 -14  986.20   30.30
   2   0 -14  965.40   23.70
  -2   0  14  975.20   38.30
   1   0 -14  889.71   26.50
   1   0 -14  956.20   25.80
   1   0 -14  918.41   27.70
   1   0 -14  903.01   27.90
  -1   0  14  947.11   38.40
   0   0 -14 1269.47   33.40
   0   0 -14 1193.18   37.20
   0   0 -14 1193.68   33.30
   0   0  14 1233.98   47.30
   0   0  14 1240.98   37.10
  -1   0 -14  203.58    9.00
   1   0  14  210.78   13.80
   1   0  14  243.78   19.20
  -2   0 -14  883.41   23.90
   2   0  14  863.91   40.40
   2   0  14  839.62   33.80
   3   0  14   17.30    7.20
   3   0  14   22.20    8.10
   4   0  14  742.23   36.10
   5   0  14   53.99   13.00
   6   0  14  319.97   27.90
 -11   1  14  497.75   32.20
  10  -1 -14  186.98   19.20
 -10   1  14  165.78   18.90
   9  -1 -14  678.03   34.80
  -9   1  14  658.53   34.30
   8  -1 -14  293.27   20.80
  -8   1  14  289.67   21.50
   7  -1 -14  774.12   33.10
  -7   1  14  735.63   34.20
   6  -1 -14  391.06   21.20
  -6   1  14  422.96   24.40
   5  -1 -14 1096.99   36.90
  -5   1  14 1018.40   41.50
   4  -1 -14  714.13   26.70
  -4   1  14  738.03   32.90
   3  -1 -14  709.23   24.40
  -3   1  14  664.73   31.80
   2  -1 -14  891.91   27.60
   2  -1 -14  918.11   27.30
  -2   1  14  929.31   37.90
   1  -1 -14  116.59    7.30
   1  -1 -14  118.09    7.90
   1  -1 -14  116.79    6.80
  -1   1  14  136.99   13.70
  -1   1  14  122.69    7.30
   0  -1 -14 1262.77   29.60
   0   1  14 1315.07   39.10
   0   1  14 1356.26   50.59
   1   1  14  165.98   12.40
   1   1  14  164.28   16.60
   2   1  14  877.01   42.60
   2   1  14  843.32   34.50
   3   1  14   34.00    8.90
   3   1  14   55.09   12.00
   4   1  14 1320.27   51.79
   5   1  14   -0.30    8.20
  11  -2 -14  232.58   23.60
 -11   2  14  239.38   23.20
  10  -2 -14   91.59   15.40
 -10   2  14  118.89   16.80
   9  -2 -14  563.14   30.10
  -9   2  14  487.95   30.00
   8  -2 -14  512.45   27.30
  -8   2  14  474.85   28.20
   7  -2 -14  426.86   23.20
  -7   2  14  404.26   25.10
   6  -2 -14  882.81   33.30
  -6   2  14  824.82   37.20
   5  -2 -14  444.76   20.40
  -5   2  14  438.06   25.30
   4  -2 -14 1211.68   37.10
  -4   2  14 1237.98   46.50
   3  -2 -14  132.39    8.30
   3  -2 -14  124.99    9.40
  -3   2  14  137.19   14.40
   2  -2 -14 2080.69   49.80
   2  -2 -14 2027.20   49.40
  -2   2  14 2133.89   67.39
   1  -2 -14    5.70    3.20
  -1   2  14    4.20    5.20
  -1   2  14    3.30    2.80
   0   2  14 1032.80   43.70
   0   2  14 1010.30   33.30
   1   2  14   28.70    6.10
   1   2  14   24.90    8.70
   2   2  14  694.03   37.10
   2   2  14  711.93   31.50
   3   2  14   84.79   13.50
   3   2  14   74.79   15.40
   4   2  14  321.07   25.00
   5   2  14  316.37   27.40
  11  -3 -14  377.46   27.50
 -11   3  14  422.36   30.00
  10  -3 -14  162.98   17.50
 -10   3  14  133.19   17.70
   9  -3 -14  552.84   30.10
  -9   3  14  538.55   31.40
   8  -3 -14  604.34   29.80
  -8   3  14  691.33   37.80
   7  -3 -14  286.77   18.20
  -7   3  14  280.47   20.90
   6  -3 -14  763.72   29.70
  -6   3  14  774.72   36.00
   5  -3 -14  147.39   10.70
  -5   3  14  128.29   14.50
   4  -3 -14  945.81   28.10
  -4   3  14  876.51   38.30
  -4   3  14  830.12   26.50
   3  -3 -14   40.80    5.20
  -3   3  14   48.70   11.00
  -2   3  14  896.71   39.10
   1  -3 -14   64.19    8.10
  -1   3  14   53.59   10.30
  -1   3  14   57.39    6.70
   0   3  14  878.41   30.80
   0   3  14  848.32   39.80
   1   3  14   30.60    9.40
   1   3  14   29.90    6.70
   2   3  14  593.94   34.30
   2   3  14  535.95   27.90
   3   3  14  342.57   24.10
   3   3  14  290.47   24.80
   4   3  14  331.27   26.50
  11  -4 -14  150.18   19.20
 -11   4  14  180.78   21.70
  10  -4 -14  329.27   24.20
 -10   4  14  362.36   26.00
  -9   4  14  250.27   22.00
   8  -4 -14  739.63   32.40
  -8   4  14  736.23   37.00
   7  -4 -14  110.99   11.40
  -7   4  14  109.69   14.80
   6  -4 -14 1032.70   35.60
  -6   4  14 1086.79   44.80
   5  -4 -14    7.20    3.30
  -5   4  14   13.40    6.70
   4  -4 -14 1191.28   32.20
  -4   4  14 1195.88   47.40
  -4   4  14 1149.78   31.30
  -3   4  14   28.30    7.70
   2  -4 -14  742.43   20.30
  -2   4  14  828.12   37.70
  -2   4  14  812.12   21.00
  -1   4  14  215.38   18.80
  -1   4  14  224.28   12.50
   0   4  14  855.51   32.20
   0   4  14  875.41   41.50
   1   4  14  267.67   19.10
   1   4  14  270.27   22.50
   2   4  14  124.39   18.10
   2   4  14  143.99   16.50
   3   4  14  427.36   28.60
   4   4  14  141.39   22.10
  11  -5 -14   58.99   13.60
  10  -5 -14  489.05   28.70
 -10   5  14  531.45   33.00
   9  -5 -14   23.30    8.70
  -9   5  14   31.80    9.70
   8  -5 -14  591.64   27.60
  -8   5  14  561.54   32.30
   7  -5 -14    0.20    4.20
  -7   5  14   -2.80    5.50
   6  -5 -14  982.30   32.60
  -6   5  14  957.70   52.99
   5  -5 -14  163.08    9.60
  -5   5  14  129.19   15.40
   4  -5 -14  581.14   15.60
   4  -5 -14  514.25   17.20
  -4   5  14  626.84   32.50
  -3   5  14  208.48   18.60
  -2   5  14  470.45   30.80
  -2   5  14  477.25   17.10
  -1   5  14  610.14   24.30
  -1   5  14  622.94   33.60
   0   5  14  697.73   29.40
   0   5  14  676.43   36.30
   1   5  14  726.13   39.30
   1   5  14  749.23   33.50
   2   5  14  160.18   20.70
   2   5  14  162.48   19.30
   3   5  14  330.87   27.20
  11  -6 -14   33.30   11.80
 -11   6  14    6.50   10.40
  10  -6 -14  488.05   28.50
 -10   6  14  457.65   32.00
   9  -6 -14    6.80    6.70
  -9   6  14    3.10    6.90
   8  -6 -14  626.14   28.20
  -8   6  14  632.44   34.90
   7  -6 -14   15.10    5.40
  -7   6  14   16.30    7.90
   6  -6 -14  523.45   20.60
  -6   6  14  487.45   32.60
   5  -6 -14  479.65   16.40
  -5   6  14  434.36   27.50
  -4   6  14  807.82   39.40
  -3   6  14  206.48   19.30
  -2   6  14  342.17   24.90
  -2   6  14  340.37   16.10
  -1   6  14  717.33   28.30
  -1   6  14  701.83   36.50
   0   6  14  169.98   19.10
   0   6  14  188.38   16.80
   1   6  14  650.03   33.00
   1   6  14  697.33   38.60
   2   6  14   10.00   11.40
   2   6  14    0.00   10.40
  10  -7 -14  601.94   31.30
 -10   7  14  642.94   39.60
   9  -7 -14   41.50   11.20
  -9   7  14   34.20   11.10
   8  -7 -14  736.93   30.80
  -8   7  14  810.52   40.90
   7  -7 -14   41.20    8.60
  -7   7  14   29.50    9.50
  -6   7  14  306.07   24.40
  -5   7  14  166.88   18.30
  -4   7  14  253.27   22.70
  -3   7  14  385.76   26.40
  -2   7  14  177.28   18.80
  -2   7  14  169.38   13.60
  -1   7  14  513.15   25.30
  -1   7  14  440.46   29.90
   0   7  14   52.49   12.30
   0   7  14   78.29   15.50
   1   7  14  353.36   28.30
   1   7  14  378.96   28.50
  10  -8 -14  503.05   28.30
 -10   8  14  535.25   34.70
  -9   8  14  185.58   21.10
   8  -8 -14  445.26   22.80
  -8   8  14  505.75   32.70
   7  -8 -14  217.28   14.10
  -7   8  14  266.47   23.40
  -6   8  14  312.77   25.20
  -5   8  14  257.17   22.80
  -4   8  14  393.86   27.80
  -3   8  14  381.36   26.90
  -2   8  14   25.20    9.90
  -1   8  14  301.37   25.20
  -1   8  14  280.27   26.60
   0   8  14   19.30   12.10
   0   8  14    8.60   13.10
   9  -9 -14  246.28   19.20
  -9   9  14  287.37   26.60
  -8   9  14  178.68   22.20
  -7   9  14  197.38   22.10
  -6   9  14   11.50    9.30
  -5   9  14  608.14   35.70
  -4   9  14   35.10   10.60
  -3   9  14  531.85   32.90
  -2   9  14   10.50    9.30
  -6  10  14   50.89   18.00
  -5  10  14  372.56   31.50
   1  11 -15   34.60   11.10
   1  11 -15   20.40   11.20
   0  11 -15  560.74   32.80
  -1  11 -15   18.00    9.50
  -1  11 -15  -20.30    9.30
  -2  11 -15  286.57   23.50
  -3  11 -15   58.19   12.90
  -3  11 -15   48.40   14.20
   3  10 -15   10.70   10.00
   3  10 -15   18.70    9.90
   2  10 -15  221.38   20.70
   2  10 -15  188.48   21.20
   1  10 -15   17.00    8.40
   1  10 -15   37.60   11.70
   0  10 -15  293.97   22.70
   0  10 -15  318.07   24.40
  -1  10 -15  254.97   20.90
  -1  10 -15  268.17   22.00
  -2  10 -15  254.17   20.50
  -2  10 -15  240.78   21.60
  -3  10 -15  137.29   18.10
  -3  10 -15  159.38   17.40
  -4  10 -15   80.79   15.80
  -4  10 -15   93.99   15.30
   4   9 -15  253.77   23.20
   4   9 -15  255.67   23.90
   3   9 -15  151.08   17.70
   3   9 -15  155.48   18.10
   2   9 -15  607.64   32.20
   2   9 -15  614.44   33.30
   1   9 -15   41.40    9.00
   1   9 -15   21.20    8.50
   0   9 -15  280.77   21.20
   0   9 -15  292.57   22.20
  -1   9 -15  321.27   23.20
  -1   9 -15  327.67   22.40
  -2   9 -15  153.28   16.50
  -2   9 -15  132.09   14.60
  -3   9 -15  550.14   29.40
  -3   9 -15  531.85   30.50
  -4   9 -15   84.29   13.80
  -4   9 -15   85.49   15.10
  -5   9 -15  377.96   26.40
  -5   9 -15  416.76   27.90
   6   8 -15  494.25   34.00
   6   8 -15  359.26   28.50
   5   8 -15   36.90   11.00
   5   8 -15   27.10   11.10
   4   8 -15  440.36   27.50
   4   8 -15  444.66   29.50
   3   8 -15  200.58   19.30
   3   8 -15  205.88   18.30
   2   8 -15  263.77   19.60
   2   8 -15  261.07   21.30
   1   8 -15  535.95   29.40
   1   8 -15  533.85   27.30
   0   8 -15  179.98   17.30
   0   8 -15  167.78   15.60
  -1   8 -15  581.54   30.30
  -1   8 -15  548.75   27.60
  -2   8 -15   46.80   11.60
  -2   8 -15   19.90    8.90
  -3   8 -15  940.01   40.50
  -3   8 -15  997.30   40.20
  -4   8 -15    7.70    7.30
  -4   8 -15    4.40    7.00
  -5   8 -15  394.66   25.70
  -5   8 -15  434.96   27.00
  -6   8 -15   17.70    9.00
  -6   8 -15   12.00    8.90
   6  -8  15   15.10   10.70
   7   7 -15  130.99   19.70
   7   7 -15  110.09   19.90
   6   7 -15  245.18   21.80
   6   7 -15  214.48   23.00
   5   7 -15  187.48   18.40
   5   7 -15  249.68   22.30
   4   7 -15  372.36   23.50
   4   7 -15  380.16   25.90
   3   7 -15  488.65   28.50
   3   7 -15  457.75   25.30
   2   7 -15  236.18   19.10
   2   7 -15  242.58   17.60
   1   7 -15  762.82   32.00
   1   7 -15  747.13   36.10
   0   7 -15   38.20    7.90
   0   7 -15   35.30    8.10
  -1   7 -15 1170.58   42.00
  -1   7 -15 1188.68   44.80
  -2   7 -15   36.20    8.00
  -2   7 -15   34.70    8.00
  -3   7 -15  690.73   33.80
  -4   7 -15   78.79   11.80
  -4   7 -15   81.59   13.40
  -5   7 -15  553.54   29.80
  -5   7 -15  535.15   29.80
  -6   7 -15  115.19   17.00
   6  -7  15  119.29   19.00
   7   6 -15  120.09   19.20
   6   6 -15  387.56   27.80
   6   6 -15  336.97   23.20
   5   6 -15  342.07   22.10
   5   6 -15  326.37   24.90
  -5  -6  15  348.77   16.10
   4   6 -15  273.37   21.20
   4   6 -15  225.88   17.30
  -4  -6  15  250.97   13.30
   3   6 -15 1040.60   43.00
   3   6 -15  969.60   37.00
  -3  -6  15  968.50   31.40
   2   6 -15  195.08   16.50
   2   6 -15  190.18   14.60
  -2  -6  15  184.88   12.30
   1   6 -15  815.52   34.80
   1   6 -15  803.22   31.30
  -1  -6  15  797.12   29.40
   0   6 -15    5.00    3.60
   0   6 -15    5.30    5.30
  -1   6 -15  844.52   34.80
  -1   6 -15  891.61   33.30
  -2   6 -15   91.49   12.00
  -2   6 -15   82.99   10.60
  -3   6 -15  820.12   34.00
  -3   6 -15  820.52   34.70
  -4   6 -15   76.79   12.30
  -4   6 -15   74.19   11.80
  -5   6 -15  494.25   27.60
  -5   6 -15  413.66   24.90
   6  -6  15  253.07   25.10
   6  -6  15  301.67   24.80
   8   5 -15  180.88   23.50
   8   5 -15  178.88   19.30
   7   5 -15  466.15   30.30
   7   5 -15  406.16   25.30
  -7  -5  15  432.16   22.10
   6   5 -15  231.28   17.70
   6   5 -15  211.68   20.90
   5   5 -15  829.32   38.40
   5   5 -15  783.72   32.20
  -5  -5  15  798.62   29.80
   4   5 -15  201.58   14.60
   4   5 -15  208.58   17.70
  -4  -5  15  212.78   13.90
   3   5 -15 1049.89   41.60
  -3  -5  15 1089.79   36.10
   2   5 -15  123.79   12.90
  -2  -5  15  125.89   10.70
   1   5 -15 1113.39   37.10
   1   5 -15 1158.28   41.50
  -1  -5  15 1086.09   39.20
   0   5 -15   12.40    4.60
   0   5 -15   11.90    5.10
   0  -5  15   15.90    5.90
  -1   5 -15  526.05   23.20
  -1   5 -15  506.85   24.50
  -2   5 -15   36.70    7.70
  -2   5 -15   52.39    8.20
  -3   5 -15  644.24   28.70
  -3   5 -15  670.73   29.60
  -4   5 -15   85.29   12.70
  -4   5 -15   93.69   12.20
   4  -5  15   68.59   13.20
  -5   5 -15  190.08   16.60
   5  -5  15  194.68   19.40
   6  -5  15  443.66   30.60
   6  -5  15  429.16   28.00
   9   4 -15  165.38   22.50
  -9  -4  15  203.68   20.40
   8   4 -15  153.78   19.80
   8   4 -15  158.18   16.30
  -8  -4  15  158.18   16.60
   7   4 -15  634.74   35.00
   7   4 -15  586.24   27.70
  -7  -4  15  612.54   28.40
   6   4 -15   23.30    9.00
   6   4 -15   18.30    6.20
  -6  -4  15   15.20    5.80
   5   4 -15  971.40   40.90
   5   4 -15  971.90   33.50
  -5  -4  15  914.31   35.00
   4   4 -15    0.60    4.00
   4   4 -15    3.90    3.80
  -4  -4  15   -0.40    4.10
   3   4 -15 1066.99   40.10
   3   4 -15 1043.20   34.30
  -3  -4  15 1043.00   37.80
   2   4 -15   48.20    8.40
   2   4 -15   59.49    7.50
  -2  -4  15   49.10    8.20
   1   4 -15 1087.29   38.40
   1   4 -15 1062.39   34.10
  -1  -4  15 1055.09   38.60
   0   4 -15  420.66   21.30
   0   4 -15  449.06   19.60
   0  -4  15  455.45   23.90
  -1   4 -15  575.34   23.80
  -1   4 -15  572.04   25.10
   1  -4  15  607.84   29.10
  -2   4 -15  241.68   15.40
  -2   4 -15  229.08   14.90
  -3   4 -15  581.24   25.00
   3  -4  15  532.45   28.20
  -4   4 -15  287.87   17.60
   4  -4  15  260.57   20.80
  -5   4 -15   98.89   12.50
   5  -4  15   81.09   14.80
   6  -4  15  362.46   28.10
   6  -4  15  343.07   24.40
   9   3 -15  399.06   30.50
  -9  -3  15  453.15   41.40
   8   3 -15   44.00   10.50
   8   3 -15   58.99   11.50
  -8  -3  15   60.49   12.90
   7   3 -15  629.44   26.00
   7   3 -15  564.04   32.50
  -7  -3  15  709.43   30.50
   6   3 -15   77.89   12.10
   6   3 -15   64.89    8.70
  -6  -3  15   81.09   11.10
   5   3 -15  960.70   30.90
   5   3 -15  963.70   39.70
  -5  -3  15 1002.80   37.40
   4   3 -15  198.68   15.90
   4   3 -15  204.18   12.00
   4   3 -15  185.88   10.90
  -4  -3  15  202.58   15.20
   3   3 -15  691.63   23.70
   3   3 -15  704.43   24.60
   3   3 -15  768.82   30.90
  -3  -3  15  728.33   30.20
   2   3 -15  462.55   22.40
   2   3 -15  489.35   18.80
  -2  -3  15  481.85   23.90
   1   3 -15  811.22   30.50
   1   3 -15  793.02   26.80
  -1  -3  15  895.41   35.20
   0   3 -15  573.54   23.70
   0   3 -15  597.94   22.20
   0  -3  15  551.04   27.90
  -1   3 -15  308.27   15.80
  -1   3 -15  276.07   15.40
   1  -3  15  252.97   19.10
  -2   3 -15  949.31   32.90
   2  -3  15  970.50   37.10
   2  -3  15  985.90   41.90
  -3   3 -15  214.78   13.80
   3  -3  15  209.58   17.00
  -4   3 -15  803.32   29.60
   4  -3  15  721.73   35.50
  -5   3 -15    3.80    5.80
   5  -3  15    0.50    7.60
   6  -3  15  775.42   41.60
  10   2 -15   48.40   13.60
 -10  -2  15   45.80   12.70
   9   2 -15  426.86   30.20
  -9  -2  15  451.05   27.80
   8   2 -15    2.10    5.30
   8   2 -15    5.10    7.00
  -8  -2  15    5.50    6.60
   7   2 -15  731.43   36.10
   7   2 -15  774.12   26.10
  -7  -2  15  759.82   34.20
   6   2 -15   75.69   11.70
   6   2 -15  103.49    7.90
  -6  -2  15  106.49   12.70
   5   2 -15  947.31   26.70
   5   2 -15  952.60   38.20
  -5  -2  15 1004.90   38.60
   4   2 -15  797.02   31.90
   4   2 -15  716.33   21.20
   4   2 -15  762.12   21.90
  -4  -2  15  817.72   33.80
   3   2 -15  672.33   27.10
   3   2 -15  622.34   19.90
  -3  -2  15  631.74   29.30
   2   2 -15  950.20   29.20
   2   2 -15  961.40   28.10
   2   2 -15 1024.60   34.60
  -2  -2  15 1014.40   38.80
   1   2 -15  412.76   16.10
   1   2 -15  452.05   19.60
   1   2 -15  388.26   17.80
  -1  -2  15  467.75   24.60
   0   2 -15 1163.28   34.60
   0   2 -15 1131.09   35.60
   0  -2  15 1137.49   44.10
  -1   2 -15  323.97   15.60
  -1   2 -15  342.17   16.60
   1  -2  15  337.57   23.00
  -2   2 -15 1745.63   48.70
   2  -2  15 1754.72   62.79
   2  -2  15 1774.72   55.79
  -3   2 -15   20.10    4.60
   3  -2  15   22.00    7.90
  -4   2 -15  745.23   31.30
   4  -2  15  789.12   37.00
   5  -2  15    0.40    8.00
   6  -2  15  629.24   37.30
  10   1 -15   31.60   12.30
 -10  -1  15   36.20   11.00
   9   1 -15  791.92   40.70
  -9  -1  15  825.82   38.50
   8   1 -15   61.09   12.90
  -8  -1  15   74.09   13.00
   7   1 -15  793.42   22.20
   7   1 -15  784.12   36.20
  -7  -1  15  849.61   36.50
   6   1 -15  160.28   15.00
  -6  -1  15  168.88   15.70
   5   1 -15 1113.09   40.60
  -5  -1  15 1138.59   43.30
   4   1 -15  712.43   29.00
  -4  -1  15  692.93   31.70
   3   1 -15  551.94   23.70
  -3  -1  15  520.75   26.90
   2   1 -15  631.94   18.60
   2   1 -15  678.83   24.90
   2   1 -15  678.93   19.30
  -2  -1  15  676.83   31.20
   1   1 -15  469.25   20.20
   1   1 -15  510.35   17.20
   1   1 -15  488.65   19.80
  -1  -1  15  533.15   27.50
   0   1 -15  822.12   26.80
   0   1 -15  861.81   27.30
   0  -1  15  818.62   36.90
  -1   1 -15   96.69    7.60
   1  -1  15  103.89    9.60
   1  -1  15   93.39   13.60
  -2   1 -15 1778.72   46.80
   2  -1  15 1770.12   56.59
   2  -1  15 1848.22   65.39
  -3   1 -15    6.00    3.80
   3  -1  15    4.60    6.60
   4  -1  15  733.73   35.70
   5  -1  15    3.50    9.30
  10   0 -15   48.50   12.50
 -10   0  15   83.09   16.00
   9   0 -15 1120.29   48.20
  -9   0  15 1149.98   48.00
   8   0 -15  146.89   16.40
  -8   0  15  148.69   16.00
   7   0 -15  572.74   28.70
  -7   0  15  531.05   28.70
   6   0 -15  648.84   29.80
  -6   0  15  702.43   33.00
   5   0 -15  795.32   31.70
  -5   0  15  815.82   36.10
   4   0 -15  632.94   26.10
  -4   0  15  651.73   31.30
   3   0 -15  122.49    9.80
  -3   0  15  137.89   14.30
   2   0 -15 1586.94   44.40
  -2   0  15 1548.95   54.39
   1   0 -15  294.87   13.20
   1   0 -15  264.67   13.40
   1   0 -15  282.07   12.20
   1   0 -15  290.87   11.30
  -1   0  15  299.67   21.00
   0   0 -15 1229.68   33.60
   0   0 -15 1210.28   35.50
   0   0  15 1249.18   48.80
   0   0  15 1311.17   38.30
  -1   0 -15    0.10    3.90
   1   0  15    1.00    5.10
   1   0  15   -2.00    3.90
  -2   0 -15  929.01   23.60
   2   0  15  957.10   37.00
   2   0  15  998.60   45.20
   3   0  15   57.09   13.90
   3   0  15   53.29   11.00
   4   0  15  565.24   43.60
   5   0  15   38.20   13.00
  10  -1 -15  138.59   18.30
 -10   1  15  145.09   19.20
   9  -1 -15  519.25   30.30
  -9   1  15  526.65   31.10
   8  -1 -15  701.33   33.90
   7  -1 -15  301.77   20.40
  -7   1  15  304.57   21.80
   6  -1 -15  992.50   37.50
  -6   1  15  990.20   41.70
   5  -1 -15  136.49   11.60
  -5   1  15  147.09   15.40
   4  -1 -15  685.63   25.70
  -4   1  15  643.84   32.00
   3  -1 -15  175.88   10.90
  -3   1  15  200.18   17.10
   2  -1 -15  751.22   32.20
   2  -1 -15  891.71   26.30
  -2   1  15  897.51   38.10
   1  -1 -15   46.40    4.60
   1  -1 -15   37.10    5.40
  -1   1  15   37.20    8.70
   0   1  15 1035.50   33.10
   0   1  15 1012.70   43.90
   1   1  15  125.69   16.10
   1   1  15  112.59   11.10
   2   1  15  437.66   29.90
   2   1  15  493.35   24.90
   3   1  15  196.78   21.50
   3   1  15  210.78   18.70
   4   1  15  587.94   33.60
   5   1  15  189.98   21.90
  11  -2 -15  718.73   57.49
 -11   2  15  550.64   35.40
  10  -2 -15  306.27   23.70
 -10   2  15  270.77   24.00
   9  -2 -15  396.36   25.50
  -9   2  15  402.76   27.30
   8  -2 -15  847.52   37.20
  -8   2  15  892.11   40.80
   7  -2 -15  118.29   13.20
  -7   2  15  110.79   14.00
   6  -2 -15 1081.69   38.80
  -6   2  15 1127.39   46.00
  -5   2  15    2.80    5.70
   4  -2 -15 1147.29   35.50
  -4   2  15 1126.99   45.90
   3  -2 -15    8.20    4.20
   3  -2 -15    4.70    3.10
  -3   2  15    2.00    4.90
   2  -2 -15 1874.01   44.70
   2  -2 -15 1840.62   44.60
  -2   2  15 2013.00   65.59
   1  -2 -15  166.08    8.60
  -1   2  15  144.49    8.50
  -1   2  15  152.18   16.20
   0   2  15  501.25   29.80
   0   2  15  509.65   21.10
   1   2  15  337.87   19.60
   1   2  15  328.47   24.70
   2   2  15  229.78   17.70
   2   2  15  238.58   21.30
   3   2  15  399.96   29.80
   3   2  15  416.16   26.20
   4   2  15  250.87   23.40
  11  -3 -15  188.08   21.90
 -11   3  15  155.68   27.20
  10  -3 -15  938.91   43.00
 -10   3  15  973.50   45.80
   9  -3 -15  265.77   20.80
  -9   3  15  237.38   21.70
   8  -3 -15 1115.09   42.70
  -8   3  15 1067.89   46.50
   7  -3 -15   20.00    6.50
  -7   3  15   31.40   15.20
   6  -3 -15 1275.97   41.20
  -6   3  15 1202.38   49.50
   5  -3 -15   43.30    6.90
  -5   3  15   55.29   11.40
   4  -3 -15  575.54   27.50
   4  -3 -15  683.53   22.10
  -4   3  15  650.03   33.40
   3  -3 -15  127.49    6.30
   3  -3 -15  127.69    6.50
  -3   3  15  122.59   14.20
  -2   3  15 1215.08   48.70
  -1   3  15  347.27   24.50
  -1   3  15  364.86   14.80
   0   3  15  487.95   29.90
   0   3  15  509.35   22.30
   1   3  15  297.07   24.70
   1   3  15  307.07   19.00
   2   3  15  180.68   20.80
   2   3  15  181.38   17.50
  11  -4 -15  112.29   17.40
 -11   4  15   97.09   20.30
  10  -4 -15  658.73   34.20
 -10   4  15  635.24   37.10
   9  -4 -15    7.70    6.70
  -9   4  15    1.30    6.60
   8  -4 -15  758.72   32.90
  -8   4  15  731.33   37.70
   7  -4 -15   34.60    7.40
  -7   4  15   34.30    8.70
   6  -4 -15 1375.36   42.00
  -6   4  15 1262.67   60.69
   5  -4 -15   90.39    8.10
  -5   4  15  102.29   13.70
   4  -4 -15 1764.92   44.00
  -4   4  15 1782.42   63.89
  -3   4  15  228.98   19.60
  -2   4  15  480.55   37.70
  -1   4  15  560.64   21.10
  -1   4  15  574.64   35.70
   0   4  15  465.35   29.80
   0   4  15  474.35   22.50
   1   4  15  500.55   32.60
   1   4  15  465.15   25.30
   2   4  15   32.60   11.80
   2   4  15   24.80   10.10
   3   4  15  799.42   40.40
  10  -5 -15  655.13   33.70
 -10   5  15  644.84   37.50
  -9   5  15   53.09   12.70
   8  -5 -15  416.96   23.10
  -8   5  15  429.96   28.50
   7  -5 -15  119.59   11.90
  -7   5  15  146.39   17.50
   6  -5 -15  527.85   21.50
  -6   5  15  535.05   31.40
   5  -5 -15  614.04   20.50
  -5   5  15  612.04   33.70
  -4   5  15  582.44   32.90
  -3   5  15  988.10   44.60
  -2   5  15  162.98   18.00
  -2   5  15  181.98    9.80
  -1   5  15  672.73   36.30
  -1   5  15  642.44   24.90
   0   5  15  234.88   17.50
   0   5  15  213.58   21.60
   1   5  15  635.34   31.10
   1   5  15  563.64   35.30
   2   5  15   37.30   16.00
   2   5  15    6.00    9.10
  10  -6 -15  454.35   27.50
 -10   6  15  492.45   41.10
   9  -6 -15  219.08   23.80
  -9   6  15  260.37   24.00
   8  -6 -15  453.95   23.30
  -8   6  15  453.25   29.70
   7  -6 -15  306.57   17.20
  -7   6  15  292.77   24.20
  -6   6  15  606.74   34.60
  -5   6  15  529.85   32.40
  -4   6  15  178.48   19.30
  -3   6  15  807.72   40.00
  -2   6  15   23.20    9.70
  -1   6  15  895.71   32.80
  -1   6  15  923.91   44.40
   0   6  15   19.60    9.80
   0   6  15   26.50    9.80
   1   6  15  602.14   37.20
   1   6  15  694.93   34.60
  10  -7 -15  387.66   25.90
 -10   7  15  453.65   32.10
   9  -7 -15  187.88   22.40
  -9   7  15  195.28   21.50
   8  -7 -15  311.87   19.00
  -8   7  15  369.06   28.30
   7  -7 -15  483.75   21.00
  -7   7  15  476.55   31.40
  -6   7  15  182.08   19.50
  -5   7  15  964.70   45.80
  -4   7  15  114.89   16.90
  -3   7  15  538.55   33.00
  -2   7  15    2.40    7.80
  -1   7  15  542.95   33.60
   0   7  15    6.20    9.40
   9  -8 -15  236.88   21.50
  -9   8  15  247.48   25.10
  -8   8  15  241.08   24.50
  -7   8  15  441.66   31.40
  -6   8  15   16.60    9.80
  -5   8  15  644.74   37.00
  -4   8  15   22.60    9.20
  -3   8  15  538.05   33.40
  -2   8  15   26.60   11.70
  -6   9  15   19.20   10.60
  -5   9  15  468.75   31.90
  -4   9  15    1.20    9.20
   2  10 -16  212.08   21.30
   2  10 -16  235.18   24.40
   1  10 -16  230.58   20.70
   1  10 -16  226.38   22.30
   0  10 -16  107.29   16.80
   0  10 -16   72.29   13.90
  -1  10 -16  366.96   24.40
  -1  10 -16  378.36   26.90
  -2  10 -16   20.40   10.00
  -2  10 -16   20.80    9.10
  -3  10 -16  355.96   25.10
  -3  10 -16  402.06   27.50
   4   9 -16  230.88   22.20
   4   9 -16  213.88   22.50
   3   9 -16  398.96   29.00
   3   9 -16  437.96   27.70
   2   9 -16  224.38   21.20
   2   9 -16  210.88   19.40
   1   9 -16  473.35   30.40
   1   9 -16  543.05   29.30
   0   9 -16   81.99   15.00
   0   9 -16   69.99   13.60
  -1   9 -16  600.64   32.60
  -1   9 -16  552.94   29.60
  -2   9 -16   74.79   12.30
  -2   9 -16   62.19   12.50
  -3   9 -16  579.84   32.30
  -3   9 -16  499.75   28.60
  -4   9 -16   -1.30    8.20
  -4   9 -16   -8.10    6.90
   5   8 -16  228.08   22.80
   4   8 -16  214.68   21.90
   4   8 -16  220.58   20.70
   3   8 -16  601.34   33.70
   3   8 -16  572.04   32.90
   2   8 -16    1.40    6.80
   2   8 -16   18.90    7.70
   1   8 -16  736.53   36.60
   1   8 -16  820.22   35.20
   0   8 -16   19.70    7.20
   0   8 -16   18.90    8.40
  -1   8 -16  654.23   33.00
  -2   8 -16    1.10    6.20
  -2   8 -16    3.20    6.60
  -3   8 -16  892.21   38.60
  -3   8 -16  933.21   40.90
  -4   8 -16   91.99   14.30
  -4   8 -16   83.79   14.30
  -5   8 -16  381.46   26.10
  -5   8 -16  417.86   27.30
   6   7 -16  100.99   17.40
   6   7 -16  138.29   31.00
   5   7 -16  311.67   25.70
   5   7 -16  294.07   22.70
   4   7 -16   74.59   12.90
   4   7 -16   40.30    9.80
   3   7 -16  673.83   31.60
   3   7 -16  712.03   35.80
   2   7 -16   -4.40    4.80
   2   7 -16   -3.30    5.50
   1   7 -16  523.75   26.20
   1   7 -16  563.34   29.80
   0   7 -16    5.50    6.70
   0   7 -16   13.40    6.00
  -1   7 -16  774.32   32.60
  -1   7 -16  782.02   35.40
  -2   7 -16   23.10    7.70
  -2   7 -16   51.89   10.90
  -3   7 -16  550.64   28.20
  -3   7 -16  572.24   29.80
  -4   7 -16  311.37   21.80
  -4   7 -16  389.66   24.50
  -5   7 -16  323.37   23.50
  -5   7 -16  289.57   22.60
   6   6 -16  133.99   19.10
   6   6 -16  191.38   18.50
   5   6 -16  431.66   25.00
   5   6 -16  522.65   31.30
  -5  -6  16  475.15   20.50
   4   6 -16   -5.70    5.70
   4   6 -16    0.20    5.90
  -4  -6  16   -0.80    4.90
   3   6 -16  659.93   28.90
   3   6 -16  692.93   33.80
  -3  -6  16  663.83   25.50
   2   6 -16    0.30    5.00
   2   6 -16    9.60    5.70
  -2  -6  16    6.00    4.70
   1   6 -16  531.55   28.00
   1   6 -16  556.94   24.90
  -1  -6  16  505.65   23.40
   0   6 -16  130.29   14.10
   0   6 -16  157.38   12.80
  -1   6 -16  756.22   30.50
  -1   6 -16  711.63   32.40
  -2   6 -16  370.36   21.30
  -2   6 -16  403.36   23.10
  -3   6 -16  378.46   22.80
  -3   6 -16  383.36   22.90
  -4   6 -16  293.47   20.70
  -4   6 -16  298.07   20.50
  -5   6 -16   83.79   14.50
  -5   6 -16  146.79   16.00
   8   5 -16  134.59   20.70
   7   5 -16  747.03   40.00
   7   5 -16  677.73   32.50
  -7  -5  16  785.82   31.70
   6   5 -16    2.60    6.70
   6   5 -16  -11.20    6.70
  -6  -5  16    0.30    6.10
   5   5 -16 1080.99   38.20
   5   5 -16 1081.39   45.80
  -5  -5  16 1042.10   36.60
   4   5 -16   12.10    6.60
   4   5 -16   10.00    5.60
  -4  -5  16   14.50    6.10
   3   5 -16  469.05   26.00
   3   5 -16  467.75   24.30
  -3  -5  16  489.45   22.30
   2   5 -16   28.00    6.00
   2   5 -16   35.70    9.10
  -2  -5  16   26.30    6.30
   1   5 -16 1204.58   39.20
   1   5 -16 1160.88   42.90
  -1  -5  16 1164.98   41.40
   0   5 -16  137.59   13.30
   0   5 -16  144.99   11.40
   0  -5  16  119.19   12.40
  -1   5 -16  326.57   18.20
  -1   5 -16  316.27   19.50
  -2   5 -16  507.85   25.30
  -2   5 -16  528.25   24.90
  -3   5 -16  118.59   13.20
  -3   5 -16  107.89   12.60
  -4   5 -16  266.27   18.70
  -4   5 -16  279.17   20.10
   5  -5  16   32.70   10.50
   8   4 -16   28.90   10.20
  -8  -4  16   23.00   10.70
   7   4 -16  887.61   43.30
   7   4 -16  892.71   34.30
  -7  -4  16  915.81   36.60
   6   4 -16   57.09    9.60
   6   4 -16   51.99   12.20
  -6  -4  16   57.39   11.00
   5   4 -16  811.32   48.00
   5   4 -16  876.41   31.00
  -5  -4  16  899.91   34.90
   4   4 -16  200.28   16.60
   4   4 -16  204.28   13.10
  -4  -4  16  168.38   14.00
   3   4 -16  579.24   23.00
   3   4 -16  590.54   28.50
  -3  -4  16  623.64   27.10
   2   4 -16  314.47   19.40
   2   4 -16  319.47   15.90
  -2  -4  16  325.67   19.30
   1   4 -16  773.92   31.30
   1   4 -16  801.42   27.80
  -1  -4  16  749.42   32.20
   0   4 -16 1345.87   44.30
   0   4 -16 1321.47   40.80
   0  -4  16 1301.67   47.30
  -1   4 -16  322.77   18.40
  -1   4 -16  352.46   17.90
   1  -4  16  335.87   22.40
  -2   4 -16  652.13   27.20
  -2   4 -16  665.63   28.10
  -3   4 -16   16.20    6.70
  -3   4 -16   21.10    6.10
  -4   4 -16  575.04   25.60
   4  -4  16  531.65   30.10
  -5   4 -16    7.60    7.40
   5  -4  16    1.60    8.50
  -9  -3  16  538.15   30.90
   8   3 -16  252.87   23.90
  -8  -3  16  263.17   21.20
   7   3 -16  781.72   38.30
   7   3 -16  790.22   28.30
  -7  -3  16  746.23   34.40
   6   3 -16  356.16   24.20
   6   3 -16  318.67   15.80
  -6  -3  16  367.26   21.80
   5   3 -16  534.15   19.80
   5   3 -16  569.14   29.10
  -5  -3  16  551.24   27.10
   4   3 -16  560.24   27.40
   4   3 -16  541.05   19.40
  -4  -3  16  556.44   26.90
   3   3 -16  756.72   24.60
   3   3 -16  776.42   32.00
  -3  -3  16  748.43   32.20
   2   3 -16  659.73   22.80
   2   3 -16  647.74   27.60
  -2  -3  16  617.14   29.10
   1   3 -16  171.48   10.70
   1   3 -16  150.28   12.50
  -1  -3  16  172.08   14.60
   0   3 -16 1284.27   39.20
   0   3 -16 1267.07   41.20
   0  -3  16 1312.87   48.50
  -1   3 -16    8.70    4.50
  -1   3 -16    7.00    4.30
   1  -3  16   -3.30    5.30
  -2   3 -16 1084.69   36.50
  -2   3 -16 1137.79   39.10
   2  -3  16 1128.39   47.10
  -3   3 -16   -0.30    4.60
   3  -3  16    4.40    6.10
  -4   3 -16  636.04   25.30
   4  -3  16  575.64   38.60
   5  -3  16   59.59   13.40
   9   2 -16  870.61   44.90
  -9  -2  16  923.21   41.40
   8   2 -16  227.18   21.60
  -8  -2  16  207.48   19.20
   7   2 -16  241.18   20.20
  -7  -2  16  256.27   19.90
   6   2 -16  486.65   18.50
   6   2 -16  473.05   27.00
  -6  -2  16  469.25   26.10
   5   2 -16  571.14   28.10
  -5  -2  16  535.15   27.90
   4   2 -16  623.34   17.00
   4   2 -16  870.81   33.20
  -4  -2  16  884.01   35.70
   3   2 -16  371.56   12.50
   3   2 -16  391.06   13.10
   3   2 -16  397.26   20.50
  -3  -2  16  380.16   22.50
   2   2 -16 2562.84   69.39
   2   2 -16 2485.25   62.19
   2   2 -16 2429.06   60.99
  -2  -2  16 2562.54   75.99
   1   2 -16  214.88   13.30
   1   2 -16  197.58   10.60
  -1  -2  16  199.58   16.90
   0   2 -16 1114.19   33.20
   0   2 -16 1027.60   33.80
   0  -2  16 1010.60   42.60
  -1   2 -16    3.70    3.80
  -1   2 -16   14.50    4.60
   1  -2  16   15.00    7.90
  -2   2 -16 1433.76   40.70
   2  -2  16 1322.87   56.09
   2  -2  16 1328.37   46.80
  -3   2 -16   13.80    4.80
   3  -2  16    6.80    7.10
   4  -2  16  531.05   31.80
   5  -2  16  175.28   21.30
  10   1 -16  386.86   32.50
 -10  -1  16  374.46   27.70
   9   1 -16  732.73   38.80
  -9  -1  16  696.53   36.00
   8   1 -16  769.62   38.20
  -7  -1  16  275.47   20.70
   6   1 -16  667.43   31.50
  -6  -1  16  685.83   33.20
   5   1 -16  520.15   25.80
  -5  -1  16  487.15   27.00
   4   1 -16 1127.89   39.70
  -4  -1  16 1120.99   44.40
   3   1 -16   91.29    9.90
  -3  -1  16  116.89   13.00
   2   1 -16 1586.74   38.40
   2   1 -16 1649.83   47.60
   2   1 -16 1565.64   38.60
  -2  -1  16 1687.83   57.09
   1   1 -16   36.50    4.80
   1   1 -16   32.90    6.30
  -1  -1  16   28.80    8.20
   0   1 -16 1139.29   35.00
   0   1 -16 1210.58   35.40
   0  -1  16 1258.57   48.70
  -1   1 -16    4.70    3.40
   1  -1  16    0.40    4.80
   1  -1  16   -4.00    5.80
  -2   1 -16  942.81   27.70
   2  -1  16  925.91   36.80
   2  -1  16  974.00   45.30
   3  -1  16   40.40   10.10
   4  -1  16  541.15   31.30
   5  -1  16  122.99   19.30
  10   0 -16  276.27   25.50
 -10   0  16  381.06   27.80
   9   0 -16  100.19   16.00
  -9   0  16  131.09   17.20
   8   0 -16  612.14   32.40
  -8   0  16  610.74   33.00
   7   0 -16   83.39   13.00
  -7   0  16   90.99   13.00
   6   0 -16 1095.29   41.50
  -6   0  16 1102.59   45.20
   5   0 -16   82.89   10.40
  -5   0  16  102.69   13.30
   4   0 -16 1701.63   51.49
  -4   0  16 1728.23   60.09
   3   0 -16   17.30    4.50
  -3   0  16   16.90    6.40
   2   0 -16 1386.56   40.50
  -2   0  16 1389.16   51.79
   1   0 -16   88.99    7.70
   1   0 -16   91.59    9.10
   1   0 -16   86.59    6.10
  -1   0  16   89.49   13.00
   0   0 -16  856.11   24.90
   0   0  16  874.91   40.40
  -1   0 -16  188.68    7.60
   1   0  16  213.38   16.50
   1   0  16  216.48   20.40
   2   0  16  655.03   30.20
   2   0  16  671.63   37.50
   3   0  16  146.89   16.70
   4   0  16  366.86   26.10
  10  -1 -16  776.42   40.60
 -10   1  16  857.91   42.60
   9  -1 -16  148.39   17.60
  -9   1  16   84.79   15.60
   8  -1 -16  570.34   31.10
  -8   1  16  556.64   31.70
   7  -1 -16   43.60    9.20
  -7   1  16   38.20   10.90
   6  -1 -16 1007.20   38.10
  -6   1  16 1049.49   44.60
   5  -1 -16   68.89    9.80
  -5   1  16  108.39   13.60
   4  -1 -16  735.23   27.20
  -4   1  16  701.03   35.10
   3  -1 -16  561.44   21.30
  -3   1  16  532.65   29.70
   2  -1 -16  976.60   28.50
  -2   1  16  970.50   42.10
   1  -1 -16  409.76   13.70
   1  -1 -16  413.76   12.60
  -1   1  16  387.86   25.80
   0   1  16  446.66   33.80
   0   1  16  460.65   19.50
   1   1  16  675.33   33.00
   1   1  16  651.63   36.30
   2   1  16  189.28   21.30
   2   1  16  168.38   16.10
   3   1  16  348.57   24.30
   4   1  16   65.49   14.20
  10  -2 -16  662.53   36.20
 -10   2  16  653.73   37.40
   9  -2 -16    0.20    6.80
  -9   2  16   13.40    8.70
   8  -2 -16  769.32   34.80
  -8   2  16  727.03   37.50
   7  -2 -16   10.00    5.70
  -7   2  16    3.70    6.20
   6  -2 -16 1083.29   39.00
  -6   2  16 1127.29   47.50
   5  -2 -16  136.79   11.30
  -5   2  16  112.99   14.40
   4  -2 -16  551.94   21.40
  -4   2  16  554.24   31.00
   3  -2 -16  471.15   17.00
  -3   2  16  501.95   29.20
  -2   2  16  458.05   27.90
  -1   2  16  657.83   37.90
   0   2  16  286.07   23.40
   0   2  16  264.27   15.10
   1   2  16  703.63   29.70
   1   2  16  725.23   39.20
   2   2  16   81.49   14.90
   2   2  16   74.59   13.50
   3   2  16  757.52   50.99
  10  -3 -16  590.24   33.20
 -10   3  16  576.74   35.40
   9  -3 -16    3.20    6.90
  -9   3  16    7.50    7.50
   8  -3 -16  775.82   34.70
  -8   3  16  766.22   39.60
   7  -3 -16   93.29   11.90
  -7   3  16  151.88   17.40
   6  -3 -16 1096.49   37.60
  -6   3  16 1064.09   46.90
   5  -3 -16  328.17   16.20
  -5   3  16  334.67   36.50
   4  -3 -16  655.83   22.20
  -4   3  16  745.93   45.80
  -2   3  16  274.77   22.00
  -1   3  16  534.15   18.30
  -1   3  16  563.14   32.20
   0   3  16   58.29   12.00
   0   3  16   49.40   10.00
   1   3  16  592.64   27.80
   1   3  16  586.74   35.60
   2   3  16   16.90   10.50
   2   3  16    3.30    9.50
   3   3  16  767.92   39.00
  10  -4 -16  535.55   30.50
 -10   4  16  547.25   35.00
   9  -4 -16  138.49   16.60
  -9   4  16  146.69   18.50
   8  -4 -16  583.44   28.40
  -8   4  16  587.14   34.30
   7  -4 -16  282.07   17.60
  -7   4  16  260.57   22.90
   6  -4 -16  594.64   24.00
  -6   4  16  541.75   32.40
   5  -4 -16  439.06   17.90
  -5   4  16  479.05   29.50
   4  -4 -16  236.08    9.00
  -4   4  16  253.07   22.00
  -3   4  16  737.33   37.10
  -2   4  16  106.99   15.80
  -1   4  16  630.24   35.20
  -1   4  16  579.34   22.10
   0   4  16  131.59   17.50
   0   4  16  118.49   13.10
   1   4  16  447.86   25.80
   1   4  16  544.05   34.60
   2   4  16   12.60   17.10
   2   4  16   -1.00   10.60
  10  -5 -16  321.07   24.30
   9  -5 -16  484.45   27.20
  -9   5  16  459.45   31.10
   8  -5 -16  328.67   20.70
  -8   5  16  341.77   26.40
   7  -5 -16  400.66   20.80
  -7   5  16  481.65   31.60
   6  -5 -16  229.68   13.70
  -6   5  16  210.78   20.70
   5  -5 -16  607.34   22.80
  -5   5  16  635.04   35.70
  -4   5  16   12.40    8.50
  -3   5  16  916.31   43.40
  -2   5  16   -5.30    7.50
  -1   5  16  528.35   32.50
   0   5  16   -1.50    8.30
   1   5  16  506.25   31.00
   1   5  16  493.35   35.60
 -10   6  16  212.98   24.60
   9  -6 -16  451.05   25.70
  -9   6  16  459.55   32.30
   8  -6 -16   99.49   13.00
  -8   6  16   82.89   16.60
   7  -6 -16  637.24   25.40
  -7   6  16  646.34   37.60
  -6   6  16   31.50   10.70
  -5   6  16  825.12   42.40
  -4   6  16   -0.90    6.90
  -3   6  16  752.52   39.20
  -2   6  16    5.50    7.90
  -1   6  16  488.85   32.10
   0   6  16   10.20   10.50
   9  -7 -16  325.37   22.00
  -9   7  16  326.97   27.80
   8  -7 -16   97.49   16.00
  -8   7  16  115.49   18.80
  -7   7  16  770.22   41.40
  -6   7  16   -3.70    7.60
  -5   7  16  570.04   35.40
  -4   7  16   -1.00    7.90
  -3   7  16  567.34   34.60
  -2   7  16   32.40   12.60
  -1   7  16  473.15   42.40
  -8   8  16   44.10   12.60
  -6   8  16   26.90   11.00
  -5   8  16  293.77   26.00
  -4   8  16   21.40   10.20
  -3   8  16  228.68   32.70
   1  10 -17  307.37   24.30
   0  10 -17   27.60   13.10
   0  10 -17   46.70   12.40
  -1  10 -17  529.65   45.10
  -1  10 -17  543.75   30.40
   3   9 -17  551.44   35.40
   3   9 -17  522.95   31.20
   2   9 -17   94.59   16.10
   2   9 -17   92.99   16.70
   1   9 -17  882.31   39.20
   1   9 -17  869.91   42.00
   0   9 -17    8.00    8.20
   0   9 -17    9.80    8.40
  -1   9 -17  621.54   33.90
  -1   9 -17  562.54   30.70
  -2   9 -17   19.70    8.90
  -2   9 -17   31.90    9.40
  -3   9 -17  291.87   24.20
  -3   9 -17  312.47   23.50
   4   8 -17    1.40    9.30
   4   8 -17   -3.10    8.40
   3   8 -17  623.54   35.10
   3   8 -17  606.94   31.70
   2   8 -17    8.90    8.40
   2   8 -17   16.40   10.00
   1   8 -17  696.23   35.50
   1   8 -17  721.33   40.70
   0   8 -17  175.58   16.70
   0   8 -17  162.68   17.90
  -1   8 -17  639.84   33.90
  -1   8 -17  652.03   30.90
  -2   8 -17   70.59   14.10
  -2   8 -17   56.49   11.90
  -3   8 -17  430.76   25.90
  -3   8 -17  383.76   25.30
  -4   8 -17  172.08   17.80
  -4   8 -17  162.88   18.70
   6   7 -17    2.50   10.10
   6   7 -17   13.20   17.10
   5   7 -17  265.77   21.90
   5   7 -17  272.27   24.90
   4   7 -17   -4.20    7.60
   4   7 -17    9.70    7.90
   3   7 -17  609.74   29.70
   3   7 -17  644.94   34.10
   2   7 -17  103.39   15.00
   2   7 -17   86.69   12.20
   1   7 -17  510.35   28.90
   1   7 -17  496.65   25.60
   0   7 -17  222.98   17.00
   0   7 -17  258.67   20.30
  -1   7 -17   87.59   13.90
  -1   7 -17   94.89   12.20
  -2   7 -17  424.76   23.70
  -2   7 -17  405.36   24.70
  -3   7 -17  253.87   19.00
  -3   7 -17  243.18   20.00
  -4   7 -17  245.48   19.50
  -4   7 -17  265.37   21.30
   6   6 -17    9.20    9.40
   5   6 -17  323.37   21.30
   5   6 -17  345.57   26.40
   4   6 -17  132.79   16.40
   4   6 -17  141.29   14.60
  -4  -6  17  128.49   12.00
   3   6 -17  466.55   27.70
   3   6 -17  455.45   23.50
   2   6 -17  423.36   24.90
   2   6 -17  360.86   20.40
  -2  -6  17  354.56   19.80
   1   6 -17  403.66   35.80
   1   6 -17  412.16   21.50
  -1  -6  17  371.46   21.10
   0   6 -17  431.86   26.70
   0   6 -17  419.46   22.00
  -1   6 -17  129.59   14.50
  -1   6 -17  150.68   13.30
  -2   6 -17  508.15   25.70
  -3   6 -17   45.10   10.60
  -3   6 -17   23.70    8.10
  -4   6 -17  406.46   24.60
  -4   6 -17  447.06   25.90
   7   5 -17  578.04   35.80
   6   5 -17   16.70   10.00
   6   5 -17   16.70    8.10
  -6  -5  17   21.60    7.80
   5   5 -17  717.13   29.40
   5   5 -17  774.72   38.00
  -5  -5  17  730.83   30.00
   4   5 -17  383.76   24.80
   4   5 -17  334.37   18.90
  -4  -5  17  349.96   19.70
   3   5 -17  394.26   20.40
  -3  -5  17  408.16   21.60
   2   5 -17  460.15   25.60
   2   5 -17  466.65   21.50
  -2  -5  17  459.85   23.20
   1   5 -17  100.29   10.70
   1   5 -17  101.09   12.60
  -1  -5  17  137.09   13.50
   0   5 -17  847.32   31.50
   0   5 -17  861.61   34.90
   0  -5  17  804.52   35.00
  -1   5 -17   80.39   10.40
  -1   5 -17   72.99   11.20
  -2   5 -17  901.01   35.80
  -2   5 -17  891.61   34.80
  -3   5 -17    0.00    6.20
  -4   5 -17  503.45   28.80
  -4   5 -17  511.35   27.80
  -5   5 -17    1.50    7.80
  -5   5 -17    7.30    8.40
  -8  -4  17  127.69   19.00
   7   4 -17  279.37   24.40
  -7  -4  17  294.27   21.60
   6   4 -17  194.48   18.80
   6   4 -17  145.69   13.20
  -6  -4  17  163.38   16.20
   5   4 -17  457.85   19.90
   5   4 -17  409.46   26.50
  -5  -4  17  504.05   25.00
   4   4 -17  571.84   29.60
   4   4 -17  580.24   22.60
  -4  -4  17  603.54   27.80
   3   4 -17  206.28   16.70
   3   4 -17  206.98   12.80
  -3  -4  17  201.78   15.90
   2   4 -17  735.93   26.70
   2   4 -17  745.33   32.20
  -2  -4  17  748.63   32.40
   1   4 -17   55.69    7.80
   1   4 -17   58.49    9.70
  -1  -4  17   52.99   10.40
   0   4 -17  630.14   25.40
   0   4 -17  694.63   29.10
   0  -4  17  688.83   32.10
  -1   4 -17    4.60    4.90
  -1   4 -17    3.40    4.80
   1  -4  17    7.10    6.50
  -2   4 -17  970.60   35.90
  -2   4 -17 1043.30   37.40
  -3   4 -17   -2.00    5.70
  -3   4 -17    5.90    6.60
  -4   4 -17  729.63   33.40
  -4   4 -17  693.53   29.10
   4  -4  17  705.43   36.40
   5  -4  17  100.29   18.30
   8   3 -17  150.58   19.40
  -8  -3  17  172.58   30.40
   7   3 -17  296.37   23.50
  -7  -3  17  277.97   21.80
   6   3 -17  315.87   22.90
  -6  -3  17  326.07   22.20
   5   3 -17  121.89   14.60
   5   3 -17  138.19    9.00
  -5  -3  17  137.29   14.20
   4   3 -17  692.13   31.50
   4   3 -17  646.24   20.80
  -4  -3  17  700.13   31.30
   3   3 -17   57.49    9.70
   3   3 -17   64.69    6.60
  -3  -3  17   52.79   10.30
   2   3 -17 1036.80   32.20
   2   3 -17 1097.59   39.20
  -2  -3  17 1162.38   43.50
   1   3 -17    2.10    4.60
   1   3 -17    3.40    3.90
  -1  -3  17   -4.00    5.20
   0   3 -17  659.53   26.60
   0   3 -17  648.64   24.70
   0  -3  17  580.74   31.40
  -1   3 -17   33.40    6.60
  -1   3 -17   32.40    6.80
   1  -3  17   26.10    8.10
  -2   3 -17  746.93   30.70
  -2   3 -17  778.62   29.00
  -3   3 -17   87.69   10.40
   3  -3  17   92.29   14.20
   4  -3  17  667.73   35.20
   9   2 -17  150.98   20.40
  -9  -2  17  154.38   19.80
   8   2 -17  450.95   29.80
  -8  -2  17  414.46   27.70
   7   2 -17  166.18   18.10
  -7  -2  17  150.28   16.90
  -6  -2  17  826.32   36.90
   5   2 -17  117.49   13.50
  -5  -2  17  118.49   14.20
   4   2 -17  762.22   32.90
  -4  -2  17  804.52   35.80
   3   2 -17   37.30    8.20
  -3  -2  17   29.90    8.10
   2   2 -17  794.42   24.00
   2   2 -17  911.21   32.20
  -2  -2  17  840.22   37.50
   1   2 -17   44.90    6.10
   1   2 -17   41.10    7.70
  -1  -2  17   36.90    9.40
   0   2 -17  586.14   22.50
   0   2 -17  646.24   26.10
   0  -2  17  600.44   32.20
  -1   2 -17  102.69    9.60
  -1   2 -17   89.99    9.30
   1  -2  17   90.49   14.60
  -2   2 -17  746.43   25.60
   2  -2  17  701.83   31.30
   2  -2  17  726.93   38.50
   3  -2  17  109.89   15.80
   4  -2  17  395.86   27.70
   9   1 -17  153.78   18.90
  -9  -1  17  119.39   18.00
   8   1 -17  710.33   37.10
  -8  -1  17  794.22   38.10
   7   1 -17   35.30    9.30
  -7  -1  17   33.40   10.80
   6   1 -17 1404.46   51.19
  -6  -1  17 1442.06   53.39
   5   1 -17   49.90   10.20
  -5  -1  17   55.69   12.00
   4   1 -17 1324.47   44.60
  -4  -1  17 1322.87   50.29
   3   1 -17    5.40    4.10
  -3  -1  17   12.10    6.40
   2   1 -17  865.91   37.20
  -2  -1  17  870.11   39.00
   1   1 -17   78.89    6.60
   1   1 -17   78.79    8.10
  -1  -1  17   62.69   12.20
   0   1 -17  665.73   23.20
   0   1 -17  630.94   22.80
  -1   1 -17  161.28   11.60
  -1   1 -17  131.99    9.40
   1  -1  17  152.48   17.80
   2  -1  17  679.43   38.30
   2  -1  17  609.14   29.00
   3  -1  17  217.08   20.10
   4  -1  17   89.59   17.70
   9   0 -17   84.39   15.50
  -9   0  17   75.99   16.00
   8   0 -17  642.04   33.70
  -8   0  17  608.34   34.10
   7   0 -17   -0.60    6.90
  -7   0  17    7.40    7.10
   6   0 -17 1088.19   41.40
  -6   0  17 1059.59   45.10
   5   0 -17   47.20    8.90
  -5   0  17   57.39   11.90
   4   0 -17 1040.70   36.40
  -4   0  17  995.70   43.80
   3   0 -17  246.88   14.80
  -3   0  17  259.27   20.90
   2   0 -17  817.12   27.60
  -2   0  17  793.02   37.70
   1   0 -17  245.28   10.10
   1   0 -17  237.68   12.00
  -1   0  17  261.57   25.20
   0   0 -17  612.04   21.80
   0   0 -17  574.84   18.50
   0   0  17  584.14   33.50
   1   0  17  432.76   21.70
   1   0  17  425.16   29.70
   2   0  17  374.46   28.80
   2   0  17  332.87   21.90
   3   0  17  284.57   22.90
   4   0  17   -4.70   10.50
  10  -1 -17  396.66   30.00
 -10   1  17  460.25   31.60
   9  -1 -17    5.90    7.90
  -9   1  17   12.80    8.70
   8  -1 -17  446.96   26.80
  -8   1  17  463.85   29.50
   7  -1 -17   17.70    7.40
  -7   1  17   16.20    9.10
   6  -1 -17  843.12   34.50
  -6   1  17  848.42   43.60
   5  -1 -17  389.26   20.40
  -5   1  17  382.36   26.00
  -4   1  17  449.06   27.90
   3  -1 -17  374.86   16.90
  -3   1  17  359.96   25.00
   2  -1 -17  334.67   13.40
  -1   1  17  597.84   33.40
   0   1  17  211.48   20.40
   0   1  17  194.18   12.90
   1   1  17  884.91   33.60
   1   1  17  875.91   44.10
   2   1  17   61.39   12.30
   2   1  17   52.59   14.70
  10  -2 -17  329.47   25.80
 -10   2  17  331.37   27.20
   9  -2 -17   12.00    9.50
  -9   2  17   15.30    9.00
   8  -2 -17  366.06   23.70
  -8   2  17  324.07   25.80
   7  -2 -17  200.18   16.80
  -7   2  17  199.08   20.20
   6  -2 -17  882.81   33.90
  -6   2  17  845.12   41.20
   5  -2 -17  567.34   23.90
  -5   2  17  549.65   32.50
   4  -2 -17  365.66   16.60
  -4   2  17  341.47   25.20
   3  -2 -17  408.96   15.00
  -3   2  17  424.86   27.40
  -2   2  17  141.99   16.70
  -1   2  17  815.72   40.50
   0   2  17   69.79   10.00
   0   2  17  100.59   15.80
   1   2  17 1373.76   58.29
   1   2  17 1353.76   45.40
   2   2  17    8.40    9.20
   2   2  17    0.60    9.50
   3   2  17  596.14   33.80
  10  -3 -17  646.24   36.00
 -10   3  17  764.72   53.59
   9  -3 -17   81.29   14.60
  -9   3  17   98.89   16.90
   8  -3 -17  403.96   24.50
  -8   3  17  396.06   28.60
   7  -3 -17  535.75   26.00
  -7   3  17  502.45   32.20
   6  -3 -17  443.66   21.90
  -6   3  17  541.25   32.30
   5  -3 -17  476.95   20.10
  -5   3  17  464.05   30.10
   4  -3 -17  171.08    9.50
  -4   3  17  174.18   18.90
  -3   3  17  889.31   42.20
  -2   3  17   24.00    8.70
  -1   3  17  703.03   38.10
   0   3  17    5.50    8.00
   1   3  17 1007.90   37.80
   1   3  17  921.11   47.20
   2   3  17    6.30    9.60
   2   3  17    2.20   11.40
  10  -4 -17  456.45   28.80
 -10   4  17  462.45   33.40
   9  -4 -17  410.16   25.40
  -9   4  17  413.66   29.80
   8  -4 -17  506.65   26.40
  -8   4  17  453.05   31.90
   7  -4 -17  563.74   25.30
  -7   4  17  511.15   32.90
   6  -4 -17   68.49    9.40
  -6   4  17   66.19   14.10
   5  -4 -17  514.95   18.50
  -5   4  17  474.45   31.10
  -4   4  17   98.89   15.60
  -3   4  17  906.11   43.60
  -2   4  17    1.80    6.60
  -1   4  17 1025.70   48.10
   0   4  17   -0.70    7.50
   9  -5 -17  533.45   29.00
  -9   5  17  502.25   36.00
   8  -5 -17  136.09   14.60
  -8   5  17  112.69   19.40
   7  -5 -17  904.01   32.80
  -7   5  17  920.21   45.50
  -6   5  17   -1.10    6.90
  -5   5  17  773.02   41.00
  -4   5  17    5.10    7.30
  -3   5  17  567.94   34.10
  -2   5  17   66.39   15.30
  -1   5  17  535.15   33.60
   9  -6 -17  390.96   24.10
  -9   6  17  380.56   31.00
  -8   6  17   -3.90    8.40
  -7   6  17  905.51   45.70
  -6   6  17   -1.90    7.30
  -5   6  17  587.44   36.30
  -4   6  17   59.59   13.40
  -3   6  17  435.76   30.70
  -2   6  17   27.60   11.10
  -1   6  17  549.54   36.70
  -8   7  17   -1.70   10.70
  -6   7  17    9.70   10.00
  -5   7  17  499.65   33.50
  -4   7  17   60.59   15.50
  -3   7  17  169.98   30.70
   1   9 -18  508.85   29.50
   1   9 -18  498.05   48.40
   0   9 -18  100.79   17.20
   0   9 -18   94.19   15.50
  -1   9 -18  383.66   27.70
  -1   9 -18  331.57   23.90
   3   8 -18  409.16   25.90
   3   8 -18  417.46   29.60
   2   8 -18   43.50   12.00
   2   8 -18   39.80   10.30
   1   8 -18  379.26   26.70
   1   8 -18  398.76   24.40
   0   8 -18  157.08   16.70
   0   8 -18  158.28   18.20
  -1   8 -18  187.18   19.30
  -1   8 -18  138.49   15.50
  -2   8 -18  128.89   18.00
  -2   8 -18  151.28   16.80
  -3   8 -18   65.79   13.20
   5   7 -18  301.37   34.50
   4   7 -18  183.38   18.00
   4   7 -18  157.68   19.10
   3   7 -18  380.16   23.70
   3   7 -18  438.16   28.90
   2   7 -18  232.68   20.60
   2   7 -18  229.58   18.60
   1   7 -18  144.69   17.50
   1   7 -18  136.99   15.20
   0   7 -18  241.08   20.60
   0   7 -18  186.08   16.70
  -1   7 -18  113.29   16.40
  -1   7 -18  101.29   15.30
  -2   7 -18  353.66   22.50
  -2   7 -18  359.96   24.50
  -3   7 -18    3.40    7.50
  -3   7 -18    8.50    8.90
   5   6 -18  378.86   24.60
   5   6 -18  344.17   27.00
   4   6 -18  403.66   22.60
   4   6 -18  382.46   26.60
  -4  -6  18  421.76   21.20
   3   6 -18  320.77   23.20
   3   6 -18  281.37   18.40
  -3  -6  18  290.67   18.20
   2   6 -18  659.73   28.20
   2   6 -18  611.54   32.10
  -2  -6  18  594.34   27.10
   1   6 -18   42.10    9.00
   1   6 -18   73.59   13.10
  -1  -6  18   57.09   10.80
   0   6 -18  542.55   29.10
   0   6 -18  633.34   27.40
  -1   6 -18   61.79   11.20
  -1   6 -18   68.99   12.90
  -2   6 -18  703.33   34.20
  -2   6 -18  746.23   33.60
  -3   6 -18   19.90    8.40
  -3   6 -18   13.50    8.20
   7   5 -18  473.95   35.00
   6   5 -18  229.78   22.20
  -6  -5  18  204.58   17.50
   5   5 -18  285.17   22.80
  -5  -5  18  266.27   18.80
   4   5 -18  839.52   39.00
   4   5 -18  826.72   43.00
  -4  -5  18  808.72   33.10
   3   5 -18  104.89   11.60
   3   5 -18   85.49   13.50
  -3  -5  18   92.29   12.50
   2   5 -18  958.50   33.80
   2   5 -18  984.20   56.69
  -2  -5  18  917.01   37.20
   1   5 -18   79.09   12.00
   1   5 -18   96.99   11.00
  -1  -5  18   57.39   12.10
   0   5 -18  730.43   33.00
   0   5 -18  795.22   30.40
   0  -5  18  794.62   35.60
  -1   5 -18   11.10    7.00
  -1   5 -18   15.70    6.00
  -2   5 -18  936.81   36.70
  -2   5 -18  944.81   37.20
  -3   5 -18   36.60    8.80
  -4   5 -18  694.23   33.40
  -4   5 -18  635.14   30.10
   7   4 -18  232.48   23.50
  -7  -4  18  237.48   21.60
   6   4 -18  379.66   26.40
  -6  -4  18  313.97   22.30
   5   4 -18   38.90   10.00
  -5  -4  18   35.60    9.40
   4   4 -18 1105.19   44.50
   4   4 -18 1038.50   34.50
  -4  -4  18 1155.48   42.50
   3   4 -18    8.20    5.80
   3   4 -18    9.80    4.90
  -3  -4  18   -1.20    5.90
   2   4 -18 1040.30   33.20
   2   4 -18  962.50   38.90
  -2  -4  18 1052.89   41.10
   1   4 -18   17.40    6.60
   1   4 -18   12.60    6.90
  -1  -4  18   10.00    6.70
   0   4 -18  907.11   35.30
   0   4 -18  882.61   32.00
   0  -4  18  948.61   40.50
  -1   4 -18   73.49    9.90
  -1   4 -18  112.99   12.40
   1  -4  18   96.09   14.90
  -2   4 -18  898.21   34.40
  -2   4 -18  888.31   34.90
  -3   4 -18  337.77   19.50
  -3   4 -18  320.87   21.00
  -4   4 -18  784.62   36.30
   8   3 -18  600.24   36.60
  -8  -3  18  607.14   33.00
   7   3 -18  263.87   23.00
  -7  -3  18  177.58   20.00
   6   3 -18  479.35   29.30
  -6  -3  18  489.15   28.00
   5   3 -18   11.10    6.90
  -5  -3  18   13.50    7.80
   4   3 -18  738.13   34.10
  -4  -3  18  812.42   35.50
   3   3 -18   23.10    7.50
   3   3 -18   29.40    5.80
  -3  -3  18   39.10   10.10
   2   3 -18  717.93   30.70
   2   3 -18  729.43   23.80
  -2  -3  18  730.43   34.10
   1   3 -18  149.39   10.70
   1   3 -18  165.38   13.50
  -1  -3  18  151.18   16.40
   0   3 -18  426.06   21.10
   0   3 -18  432.66   19.70
  -1   3 -18  249.18   15.70
  -1   3 -18  250.27   15.60
   1  -3  18  207.68   20.70
  -2   3 -18  507.15   24.60
  -2   3 -18  476.95   22.00
  -3   3 -18  509.05   26.90
   4  -3  18  266.87   24.10
   8   2 -18  841.82   42.20
  -8  -2  18  881.11   41.30
   7   2 -18   12.50    9.00
  -7  -2  18   12.20    9.20
   6   2 -18 1156.08   46.40
  -6  -2  18 1115.59   46.30
   5   2 -18   -0.20    5.60
  -5  -2  18    6.80    6.40
   4   2 -18  457.05   24.60
  -4  -2  18  456.15   26.60
   3   2 -18   87.69   11.10
  -3  -2  18  100.49   14.10
   2   2 -18  984.00   35.30
  -2  -2  18  952.60   41.50
   1   2 -18  246.58   15.00
   1   2 -18  245.18   12.10
  -1  -2  18  240.78   20.70
   0   2 -18  295.27   16.40
   0   2 -18  285.47   14.90
   0  -2  18  287.77   23.20
  -1   2 -18  646.04   25.60
   1  -2  18  646.94   35.80
  -2   2 -18  457.45   22.90
   2  -2  18  381.36   29.00
   3  -2  18  607.74   36.20
   9   1 -18  113.19   18.60
  -9  -1  18   86.99   18.70
   8   1 -18 1075.99   47.60
  -8  -1  18 1095.69   47.80
   7   1 -18    6.30    7.30
  -7  -1  18    0.90    7.90
   6   1 -18 1158.68   45.60
  -6  -1  18 1081.09   56.49
   5   1 -18  348.97   21.70
  -5  -1  18  364.16   25.10
   4   1 -18  803.02   32.60
  -4  -1  18  837.62   38.50
   3   1 -18  400.86   20.60
  -3  -1  18  381.06   24.90
   2   1 -18  865.41   31.10
  -2  -1  18  885.81   53.99
   1   1 -18  315.47   12.70
   1   1 -18  345.47   16.80
  -1  -1  18  331.97   24.40
   0   1 -18  281.77   17.20
   0   1 -18  304.67   14.30
   0  -1  18  273.67   23.10
  -1   1 -18  741.03   27.50
   1  -1  18  651.83   37.60
   2  -1  18   12.60    8.20
   2  -1  18   16.10    9.80
   9   0 -18   92.59   17.10
  -9   0  18   56.19   12.10
   8   0 -18  820.12   39.20
  -8   0  18  828.12   41.40
   7   0 -18   44.50   10.50
  -7   0  18   42.70   12.50
   6   0 -18  542.75   27.50
  -6   0  18  547.05   32.20
   5   0 -18  537.25   26.10
  -5   0  18  521.45   30.90
   4   0 -18  529.55   24.80
  -4   0  18  587.14   37.90
   3   0 -18  601.64   25.60
  -3   0  18  482.05   29.70
   2   0 -18  287.87   21.70
  -2   0  18  284.37   23.20
   1   0 -18  342.27   14.50
  -1   0  18  413.46   27.70
   0   0 -18  266.17   13.30
   0   0  18  266.87   24.10
   1   0  18 1292.97   54.89
   1   0  18 1183.58   41.10
   2   0  18   -9.00    8.70
   2   0  18    6.00    9.30
   3   0  18  556.74   32.00
   9  -1 -18  134.69   18.00
  -9   1  18  150.88   19.80
   8  -1 -18  255.97   21.60
  -8   1  18  291.47   24.80
   7  -1 -18  731.73   34.10
  -7   1  18  744.83   38.60
   6  -1 -18  698.33   31.00
  -6   1  18  679.93   36.80
   5  -1 -18  424.86   21.70
  -5   1  18  410.06   28.10
   4  -1 -18  208.18   14.10
  -4   1  18  190.98   19.70
  -3   1  18  844.62   40.70
  -2   1  18   58.99   13.40
  -1   1  18  467.95   30.40
   0   1  18  138.09   18.50
   1   1  18 1337.47   45.20
   1   1  18 1467.85   60.29
   2   1  18  114.99   18.50
   2   1  18  130.29   22.60
   9  -2 -18  277.37   22.50
  -9   2  18  273.97   25.20
   8  -2 -18  114.89   15.80
  -8   2  18  103.19   18.20
   7  -2 -18  841.22   35.40
  -7   2  18  819.82   42.00
   6  -2 -18    0.00    6.00
  -6   2  18   -1.30    7.20
   5  -2 -18  620.54   25.60
  -5   2  18  643.44   36.20
  -4   2  18   30.40    9.80
  -3   2  18  789.22   40.20
  -2   2  18    6.30    7.90
  -1   2  18 1114.89   50.09
   0   2  18   21.80   11.30
   1   2  18  219.58   24.40
   2   2  18  103.19   20.80
   9  -3 -18  762.32   36.10
  -9   3  18  698.63   40.40
   8  -3 -18  302.27   21.20
  -8   3  18  262.27   25.60
   7  -3 -18  643.54   29.20
  -7   3  18  663.63   37.80
   6  -3 -18    9.90    5.80
  -6   3  18    6.10    9.00
   5  -3 -18 1063.49   36.60
  -5   3  18  988.50   47.20
  -4   3  18   16.30    8.40
  -3   3  18 1026.20   47.30
  -2   3  18   69.39   15.40
  -1   3  18 1211.58   53.59
   0   3  18  439.16   30.80
   1   3  18  346.57   28.80
   9  -4 -18  502.95   28.50
  -9   4  18  395.16   38.00
   8  -4 -18  108.99   14.50
  -8   4  18   61.79   15.10
   7  -4 -18  971.40   35.50
  -7   4  18  950.50   46.70
  -6   4  18   19.50    9.30
  -5   4  18  838.02   43.30
  -4   4  18   34.30   10.90
  -3   4  18  998.30   47.50
  -2   4  18   72.59   15.40
  -1   4  18   46.80   11.60
   0   4  18  475.75   34.40
   8  -5 -18   25.30    8.60
  -8   5  18   31.40   20.00
  -6   5  18   26.90   10.30
  -5   5  18  568.44   35.80
  -4   5  18   75.59   15.20
  -3   5  18  447.76   31.10
  -2   5  18  634.44   38.00
  -1   5  18  133.99   19.70
  -7   6  18  271.17   26.60
  -6   6  18  125.29   24.90
  -5   6  18  306.47   29.60
  -4   6  18  169.28   26.50
  -3   6  18   17.30   10.60
   2   8 -19  120.29   17.30
   2   8 -19  150.98   28.80
   1   8 -19   27.70   10.90
   1   8 -19    8.60    9.10
   0   8 -19  496.45   30.60
   0   8 -19  514.85   29.40
  -1   8 -19   27.90   10.90
   3   7 -19    6.40   10.00
   3   7 -19    2.00    9.40
   2   7 -19  339.07   25.70
   2   7 -19  368.86   22.50
   1   7 -19   11.00    7.80
   1   7 -19   -7.90    7.90
   0   7 -19  574.64   31.50
  -1   7 -19   -9.80    7.00
  -1   7 -19   -5.40    7.80
  -2   7 -19  349.37   25.20
  -2   7 -19  357.86   24.30
   5   6 -19  167.78   20.90
   4   6 -19  374.86   26.80
   3   6 -19   13.70    8.80
   3   6 -19    6.10    7.50
  -3  -6  19    7.50    8.20
   2   6 -19  341.87   20.30
   2   6 -19  380.46   25.20
  -2  -6  19  315.67   21.30
   1   6 -19   -1.10    6.30
   1   6 -19   22.80    8.80
   0   6 -19  476.55   24.90
   0   6 -19  543.25   29.00
  -1   6 -19    0.90    7.70
  -1   6 -19   -4.90    6.70
  -2   6 -19  575.44   30.30
  -2   6 -19  610.84   30.00
   6   5 -19  483.95   31.90
   5   5 -19   -5.00    8.40
  -5  -5  19   11.20    9.00
   4   5 -19 1203.08   49.40
  -4  -5  19 1211.78   43.90
   3   5 -19   20.30    8.10
  -3  -5  19   26.30    8.90
   2   5 -19  712.43   33.60
   2   5 -19  698.63   27.40
  -2  -5  19  689.33   32.70
   1   5 -19   68.19   12.40
   1   5 -19   66.59   10.50
  -1  -5  19   67.49   12.90
   0   5 -19  750.62   35.20
   0   5 -19  803.02   30.90
   0  -5  19  756.92   41.00
  -1   5 -19   44.90    8.90
  -1   5 -19   23.70    9.40
  -2   5 -19  252.47   19.40
  -2   5 -19  291.87   20.30
  -3   5 -19  464.95   28.10
  -3   5 -19  430.86   25.70
   7   4 -19    8.40   15.90
  -7  -4  19    4.20   13.20
   6   4 -19  568.34   33.50
  -6  -4  19  547.75   29.30
   5   4 -19   87.89   15.50
  -5  -4  19   64.09   12.10
   4   4 -19  188.18   17.70
  -4  -4  19  217.58   19.30
   3   4 -19   57.69   11.90
  -3  -4  19   76.89   13.30
   2   4 -19  533.95   27.10
  -2  -4  19  498.35   28.30
   1   4 -19  172.18   15.80
  -1  -4  19  187.08   25.90
   0   4 -19  565.14   24.30
   0   4 -19  617.94   27.80
   0  -4  19  590.44   32.00
  -1   4 -19  411.16   21.50
  -1   4 -19  422.46   22.70
  -2   4 -19  252.87   18.40
  -2   4 -19  266.87   18.50
  -3   4 -19   29.10    9.20
   7   3 -19    3.20    8.90
  -7  -3  19   15.30   12.00
   6   3 -19  710.03   36.60
  -6  -3  19  754.32   47.80
   5   3 -19   40.40   10.20
  -5  -3  19   60.59   12.10
   4   3 -19  217.68   23.80
  -4  -3  19  219.18   19.30
   3   3 -19   93.69   13.00
  -3  -3  19  108.79   14.50
   2   3 -19  448.66   23.90
  -2  -3  19  585.24   45.20
   1   3 -19  336.37   19.80
  -1  -3  19  341.57   24.40
   0   3 -19  335.37   19.20
   0   3 -19  344.47   17.40
   0  -3  19  332.07   24.60
  -1   3 -19  747.03   28.50
  -1   3 -19  674.93   27.60
   1  -3  19  670.73   37.70
  -2   3 -19    1.70    6.60
  -3   3 -19  250.87   20.00
   8   2 -19  635.74   37.10
  -8  -2  19  709.53   37.50
   7   2 -19    9.70    8.70
  -7  -2  19    0.80    9.00
   6   2 -19   74.29   13.70
  -6  -2  19   77.29   15.70
   5   2 -19  415.46   28.20
  -5  -2  19  428.66   26.70
   4   2 -19  333.37   21.20
  -4  -2  19  296.27   27.70
   3   2 -19  457.65   24.10
  -3  -2  19  483.65   29.30
   2   2 -19  232.58   16.30
  -2  -2  19  262.27   21.50
   1   2 -19  624.64   26.10
  -1  -2  19  655.83   34.70
   0   2 -19  158.98   12.60
   0  -2  19  157.88   19.20
  -1   2 -19  135.39   12.30
   1  -2  19  154.88   20.20
   8   1 -19  604.24   34.80
  -8  -1  19  605.24   35.80
   7   1 -19  107.09   15.80
  -7  -1  19   90.29   17.00
   6   1 -19  310.27   22.30
  -6  -1  19  280.77   23.50
   5   1 -19   58.49   11.50
  -5  -1  19   65.59   13.50
   4   1 -19  370.96   21.40
  -4  -1  19  371.96   25.80
   3   1 -19  708.83   28.90
  -3  -1  19  688.43   36.10
   2   1 -19  271.67   16.20
  -2  -1  19  288.07   22.90
   1   1 -19  654.53   24.60
  -1  -1  19  649.43   35.80
   0  -1  19    6.80    8.60
   1  -1  19  726.83   40.10
   2  -1  19   45.80   13.30
   8   0 -19  144.49   18.90
  -8   0  19  173.88   21.70
   7   0 -19  398.76   26.20
  -7   0  19  467.55   31.00
   6   0 -19  309.17   21.60
  -6   0  19  343.37   26.40
   5   0 -19  216.68   16.90
  -5   0  19  220.18   21.20
   4   0 -19   63.89   10.50
  -4   0  19   51.29   11.90
   3   0 -19  890.91   31.50
  -3   0  19  903.01   42.50
   2   0 -19    5.50    6.60
  -2   0  19   10.30    7.10
  -1   0  19  350.26   26.90
   0   0  19   47.00   12.90
   1   0  19  327.57   27.80
   2   0  19   38.20   13.80
   8  -1 -19  141.39   18.00
  -8   1  19  138.19   19.90
   7  -1 -19   34.40    9.80
  -7   1  19   33.00   11.30
   6  -1 -19  199.18   16.80
  -6   1  19  148.29   19.60
   5  -1 -19  250.37   16.70
  -5   1  19  251.47   23.50
   4  -1 -19    6.40    5.40
  -4   1  19   -7.30    7.10
  -3   1  19  655.93   36.40
  -2   1  19   15.40    8.80
  -1   1  19  478.35   31.30
   0   1  19   31.20   12.40
   1   1  19  159.48   32.80
   8  -2 -19  140.69   17.40
  -8   2  19  118.39   19.40
   7  -2 -19  523.35   27.50
  -7   2  19  496.15   33.20
   6  -2 -19   22.80    7.90
  -6   2  19   48.40   12.50
   5  -2 -19  760.32   28.60
  -5   2  19  800.62   41.70
  -4   2  19   71.69   15.20
  -3   2  19  970.50   46.40
  -2   2  19   62.49   13.80
  -1   2  19  205.98   21.60
   0   2  19   90.69   18.60
   8  -3 -19    5.90    8.20
  -8   3  19    4.90   10.90
   7  -3 -19 1106.49   40.10
  -7   3  19 1062.39   51.09
   6  -3 -19    0.80    9.90
  -6   3  19   10.30    9.30
  -5   3  19  545.35   34.90
  -4   3  19   51.49   12.30
  -3   3  19  893.41   44.90
  -2   3  19    4.40    9.20
  -1   3  19  215.38   23.80
   0   3  19  190.68   23.90
  -8   4  19   10.00   10.50
  -7   4  19 1123.39   54.09
  -6   4  19   65.99   14.80
  -5   4  19  515.45   34.10
  -4   4  19  248.88   24.10
  -3   4  19  409.16   30.60
  -1   4  19  497.95   34.70
  -7   5  19  194.68   24.40
  -6   5  19   70.49   19.50
  -4   5  19  214.78   28.10
  -3   5  19   31.70   12.10
   1   7 -20   29.60   11.30
   4   6 -20  491.85   31.80
   3   6 -20   27.60    9.60
   2   6 -20  412.86   27.60
  -2  -6  20  411.36   25.80
   1   6 -20  163.58   17.90
   0   6 -20  354.56   24.30
   0   6 -20  356.76   23.50
  -1   6 -20  131.39   17.40
   5   5 -20   19.50   11.30
   4   5 -20  624.84   34.30
  -4  -5  20  607.24   30.80
   3   5 -20   -3.70    7.30
  -3  -5  20    6.60    8.40
   2   5 -20  228.78   19.30
   1   5 -20  209.28   19.10
  -1  -5  20  217.58   20.80
   0   5 -20  409.06   24.90
  -1   5 -20  263.37   20.20
  -1   5 -20  258.77   21.30
   6   4 -20  597.54   35.20
  -6  -4  20  580.24   31.60
   5   4 -20   51.29   11.70
  -5  -4  20   56.19   12.80
   4   4 -20  954.80   42.00
  -4  -4  20  959.20   52.79
   3   4 -20  186.58   17.80
  -3  -4  20  165.38   18.40
   2   4 -20  200.08   17.40
  -2  -4  20  231.68   20.20
  -1  -4  20  463.35   29.40
   0   4 -20  309.67   20.60
   0  -4  20  318.97   25.30
  -1   4 -20  264.97   19.00
   6   3 -20  371.26   27.40
  -6  -3  20  322.37   25.40
   5   3 -20  337.67   24.40
  -5  -3  20  282.57   22.80
   4   3 -20  445.56   26.60
  -4  -3  20  448.06   28.10
  -3  -3  20  144.59   17.20
   2   3 -20  141.49   15.00
  -2  -3  20  179.48   18.70
   1   3 -20  320.27   19.90
  -1  -3  20  336.67   25.60
   0   3 -20  163.38   15.10
   0  -3  20  155.48   20.00
   1  -3  20  279.87   24.90
   7   2 -20  106.39   18.40
  -7  -2  20  113.39   20.50
   6   2 -20  539.15   31.40
  -6  -2  20  542.35   32.90
   5   2 -20  728.93   34.50
  -5  -2  20  730.63   37.10
   4   2 -20  383.96   23.70
  -4  -2  20  406.36   26.90
   3   2 -20  355.86   21.80
  -3  -2  20  387.56   26.70
   2   2 -20   46.40    9.40
  -2  -2  20   62.49   12.60
   1   2 -20  698.73   28.10
  -1  -2  20  676.03   37.30
   0  -2  20   11.70    8.80
   1  -2  20 1247.78   55.89
   7   1 -20  481.85   30.30
  -7  -1  20  531.05   34.00
   6   1 -20  234.98   20.10
  -6  -1  20  223.08   22.60
   5   1 -20  520.45   29.00
  -5  -1  20  566.84   32.80
   4   1 -20   49.10   10.40
  -4  -1  20   55.09   12.40
   3   1 -20  643.14   27.30
  -3  -1  20  571.44   33.90
   2   1 -20   16.50    6.70
  -2  -1  20   13.20    8.70
  -1  -1  20  505.95   32.50
   0  -1  20    3.50    8.20
   7   0 -20  456.25   28.50
  -7   0  20  482.35   32.50
   6   0 -20    9.20    8.20
  -6   0  20   10.30   10.40
   5   0 -20  394.76   23.20
  -5   0  20  404.96   28.50
   4   0 -20    4.30    6.40
  -4   0  20    3.30    8.10
  -3   0  20 1044.10   47.80
  -2   0  20  141.79   18.80
  -1   0  20 1163.28   52.29
   0   0  20   18.90   11.80
   7  -1 -20  571.94   30.70
  -7   1  20  538.75   35.50
   6  -1 -20   47.70   10.50
  -6   1  20   45.70   12.20
   5  -1 -20  483.55   23.70
  -5   1  20  474.45   32.00
  -4   1  20   37.50   10.20
  -3   1  20  329.27   26.90
  -2   1  20  128.99   19.60
  -1   1  20  284.87   26.30
   0   1  20  586.64   38.00
  -7   2  20  964.00   49.10
  -6   2  20   -4.10    8.90
  -5   2  20  658.13   38.40
  -4   2  20  196.58   22.60
  -3   2  20  489.65   33.10
  -2   2  20   64.29   15.00
  -1   2  20  331.27   27.80
  -7   3  20  965.50   54.19
  -6   3  20   12.30   11.00
  -5   3  20  435.06   31.20
  -2   3  20  839.82   45.30
  -6   4  20  121.49   20.70
  -5   4  20  193.48   22.00
  -4   4  20  428.26   32.60
   2   5 -21  330.87   23.50
  -2  -5  21  305.27   24.40
   4   4 -21  400.86   27.30
  -4  -4  21  392.66   27.30
   3   4 -21  339.37   24.20
  -3  -4  21  337.07   25.60
   2   4 -21   51.69   11.30
  -2  -4  21   23.40   11.40
   1   4 -21  442.46   25.60
  -1  -4  21  486.65   30.90
   5   3 -21  432.56   28.20
  -5  -3  21  401.36   28.60
   4   3 -21  520.95   29.10
  -4  -3  21  476.65   30.30
   3   3 -21  327.97   22.80
  -3  -3  21  315.17   25.40
  -2  -3  21    5.90    9.00
   1   3 -21  289.47   26.90
  -1  -3  21  244.88   23.60
   0  -3  21  103.09   19.50
   5   2 -21  508.65   29.20
  -5  -2  21  485.45   31.10
   4   2 -21   42.90   10.70
  -4  -2  21   52.29   12.60
   3   2 -21  612.84   29.20
  -3  -2  21  599.54   34.70
  -2  -2  21   -5.40    8.60
  -1  -2  21  776.92   41.40
   6   1 -21   18.60   10.40
  -6  -1  21   23.40   11.10
   5   1 -21  948.81   39.40
  -5  -1  21  955.00   45.70
   4   1 -21   -2.40    8.10
  -4  -1  21    0.90    9.20
  -3  -1  21  526.45   33.40
  -2  -1  21  177.28   21.70
  -1  -1  21  700.43   40.30
   6   0 -21  242.18   21.40
  -6   0  21  316.87   27.10
   5   0 -21 1515.85   50.69
  -5   0  21 1469.95   60.29
  -4   0  21  130.69   19.10
  -3   0  21  624.74   37.10
  -2   0  21  207.28   23.30
  -1   0  21  131.79   24.40
  -6   1  21   65.79   14.80
  -5   1  21  704.03   40.30
  -4   1  21  165.98   21.30
  -3   1  21  195.78   22.50
  -2   1  21  423.76   33.50
  -5   2  21  486.05   37.00
  -4   2  21  379.46   30.90
   0   0   0    0.00    0.00

_computing_structure_solution     'SHELXT 2014/5 (Sheldrick, 2014)'
;
_shelx_hkl_checksum                71427
_olex2_submission_special_instructions  'No special instructions were received'
