data_oav-32
_audit_creation_date               2023-05-02
_audit_creation_method
;
Olex2 1.5
(compiled 2023.03.06 svn.rbb2c1857 for OlexSys, GUI svn.r6748)
;
_shelx_SHELXL_version_number       '2014/7'
_audit_contact_author_address      ?
_audit_contact_author_email        ?
_audit_contact_author_name         ''
_audit_contact_author_phone        ?
_publ_contact_author_id_orcid      ?
_publ_section_references
;
Dolomanov, O.V., Bourhis, L.J., Gildea, R.J, Howard, J.A.K. & Puschmann, H.
 (2009), J. Appl. Cryst. 42, 339-341.

Sheldrick, G.M. (2015). Acta Cryst. A71, 3-8.

Sheldrick, G.M. (2015). Acta Cryst. C71, 3-8.
;
_chemical_name_common              ?
_chemical_name_systematic          ?
_chemical_formula_moiety           'C6 H3 N5 O2 Zn'
_chemical_formula_sum              'C6 H3 N5 O2 Zn'
_chemical_formula_weight           242.50
_chemical_melting_point            ?
loop_
  _atom_type_symbol
  _atom_type_description
  _atom_type_scat_dispersion_real
  _atom_type_scat_dispersion_imag
  _atom_type_scat_source
 'C' 'C' 0.0033 0.0016 'International Tables Vol C Tables 4.2.6.8 and 6.1.1.4'
 'H' 'H' 0.0000 0.0000 'International Tables Vol C Tables 4.2.6.8 and 6.1.1.4'
 'N' 'N' 0.0061 0.0033 'International Tables Vol C Tables 4.2.6.8 and 6.1.1.4'
 'O' 'O' 0.0106 0.0060 'International Tables Vol C Tables 4.2.6.8 and 6.1.1.4'
 'Zn' 'Zn' 0.2839 1.4301 'International Tables Vol C Tables 4.2.6.8 and 6.1.1.4'

_shelx_space_group_comment
;
The symmetry employed for this shelxl refinement is uniquely defined
by the following loop, which should always be used as a source of
symmetry information in preference to the above space-group names.
They are only intended as comments.
;
_space_group_crystal_system        'orthorhombic'
_space_group_IT_number             52
_space_group_name_H-M_alt          'P n n a'
_space_group_name_Hall             '-P 2a 2bc'
loop_
  _space_group_symop_operation_xyz
 'x, y, z'
 '-x+1/2, -y, z'
 '-x+1/2, y+1/2, -z+1/2'
 'x, -y+1/2, -z+1/2'
 '-x, -y, -z'
 'x-1/2, y, -z'
 'x-1/2, -y-1/2, z-1/2'
 '-x, y-1/2, z-1/2'

_cell_length_a                     14.2161(10)
_cell_length_b                     13.2099(11)
_cell_length_c                     13.5085(10)
_cell_angle_alpha                  90
_cell_angle_beta                   90
_cell_angle_gamma                  90
_cell_volume                       2536.8(3)
_cell_formula_units_Z              8
_cell_measurement_reflns_used      2368
_cell_measurement_temperature      150.00
_cell_measurement_theta_max        24.69
_cell_measurement_theta_min        2.59
_shelx_estimated_absorpt_T_max     ?
_shelx_estimated_absorpt_T_min     ?
_exptl_absorpt_coefficient_mu      1.922
_exptl_absorpt_correction_T_max    0.7453
_exptl_absorpt_correction_T_min    0.6174
_exptl_absorpt_correction_type     multi-scan
_exptl_absorpt_process_details
;
SADABS-2016/2 (Bruker,2016/2) was used for absorption correction.
wR2(int) was 0.1021 before and 0.0582 after correction.
The Ratio of minimum to maximum transmission is 0.8284.
The \l/2 correction factor is Not present.
;
_exptl_absorpt_special_details     ?
_exptl_crystal_colour              ?
_exptl_crystal_density_diffrn      1.270
_exptl_crystal_density_meas        ?
_exptl_crystal_density_method      ?
_exptl_crystal_description         ?
_exptl_crystal_F_000               960
_exptl_crystal_size_max            ?
_exptl_crystal_size_mid            ?
_exptl_crystal_size_min            ?
_exptl_transmission_factor_max     ?
_exptl_transmission_factor_min     ?
_diffrn_reflns_av_R_equivalents    0.0617
_diffrn_reflns_av_unetI/netI       0.0483
_diffrn_reflns_Laue_measured_fraction_full  0.998
_diffrn_reflns_Laue_measured_fraction_max  0.998
_diffrn_reflns_limit_h_max         16
_diffrn_reflns_limit_h_min         -17
_diffrn_reflns_limit_k_max         16
_diffrn_reflns_limit_k_min         -10
_diffrn_reflns_limit_l_max         15
_diffrn_reflns_limit_l_min         -16
_diffrn_reflns_number              12426
_diffrn_reflns_point_group_measured_fraction_full  0.998
_diffrn_reflns_point_group_measured_fraction_max  0.998
_diffrn_reflns_theta_full          25.242
_diffrn_reflns_theta_max           25.687
_diffrn_reflns_theta_min           2.080
_diffrn_ambient_temperature        150.00
_diffrn_detector_area_resol_mean   ?
_diffrn_measured_fraction_theta_full  0.998
_diffrn_measured_fraction_theta_max  0.998
_diffrn_measurement_device_type    'Bruker APEX-II CCD'
_diffrn_measurement_method         '\f and \w scans'
_diffrn_radiation_type             MoK\a
_diffrn_radiation_wavelength       0.71073
_diffrn_source                     ?
_diffrn_source_current             1.4
_diffrn_source_power               0.07
_diffrn_source_voltage             50.0
_diffrn_standards_number           0
_reflns_Friedel_coverage           0.000
_reflns_Friedel_fraction_full      .
_reflns_Friedel_fraction_max       .
_reflns_number_gt                  1863
_reflns_number_total               2416
_reflns_special_details
;
 Reflections were merged by SHELXL according to the crystal
 class for the calculation of statistics and refinement.
 
 Structure factors included contributions from the .fab file.
 
 _reflns_Friedel_fraction is defined as the number of unique
 Friedel pairs measured divided by the number that would be
 possible theoretically, ignoring centric projections and
 systematic absences.
;
_reflns_threshold_expression       'I > 2\s(I)'
_computing_cell_refinement         ?
_computing_data_collection         ?
_computing_data_reduction          ?
_computing_molecular_graphics      'Olex2 1.5 (Dolomanov et al., 2009)'
_computing_publication_material    'Olex2 1.5 (Dolomanov et al., 2009)'
_computing_structure_refinement    'SHELXL 2014/7 (Sheldrick, 2015)'
_computing_structure_solution      'SHELXT 2014/5 (Sheldrick, 2014)'
_refine_diff_density_max           1.220
_refine_diff_density_min           -0.996
_refine_diff_density_rms           0.258
_refine_ls_extinction_coef         0.0118(15)
_refine_ls_extinction_expression  
 'Fc^*^=kFc[1+0.001xFc^2^\l^3^/sin(2\q)]^-1/4^'
_refine_ls_extinction_method       'SHELXL-2014/7 (Sheldrick 2014'
_refine_ls_goodness_of_fit_ref     1.155
_refine_ls_hydrogen_treatment      constr
_refine_ls_matrix_type             full
_refine_ls_number_parameters       129
_refine_ls_number_reflns           2416
_refine_ls_number_restraints       0
_refine_ls_R_factor_all            0.0755
_refine_ls_R_factor_gt             0.0602
_refine_ls_restrained_S_all        1.155
_refine_ls_shift/su_max            0.000
_refine_ls_shift/su_mean           0.000
_refine_ls_structure_factor_coef   Fsqd
_refine_ls_weighting_details      
 'w=1/[\s^2^(Fo^2^)+(0.1130P)^2^+1.4371P] where P=(Fo^2^+2Fc^2^)/3'
_refine_ls_weighting_scheme        calc
_refine_ls_wR_factor_gt            0.1756
_refine_ls_wR_factor_ref           0.1890
_refine_special_details            ?
_olex2_refinement_description
;
1. Fixed Uiso
 At 1.2 times of:
  All C(H) groups
2.a Aromatic/amide H refined with riding coordinates:
 C009(H009), C00C(H00C), C00F(H00F)
;
_atom_sites_solution_hydrogens     geom
_atom_sites_solution_primary       dual
_atom_sites_solution_secondary     ?
loop_
  _atom_site_label
  _atom_site_type_symbol
  _atom_site_fract_x
  _atom_site_fract_y
  _atom_site_fract_z
  _atom_site_U_iso_or_equiv
  _atom_site_adp_type
  _atom_site_occupancy
  _atom_site_site_symmetry_order
  _atom_site_calc_flag
  _atom_site_refinement_flags_posn
  _atom_site_refinement_flags_adp
  _atom_site_refinement_flags_occupancy
  _atom_site_disorder_assembly
  _atom_site_disorder_group
 Zn01 Zn 0.18339(5) 0.7500 0.2500 0.0194(3) Uani 1 2 d S T P . .
 Zn02 Zn 0.2500 1.0000 0.29522(6) 0.0242(3) Uani 1 2 d S T P . .
 O003 O 0.6705(2) 0.5930(3) 0.7180(3) 0.0227(8) Uani 1 1 d . . . . .
 N004 N 0.5713(3) 0.7440(3) 0.6383(3) 0.0262(11) Uani 1 1 d . . . . .
 N005 N 0.5168(3) 0.8076(4) 0.5882(3) 0.0278(11) Uani 1 1 d . . . . .
 N006 N 0.2803(3) 0.7952(4) 0.3544(3) 0.0250(10) Uani 1 1 d . . . . .
 C007 C 0.4637(4) 0.7478(4) 0.5299(4) 0.0244(12) Uani 1 1 d . . . . .
 N8 N 0.3134(3) 0.8912(3) 0.3692(3) 0.0296(11) Uani 1 1 d . . . . .
 C009 C 0.3309(4) 0.7331(5) 0.4133(5) 0.0344(14) Uani 1 1 d . . . . .
 H009 H 0.3227 0.6620 0.4193 0.041 Uiso 1 1 calc R U . . .
 O00A O 0.5824(4) 0.4752(4) 0.6433(4) 0.074(2) Uani 1 1 d . . . . .
 C00B C 0.3969(4) 0.7908(5) 0.4635(4) 0.0351(14) Uani 1 1 d . . . . .
 C00C C 0.3827(4) 0.8867(5) 0.4361(4) 0.0387(15) Uani 1 1 d . . . . .
 H00C H 0.4168 0.9433 0.4605 0.046 Uiso 1 1 calc R U . . .
 N7 N 0.5521(4) 0.6468(5) 0.6135(5) 0.0573(17) Uani 1 1 d . . . . .
 C00E C 0.6030(5) 0.5625(5) 0.6600(5) 0.0414(15) Uani 1 1 d . . . . .
 C00F C 0.4817(5) 0.6495(5) 0.5431(5) 0.053(2) Uani 1 1 d . . . . .
 H00F H 0.4525 0.5937 0.5110 0.063 Uiso 1 1 calc R U . . .

loop_
  _atom_site_aniso_label
  _atom_site_aniso_U_11
  _atom_site_aniso_U_22
  _atom_site_aniso_U_33
  _atom_site_aniso_U_23
  _atom_site_aniso_U_13
  _atom_site_aniso_U_12
 Zn01 0.0147(5) 0.0260(5) 0.0175(5) -0.0003(3) 0.000 0.000
 Zn02 0.0218(5) 0.0270(6) 0.0239(5) 0.000 0.000 -0.0002(3)
 O003 0.0239(18) 0.024(2) 0.0198(16) -0.0032(15) -0.0078(15) 0.0059(15)
 N004 0.033(3) 0.022(2) 0.024(2) -0.0054(18) -0.009(2) 0.0053(18)
 N005 0.027(2) 0.027(3) 0.030(2) -0.0049(19) -0.010(2) 0.0086(19)
 N006 0.023(2) 0.026(3) 0.026(2) 0.0013(19) -0.006(2) 0.0076(19)
 C007 0.025(3) 0.018(3) 0.029(3) -0.007(2) -0.023(2) 0.010(2)
 N8 0.034(3) 0.025(3) 0.030(2) -0.002(2) -0.013(2) 0.006(2)
 C009 0.036(3) 0.034(4) 0.033(3) -0.002(3) -0.014(3) 0.002(3)
 O00A 0.102(4) 0.028(3) 0.092(4) -0.019(3) -0.072(4) 0.016(3)
 C00B 0.036(3) 0.035(3) 0.035(3) -0.004(3) -0.016(3) 0.009(3)
 C00C 0.042(3) 0.032(4) 0.042(3) -0.011(3) -0.021(3) 0.002(3)
 N7 0.064(4) 0.051(4) 0.057(4) -0.014(3) -0.025(3) 0.017(3)
 C00E 0.048(4) 0.034(4) 0.043(3) -0.006(3) -0.025(3) 0.013(3)
 C00F 0.063(4) 0.032(4) 0.062(4) -0.016(3) -0.047(4) 0.014(3)

_geom_special_details
;
 All esds (except the esd in the dihedral angle between two l.s. planes)
 are estimated using the full covariance matrix.  The cell esds are taken
 into account individually in the estimation of esds in distances, angles
 and torsion angles; correlations between esds in cell parameters are only
 used when they are defined by crystal symmetry.  An approximate (isotropic)
 treatment of cell esds is used for estimating esds involving l.s. planes.
;
loop_
  _geom_bond_atom_site_label_1
  _geom_bond_atom_site_label_2
  _geom_bond_distance
  _geom_bond_site_symmetry_2
  _geom_bond_publ_flag
 Zn01 O003 2.126(4) 6_556 ?
 Zn01 O003 2.126(4) 7_575 ?
 Zn01 N004 2.197(4) 6_556 ?
 Zn01 N004 2.197(4) 7_575 ?
 Zn01 N006 2.060(4) 4_565 ?
 Zn01 N006 2.060(4) . ?
 Zn02 O003 1.969(3) 8_665 ?
 Zn02 O003 1.969(3) 7_575 ?
 Zn02 N8 1.969(4) 2_575 ?
 Zn02 N8 1.969(4) . ?
 O003 Zn01 2.126(4) 6_656 ?
 O003 Zn02 1.969(3) 7_676 ?
 O003 C00E 1.302(7) . ?
 N004 Zn01 2.197(4) 6_656 ?
 N004 N005 1.327(6) . ?
 N004 N7 1.355(7) . ?
 N005 C007 1.346(7) . ?
 N006 N8 1.368(7) . ?
 N006 C009 1.350(7) . ?
 C007 C00B 1.425(7) . ?
 C007 C00F 1.335(8) . ?
 N8 C00C 1.339(7) . ?
 C009 H009 0.9500 . ?
 C009 C00B 1.385(8) . ?
 O00A C00E 1.211(8) . ?
 C00B C00C 1.335(9) . ?
 C00C H00C 0.9500 . ?
 N7 C00E 1.470(8) . ?
 N7 C00F 1.382(8) . ?
 C00F H00F 0.9500 . ?

loop_
  _geom_angle_atom_site_label_1
  _geom_angle_atom_site_label_2
  _geom_angle_atom_site_label_3
  _geom_angle
  _geom_angle_site_symmetry_1
  _geom_angle_site_symmetry_3
  _geom_angle_publ_flag
 O003 Zn01 O003 170.09(19) 6_556 7_575 ?
 O003 Zn01 N004 76.26(14) 7_575 7_575 ?
 O003 Zn01 N004 76.26(15) 6_556 6_556 ?
 O003 Zn01 N004 96.44(15) 6_556 7_575 ?
 O003 Zn01 N004 96.44(15) 7_575 6_556 ?
 N004 Zn01 N004 87.0(2) 7_575 6_556 ?
 N006 Zn01 O003 101.60(16) . 6_556 ?
 N006 Zn01 O003 101.60(16) 4_565 7_575 ?
 N006 Zn01 O003 85.10(15) 4_565 6_556 ?
 N006 Zn01 O003 85.10(15) . 7_575 ?
 N006 Zn01 N004 91.46(18) . 6_556 ?
 N006 Zn01 N004 91.46(18) 4_565 7_575 ?
 N006 Zn01 N004 160.98(17) . 7_575 ?
 N006 Zn01 N004 160.98(17) 4_565 6_556 ?
 N006 Zn01 N006 96.0(2) . 4_565 ?
 O003 Zn02 O003 116.0(2) 7_575 8_665 ?
 N8 Zn02 O003 117.51(18) 2_575 7_575 ?
 N8 Zn02 O003 117.51(18) . 8_665 ?
 N8 Zn02 O003 94.38(17) . 7_575 ?
 N8 Zn02 O003 94.38(17) 2_575 8_665 ?
 N8 Zn02 N8 119.0(3) 2_575 . ?
 Zn02 O003 Zn01 116.83(16) 7_676 6_656 ?
 C00E O003 Zn01 119.2(3) . 6_656 ?
 C00E O003 Zn02 123.2(4) . 7_676 ?
 N005 N004 Zn01 138.7(3) . 6_656 ?
 N005 N004 N7 110.9(4) . . ?
 N7 N004 Zn01 110.5(3) . 6_656 ?
 N004 N005 C007 104.7(4) . . ?
 N8 N006 Zn01 126.8(3) . . ?
 C009 N006 Zn01 125.8(4) . . ?
 C009 N006 N8 107.0(4) . . ?
 N005 C007 C00B 120.6(5) . . ?
 C00F C007 N005 112.7(5) . . ?
 C00F C007 C00B 126.7(5) . . ?
 N006 N8 Zn02 116.4(3) . . ?
 C00C N8 Zn02 135.4(4) . . ?
 C00C N8 N006 108.1(5) . . ?
 N006 C009 H009 125.8 . . ?
 N006 C009 C00B 108.4(5) . . ?
 C00B C009 H009 125.8 . . ?
 C009 C00B C007 122.8(6) . . ?
 C00C C00B C007 130.8(6) . . ?
 C00C C00B C009 106.5(5) . . ?
 N8 C00C H00C 125.1 . . ?
 C00B C00C N8 109.9(5) . . ?
 C00B C00C H00C 125.1 . . ?
 N004 N7 C00E 120.9(5) . . ?
 N004 N7 C00F 107.0(5) . . ?
 C00F N7 C00E 132.1(6) . . ?
 O003 C00E N7 112.6(5) . . ?
 O00A C00E O003 125.8(5) . . ?
 O00A C00E N7 121.5(6) . . ?
 C007 C00F N7 104.8(6) . . ?
 C007 C00F H00F 127.6 . . ?
 N7 C00F H00F 127.6 . . ?

loop_
  _geom_torsion_atom_site_label_1
  _geom_torsion_atom_site_label_2
  _geom_torsion_atom_site_label_3
  _geom_torsion_atom_site_label_4
  _geom_torsion
  _geom_torsion_site_symmetry_1
  _geom_torsion_site_symmetry_2
  _geom_torsion_site_symmetry_3
  _geom_torsion_site_symmetry_4
  _geom_torsion_publ_flag
 Zn01 O003 C00E O00A -172.6(6) 6_656 . . . ?
 Zn01 O003 C00E N7 8.0(7) 6_656 . . . ?
 Zn01 N004 N005 C007 179.2(4) 6_656 . . . ?
 Zn01 N004 N7 C00E 0.4(7) 6_656 . . . ?
 Zn01 N004 N7 C00F -179.7(5) 6_656 . . . ?
 Zn01 N006 N8 Zn02 8.5(6) . . . . ?
 Zn01 N006 N8 C00C -173.2(4) . . . . ?
 Zn01 N006 C009 C00B 172.1(4) . . . . ?
 Zn02 O003 C00E O00A -2.5(10) 7_676 . . . ?
 Zn02 O003 C00E N7 178.0(4) 7_676 . . . ?
 Zn02 N8 C00C C00B 179.1(5) . . . . ?
 N004 N005 C007 C00B -179.0(5) . . . . ?
 N004 N005 C007 C00F 1.2(7) . . . . ?
 N004 N7 C00E O003 -5.4(9) . . . . ?
 N004 N7 C00E O00A 175.1(7) . . . . ?
 N004 N7 C00F C007 0.4(8) . . . . ?
 N005 N004 N7 C00E -179.5(6) . . . . ?
 N005 N004 N7 C00F 0.4(7) . . . . ?
 N005 C007 C00B C009 -169.9(5) . . . . ?
 N005 C007 C00B C00C 10.1(11) . . . . ?
 N005 C007 C00F N7 -1.0(8) . . . . ?
 N006 N8 C00C C00B 1.2(7) . . . . ?
 N006 C009 C00B C007 -178.1(5) . . . . ?
 N006 C009 C00B C00C 1.9(7) . . . . ?
 C007 C00B C00C N8 178.1(6) . . . . ?
 N8 N006 C009 C00B -1.2(7) . . . . ?
 C009 N006 N8 Zn02 -178.3(4) . . . . ?
 C009 N006 N8 C00C 0.0(6) . . . . ?
 C009 C00B C00C N8 -1.9(7) . . . . ?
 C00B C007 C00F N7 179.2(6) . . . . ?
 N7 N004 N005 C007 -1.0(6) . . . . ?
 C00E N7 C00F C007 -179.8(7) . . . . ?
 C00F C007 C00B C009 9.9(11) . . . . ?
 C00F C007 C00B C00C -170.1(7) . . . . ?
 C00F N7 C00E O003 174.8(7) . . . . ?
 C00F N7 C00E O00A -4.7(13) . . . . ?

_smtbx_masks_special_details       ?
loop_
  _smtbx_masks_void_nr
  _smtbx_masks_void_average_x
  _smtbx_masks_void_average_y
  _smtbx_masks_void_average_z
  _smtbx_masks_void_volume
  _smtbx_masks_void_count_electrons
  _smtbx_masks_void_content
 1 -0.250 -0.673 0.250 600.7 335.7 '8 DMF'
 2 0.250 -0.873 0.750 600.7 337.0 '8 DMF'

_smtbx_masks_void_probe_radius     1.2
_smtbx_masks_void_truncation_radius  1.2
_shelx_res_file
;
    oav-32.res created by SHELXL-2014/7

TITL oav-32_a.res in Pnna
REM Old TITL oav-32_a.res in Pnna
REM SHELXT solution in Pnna
REM R1 0.134, Rweak 0.003, Alpha 0.031, Orientation as input
REM Formula found by SHELXT: C8 N3 O2 Zn
CELL 0.71073 14.2161 13.2099 13.5085 90 90 90
ZERR 8 0.001 0.0011 0.001 0 0 0
LATT 1
SYMM 0.5-X,-Y,+Z
SYMM 0.5-X,0.5+Y,0.5-Z
SYMM +X,0.5-Y,0.5-Z
SFAC C H N O Zn
UNIT 48 24 40 16 8

L.S. 6 0 0
PLAN  6
TEMP -123.15
CONF
BOND $H
list 4
fmap 2 53
ACTA
MORE -1
ABIN
REM <olex2.extras>
REM <HklSrc "%.\\oav-32.hkl">
REM </olex2.extras>

WGHT    0.113000    1.437100
EXTI    0.011767
FVAR       0.30013
ZN01  5    0.183394    0.750000    0.250000    10.50000    0.01465    0.02600 =
         0.01749   -0.00032    0.00000    0.00000
ZN02  5    0.250000    1.000000    0.295219    10.50000    0.02175    0.02697 =
         0.02393    0.00000    0.00000   -0.00022
O003  4    0.670476    0.593032    0.717981    11.00000    0.02393    0.02444 =
         0.01977   -0.00325   -0.00779    0.00592
N004  3    0.571281    0.744032    0.638263    11.00000    0.03262    0.02226 =
         0.02361   -0.00538   -0.00911    0.00534
N005  3    0.516806    0.807558    0.588233    11.00000    0.02705    0.02674 =
         0.02953   -0.00493   -0.00995    0.00857
N006  3    0.280315    0.795168    0.354360    11.00000    0.02257    0.02636 =
         0.02604    0.00134   -0.00554    0.00763
C007  1    0.463747    0.747810    0.529929    11.00000    0.02536    0.01842 =
         0.02935   -0.00747   -0.02263    0.00983
N8    3    0.313378    0.891212    0.369243    11.00000    0.03421    0.02468 =
         0.02979   -0.00241   -0.01277    0.00567
C009  1    0.330902    0.733149    0.413295    11.00000    0.03635    0.03400 =
         0.03290   -0.00201   -0.01368    0.00210
AFIX  43
H009  2    0.322656    0.662048    0.419312    11.00000   -1.20000
AFIX   0
O00A  4    0.582384    0.475170    0.643304    11.00000    0.10243    0.02798 =
         0.09249   -0.01865   -0.07234    0.01595
C00B  1    0.396885    0.790765    0.463519    11.00000    0.03587    0.03488 =
         0.03465   -0.00409   -0.01587    0.00939
C00C  1    0.382725    0.886705    0.436149    11.00000    0.04226    0.03215 =
         0.04154   -0.01097   -0.02124    0.00202
AFIX  43
H00C  2    0.416791    0.943329    0.460527    11.00000   -1.20000
AFIX   0
N7    3    0.552124    0.646815    0.613478    11.00000    0.06404    0.05089 =
         0.05692   -0.01359   -0.02521    0.01727
C00E  1    0.603050    0.562488    0.659975    11.00000    0.04753    0.03374 =
         0.04304   -0.00636   -0.02497    0.01304
C00F  1    0.481681    0.649495    0.543055    11.00000    0.06340    0.03231 =
         0.06232   -0.01634   -0.04676    0.01371
AFIX  43
H00F  2    0.452460    0.593715    0.511044    11.00000   -1.20000
AFIX   0
HKLF 4

REM  oav-32_a.res in Pnna
REM R1 =  0.0602 for    1863 Fo > 4sig(Fo)  and  0.0755 for all    2416 data
REM    129 parameters refined using      0 restraints

END

WGHT      0.1129      1.4498

REM Highest difference peak  1.220,  deepest hole -0.996,  1-sigma level  0.258
Q1    1   0.4646  0.7551  0.5560  11.00000  0.05    1.22
Q2    1   0.4368  0.7572  0.5163  11.00000  0.05    1.20
Q3    1   0.3790  0.7587  0.4652  11.00000  0.05    0.93
Q4    1   0.6411  0.4981  0.5932  11.00000  0.05    0.83
Q5    1   0.3038  0.7587  0.3704  11.00000  0.05    0.80
Q6    1   0.1873  0.9988  0.2358  11.00000  0.05    0.60
;
_shelx_res_checksum                97754
_shelx_hkl_file
;
   0   2   0 4042.30  103.69
   0  -2   0 4234.08  103.89
   0  -3   0   -0.70    2.80
   0   3   0    4.50    3.40
   0  -4   0 7068.69  180.38
   0   4   0 7224.58  180.68
   0   5   0    7.50    5.00
   0  -5   0    0.00    3.80
   0  -6   0  832.72   31.50
   0   6   0  832.92   31.70
   0   7   0   13.70    5.90
   0  -7   0    8.50    5.30
   0  -8   0 3570.94  103.89
   0   8   0 3624.54  104.19
   0   9   0   -3.20    5.00
   0  -9   0   -1.60    4.40
   0  10   0    8.90    6.00
   0 -10   0    9.90    6.80
   0  11   0    1.50    7.60
   0  12   0  966.00   45.50
   0  14   0   13.00   10.40
   0  15   0   -2.80   10.30
   0  16   0  218.78   28.50
   0   0   1   -0.80    0.70
   0   1   1   34.00    3.30
   0  -2  -1    0.80    2.30
   0  -2   1   -3.60    2.00
   0   2   1   -1.50    2.20
   0   2  -1   -0.10    2.30
   0   3   1  226.38   11.40
   0  -3  -1  225.38   11.40
   0  -3   1  226.78   11.20
   0   3  -1  236.48   11.40
   0   4   1   -0.10    3.70
   0  -4   1    2.90    3.40
   0  -4  -1    0.70    3.20
   0   4  -1    3.60    3.60
   0   5   1   60.79    8.40
   0  -5   1   50.19    7.70
   0   5  -1   46.80    8.00
   0  -5  -1   49.40    8.40
   0  -6   1   -2.20    3.40
   0  -6  -1    0.40    3.90
   0   6   1   -0.10    4.00
   0   6  -1    2.50    4.40
   0   7   1  181.98   14.70
   0  -7  -1  176.38   14.10
   0   7  -1  173.78   14.20
   0  -7   1  200.78   14.50
   0  -8  -1    0.50    4.80
   0   8   1    5.70    5.60
   0   8  -1   -0.60    5.60
   0  -8   1   -7.90    3.80
   0   9  -1  233.38   18.50
   0  -9   1  256.07   18.80
   0  -9  -1  252.87   18.60
   0   9   1  242.28   18.60
   0  10  -1    0.50    5.50
   0 -10  -1    5.80    6.10
   0  10   1   -1.80    5.00
   0 -10   1   -2.40    4.40
   0  11   1  161.88   21.90
   0  11  -1  140.89   19.30
   0  12   1   -2.80    6.90
   0  12  -1   -0.80    9.20
   0  13  -1  136.79   32.80
   0  14   1   -5.50    6.80
   0  14  -1    6.50    9.40
   0  15  -1   11.60   10.90
   0  15   1   13.30   11.90
   0  16  -1    0.20   10.50
   0  16   1   -1.50   10.70
   0   0  -2 3332.17   83.39
   0   0   2 3295.87   83.49
   0  -1   2    3.80    2.10
   0  -1  -2    7.00    2.40
   0   1  -2    4.60    2.20
   0   2  -2  604.84   19.80
   0   2   2  625.34   20.30
   0  -2  -2  613.34   20.20
   0  -2   2  602.14   19.70
   0   3   2    5.40    3.70
   0  -3   2   -2.70    3.10
   0  -3  -2    6.60    3.70
   0   3  -2    1.90    3.20
   0   4  -2 1888.01   54.19
   0   4   2 1912.91   54.69
   0  -4   2 1781.62   53.69
   0  -4  -2 1911.71   54.39
   0   5  -2   11.70    4.80
   0  -5   2    3.10    4.00
   0  -5  -2   13.30    4.80
   0  -6   2  185.48   13.20
   0  -6  -2  180.08   13.30
   0   6   2  167.58   13.30
   0   6  -2  200.68   14.20
   0   7   2   12.50    5.60
   0  -7   2    4.70    4.90
   0   7  -2    0.00    4.80
   0  -7  -2    6.80    5.00
   0  -9   2   -0.20    4.30
   0  -9  -2   -0.10    4.50
   0   9   2    7.60    5.70
   0   9  -2   -2.90    4.20
   0 -10  -2   13.80    6.90
   0  12   2  625.14   36.40
   0  12  -2  631.54   36.20
   0  13  -2   -4.10    7.70
   0  13   2   -3.20   11.90
   0  14  -2   -7.90    7.20
   0  14   2    7.20    9.40
   0  15   2   -1.90   12.00
   0  15  -2    6.60   10.00
   0   0   3    4.80    3.30
   0   0  -3   -3.50    2.90
   0  -1  -3   28.00    4.60
   0   1   3   34.30    5.50
   0   1  -3   25.30    3.90
   0  -1   3   23.10    4.10
   0   2   3   -0.40    3.20
   0  -2   3   -1.20    2.90
   0   2  -3    1.70    3.30
   0  -2  -3   -1.50    3.10
   0  -3   3   21.80    5.10
   0   3   3   21.00    4.90
   0   3  -3   24.90    5.80
   0  -3  -3   36.90    6.30
   0  -4   3    1.00    3.50
   0  -4  -3    1.30    4.40
   0   4   3    1.20    4.20
   0   4  -3   -3.90    3.40
   0  -5  -3  409.46   19.70
   0  -5   3  395.46   19.10
   0   5   3  409.86   20.00
   0   5  -3  441.56   20.10
   0   6  -3    0.90    3.90
   0   6   3    2.40    4.10
   0  -6   3   -2.80    3.20
   0  -6  -3   -2.10    3.60
   0  -7   3  412.56   21.50
   0   7   3  401.46   22.60
   0   7  -3  383.96   21.90
   0  -7  -3  350.06   20.70
   0  -8   3    5.20    5.30
   0   8  -3    8.20    5.40
   0  -8  -3    3.30    5.00
   0   8   3    1.30    5.40
   0   9  -3  221.78   18.30
   0   9   3  225.48   18.80
   0 -10  -3    3.20    6.50
   0  10  -3   -5.70    4.60
   0  10   3   -4.60    5.40
   0 -10   3   -7.50    4.10
   0  11  -3  200.58   23.60
   0  11   3  127.79   17.50
   0  12   3    4.60   10.40
   0  12  -3  -12.30    6.30
   0  13  -3   29.10   10.90
   0  13   3   23.60   11.20
   0  14   3   -7.00    9.60
   0  14  -3   -9.10    7.60
   0  15   3   21.10   13.20
   0  15  -3   78.29   18.50
   0   0   4  150.98    9.90
   0   0  -4  130.39    9.10
   0   1  -4   -2.50    3.20
   0   1   4    4.10    3.60
   0   1  -4   -0.80    2.80
   0  -1  -4   -1.10    3.10
   0   2  -4  102.29    7.70
   0  -2  -4   89.49    7.90
   0  -2   4   93.79    7.40
   0   2   4  105.49    9.90
   0  -3   4    3.90    3.30
   0   3   4    6.00    4.50
   0   3  -4   -1.40    3.00
   0  -3  -4   -4.60    2.60
   0  -4  -4 1042.60   41.40
   0   4  -4 1008.00   34.80
   0   4   4 1108.79   36.40
   0  -5   4   -0.30    3.60
   0   5   4    7.90    5.40
   0   5  -4   -2.30    3.70
   0  -5  -4    3.40    4.60
   0  -6  -4  392.36   20.50
   0   6  -4  360.16   20.00
   0  -6   4  371.16   19.80
   0   6   4  388.66   20.90
   0   7  -4    1.80    5.30
   0  -7   4   -1.90    4.40
   0  -7  -4    0.70    4.30
   0   7   4   -1.70    5.40
   0   8  -4  605.24   29.80
   0   8   4  587.84   29.70
   0  -8   4  635.24   29.70
   0  -8  -4  633.74   30.20
   0  -9   4   -1.20    5.40
   0   9  -4   -0.60    5.20
   0   9   4    3.70    6.10
   0  -9  -4    3.50    5.50
   0 -10   4   95.29   14.20
   0 -10  -4   82.29   14.40
   0  10  -4   78.09   13.90
   0  10   4   52.49   10.90
   0  11   4    8.00    7.70
   0  11  -4   -4.00    6.00
   0  12   4  416.96   30.30
   0  12  -4  474.85   31.00
   0  13   4   -8.30    7.40
   0  13  -4    4.30    9.60
   0  14  -4    6.30   10.70
   0  14   4   35.40   14.10
   0  15  -4   -9.30    7.80
   0  15   4    1.40   10.70
   0   0   5   -5.80    3.20
   0   0  -5    1.50    3.70
   0  -1  -5  146.39    9.80
   0   1  -5  149.99   10.80
   0   1  -5  161.98    9.40
   0   1   5  130.09   10.50
   0  -2   5    1.40    3.40
   0  -2  -5   -1.10    3.30
   0   2   5    0.30    3.70
   0   2  -5    0.60    2.70
   0  -3   5  816.12   28.70
   0   3   5  831.22   30.40
   0  -3  -5  896.61   30.30
   0   3  -5  848.12   29.30
   0  -4  -5    0.40    3.50
   0   4  -5    1.40    3.60
   0   4   5   -4.50    3.30
   0  -4   5   -2.80    3.20
   0   5   5 1261.07   43.80
   0  -5   5 1301.27   42.70
   0   5  -5 1318.07   43.30
   0  -5  -5 1265.37   43.30
   0   6  -5    1.20    4.20
   0   6   5   -0.70    5.30
   0  -6   5   -2.80    4.10
   0  -6  -5   -4.70    3.80
   0  -7  -5  655.43   29.90
   0   7  -5  646.54   29.60
   0   7   5  680.63   30.90
   0  -7   5  663.33   29.40
   0   8  -5   -3.50    4.40
   0  -8  -5    7.60    6.50
   0   8   5    4.20    5.90
   0  -8   5   -5.80    3.50
   0   9   5  186.08   19.80
   0   9  -5  214.98   22.50
   0  -9   5  167.48   17.70
   0  -9  -5  181.88   20.20
   0 -10   5    2.30    7.00
   0  10   5    1.10    6.60
   0  10  -5   -4.70    5.50
   0 -10  -5   -3.20    6.30
   0  11  -5    8.10    8.90
   0  11   5    6.40    7.80
   0  12  -5    0.40    7.60
   0  12   5  -11.70    6.00
   0  13   5  302.77   33.10
   0  13  -5  343.57   28.40
   0  14   5    3.60   10.30
   0  14  -5   -9.40    7.60
   0  15  -5   43.50   17.10
   0  15   5   46.20   15.90
   0   0   6  519.15   22.80
   0   0  -6  558.74   22.30
   0   1  -6   -5.50    2.70
   0   1   6   -3.20    4.10
   0  -1  -6   -3.80    3.20
   0   1  -6    0.70    4.20
   0   2   6 1111.59   37.80
   0  -2  -6 1099.69   36.70
   0   2  -6 1134.49   38.90
   0   2  -6 1119.59   35.70
   0  -3  -6   -1.30    3.30
   0   3  -6    1.20    3.30
   0  -3   6   -2.00    3.00
   0   3   6    4.60    4.70
   0  -4   6   54.29    7.80
   0   4  -6   52.19    8.60
   0  -4  -6   76.09   10.20
   0   4   6   52.49    9.00
   0  -5   6    6.50    5.20
   0   5  -6    0.30    4.20
   0  -5  -6   -0.20    4.20
   0   5   6   -0.90    4.60
   0  -6  -6  346.37   19.90
   0   6   6  337.87   21.00
   0   6  -6  320.17   20.50
   0  -6   6  366.86   19.90
   0  -7  -6    5.10    5.90
   0  -7   6   -4.10    3.90
   0   7  -6   -9.50    4.40
   0   7   6   -1.20    4.40
   0   8  -6  264.87   19.30
   0   8   6  285.17   20.80
   0  -8   6  235.78   18.00
   0  -8  -6  279.77   20.10
   0  -9   6    6.50    6.20
   0   9   6   -4.60    5.70
   0  -9  -6    8.30    7.50
   0   9  -6   -2.00    5.80
   0  10   6  102.69   15.80
   0  10  -6  139.09   19.60
   0  11   6   -1.80    6.80
   0  11  -6    0.70    7.00
   0  12  -6  134.59   22.20
   0  12   6   98.49   19.60
   0  13   6   -7.20    7.90
   0  13  -6   -5.80    7.20
   0  14  -6   79.89   18.50
   0  14   6  142.59   25.30
   0  15  -6  -10.50    7.90
   0  15   6   -6.50   11.20
   0   0   7    7.80    5.40
   0   0  -7   -2.80    3.70
   0   1  -7  407.56   18.20
   0  -1  -7  438.36   22.70
   0   1  -7  428.56   23.30
   0   1   7  407.26   20.90
   0  -2  -7    2.90    4.10
   0   2  -7    5.40    5.10
   0   2   7    5.10    4.80
   0   2  -7    1.50    3.10
   0  -3  -7  768.52   29.70
   0   3  -7  772.12   32.20
   0   3  -7  753.62   28.50
   0   3   7  744.43   30.70
   0  -4  -7    0.70    4.00
   0   4  -7   -1.80    3.40
   0  -4   7   -0.10    3.30
   0   4   7   -2.60    4.10
   0   5  -7  593.54   26.80
   0   5   7  600.44   28.30
   0  -5  -7  617.74   27.60
   0  -5   7  588.44   25.90
   0   6  -7    5.10    4.90
   0   6   7    2.60    5.70
   0  -6   7   -0.60    4.20
   0  -6  -7    0.60    4.70
   0   7  -7  419.66   23.90
   0  -7  -7  415.16   24.00
   0   7   7  444.66   25.40
   0  -7   7  403.96   22.90
   0  -8  -7   -2.10    5.30
   0   8  -7    3.10    5.40
   0   8   7    7.50    6.90
   0  -8   7   -8.20    4.00
   0  -9   7   35.70   10.40
   0  -9  -7   32.00   11.50
   0   9   7   51.09   13.00
   0   9  -7   10.30    8.40
   0  10  -7   -2.30    7.00
   0  10   7   -3.40    7.40
   0  11   7   74.99   16.20
   0  11  -7   73.59   15.10
   0  12  -7   -9.80    6.00
   0  12   7  -10.60    7.80
   0  13   7   59.59   17.00
   0  13  -7   22.90   10.30
   0  14  -7   -0.80   10.00
   0  14   7    1.80   12.50
   0   0   8  511.75   24.80
   0   0  -8  470.65   22.90
   0   1  -8    2.30    3.80
   0  -1  -8    5.30    4.60
   0   1  -8   -4.00    4.00
   0   1   8    3.00    5.30
   0   2  -8 1360.16   44.30
   0   2   8 1404.86   48.10
   0  -2  -8 1372.06   46.00
   0   2  -8 1380.86   48.10
   0   3  -8   -0.80    3.50
   0   3  -8    1.20    4.70
   0   3   8    3.50    4.80
   0  -3  -8    2.80    4.20
   0   4  -8  200.58   14.40
   0  -4  -8  166.48   13.70
   0  -4   8  165.88   13.20
   0   4   8  177.08   15.20
   0  -5  -8   -0.10    4.30
   0  -5   8   -0.90    3.80
   0  -6  -8  943.41   38.90
   0  -6   8  995.10   38.20
   0   6  -8  940.91   38.40
   0   6   8 1001.70   41.00
   0   7   8    1.50    6.60
   0   7  -8    1.30    5.40
   0  -7   8    0.90    5.00
   0  -7  -8    2.50    6.00
   0   8  -8  122.99   17.00
   0  -8   8  115.59   16.20
   0   8   8   79.89   14.60
   0  -8  -8   94.69   15.20
   0  -9   8    0.20   11.80
   0   9   8   -4.50    7.50
   0  -9  -8    2.60    8.70
   0   9  -8   -5.40    5.20
   0  10   8  476.65   30.50
   0  10  -8  428.66   28.60
   0  11  -8    2.30    8.00
   0  11   8    5.10    9.10
   0  12   8   47.30   13.80
   0  12  -8   -5.60    8.40
   0  13  -8   -3.00    8.90
   0  13   8   -6.60    7.60
   0  14  -8  163.48   23.20
   0  14   8  125.39   22.00
   0   0  -9   -3.90    4.00
   0   0  -9   -1.20    3.60
   0   1   9   42.60    9.90
   0   1  -9   44.40    9.20
   0   1  -9   49.20    8.20
   0  -1  -9   51.49    9.30
   0   2  -9   -2.40    4.30
   0  -2  -9    1.20    4.20
   0   2   9    5.50    6.00
   0   2  -9   -1.90    3.40
   0   3   9  222.28   17.70
   0   3  -9  217.28   17.50
   0   3  -9  244.98   15.60
   0  -3  -9  230.98   16.10
   0   4   9   -6.40    4.30
   0   4  -9   -0.60    5.30
   0  -4  -9   -5.50    3.40
   0   5  -9  165.68   17.40
   0   5   9  175.58   18.60
   0  -5   9  122.29   14.20
   0  -5  -9  159.08   18.10
   0   6  -9    3.50    5.80
   0  -6   9   -4.20    5.00
   0  -6  -9   -7.60    4.50
   0   6   9   12.20    8.20
   0  -7  -9   89.29   14.70
   0  -7   9   85.39   13.70
   0   7  -9   64.89   12.00
   0   7   9   68.09   13.20
   0   8   9   -3.60    6.00
   0  -8  -9   -1.10    6.70
   0   8  -9   -3.60    6.10
   0  -8   9   -1.70    5.60
   0   9   9   -6.60    6.80
   0   9  -9   -3.60    6.50
   0  10  -9   -0.20    6.30
   0  10   9    3.80    9.20
   0  11   9   -3.00    7.70
   0  11  -9    5.00   11.30
   0  12  -9   -5.30    7.70
   0  12   9   -2.60    8.30
   0  13   9    7.70   11.00
   0  13  -9    1.00   10.00
   0   0 -10  186.78   15.40
   0   0 -10  202.68   14.10
   0   1 -10   -6.40    3.30
   0   1 -10    1.40    4.60
   0   1  10   -4.50    5.30
   0  -1 -10    1.50    4.50
   0   2  10 1226.08   47.50
   0  -2 -10 1230.78   44.70
   0   2 -10 1222.08   42.80
   0   2 -10 1248.98   47.20
   0  -3 -10    1.40    4.90
   0   3 -10   -1.60    5.50
   0   3 -10   -2.30    4.40
   0   4 -10   60.89   12.40
   0   4  10   41.90   10.90
   0   4 -10   45.80    9.30
   0  -4 -10   73.89   12.60
   0   5 -10   -2.40    6.60
   0   5 -10   -1.70    5.00
   0   5  10    9.30    8.50
   0  -5 -10   -1.80    4.80
   0   6  10  988.90   43.40
   0   6 -10  949.90   40.20
   0   7  10    3.30    6.80
   0  -7 -10   -3.20    5.50
   0   7 -10   -5.00    5.10
   0  -7  10   -4.00    4.50
   0   8  10    1.20    7.20
   0   8 -10   11.60    8.60
   0   9 -10   -6.90    6.20
   0   9  10   -1.60    7.70
   0  10  10  526.85   34.30
   0  10 -10  456.15   30.50
   0  11 -10    6.10    8.10
   0  11  10    0.70    9.90
   0  12  10    0.40   10.00
   0  12 -10   11.00   11.20
   0   0 -11   -4.50    5.10
   0   0 -11    0.50    5.40
   0   1 -11   12.70    7.70
   0   1  11    2.80    7.60
   0  -1 -11   13.20    7.00
   0   1 -11    0.70    5.30
   0  -2 -11    0.30    5.40
   0   2  11   -1.30    6.00
   0   2 -11   -2.50    5.80
   0   2 -11    4.80    5.30
   0   3 -11    0.90    5.10
   0   3 -11   -1.40    6.20
   0  -3 -11    2.50    5.50
   0   3  11   -3.90    6.20
   0   4 -11   -1.10    4.60
   0  -4 -11   -3.90    4.80
   0   4  11   -6.30    6.80
   0   4 -11   -5.70    6.30
   0   5  11   13.00    9.50
   0   5 -11    0.20    6.20
   0  -5 -11    9.70    8.60
   0   5 -11    2.30    8.80
   0   6 -11   -1.80    8.10
   0  -6 -11    3.00    6.80
   0   6 -11    1.30    5.60
   0   6  11    4.70    8.00
   0   7 -11    1.50    6.60
   0  -7 -11   -5.00    6.20
   0   7 -11   -4.50    6.60
   0   7  11   -4.00    7.00
   0   8  11  -10.10    6.80
   0   8 -11    1.20    7.00
   0   9 -11   12.00    9.90
   0   9  11   12.10    8.60
   0  10  11    9.40   11.40
   0  11  11    1.10    9.30
   0  11 -11    3.00    8.40
   0   0 -12   17.20    6.80
   0   0 -12   27.80    9.20
   0   1 -12   12.60    7.70
   0   1 -12    3.90    5.20
   0  -1 -12   -1.70    5.70
   0  -1 -12   -6.20    4.00
   0   2 -12  657.33   33.40
   0   2  12  678.33   35.00
   0   2 -12  636.54   29.70
   0  -2 -12  650.03   31.80
   0  -3 -12   10.00    7.20
   0   3 -12    5.80    5.50
   0   3 -12    2.90    7.10
   0   3  12   -7.20    7.20
   0   4 -12   73.79   12.50
   0   4  12   70.69   14.20
   0   5 -12    6.90    8.90
   0  -5 -12    1.70    6.80
   0   5 -12    7.40    6.40
   0   5  12    3.40    9.00
   0   6  12  378.16   27.50
   0  -6 -12  305.37   23.70
   0   6 -12  346.37   28.00
   0   6 -12  374.06   24.20
   0   7  12   12.70    9.70
   0   7 -12    9.90    8.00
   0   8 -12   43.40   12.70
   0   8  12   37.60   13.80
   0   9 -12   -1.50    6.60
   0   9  12    2.40    9.50
   0  10 -12  242.68   26.70
   0  10  12  367.06   30.90
   0  11  12    4.80   10.60
   0  11 -12   -6.00    7.50
   0   0 -13   -0.90    4.80
   0   0 -13   -4.50    6.10
   0  -1 -13   63.49   12.90
   0   1 -13   59.69   11.00
   0  -1 -13   65.89   11.50
   0   1 -13   69.19   13.40
   0   2 -13    5.10    6.10
   0   2  13   -5.40    6.70
   0   3  13  136.49   19.90
   0   3 -13  140.29   17.30
   0  -3 -13  130.09   18.60
   0   3 -13  179.28   22.40
   0   4  13    2.70    8.30
   0  -4 -13   -8.20    5.50
   0   4 -13    4.10    8.50
   0   4 -13   -0.40    5.40
   0  -5 -13    7.30    8.60
   0   5 -13    9.90    9.50
   0   5  13   33.40   12.10
   0   5 -13    2.20    7.50
   0   6 -13   -4.00    6.10
   0   6  13   -1.10    8.40
   0   7  13    7.70   10.10
   0   7 -13    4.80    8.00
   0   8  13    0.90    9.30
   0   8 -13   -3.20    6.60
   0   9 -13   35.30   12.30
   0   9  13   15.00   13.90
   0   0 -14   -1.20    5.90
   0   0 -14    1.70    8.10
   0   1 -14   -3.20    6.00
   0   1 -14   -6.60    6.70
   0  -1 -14   -4.10    5.30
   0  -1 -14   -2.40    7.10
   0  -2 -14  416.96   24.90
   0   2 -14  397.46   28.00
   0  -2 -14  439.76   27.50
   0   2 -14  421.86   24.90
   0  -3 -14   -2.00    7.00
   0   3 -14   -6.60    5.60
   0   3  14    6.10    9.70
   0   3 -14   -3.60    7.80
   0   4 -14   13.30   11.90
   0   4  14   46.20   14.30
   0  -4 -14   26.80   11.00
   0   4 -14   41.20   10.80
   0   5  14    6.20    9.70
   0   5 -14    1.80    6.40
   0   6 -14  162.88   21.00
   0   6  14   85.29   18.30
   0   7  14    4.10   10.60
   0   7 -14    2.50    7.70
   0   8  14    6.30   18.80
   0   8 -14    9.00   10.10
   0   0 -15    6.10    7.10
   0   0 -15    8.90   10.30
   0  -1 -15  119.79   16.40
   0  -1 -15  119.79   18.60
   0   1 -15   85.19   16.90
   0   1 -15  136.59   17.60
   0   2 -15    4.40    6.90
   0  -2 -15   -7.00    5.60
   0  -2 -15   -4.70    8.00
   0   2 -15    2.30   10.50
   0   3 -15   71.99   13.80
   0   4  15    8.50   10.90
   0   4 -15    0.10    6.60
   0   5  15   10.20   11.90
   0   5 -15    6.70    8.10
   0   6 -15    0.20    8.00
   0   6  15   -4.80    9.60
   0   0 -16    3.70    7.20
   0  -1 -16    3.30    7.20
   0   1 -16   -5.10    6.60
   0  -2 -16   61.39   14.10
   0   2 -16   48.30   12.10
   0  -3 -16   -1.60    6.50
   0   3 -16   -0.60    7.00
  -1   0   0   -0.10    0.60
  -1  -1   0    2.10    1.30
  -1   1   0   14.70    2.30
   1  -2   0    0.80    2.60
  -1   2   0    1.60    2.30
  -1  -2   0    0.70    2.60
   1   2   0   -2.40    2.40
  -1  -4   0    1.10    4.10
   1   4   0   -0.30    3.40
  -1   4   0    4.40    4.20
   1  -4   0   -1.00    3.30
   1  -5   0    9.00    4.80
  -1   5   0    2.10    3.90
   1   5   0    4.50    4.10
  -1  -5   0    4.60    4.40
  -1  -6   0   -2.30    3.30
  -1   6   0   -0.40    3.40
   1   6   0   -2.10    3.60
   1  -6   0   -4.50    3.20
   1  -7   0   43.50    7.60
  -1  -7   0   19.30    5.90
   1   7   0   24.80    6.80
  -1   8   0    5.00    6.10
   1   8   0    2.30    5.20
   1  -8   0   -1.10    4.40
  -1  -8   0    3.90    5.80
  -1   9   0   50.29   10.40
  -1  -9   0   13.90    6.60
   1   9   0   21.50    6.90
   1  -9   0   59.79   10.00
  -1  10   0    4.90    6.70
  -1 -10   0    8.50    7.00
   1 -10   0   -0.90    5.00
   1  10   0    4.40    6.10
  -1  11   0   24.10    9.60
   1  11   0   14.20    8.60
   1  12   0    2.30    8.50
  -1  12   0    1.60    8.80
   1  13   0    9.50   15.00
   1  14   0   -2.30    7.70
  -1  14   0   25.20   11.70
   1  15   0   16.10   11.90
  -1  15   0    4.70   12.00
   1  16   0    0.30   11.50
  -1  16   0    5.30   12.20
  -1   0  -1    1.10    1.30
   1  -1   1  507.35   16.10
  -1  -1  -1  548.75   16.80
  -1  -1   1  495.25   14.90
  -1   1  -1  541.55   16.30
   1   1   1  578.94   17.10
  -1  -2  -1   11.30    3.90
   1  -2   1    3.80    2.70
   1   2  -1    9.60    3.00
  -1   2   1    7.40    2.90
  -1   2  -1    7.80    3.30
   1  -2  -1    7.80    2.90
   1   2   1   12.50    3.80
  -1  -2   1   10.50    3.10
  -1  -3  -1  191.78   10.90
  -1   3   1  195.58   10.60
   1  -3   1  202.08   11.00
   1   3  -1  207.78   10.80
  -1  -3   1  214.08   10.90
   1   3   1  214.28   11.50
  -1   3  -1  203.78   10.90
   1  -3  -1  200.38   10.60
  -1  -4  -1 2611.24   72.09
   1   4  -1 2642.44   71.69
   1  -4   1 2533.65   71.59
  -1   4   1 2606.64   71.59
   1   4   1 2627.94   72.39
  -1  -4   1 2604.64   71.49
  -1   4  -1 2570.74   71.79
   1  -4  -1 2687.93   71.69
  -1  -5  -1  101.19   10.20
   1  -5   1   87.19    9.50
   1   5  -1   81.89   10.00
  -1   5   1  122.89   12.70
  -1   5  -1   70.39    8.90
   1  -5  -1   84.99   10.00
  -1  -5   1  106.59   11.80
   1   5   1   86.89    9.90
   1  -6   1  390.56   19.50
  -1  -6  -1  363.56   19.30
  -1   6   1  404.96   19.90
   1   6  -1  349.77   19.00
   1  -6  -1  388.96   19.40
  -1  -6   1  393.16   19.40
  -1   6  -1  389.36   19.90
   1   6   1  345.97   19.20
   1  -7   1  282.97   17.60
   1   7  -1  299.57   18.20
  -1  -7  -1  288.87   18.10
  -1   7   1  296.77   18.10
   1   7   1  262.47   17.70
   1  -7  -1  309.37   18.30
  -1  -7   1  285.57   17.80
  -1   7  -1  285.87   18.10
   1  -8   1 1857.31   61.49
  -1   8   1 1952.10   62.29
  -1  -8  -1 1716.63   60.99
   1   8  -1 1900.01   61.89
   1   8   1 1849.81   62.09
  -1  -8   1 1858.71   61.59
   1  -8  -1 1960.70   62.19
  -1   8  -1 1856.11   62.09
   1  -9   1   31.10    9.40
   1   9  -1   33.30    9.30
  -1   9   1   17.30    8.10
  -1  -9  -1   26.90    8.60
   1  -9  -1   25.80    8.60
  -1   9  -1   21.50    8.20
  -1  -9   1   29.00    9.20
   1   9   1   33.30   10.00
   1  10  -1   67.49   12.10
  -1  10   1  102.29   15.60
   1 -10   1   66.19   11.80
  -1 -10  -1   82.69   13.90
  -1  10  -1   87.79   14.40
   1  10   1  100.59   15.00
   1 -10  -1   77.09   13.10
  -1 -10   1   88.39   14.80
  -1  11   1  317.37   24.30
   1  11  -1  308.67   24.30
   1  11   1  341.67   25.20
  -1  11  -1  314.97   24.10
   1  12  -1  659.43   37.20
  -1  12   1  694.43   37.60
   1  12   1  709.83   38.80
   1  13  -1   15.00   17.20
  -1  13  -1    8.30   13.10
   1  13   1    5.10   16.00
   1  14  -1    4.40    9.30
  -1  14   1    7.70   10.20
   1  14   1   -8.80    9.50
  -1  14  -1    4.90   10.50
  -1  15   1   15.50   10.50
   1  15  -1    6.20   10.20
  -1  15  -1   32.30   15.20
   1  15   1   23.20   12.30
   1  16  -1  180.98   28.90
  -1  16   1  170.48   28.30
  -1  16  -1  200.08   30.20
   1  16   1  106.39   21.80
   1   0  -2    0.50    1.60
  -1   0   2    0.40    1.50
  -1   0  -2    0.80    2.50
   1   0   2   -4.50    2.40
  -1   1   2  283.77    9.70
  -1  -1  -2  294.97   12.10
   1  -1   2  268.57   11.00
   1   1  -2  295.47    9.60
   1   1   2  272.87   12.00
  -1  -1   2  287.57    9.50
  -1   1  -2  284.27   11.20
   1  -1  -2  275.17    9.60
  -1   2   2  951.50   27.30
   1   2  -2  947.01   27.20
   1  -2   2  919.11   28.20
  -1  -2  -2  941.11   29.00
  -1  -2   2  917.61   27.00
  -1   2  -2  909.21   28.30
   1   2   2  929.51   29.10
   1  -2  -2  948.31   27.20
  -1   3   2   44.70    6.10
   1   3  -2   35.10    5.30
   1  -3   2   45.50    6.80
  -1  -3  -2   40.60    6.20
  -1  -3   2   39.70    5.80
   1   3   2   48.30    7.50
  -1   3  -2   43.00    6.00
   1  -3  -2   53.99    6.70
   1   4  -2   32.60    6.10
  -1   4   2   36.20    6.60
   1  -4   2   29.90    6.20
  -1  -4  -2   38.30    7.10
  -1  -4   2   27.90    5.90
  -1   4  -2   37.90    6.80
   1  -4  -2   34.10    6.00
   1   4   2   29.70    6.40
  -1  -5  -2  139.49   11.60
  -1   5   2  156.78   11.70
   1   5  -2  161.38   11.80
   1  -5   2  155.88   11.80
   1  -5  -2  169.18   12.20
  -1  -5   2  165.88   11.60
  -1   5  -2  160.68   12.10
  -1  -6  -2  319.07   18.00
   1  -6   2  324.87   17.80
   1   6  -2  311.87   17.60
  -1   6   2  297.47   17.40
  -1  -6   2  324.07   17.50
  -1   6  -2  302.47   17.40
   1   6   2  297.47   18.00
   1  -6  -2  301.57   17.40
  -1  -7  -2   84.29   11.90
  -1   7   2  109.79   13.90
   1   7  -2  102.09   12.20
   1  -7   2   77.89   10.30
  -1  -7   2  113.19   14.10
  -1   7  -2   91.69   12.80
   1  -7  -2  105.59   12.20
   1   7   2   81.59   11.00
  -1   8   2   41.50    8.70
   1  -8   2   38.60    8.50
   1   8  -2   41.60    8.70
  -1  -8  -2   35.60    9.70
  -1   8  -2   47.70   10.30
   1  -8  -2   53.49    9.60
  -1  -8   2   57.09    9.80
   1   8   2   54.29   10.00
   1   9  -2  299.87   20.80
  -1   9   2  311.57   21.10
   1  -9  -2  286.07   20.20
  -1  -9   2  304.97   20.50
   1   9   2  320.87   22.10
  -1   9  -2  322.57   21.70
   1  10  -2    6.60    6.50
  -1 -10  -2   -0.10    5.80
  -1  10   2    5.50    6.20
   1 -10   2    2.00    5.70
  -1  10  -2    0.90    5.60
   1 -10  -2    0.80    5.50
  -1 -10   2   -4.00    5.00
   1  10   2   -4.30    5.00
   1  11  -2  135.49   18.50
  -1  11   2  117.39   18.30
   1  11   2   82.19   13.90
  -1  11  -2  106.09   17.40
   1  12  -2   83.99   18.10
  -1  12   2   58.39   14.10
   1  12   2   51.59   14.80
  -1  12  -2   61.69   14.90
   1  13  -2    6.00   10.10
  -1  13   2   -2.50   14.50
  -1  13  -2    0.00    7.60
   1  13   2    0.20    9.00
   1  14  -2   -1.10    8.90
  -1  14   2    8.40   10.20
   1  14   2   -5.20    8.50
  -1  14  -2    6.70   10.30
   1  15  -2   61.99   18.40
  -1  15   2   73.79   19.30
   1  15   2   82.19   21.50
  -1  15  -2   49.80   15.30
   1   0  -3  429.76   14.10
  -1   0  -3  428.56   17.30
   1   0   3  423.96   17.50
  -1   0   3  449.06   14.60
  -1   1   3    3.60    2.90
  -1  -1  -3    9.10    3.70
   1   1  -3   12.70    2.90
  -1   1  -3    3.90    4.00
  -1  -1   3    6.30    2.40
  -1   1  -3    2.50    3.00
   1   1   3    7.90    4.50
   1  -1  -3   10.00    3.00
  -1   2   3   68.79    6.80
  -1  -2  -3   75.79    8.40
   1  -2   3   76.79    7.20
   1   2  -3   74.79    6.00
  -1   2  -3   82.99    8.00
  -1  -2   3   80.59    6.10
   1  -2  -3   76.89    6.30
   1   2   3   81.79    8.70
  -1   3   3  122.49    8.70
   1   3  -3  117.39    8.40
   1  -3   3  119.39    9.10
  -1  -3  -3  129.19   12.10
   1  -3  -3  120.99    8.70
  -1   3  -3  108.69    9.00
   1   3   3  127.99   10.20
  -1  -3   3  101.89    7.90
  -1   4   3 1011.80   34.30
  -1  -4  -3 1106.09   39.80
   1  -4   3 1090.49   45.30
   1   4  -3 1040.70   34.10
  -1  -4   3 1101.69   34.40
   1   4   3 1032.30   35.90
   1  -4  -3 1055.19   34.30
  -1   4  -3 1060.49   35.40
   1   5  -3  389.66   18.60
   1  -5   3  347.87   18.20
  -1  -5  -3  373.36   18.80
  -1   5   3  386.16   18.70
  -1  -5   3  355.56   17.70
   1  -5  -3  371.96   18.20
  -1   5  -3  337.77   18.30
   1   5   3  359.46   19.20
  -1  -6  -3   81.79   11.10
   1   6  -3   80.29   10.20
  -1   6   3   54.99    8.80
   1  -6   3   65.99   10.00
  -1  -6   3   65.59    9.20
   1   6   3   84.59   11.60
   1  -6  -3   61.89    9.20
  -1   6  -3   67.09   10.10
   1   7  -3  246.28   17.30
  -1   7   3  257.17   17.50
  -1  -7  -3  251.97   17.30
   1  -7   3  228.28   16.50
  -1   7  -3  234.68   19.70
  -1  -7   3  259.07   17.10
   1  -7  -3  291.37   18.00
  -1  -8  -3  565.04   28.20
   1  -8   3  549.85   27.50
  -1   8   3  542.55   27.70
   1   8  -3  610.44   28.50
   1   8   3  569.44   28.80
   1  -8  -3  572.04   28.10
  -1   8  -3  525.05   27.70
  -1  -8   3  587.44   28.00
  -1  -9  -3    3.30    5.90
  -1   9   3   20.70    7.60
   1  -9   3   -1.10    4.40
   1   9  -3    1.90    4.90
   1   9   3   17.70    8.10
  -1   9  -3   -0.40    5.30
  -1  -9   3    1.70    6.20
   1  -9  -3   11.50    6.40
   1 -10   3   29.70    9.20
   1  10  -3   26.90    9.00
  -1 -10  -3   26.20    8.90
  -1  10   3   40.30   10.00
  -1  10  -3   29.90    9.00
  -1 -10   3   35.00    9.50
   1 -10  -3   28.70    8.70
   1  10   3   47.40   11.80
  -1  11   3   38.50   11.30
   1  11  -3   34.60   10.50
   1  11   3   12.40    8.70
  -1  11  -3   26.20   11.00
   1  12  -3  617.04   35.40
  -1  12   3  602.74   35.50
  -1  12  -3  493.65   32.70
   1  12   3  611.64   36.20
  -1  13   3   57.29   17.60
   1  13  -3   29.90   13.40
   1  13   3   27.20   12.60
  -1  13  -3   23.60   10.70
   1  14  -3   -1.90    9.10
  -1  14   3   16.50   11.00
  -1  14  -3   23.80   11.30
   1  14   3   11.70   12.20
   1  15  -3    1.20    9.80
  -1  15   3   -2.70    9.60
   1  15   3    7.40   11.70
  -1  15  -3   13.60   11.50
   1   0  -4    2.20    3.20
  -1   0  -4    5.40    4.00
  -1   0   4   -3.00    2.90
   1   0   4   -0.70    3.70
  -1  -1  -4   30.20    5.90
   1   1  -4   25.60    4.10
   1   1  -4   24.10    5.00
  -1   1   4   23.10    4.70
  -1   1  -4   31.10    5.30
   1  -1  -4   34.40    5.00
   1   1   4   26.90    6.00
  -1   1  -4   24.30    6.30
  -1  -2  -4   16.40    5.40
  -1   2   4   20.10    4.80
   1   2  -4   19.10    4.30
   1  -2   4   16.10    4.40
   1   2   4   23.40    6.70
  -1   2  -4   15.20    4.70
   1  -2  -4   22.90    4.40
  -1  -2   4   20.60    4.10
   1   3  -4  351.16   15.10
   1  -3   4  309.57   15.40
  -1   3   4  362.66   15.90
  -1  -3  -4  335.17   16.70
   1  -3  -4  364.46   15.60
  -1  -3   4  360.16   15.00
  -1   3  -4  350.06   16.50
   1   3   4  334.57   17.30
  -1  -4  -4    6.00    3.80
   1   4  -4    2.50    3.20
  -1   4   4    2.80    4.30
   1  -4   4    3.30    3.60
   1   4   4    8.20    5.00
   1  -4  -4    6.80    4.10
  -1   4  -4    2.30    4.00
  -1  -4   4    0.30    3.60
   1   5  -4  958.90   33.50
   1  -5   4  917.31   33.80
  -1  -5  -4  955.60   35.10
  -1   5   4  935.81   33.90
  -1  -5   4  982.00   33.60
  -1   5  -4  984.20   35.10
   1   5   4  893.51   35.00
   1  -5  -4  946.11   33.60
  -1  -6  -4   85.59   10.80
   1  -6   4   70.09    9.80
   1   6  -4   72.29   10.90
  -1   6   4   88.69   12.10
  -1  -6   4   77.89   10.90
  -1   6  -4   56.49    9.10
   1  -6  -4   74.99   10.30
   1   6   4   64.89    9.90
  -1  -7  -4  393.36   22.40
   1   7  -4  396.26   25.10
  -1   7   4  417.56   23.10
   1  -7   4  451.35   23.00
   1   7   4  402.26   23.10
   1  -7  -4  419.86   22.20
  -1   7  -4  391.96   22.20
  -1  -7   4  383.46   21.20
  -1  -8  -4   63.19   12.00
  -1   8   4   74.29   13.10
   1   8  -4   69.29   11.00
   1  -8   4   88.09   13.10
   1   8   4   72.09   13.20
  -1  -8   4   65.49   11.90
   1  -8  -4   80.29   12.30
  -1   8  -4   55.69   10.90
   1   9  -4  202.38   17.50
   1  -9   4  202.48   17.30
  -1   9   4  200.48   19.80
  -1  -9  -4  210.58   18.20
   1   9   4  223.48   24.10
  -1   9  -4  214.08   22.50
  -1  -9   4  251.27   33.30
  -1  10   4   46.60   12.80
   1 -10   4   54.39   13.30
   1  10  -4   38.70   10.00
  -1 -10  -4   38.50   11.50
   1  10   4   34.80   11.60
   1 -10  -4   15.90    8.10
  -1 -10   4   26.90    9.60
  -1  10  -4   40.60   11.80
  -1  11   4   90.29   16.60
   1  11  -4   77.39   14.00
  -1  11  -4   70.89   16.40
   1  11   4  147.29   21.60
  -1  12   4    2.00    8.80
   1  12  -4    9.90   10.10
   1  12   4    9.40    9.00
  -1  12  -4    3.70    8.30
  -1  13   4   87.49   17.40
   1  13  -4  109.79   18.30
  -1  13  -4  124.39   21.20
   1  13   4  110.99   21.00
   1  14  -4   -2.90    8.40
  -1  14   4    3.30    8.80
  -1  14  -4    0.20    9.90
   1  14   4    7.70   11.50
   1  15  -4   77.39   21.00
  -1  15   4   45.80   14.90
  -1  15  -4   53.09   16.70
   1  15   4   75.09   18.70
  -1   0  -5  294.77   15.50
   1   0  -5  299.17   13.30
   1   0   5  278.77   16.20
  -1   0   5  295.47   13.80
  -1  -1  -5  159.68   11.30
   1   1  -5  164.18   10.40
   1   1  -5  162.68    8.80
  -1   1   5  153.68   10.20
   1  -1  -5  160.28    9.50
  -1   1  -5  165.18   10.40
   1   1   5  180.78   12.70
  -1   1  -5  180.68   12.50
  -1  -2  -5  528.25   22.00
  -1   2   5  515.55   20.00
   1   2  -5  527.25   19.10
   1   2   5  511.05   22.60
  -1  -2   5  514.05   18.70
   1  -2  -5  528.55   19.50
  -1   2  -5  543.75   21.00
  -1   2  -5  488.25   22.90
   1  -3   5   18.80    5.50
   1   3  -5   16.80    4.80
  -1  -3  -5   17.60    5.30
  -1   3   5   24.70    6.10
  -1  -3   5   25.80    5.50
   1  -3  -5   20.30    6.10
  -1   3  -5   17.70    5.20
   1   3   5   12.80    5.70
   1  -4   5  290.37   15.60
  -1   4   5  283.97   15.50
   1   4  -5  244.28   14.10
  -1  -4  -5  299.67   16.70
   1   4   5  285.37   17.10
  -1   4  -5  285.87   16.10
  -1   5   5   21.40    6.80
   1  -5   5   25.70    6.80
  -1  -5  -5   18.80    6.70
   1   5  -5   26.60    6.30
  -1  -5   5   17.80    5.60
   1   5   5   10.20    5.50
  -1   5  -5   35.40    8.50
   1  -5  -5   21.80    6.20
  -1  -6  -5  307.77   18.70
  -1   6   5  282.87   18.10
   1  -6   5  264.67   17.20
   1   6  -5  305.67   17.90
  -1  -6   5  300.77   17.70
   1  -6  -5  315.27   18.20
   1   6   5  317.27   19.60
  -1   6  -5  292.87   18.70
  -1   7   5    0.20    5.80
   1  -7   5    0.10    4.40
  -1  -7  -5    1.30    5.20
   1   7  -5    0.70    4.50
   1  -7  -5    4.00    4.70
  -1   7  -5   -4.50    4.60
   1   7   5   -6.20    4.40
  -1  -7   5    6.70    5.30
   1  -8   5  367.06   21.90
  -1   8   5  335.27   21.60
  -1  -8  -5  320.67   21.60
   1   8  -5  301.97   20.60
  -1   8  -5  329.17   21.60
  -1  -8   5  370.86   21.70
   1  -8  -5  352.16   22.00
   1   8   5  332.37   22.60
  -1   9   5  141.39   19.40
   1   9  -5   75.19   12.20
   1  -9   5   96.99   14.40
  -1  -9  -5  110.89   16.60
   1   9   5  101.39   15.50
  -1  -9   5   80.79   13.80
  -1   9  -5  107.59   16.00
   1  -9  -5  111.79   15.30
   1  10  -5   96.29   15.00
  -1  10   5   85.49   13.70
  -1 -10   5   70.29   13.20
   1  10   5   81.39   14.70
  -1  10  -5  100.79   16.60
   1 -10  -5   82.49   13.90
  -1  11   5    8.50    8.00
   1  11  -5   -4.30    6.00
  -1  11  -5    6.60    7.20
   1  11   5    6.60    8.40
  -1  12   5  196.98   25.70
   1  12  -5  181.88   22.00
   1  12   5  185.58   23.40
  -1  12  -5  175.98   22.20
   1  13  -5   81.89   16.20
  -1  13   5   88.59   19.00
  -1  13  -5   81.39   17.80
   1  13   5   77.59   20.00
   1  14  -5   50.29   15.70
  -1  14   5   34.90   13.10
  -1  14  -5   23.60   11.10
   1  14   5   29.00   14.60
  -1  15   5   -4.40   10.50
   1  15  -5    8.50   10.70
  -1  15  -5   -8.40    8.20
   1  15   5    1.50   11.80
   1   0   6   -3.20    4.50
  -1   0  -6   -6.90    2.70
   1   0  -6   -1.90    3.30
  -1   0   6   -3.10    3.50
   1   1  -6  320.47   15.70
  -1  -1  -6  328.97   19.50
  -1   1   6  328.07   16.00
   1   1  -6  310.77   13.80
  -1   1  -6  369.66   21.30
  -1   1  -6  303.87   15.40
   1   1   6  308.87   18.00
   1  -1  -6  342.37   15.20
   1   2  -6   59.49    8.60
  -1   2   6   70.59    9.10
   1   2  -6   76.89    8.00
  -1  -2  -6   79.39   10.00
   1   2   6   60.59    9.50
  -1   2  -6   93.69   12.20
   1  -2  -6   81.79    9.00
  -1   2  -6   66.99    8.50
   1   3  -6  868.41   30.00
  -1  -3  -6  816.32   32.40
  -1   3   6  908.71   31.70
   1  -3   6  907.21   32.00
  -1   3  -6  862.21   31.50
   1   3   6  916.41   34.40
   1  -3  -6  867.71   30.50
  -1  -3   6  905.31   29.80
  -1  -4  -6    2.00    4.40
  -1   4   6    1.70    4.30
   1  -4   6   -3.80    2.90
   1   4  -6   -6.60    2.70
   1   4   6   -5.40    3.80
  -1   4  -6   -2.40    3.70
   1  -4  -6   -2.50    3.30
  -1  -4   6   -3.00    3.10
  -1  -5  -6  925.31   35.70
  -1   5   6  925.71   34.40
   1   5  -6  890.81   33.10
   1  -5   6  895.61   34.00
  -1   5  -6  860.91   34.50
   1  -5  -6  893.11   33.30
  -1  -5   6  871.41   32.40
   1   5   6  879.81   36.00
   1  -6   6   43.10    8.80
  -1   6   6   35.20    8.00
   1   6  -6   27.00    7.40
  -1  -6  -6   23.90    7.10
  -1  -6   6   39.70    8.00
  -1   6  -6   35.50    8.10
   1   6   6   27.80    9.40
   1  -6  -6   29.90    7.40
  -1   7   6  506.95   26.30
   1  -7   6  464.85   25.10
  -1  -7  -6  542.25   27.20
   1   7  -6  507.85   25.50
  -1  -7   6  534.75   25.40
   1   7   6  559.14   28.50
   1  -7  -6  498.45   25.60
  -1   7  -6  489.75   26.20
   1   8  -6    2.90    5.50
  -1   8   6   -7.00    4.70
   1  -8   6   -2.00    5.00
  -1  -8  -6    2.40    6.70
  -1   8  -6   -5.40    5.00
   1  -8  -6    7.30    6.80
   1   8   6   -3.00    6.00
  -1  -8   6    5.60    5.40
   1   9  -6  104.19   15.00
   1  -9   6  102.09   14.20
  -1   9   6   98.29   14.20
  -1  -9  -6  124.79   17.10
  -1   9  -6  104.39   16.30
   1   9   6   96.19   14.50
   1  -9  -6   99.19   14.90
  -1  -9   6  104.69   14.70
  -1  10   6   18.30   10.40
   1  10  -6    2.30    6.90
   1  10   6    4.30    8.60
   1 -10  -6   22.50   14.60
  -1  10  -6   13.20    8.10
   1  11  -6   48.90   12.60
  -1  11   6   34.10   10.40
  -1  11  -6   32.10   10.20
   1  11   6   29.70   13.70
   1  12  -6    1.90    8.00
  -1  12   6    1.60    8.50
   1  13  -6  145.99   23.40
  -1  13   6  127.69   20.30
  -1  13  -6   88.09   16.30
   1  13   6  130.09   23.60
  -1  14   6   -1.10    9.70
   1  14  -6   -4.70    9.10
  -1  14  -6   -0.60    8.60
   1  14   6  -10.00    7.60
   1   0   7  264.17   17.80
  -1   0  -7  288.07   16.90
   1   0  -7  282.17   14.90
   1   1  -7  101.99    8.40
   1   1  -7  118.69   11.80
  -1   1   7   96.99   11.10
  -1  -1  -7  111.49   12.70
  -1   1  -7  118.79   13.60
   1   1   7  120.19   13.60
  -1   1  -7  121.39   10.10
   1  -1  -7  123.19   11.70
  -1  -2  -7 1004.00   36.70
  -1   2   7 1031.60   35.50
   1   2  -7 1050.79   36.40
   1   2  -7  985.40   32.80
   1  -2  -7 1015.50   34.10
  -1   2  -7  971.10   38.10
   1   2   7  978.10   38.30
  -1   2  -7 1020.20   35.20
  -1  -3  -7   63.29    9.70
   1   3  -7   83.09    9.50
  -1   3   7   69.19    9.90
  -1  -3   7   61.99    8.10
   1   3   7   77.99   12.30
  -1   3  -7   52.89    9.90
  -1   3  -7   66.69    9.20
   1  -3  -7   64.49    8.80
  -1  -4  -7  100.69   12.30
   1   4  -7  124.09   10.70
  -1   4   7  143.89   12.30
   1  -4   7  115.69   12.80
   1   4   7  120.29   15.60
   1  -4  -7  129.89   13.00
  -1  -4   7  118.89   10.30
  -1   4  -7  129.79   13.20
  -1  -5  -7    0.40    4.20
  -1   5   7    2.70    5.60
   1   5  -7    5.60    4.90
   1  -5   7   -4.40    3.20
  -1  -5   7    0.10    3.50
   1  -5  -7    6.50    4.90
   1   5   7    0.70    9.00
   1   6  -7  665.03   32.70
  -1   6   7  603.64   29.40
   1  -6   7  627.54   28.90
  -1  -6  -7  613.24   29.90
  -1   6  -7  668.03   30.30
   1  -6  -7  629.54   28.50
   1   6   7  644.94   31.50
  -1  -6   7  695.63   28.70
  -1   7   7    1.50    5.60
   1   7  -7   -5.80    3.50
  -1  -7  -7    5.60    6.40
   1  -7   7   -0.40    4.80
   1   7   7    1.90    6.60
   1  -7  -7   -3.70    4.30
  -1  -7   7   -3.50    3.90
  -1   7  -7    2.10    5.60
  -1   8   7  265.07   19.70
   1   8  -7  222.58   18.30
   1  -8   7  197.78   17.60
  -1  -8  -7  241.48   25.00
  -1  -8   7  226.98   19.30
   1  -8  -7  250.87   19.40
   1   8   7  236.28   20.50
  -1   8  -7  235.08   19.10
   1   9  -7   -8.50    4.40
   1  -9   7    2.10    5.80
  -1  -9  -7   -2.90    5.50
  -1   9   7  -10.50    5.60
  -1  -9   7   -2.60    5.10
  -1   9  -7    0.20    5.80
   1  -9  -7   -3.20    4.80
   1   9   7    5.10    8.20
  -1  10   7  322.67   25.20
   1  10  -7  361.66   25.10
  -1  10  -7  318.97   24.30
   1  10   7  315.97   25.70
  -1  11   7   24.00   11.50
   1  11  -7    3.20    9.20
   1  11   7    9.50   10.20
  -1  11  -7   19.90   11.60
   1  12  -7   59.29   23.60
  -1  12   7   66.69   16.70
   1  12   7   81.29   19.20
  -1  12  -7   70.29   16.20
  -1  13   7    8.30    9.10
   1  13  -7    6.40   10.20
  -1  13  -7    1.80    8.40
   1  13   7   -2.40    8.40
  -1  14   7  156.78   27.30
   1  14  -7  167.58   27.40
  -1  14  -7  153.78   22.50
   1  14   7  108.99   20.90
   1   0   8    5.30    5.40
   1   0  -8   -0.40    3.80
   1   0  -8   -1.60    3.10
  -1   0  -8   -5.30    3.30
   1   1  -8   69.99    8.30
   1   1  -8   41.30    9.10
  -1  -1  -8   49.99    9.40
  -1   1   8   48.00    9.20
   1  -1  -8   67.69   10.80
   1   1   8   36.30    8.50
  -1   1  -8   48.70    9.40
  -1   1  -8   64.39    9.00
  -1  -2  -8   48.20    8.90
  -1   2   8   28.60    7.50
   1   2  -8   43.40    8.30
   1   2  -8   53.39    7.90
   1   2   8   37.60    9.30
   1  -2  -8   33.30    6.80
  -1   2  -8   38.00    7.30
  -1   2  -8   46.50   10.30
   1   3  -8  618.64   28.40
   1   3  -8  693.73   26.30
  -1   3   8  636.84   27.70
  -1  -3  -8  657.63   28.80
  -1   3  -8  625.84   27.10
   1   3   8  616.24   29.80
  -1   3  -8  653.73   31.00
   1  -3  -8  648.04   26.50
  -1   4   8  145.29   15.10
   1   4  -8  164.58   12.70
  -1  -4  -8  189.48   19.20
  -1   4  -8  145.49   17.10
  -1  -4   8  164.68   12.50
   1   4   8  160.18   17.10
   1  -4  -8  186.68   13.50
  -1   4  -8  148.69   17.30
  -1  -5  -8  149.69   16.10
  -1   5   8  148.19   16.60
   1  -5   8  153.58   13.40
   1   5  -8  151.78   13.00
  -1  -5   8  156.38   12.70
  -1   5  -8  156.58   16.30
   1   5   8  151.68   18.10
   1  -5  -8  154.18   16.70
  -1  -6  -8   98.19   14.60
  -1   6   8  102.69   14.60
   1  -6   8   93.59   13.60
   1   6  -8   88.29   13.20
   1   6   8   75.69   13.60
  -1   6  -8   88.89   13.50
  -1  -6   8  111.39   14.10
   1  -6  -8  121.49   15.60
  -1  -7  -8  323.17   22.90
   1  -7   8  324.57   21.40
   1   7  -8  300.57   20.60
  -1   7   8  333.57   22.10
  -1  -7   8  311.57   20.00
   1  -7  -8  331.27   21.30
  -1   7  -8  329.47   22.00
   1   7   8  342.87   24.00
  -1   8   8   35.10   10.30
   1   8  -8   28.10    9.00
   1  -8   8   38.90   10.20
  -1  -8  -8   38.70   11.70
  -1   8  -8   38.20   11.40
   1  -8  -8   23.90    8.90
  -1  -8   8   33.30    9.50
   1   8   8   27.10   10.50
  -1   9   8    8.30    8.70
   1   9  -8   -1.00    6.60
  -1  -9   8    1.70    6.20
   1  -9  -8   -5.50    6.50
  -1   9  -8    9.70    7.90
   1   9   8    4.00    8.10
  -1  10   8   -2.40    6.60
   1  10  -8    7.70    7.30
   1  10   8   -2.90    7.10
  -1  10  -8   -1.40    7.40
  -1  11   8   51.09   13.20
   1  11  -8   29.90   12.00
  -1  11  -8   35.40   11.70
   1  11   8   28.50   11.90
  -1  12   8    8.70   11.20
   1  12  -8   21.10   10.80
   1  12   8   -3.90    9.00
  -1  12  -8    0.10    8.60
   1  13  -8   28.90   12.70
  -1  13   8   17.30   10.30
   1  13   8   27.70   14.40
  -1  13  -8   15.90   11.60
  -1  14   8   23.30   11.30
   1  14  -8    0.40    9.60
   1  14   8   11.20   11.90
  -1  14  -8   26.70   13.90
   1   0  -9  119.99    9.80
   1   0  -9  111.89   12.60
  -1   0  -9   86.59   12.80
   1   1  -9  161.68   11.50
  -1  -1  -9  171.58   17.70
   1   1  -9  158.78   13.20
  -1   1   9  149.69   15.30
   1   1   9  162.78   18.10
  -1   1  -9  159.48   12.70
  -1   1  -9  190.98   19.00
   1  -1  -9  145.09   12.20
   1   2  -9 1152.48   41.30
   1   2  -9 1103.59   37.50
  -1   2   9 1140.99   41.40
  -1  -2  -9 1080.39   41.50
   1  -2  -9 1128.49   38.90
  -1   2  -9 1079.49   43.50
   1   2   9 1107.29   44.10
  -1   2  -9 1072.09   39.40
  -1   3   9  174.98   15.30
   1   3  -9  179.48   15.30
  -1  -3  -9  160.38   17.30
   1   3  -9  180.78   13.10
   1  -3  -9  184.98   13.80
  -1   3  -9  184.38   20.10
   1   4  -9    9.30    5.20
  -1   4   9   19.60    7.80
  -1  -4  -9   10.90    6.30
   1   4  -9    9.60    7.00
  -1   4  -9   12.90    6.40
  -1   4  -9   11.90    6.90
   1   4   9    1.80    5.80
   1  -4  -9    2.20    5.00
  -1  -5  -9  157.58   17.50
   1   5  -9  178.68   20.50
  -1   5  -9  198.28   16.20
  -1  -5   9  169.98   16.80
   1   5   9  137.99   17.90
  -1   5  -9  141.79   18.40
   1  -5  -9  194.68   19.20
   1   6  -9  726.13   31.90
  -1  -6  -9  747.13   39.70
   1  -6   9  765.32   46.60
  -1   6   9  703.93   33.40
   1   6   9  682.43   35.30
  -1   6  -9  728.53   33.80
   1  -6  -9  729.63   32.30
  -1  -6   9  707.93   31.00
  -1   7   9  292.07   22.00
   1   7  -9  290.47   20.30
   1  -7   9  298.57   20.70
  -1  -7  -9  242.98   20.40
   1  -7  -9  299.97   20.90
   1   7   9  259.27   22.30
  -1   7  -9  345.07   22.80
  -1  -7   9  292.67   19.90
  -1   8   9    0.90    7.50
   1  -8   9    3.30    6.70
   1   8  -9    1.30    6.10
  -1  -8  -9    2.60    7.00
  -1  -8   9   -2.80    5.10
  -1   8  -9    2.80    6.00
   1  -8  -9   -1.70    6.00
   1   8   9    0.60    7.40
  -1   9   9  167.28   20.20
   1   9  -9  169.78   20.10
   1   9   9  205.08   25.60
  -1   9  -9  219.28   25.40
  -1  10   9  266.07   29.50
   1  10  -9  284.77   23.90
  -1  10  -9  297.47   24.30
   1  10   9  299.47   26.50
  -1  11   9  196.68   23.30
   1  11  -9  192.18   22.50
   1  11   9  187.88   24.30
  -1  11  -9  218.28   26.90
   1  12  -9    5.50    8.70
  -1  12   9   15.90   11.70
   1  12   9   -2.50    8.00
  -1  12  -9   14.30   10.80
   1  13  -9   35.70   14.00
  -1  13   9   39.70   14.90
  -1  13  -9   58.29   17.60
   1  13   9    5.70   11.40
   1   0 -10    1.00    4.90
  -1   0 -10    2.70    5.30
  -1   0 -10    2.40    5.20
   1   0 -10   -5.00    3.20
   1   1 -10   18.90    6.80
   1   1 -10    6.20    4.70
  -1  -1 -10    8.40    6.20
  -1   1  10    4.40    6.30
  -1   1 -10    1.40    5.70
  -1   1 -10   21.80    7.10
   1   1  10    7.80    8.40
   1  -1 -10   19.60    6.80
   1   2 -10   63.09    9.60
   1   2 -10   60.49   11.10
  -1   2  10   76.79   12.90
  -1  -2 -10   70.49   12.50
  -1   2 -10   73.39   11.20
  -1   2 -10   42.20   10.30
   1   2  10   71.09   13.90
   1  -2 -10   65.69   10.60
   1   3 -10    9.80    6.80
  -1  -3 -10    4.60    5.60
   1   3 -10    9.90    4.90
  -1   3  10    7.30    6.70
   1   3  10    4.80    7.20
   1  -3 -10    7.30    4.80
  -1   3 -10   11.40    7.00
  -1   3 -10   16.40    6.50
  -1  -4 -10   34.40    9.20
  -1   4  10   25.40    8.90
   1   4 -10   34.30   10.30
   1  -4 -10   44.30   10.60
  -1   4 -10   27.30    9.50
  -1   4 -10   24.40    7.40
   1   4  10   38.70   11.10
  -1  -5 -10   90.99   14.40
   1   5 -10  105.79   14.00
  -1   5  10   73.09   13.50
   1   5 -10   81.99   14.60
   1  -5 -10   88.19   14.40
  -1   5 -10   77.49   15.10
  -1   5 -10   79.69   12.50
   1   5  10   77.49   14.40
  -1  -6 -10   15.90    8.40
   1   6 -10   10.00    6.10
  -1   6  10    5.20    6.80
  -1  -6  10    7.90    6.40
  -1   6 -10   -0.90    6.70
   1  -6 -10   -0.30    5.20
   1   6  10    8.80    8.60
  -1   6 -10    0.80    5.50
   1  -7  10   -3.10    6.00
   1   7 -10    5.10    6.70
  -1   7  10    1.70    7.10
  -1  -7 -10   -7.70    5.10
  -1  -7  10   15.10    7.60
  -1   7 -10    4.10    6.70
   1   7  10    6.60    8.50
   1  -7 -10    9.20    8.00
  -1   8  10   11.10    9.20
   1   8 -10    6.10    7.10
   1  -8 -10    8.10    7.60
   1   8  10  -11.90    6.30
  -1   8 -10    0.80    6.80
  -1  -8  10   11.10    6.60
   1   9 -10   38.00   10.80
  -1   9  10   14.20    9.90
   1   9  10   40.20   13.60
  -1   9 -10   18.00    8.70
   1  10 -10  -10.70    6.00
  -1  10  10   -4.00    7.40
   1  10  10   -5.70    7.90
  -1  10 -10   -1.20    7.70
   1  11 -10    2.40   14.90
  -1  11 -10   -5.80    6.40
   1  11  10    8.60   10.50
  -1  12  10    9.20   10.80
   1  12 -10   -2.00    7.30
  -1  12 -10   -1.60    9.10
   1  12  10   12.30   11.70
   1   0 -11    1.80    4.50
  -1   0 -11    6.20    5.50
   1   0 -11    6.20    5.60
  -1   0 -11    3.40    6.50
  -1  -1 -11    9.50    6.70
   1   1 -11    1.00    4.60
   1   1 -11    2.20    5.60
   1   1  11   -1.10    6.80
  -1   1 -11    3.00    4.70
  -1   1 -11    0.00    6.30
   1  -1 -11    4.00    4.90
   1  -1 -11    1.90    5.70
  -1   2  11  933.21   39.40
  -1  -2 -11  903.91   39.00
   1   2 -11  899.31   34.40
   1   2 -11  909.21   37.60
   1   2  11  890.41   41.80
  -1   2 -11  867.81   36.30
  -1   2 -11  891.41   40.30
   1  -2 -11  924.21   36.30
  -1   3  11   45.60   15.40
  -1  -3 -11   31.60    8.90
   1   3 -11   53.09   11.40
  -1   3 -11   20.80    8.60
   1  -3 -11   39.20    9.20
   1   3  11   52.49   12.50
  -1   3 -11   48.00   10.20
  -1   4  11   20.90    9.00
   1   4 -11   12.30    7.90
   1   4 -11   17.70    7.10
   1   4  11   11.60    9.50
  -1   4 -11   19.20    7.70
   1  -4 -11   14.50    7.40
   1   5 -11   36.20   11.20
   1   5 -11   45.30    9.90
  -1   5  11   47.90   12.10
  -1  -5 -11   17.20    8.30
   1   5  11   57.29   13.50
  -1   5 -11   35.60    9.50
  -1   5 -11   38.60   11.30
   1  -5 -11   54.79   11.40
  -1  -6 -11  579.64   32.70
   1   6 -11  647.84   30.80
  -1   6  11  663.93   34.00
   1   6  11  599.44   34.90
  -1   6 -11  594.44   36.00
  -1   6 -11  604.44   31.90
   1   7 -11    5.00    6.50
  -1   7  11    5.90    9.10
  -1   7 -11    7.00    7.90
  -1  -7  11    7.30    7.30
   1  -7 -11    9.20    7.50
   1   7  11   -0.30    7.40
  -1   8  11    8.00    9.10
   1   8 -11  -10.40    4.90
  -1   8 -11    4.20    7.90
   1   8  11    0.50    9.10
   1   9 -11    3.10    7.70
  -1   9  11   -3.80    7.50
  -1   9 -11   -3.10    7.10
   1   9  11   -1.70    8.60
  -1  10  11  411.66   30.70
   1  10 -11  339.07   27.00
   1  10  11  401.86   31.50
  -1  10 -11  376.96   28.50
  -1  11  11   20.70   12.40
   1  11 -11    9.40    9.80
  -1  11 -11    6.60    9.90
   1  11  11    4.40   10.70
  -1   0 -12   -3.60    5.10
  -1   0 -12    2.20    5.30
   1   0 -12    8.30    6.80
   1   1 -12   12.60    7.40
   1   1 -12   18.30    8.40
  -1  -1 -12   17.60    7.80
  -1  -1 -12   21.40    8.90
   1  -1 -12   15.70    7.70
   1  -1 -12    8.00    5.60
  -1   1 -12   23.30    9.00
  -1   1 -12   -2.40    5.30
   1   2 -12   23.60    7.90
   1   2 -12   13.20    8.70
  -1  -2 -12   -2.40   10.50
  -1   2  12    3.80    7.30
   1   2  12    4.20    8.10
   1  -2 -12   16.60    7.40
  -1   2 -12   14.20    7.90
  -1   3  12   47.70   12.50
   1   3 -12   41.80   11.50
   1   3 -12   65.49   11.60
  -1  -3 -12   54.69   12.20
  -1   3 -12   55.09   13.90
  -1   3 -12   64.99   11.40
   1  -3 -12   67.89   12.60
   1   3  12   53.49   13.60
  -1   4  12   -7.30    6.90
   1   4 -12    5.20    8.10
   1   4 -12    1.30    5.60
  -1  -4 -12   -6.90    6.20
   1  -4 -12   -3.70    5.00
  -1   4 -12    6.80    8.50
  -1   4 -12   -1.80    5.30
   1   4  12   -1.50    8.40
   1   5 -12   -3.70    5.40
   1   5 -12   -0.30    8.00
  -1  -5 -12    4.50    7.20
  -1   5  12    0.40    7.20
  -1   5 -12    3.90    6.90
  -1   5 -12   -0.80    7.70
   1  -5 -12    5.40    8.30
   1   5  12   -4.30    7.70
   1   6 -12   -4.30    5.00
  -1   6  12  -14.00    6.10
   1   6 -12    6.70    9.80
   1  -6 -12   -0.30    6.40
  -1   6 -12    2.20    6.30
   1   6  12   -5.20    7.80
   1   7 -12    5.80    6.90
   1   7 -12    1.60    9.20
  -1   7  12   11.90    9.50
  -1   7 -12    5.60    7.60
   1  -7 -12    7.90    8.80
   1   7  12   -9.40    7.00
   1   8 -12   40.60   11.10
  -1   8  12   23.40   11.50
  -1   8 -12   28.80   10.70
   1   8  12   41.50   14.20
  -1   9  12    2.50    9.50
   1   9 -12   -2.10    6.30
  -1   9 -12    3.50   15.10
   1  10 -12   -7.90    9.10
   1  10  12   -7.60    8.30
  -1  10 -12   -3.80    7.90
   1  11 -12    6.00    8.70
  -1  11 -12    4.60    9.30
   1   0 -13   27.50    9.60
  -1   0 -13   50.49   11.20
   1   0 -13   40.00    8.80
  -1   0 -13   41.10   11.70
  -1  -1 -13   22.20    9.00
   1   1 -13   44.80    9.50
   1   1 -13   45.00   11.50
  -1  -1 -13   23.40   10.10
   1  -1 -13   37.00    9.20
  -1   1 -13   17.00    7.90
   1  -1 -13   22.50    8.20
  -1   1 -13   28.10   10.80
   1   2 -13  525.25   25.80
  -1  -2 -13  480.15   28.90
   1   2 -13  493.95   28.30
   1  -2 -13  478.55   26.80
   1   2  13  519.75   33.00
  -1   2 -13  501.45   27.40
  -1   2 -13  448.46   29.90
  -1   3  13    1.90    8.40
   1   3 -13   -6.40    6.70
   1   3 -13   13.60    7.60
  -1  -3 -13    5.70    7.30
   1  -3 -13   12.00    7.50
   1   3  13    5.60    8.90
  -1   3 -13   16.10    7.70
  -1   3 -13    9.40    8.80
  -1  -4 -13   27.20   10.10
  -1   4  13    3.20    8.30
   1   4 -13   26.40    8.80
  -1   4 -13   46.00   14.90
  -1   4 -13   21.20    8.90
   1   4  13   28.40   12.30
   1   5 -13   -2.50    7.80
   1   5 -13   13.20    7.90
  -1   5  13   -2.40    8.40
  -1   5 -13    2.80    6.10
   1   5  13    0.60    8.80
   1  -5 -13    3.20    6.80
   1   6 -13  232.98   19.40
  -1   6  13  221.88   25.70
   1   6 -13  189.48   24.10
   1   6  13  191.48   26.20
   1  -6 -13  221.78   23.30
  -1   6 -13  213.48   23.80
  -1   7  13    0.60    8.80
   1   7 -13    4.90    6.90
  -1   7 -13   -2.60    7.50
   1   7  13   -2.00    9.10
  -1   8  13   12.10   11.60
   1   8 -13   10.30    8.90
   1   8  13  -11.10    8.90
   1   9 -13   -1.40    7.40
  -1   9  13    0.90   11.20
   1   9  13   -6.00    9.70
  -1   9 -13    2.80    8.30
   1   0 -14    2.90    7.20
  -1   0 -14   -7.90    5.20
   1   0 -14    8.40    6.80
  -1   0 -14   -4.90    6.80
   1   1 -14  128.09   17.20
   1   1 -14  157.78   17.20
  -1  -1 -14  133.69   17.20
  -1  -1 -14  135.69   19.80
  -1   1 -14  136.69   19.80
   1  -1 -14  123.29   16.80
  -1   1 -14  147.39   18.00
   1  -1 -14  131.79   15.60
  -1  -2 -14   13.70   10.50
  -1  -2 -14   13.70    7.80
   1   2 -14   10.50    7.00
   1   2 -14   10.70   10.70
  -1   2 -14   12.70    7.80
   1  -2 -14    7.00    8.30
   1  -2 -14    1.30    5.70
  -1   2 -14    7.10    9.90
   1   3 -14   39.80   12.50
  -1   3  14   17.40   10.00
   1   3 -14   33.90    9.50
   1  -3 -14   25.60   10.10
  -1   3 -14   25.30    9.60
   1   3  14   41.80   14.60
  -1   4  14    6.20    9.60
   1   4 -14    9.20    9.70
   1   4 -14   18.30    8.70
   1  -4 -14   13.20    9.70
   1   4  14    4.70   10.00
  -1   4 -14   21.80    8.80
   1   5 -14   -4.20    9.10
  -1   5  14   16.20   11.40
   1   5 -14   18.20    9.00
   1   5  14   18.10   11.60
   1  -5 -14   25.40   11.00
  -1   5 -14   22.40    9.60
  -1   6  14   -4.80    8.80
   1   6 -14    5.00    7.20
  -1   6 -14   -5.30    5.70
   1   6  14    2.60    9.60
   1   7 -14   30.40   11.10
  -1   7  14   26.10   12.70
  -1   7 -14   25.90   17.40
   1   7  14   28.90   14.80
  -1   8  14    1.50   10.90
   1   8 -14    1.50    7.50
   1   8  14   -3.50   10.60
  -1   8 -14   -8.90    6.40
   1   0 -15    0.90    6.50
  -1   0 -15   -9.00    5.10
   1   0 -15    6.10    7.90
   1   1 -15    1.50    8.30
   1   1 -15    5.90    6.40
  -1  -1 -15    2.80    6.50
   1  -1 -15    1.90    7.40
   1  -1 -15    0.90    6.50
  -1   1 -15   -5.80    6.00
   1   2 -15  143.69   17.70
  -1  -2 -15  148.09   18.90
   1   2 -15  130.69   18.90
   1  -2 -15  117.69   17.20
   1  -2 -15  124.79   15.90
  -1   2 -15  132.59   17.90
   1   3 -15   12.40    7.80
   1   3 -15   11.80   10.70
  -1   3 -15   11.60    8.30
   1   3  15    5.50   12.10
   1  -3 -15    3.10    8.60
   1  -3 -15    3.50    6.70
  -1   4  15   10.20   10.20
   1   4 -15    5.00    9.90
   1   4 -15   16.90    8.40
   1  -4 -15   22.30   11.00
  -1   4 -15    6.00    8.20
   1   4  15    2.80   10.50
  -1   5  15    2.40   10.30
   1   5 -15   -2.10    7.10
  -1   5 -15   11.80    9.00
   1   5  15    0.70   10.40
  -1   6  15   67.19   16.80
   1   6 -15   66.09   14.40
   1   6  15   74.89   21.60
  -1   0 -16  -10.30    5.40
   1   0 -16   -4.00    8.30
   1   0 -16    2.90    6.50
  -1  -1 -16   90.79   15.70
   1   1 -16   78.89   13.90
   1   1 -16   83.09   17.20
   1  -1 -16   91.29   16.80
   1  -1 -16   92.89   14.50
  -1   1 -16   90.99   15.50
   1   2 -16    9.50    7.70
   1   2 -16    5.80   10.10
  -1  -2 -16    2.00    7.20
   1  -2 -16    3.70    9.70
  -1   2 -16    4.80    7.10
   1  -2 -16    7.50    7.30
   1   3 -16   49.60   11.90
  -1  -3 -16   52.49   14.80
   1  -3 -16   43.40   11.30
  -1   3 -16   39.00   12.10
  -2   0   0 2806.72   70.69
   2   0   0 2752.02   70.69
  -2  -1   0  434.96   14.50
  -2   1   0  451.75   14.20
   2   1   0  438.96   14.80
   2  -1   0  444.76   14.10
  -2   2   0 1171.98   33.60
   2  -2   0 1205.98   33.70
   2   2   0 1172.68   34.00
  -2  -2   0 1164.48   33.90
   2   3   0  133.89    9.30
   2  -3   0  144.39    9.40
  -2   3   0  136.19    9.10
  -2  -3   0  142.09    9.20
  -2  -4   0 1126.29   36.70
   2  -4   0 1184.78   36.90
  -2   4   0 1200.38   37.10
   2   4   0 1144.49   37.20
  -2  -5   0  393.96   18.40
   2   5   0  339.27   17.70
   2  -5   0  366.96   17.60
  -2   5   0  334.17   17.30
  -2  -6   0    8.30    5.10
   2   6   0    8.10    5.60
   2  -6   0   15.40    5.60
   2   7   0  232.58   16.50
  -2  -7   0  219.18   15.70
   2  -7   0  194.98   14.90
  -2   7   0  217.88   15.90
  -2  -8   0  787.82   34.80
  -2   8   0  859.41   35.60
  -2  -9   0   15.80    7.00
   2  -9   0   34.10    8.40
  -2   9   0   24.50    8.20
   2   9   0   35.60    8.50
   2 -10   0  503.75   28.50
  -2  10   0  481.55   28.30
  -2 -10   0  479.95   28.00
   2  10   0  502.05   29.10
   2  11   0  694.43   36.70
  -2  11   0  685.03   36.10
   2  12   0  374.86   28.90
  -2  12   0  448.86   29.80
   2  13   0   75.89   23.30
  -2  13   0   62.49   19.00
  -2  14   0    3.80    8.60
   2  14   0   32.90   12.70
  -2  15   0   32.10   12.20
   2  15   0   10.60   13.60
   2  16   0   49.30   17.00
  -2  16   0  101.29   20.60
  -2   0  -1   -4.50    2.10
   2   0   1   -0.80    2.70
   2   0  -1    0.60    1.70
  -2   0   1   -0.10    1.40
   2   1  -1  343.67   10.90
  -2  -1  -1  316.87   13.00
  -2   1   1  321.47   10.50
   2  -1   1  321.77   12.10
   2   1   1  313.77   13.10
  -2  -1   1  326.97   10.70
  -2   1  -1  338.77   12.30
   2  -1  -1  316.77   10.50
  -2  -2  -1  592.74   21.30
  -2   2   1  639.54   19.90
   2   2  -1  642.14   20.10
   2  -2   1  647.04   21.00
  -2   2  -1  669.53   21.30
  -2  -2   1  629.44   19.90
   2   2   1  602.84   21.60
   2  -2  -1  628.34   19.80
   2   3  -1   14.10    4.20
   2  -3   1   18.60    4.80
  -2   3   1   14.90    4.10
  -2  -3  -1   25.50    6.10
  -2   3  -1   34.80    6.60
   2  -3  -1   16.70    4.10
  -2  -3   1   13.90    4.20
   2   3   1   20.30    5.70
  -2   4   1   -0.10    3.50
   2  -4   1    1.10    3.70
   2   4  -1   -1.30    3.40
  -2  -4  -1    1.50    4.20
  -2  -4   1    2.90    3.40
  -2   4  -1   10.60    4.90
   2   4   1    4.00    4.40
   2  -4  -1    7.00    3.90
  -2   5   1   19.40    6.00
  -2  -5  -1   10.60    5.00
   2   5  -1   10.10    5.40
   2  -5   1   28.60    6.00
  -2  -5   1   14.60    5.50
   2   5   1    5.70    4.10
   2  -5  -1   23.50    6.00
   2   6  -1   67.99    9.80
  -2  -6  -1   59.39   10.50
  -2   6   1   75.39    9.70
   2  -6  -1   93.69   11.00
  -2  -6   1   71.79    9.90
   2   6   1   53.19    8.40
  -2   6  -1   83.29   11.40
  -2  -7  -1  272.27   17.50
  -2   7   1  240.68   16.60
   2   7  -1  242.58   16.70
  -2   7  -1  284.07   18.20
  -2  -7   1  239.58   16.40
   2  -7  -1  224.38   15.90
   2   7   1  244.28   17.70
   2  -8   1  123.39   13.90
   2   8  -1  116.19   14.40
  -2   8   1  108.79   14.10
  -2  -8  -1  122.79   15.70
  -2  -8   1   99.89   13.40
   2  -8  -1  127.99   15.00
   2   8   1   98.39   13.70
  -2   8  -1  100.49   14.40
   2   9  -1   27.50    8.50
   2   9   1   26.50    8.20
   2  -9  -1   45.30    9.80
  -2   9  -1   54.19   11.80
  -2  -9   1   28.20    7.90
  -2  10   1    7.50    7.10
  -2 -10  -1   -2.20    4.90
   2 -10   1   -1.10    5.40
   2  10  -1   12.70    7.90
  -2  10  -1    2.30    5.70
   2  10   1    0.60    6.10
   2 -10  -1   -5.20    4.70
  -2 -10   1   -2.50    5.10
  -2  11   1   21.80   10.30
   2  11  -1    7.30    7.30
   2  11   1   13.20    8.40
  -2  11  -1    8.60    7.20
   2  12  -1   12.80   10.50
  -2  12   1   -6.50    7.00
   2  12   1   -3.50    7.90
  -2  12  -1    0.20    6.80
   2  13  -1   56.39   22.40
  -2  13   1   10.80   16.80
   2  13   1    0.00    8.90
  -2  13  -1   19.60   10.00
   2  14  -1   11.90   10.40
  -2  14   1   18.80   12.40
  -2  14  -1    7.70   10.30
   2  14   1   29.50   12.70
  -2  15   1   18.90   11.60
   2  15  -1    6.70   10.60
   2  15   1    1.30   12.00
  -2  15  -1    4.70   10.10
  -2   0  -2 7366.66  185.88
   2   0   2 7487.35  186.38
  -2  -1  -2 3773.82   94.39
  -2   1  -2 3697.53   95.39
   2   1   2 3617.04   94.49
  -2  -1   2 3557.24   88.69
   2  -1  -2 3435.36   88.59
  -2   1  -2 3571.44   92.59
  -2   2   2  240.58   10.00
   2   2  -2  236.78   10.00
  -2  -2  -2  236.98   12.60
   2  -2   2  237.68   11.60
   2  -2  -2  217.28    9.70
   2   2   2  232.28   12.70
  -2   2  -2  216.08   11.60
  -2  -2   2  243.48    9.90
   2   3  -2  387.26   15.60
  -2   3   2  397.16   15.60
   2  -3   2  415.36   17.10
  -2  -3  -2  377.46   17.30
  -2   3  -2  391.46   17.00
  -2  -3   2  375.36   15.30
   2   3   2  395.36   17.80
   2  -3  -2  387.26   15.50
  -2   4   2 1025.90   33.50
   2  -4   2 1056.29   37.90
   2   4  -2 1031.00   33.60
   2   4   2 1008.20   35.40
   2  -4  -2 1074.69   33.60
  -2  -4   2 1070.79   33.70
   2  -5   2 1160.98   39.10
   2   5  -2 1131.59   38.10
  -2   5   2 1168.58   38.30
   2   5   2 1120.49   39.70
   2  -5  -2 1226.28   38.90
  -2  -5   2 1119.09   38.10
   2  -6   2    0.80    3.80
  -2   6   2    3.00    4.10
  -2  -6  -2    6.20    4.40
   2   6  -2    0.00    4.00
   2  -6  -2    3.10    4.60
  -2  -6   2   10.90    5.10
  -2   6  -2    0.50    3.80
   2   6   2    7.30    5.10
  -2  -7  -2  911.71   38.10
   2  -7   2 1027.50   38.80
  -2   7   2 1007.40   38.20
   2   7  -2 1006.80   38.30
   2  -7  -2 1068.49   38.80
  -2  -7   2 1119.59   39.30
  -2  -8  -2  881.61   37.70
  -2   8   2  915.61   37.40
   2  -8   2  896.71   37.30
   2   8  -2  915.41   37.50
  -2  -8   2  952.50   37.80
   2   8   2  844.52   37.70
   2  -8  -2  997.70   38.30
  -2  -9  -2   80.99   12.50
  -2   9   2  118.79   16.30
   2   9  -2  115.39   15.10
   2  -9   2  136.29   17.40
  -2   9  -2  117.19   14.70
   2  -9  -2  120.99   15.20
   2   9   2  115.99   17.60
  -2  -9   2  118.89   15.80
  -2  10   2   10.80    8.70
   2 -10   2    6.20    6.70
  -2 -10  -2   -0.40    5.80
   2  10  -2    3.30    7.60
  -2  10  -2   -1.10    5.60
   2  10   2   13.00    9.50
  -2 -10   2    9.00    7.10
   2 -10  -2   14.70    7.90
  -2  11   2  165.08   21.50
   2  11  -2  126.59   19.00
   2  11   2   99.49   16.20
  -2  11  -2  124.39   16.70
   2  12  -2  515.15   32.70
  -2  12   2  527.95   32.50
  -2  12  -2  507.25   32.30
   2  13  -2   67.29   18.40
  -2  13   2  150.88   32.70
   2  13   2   70.99   15.80
  -2  13  -2   99.99   20.00
  -2  14   2   -2.70    7.50
   2  14  -2   10.80    9.70
  -2  14  -2   -0.70    8.70
   2  14   2    7.50    9.50
   2  15  -2   19.80   13.00
  -2  15   2   42.60   13.90
   2  15   2   44.20   16.00
  -2  15  -2   33.80   14.20
   2   0  -3    8.80    1.70
   2   0  -3    9.80    2.10
   2   0   3   13.00    5.30
  -2   0  -3    7.00    4.80
   2   1  -3 1275.57   33.90
  -2   1   3 1342.57   34.50
  -2  -1  -3 1314.77   40.40
  -2  -1   3 1245.78   33.70
  -2   1  -3 1267.47   38.40
  -2   1  -3 1344.67   41.60
   2   1   3 1334.37   40.80
   2  -1  -3 1312.87   34.10
  -2   2   3  206.88    9.60
  -2  -2  -3  213.68   12.80
   2  -2   3  209.48   11.50
   2   2  -3  209.38    9.40
   2  -2  -3  188.48    9.30
  -2   2  -3  207.68   11.70
   2   2   3  219.88   13.00
  -2  -2   3  199.68    9.30
  -2  -3  -3  452.75   20.20
  -2   3   3  491.75   18.00
   2  -3   3  493.65   19.80
   2   3  -3  465.55   17.60
  -2   3  -3  463.85   19.60
   2  -3  -3  498.35   18.00
   2   3   3  466.25   20.80
  -2  -3   3  435.16   17.10
   2  -4   3   39.40    7.10
  -2  -4  -3   63.49   10.20
  -2   4   3   59.89    7.60
   2   4  -3   52.79    7.30
   2  -4  -3   62.69    8.00
  -2  -4   3   43.10    6.30
   2   4   3   46.20    8.40
  -2   4  -3   54.49    9.00
  -2  -5  -3  888.01   33.20
   2  -5   3  832.92   31.70
  -2   5   3  886.51   31.10
   2   5  -3  860.61   31.00
  -2  -5   3  873.81   30.80
  -2   5  -3  876.51   32.70
   2  -5  -3  853.61   31.10
   2  -6   3   77.39   10.70
  -2   6   3   92.39   11.50
   2   6  -3   84.69   10.50
  -2  -6  -3   68.99   10.00
   2  -6  -3   80.99   10.60
  -2   6  -3   64.39    9.60
   2   6   3   70.79   10.80
  -2  -6   3   79.99   10.20
   2  -7   3  115.49   13.40
  -2   7   3  127.29   14.00
   2   7  -3  114.49   13.40
  -2  -7  -3   94.69   12.30
  -2   7  -3  112.79   12.80
  -2  -7   3  117.09   13.40
   2  -7  -3  142.49   14.80
   2   7   3   98.09   13.40
   2   8  -3   62.79   10.30
   2  -8   3   78.89   11.50
  -2  -8  -3   88.79   14.00
  -2   8   3   69.89   10.70
   2  -8  -3   74.19   11.00
  -2  -8   3   74.49   10.90
   2   8   3   68.89   11.40
  -2   8  -3   81.99   13.40
  -2  -9  -3  305.27   21.70
  -2   9   3  296.97   20.70
   2   9  -3  335.87   21.80
   2  -9   3  320.67   21.60
  -2   9  -3  304.77   21.70
   2  -9  -3  287.97   21.00
  -2  -9   3  341.67   21.90
   2   9   3  296.07   21.90
   2 -10   3   29.20    9.60
  -2  10   3   44.10   12.20
   2  10  -3   41.10   11.40
  -2 -10  -3   29.00    9.10
   2 -10  -3   31.80   10.40
  -2  10  -3   51.59   11.60
   2  10   3   25.40    9.80
  -2 -10   3   41.90   11.50
  -2  11   3   51.39   13.20
   2  11  -3   66.29   13.00
  -2  11  -3   45.80   12.30
   2  11   3   58.09   13.70
   2  12  -3   20.60   11.10
  -2  12   3   11.80    9.50
  -2  12  -3   11.90    7.70
   2  12   3   14.20    9.40
   2  13  -3   10.70    9.40
  -2  13   3   23.00   13.10
  -2  13  -3   31.90   13.70
   2  13   3   20.00   11.50
   2  14  -3    0.70    8.90
  -2  14   3   15.50   12.10
   2  14   3    3.70    8.20
  -2  14  -3    1.60    8.90
  -2  15   3   25.60   12.70
   2  15  -3   30.30   13.50
  -2  15  -3   59.49   17.30
   2  15   3   74.89   18.60
  -2   0  -4  373.76   18.20
   2   0   4  328.07   18.00
   2   0  -4  380.36   11.70
   2   0  -4  398.46   12.50
  -2   1   4   88.19    6.00
  -2  -1  -4   91.19   11.00
   2   1  -4   89.29    5.30
  -2   1  -4   79.09   10.80
   2   1   4   96.69   10.70
   2  -1  -4   81.79    5.30
  -2   1  -4   76.59    8.80
  -2   2   4   98.19    7.20
   2   2  -4   94.49    6.50
  -2  -2  -4   90.19   10.40
   2  -2   4   80.19    8.50
  -2  -2   4   85.69    6.40
   2   2   4   83.39    9.90
   2  -2  -4  103.99    6.70
  -2   2  -4  105.09    8.80
  -2   2  -4   91.09   11.30
   2  -3   4   11.00    4.60
  -2   3   4   10.70    4.10
   2   3  -4   22.10    4.80
  -2  -3  -4   12.80    5.10
   2  -3  -4   13.40    4.20
  -2  -3   4   15.90    4.20
   2   3   4    2.60    4.40
  -2   3  -4   11.50    4.80
   2  -4   4  733.13   27.80
  -2   4   4  708.73   25.90
  -2  -4  -4  717.83   28.70
   2   4  -4  718.03   25.60
   2  -4  -4  711.63   25.60
  -2   4  -4  673.33   27.50
  -2  -4   4  727.03   25.50
   2   4   4  728.33   29.30
  -2   5   4  305.07   16.20
   2   5  -4  265.17   15.40
   2  -5   4  279.47   16.40
  -2  -5  -4  263.07   16.80
  -2   5  -4  268.97   16.70
   2   5   4  269.87   17.60
  -2  -5   4  241.38   14.60
   2  -5  -4  281.77   15.50
  -2   6   4   10.80    5.20
   2   6  -4    0.70    4.50
   2  -6   4    3.60    3.90
  -2  -6  -4   15.00    6.20
   2  -6  -4    5.60    4.50
  -2   6  -4   16.50    6.30
  -2  -6   4    2.80    4.30
   2   6   4    9.30    6.20
  -2   7   4  293.97   18.50
  -2  -7  -4  233.68   17.80
   2   7  -4  268.27   17.70
   2  -7   4  245.08   17.20
  -2  -7   4  289.07   17.80
   2  -7  -4  258.67   17.50
   2   7   4  281.17   19.70
  -2   7  -4  272.37   18.50
  -2   8   4  309.67   20.70
   2  -8   4  323.67   20.90
   2   8  -4  346.07   21.20
  -2  -8  -4  338.37   21.90
   2  -8  -4  348.07   21.20
  -2  -8   4  350.66   20.90
  -2   8  -4  331.17   21.80
   2   8   4  337.57   22.60
  -2  -9  -4   69.59   13.00
  -2   9   4   95.49   14.00
   2   9  -4   95.29   15.30
   2  -9   4   67.79   12.00
   2  -9  -4  137.59   22.60
   2   9   4   64.59   12.30
  -2   9  -4   86.19   14.50
  -2  10   4   34.90    9.60
   2  10  -4   36.60   10.30
  -2  10  -4   33.60   10.70
  -2 -10   4   39.00    9.90
   2  10   4   44.40   13.20
   2 -10  -4   38.10   10.10
   2  11  -4   -2.10    6.30
  -2  11   4    2.60    8.20
  -2  11  -4   -6.80    6.10
   2  11   4   -4.90    6.30
   2  12  -4  222.08   24.10
  -2  12   4  164.28   21.60
   2  12   4  197.38   26.40
  -2  12  -4  228.88   26.60
   2  13  -4  157.08   21.40
  -2  13   4  152.08   22.30
  -2  13  -4  146.49   20.20
   2  13   4  152.08   21.40
   2  14  -4   -0.70    9.90
  -2  14   4    1.70   10.30
  -2  14  -4    6.50   10.20
   2  14   4    8.70   10.00
   2  15  -4   -0.60   10.90
  -2  15   4   -1.30    9.40
  -2  15  -4   10.20   10.70
   2  15   4   16.10   12.30
   2   0  -5    0.60    2.10
   2   0  -5    0.60    2.70
   2   0   5    5.80    5.30
  -2   0  -5    5.70    4.40
   2   1  -5  393.26   13.80
  -2   1   5  406.16   15.30
  -2  -1  -5  422.16   22.40
   2   1  -5  397.96   15.30
  -2   1  -5  378.36   22.50
   2  -1  -5  393.86   14.30
  -2   1  -5  380.66   17.60
   2   1   5  389.56   20.10
  -2  -2  -5   14.60    5.50
  -2   2   5   13.60    4.20
   2   2  -5   10.70    3.50
  -2  -2   5   16.10    3.80
   2   2   5   15.70    6.30
   2  -2  -5   19.50    4.30
  -2   2  -5    6.90    5.80
  -2   2  -5    9.90    4.30
   2  -3   5  401.46   19.30
  -2  -3  -5  429.46   20.90
  -2   3   5  491.05   18.50
   2   3  -5  410.06   16.90
  -2   3  -5  402.06   19.50
   2   3   5  400.76   21.30
   2  -3  -5  475.05   17.70
  -2  -3   5  411.56   16.70
  -2   4   5    7.60    4.40
   2  -4   5   13.80    5.30
  -2  -4  -5    9.00    5.70
   2   4  -5   10.40    4.30
   2   4   5   11.30    5.70
  -2   4  -5    8.40    5.40
  -2  -4   5    6.90    3.90
   2  -4  -5    9.10    4.20
  -2  -5  -5 1102.99   41.20
  -2   5   5 1152.88   38.80
   2  -5   5 1123.69   40.10
   2   5  -5 1143.09   38.20
   2  -5  -5 1116.49   38.10
  -2  -5   5 1169.88   38.10
   2   5   5 1085.59   41.80
  -2   5  -5 1140.89   40.90
   2   6  -5  108.79   13.10
   2  -6   5  101.99   11.90
  -2   6   5   90.09   11.50
  -2  -6  -5  127.89   15.80
   2   6   5  105.09   13.80
   2  -6  -5  121.79   14.30
  -2  -6   5   98.69   11.60
  -2   6  -5   84.59   12.80
   2  -7   5  179.58   15.30
  -2  -7  -5  190.58   16.10
  -2   7   5  197.68   21.20
  -2   7  -5  186.28   19.70
   2  -7  -5  190.48   15.10
  -2  -7   5  173.88   14.00
   2   7   5  221.48   18.00
  -2  -8  -5   35.70   15.00
   2   8  -5   27.60    7.90
   2  -8   5   34.80   12.70
  -2   8   5   20.60    7.40
   2   8   5   22.00    9.20
  -2   8  -5   18.30    7.70
  -2  -8   5   44.20    9.70
   2  -8  -5   33.10    9.50
  -2   9   5  126.79   15.80
   2   9  -5  130.89   16.50
   2  -9   5  158.98   19.20
  -2  -9  -5   95.89   14.90
   2  -9  -5  140.99   19.50
  -2  -9   5  128.39   17.20
  -2   9  -5  130.69   16.60
   2   9   5  136.79   19.90
   2  10  -5   -3.30    6.00
  -2  10   5   -3.30    5.70
  -2 -10   5   -3.10    5.90
  -2  10  -5   -1.20    6.30
   2 -10  -5    2.80    6.30
   2  10   5   -3.60    7.80
   2  11  -5  153.38   19.70
  -2  11   5  171.28   22.80
   2  11   5  157.28   23.00
  -2  11  -5  179.88   23.30
  -2  12   5    1.80    9.10
   2  12  -5    5.80    8.50
  -2  12  -5    9.30   14.90
   2  12   5   -9.50    8.60
  -2  13   5   45.30   12.90
   2  13  -5   17.30   10.60
  -2  13  -5   54.19   14.60
   2  13   5   52.79   15.20
   2  14  -5    8.40   11.10
  -2  14   5   14.70   11.90
  -2  14  -5    8.30    9.30
   2  14   5    9.00   12.10
   2  15  -5   67.19   15.90
  -2  15   5   78.19   19.10
   2  15   5   43.80   15.10
  -2  15  -5   83.19   19.30
   2   0  -6  225.18   10.90
  -2   0  -6  199.78   14.40
   2   0   6  188.38   15.30
   2   0  -6  205.18    9.60
  -2  -1  -6  228.18   15.60
   2   1  -6  252.07   12.60
  -2   1   6  265.97   12.80
   2   1  -6  264.57   11.40
   2  -1  -6  257.57   11.80
  -2   1  -6  264.57   16.90
   2   1   6  251.27   17.10
  -2   1  -6  250.97   14.60
  -2  -2  -6  145.89   12.50
   2   2  -6  127.79    8.50
  -2   2   6  132.29    9.70
  -2   2  -6  144.49   11.30
  -2   2  -6  159.88   17.20
   2  -2  -6  142.19    9.00
   2   2   6  140.29   14.20
  -2  -3  -6  223.88   15.80
   2   3  -6  235.98   12.50
  -2   3   6  262.47   13.90
  -2   3  -6  232.58   17.50
   2   3   6  255.17   17.40
  -2   3  -6  253.07   15.50
  -2  -3   6  241.38   12.30
   2  -3  -6  257.57   13.20
  -2   4   6  406.66   19.20
   2  -4   6  433.26   21.10
  -2  -4  -6  451.95   22.60
   2   4  -6  405.46   18.40
  -2   4  -6  408.96   21.10
   2   4   6  424.56   23.00
   2  -4  -6  403.86   21.40
   2   5  -6  128.69   11.00
   2  -5   6  136.09   14.30
  -2  -5  -6  151.08   17.40
  -2   5   6  113.29   12.40
   2  -5  -6  150.98   14.50
   2   5   6  118.39   16.00
  -2  -5   6  120.69   11.90
   2  -6   6  710.13   30.70
   2   6  -6  640.14   28.20
  -2  -6  -6  678.73   31.60
  -2   6   6  689.13   29.40
  -2   6  -6  690.83   31.30
   2  -6  -6  686.83   29.00
   2   6   6  738.13   33.40
  -2  -6   6  704.03   28.50
   2   7  -6   77.79   12.00
   2  -7   6   42.50    9.70
  -2  -7  -6   25.90    9.20
  -2   7   6   55.19   10.10
  -2  -7   6   48.40    9.20
   2   7   6   44.50   11.10
   2  -7  -6   68.89   12.20
  -2   7  -6   43.90   10.10
   2  -8   6  318.47   21.00
   2   8  -6  290.87   19.90
  -2   8   6  265.27   19.60
  -2  -8  -6  265.17   20.50
  -2  -8   6  298.07   19.50
  -2   8  -6  294.87   21.10
   2   8   6  280.27   21.90
   2  -8  -6  252.77   18.90
  -2  -9  -6   57.89   12.30
  -2   9   6   76.89   12.70
   2   9  -6   71.39   12.20
   2  -9   6   52.19   11.60
   2   9   6   45.70   12.00
  -2  -9   6   58.39   11.90
  -2   9  -6   54.49   11.90
   2  -9  -6   61.29   12.20
  -2  10   6  326.37   24.40
   2  10  -6  386.16   25.30
   2  10   6  358.06   26.70
  -2  10  -6  367.16   25.90
   2 -10  -6  377.06   25.10
  -2 -10   6  318.87   23.30
  -2  11   6   21.80   10.00
   2  11  -6   17.60    9.20
   2  11   6   25.80   10.00
  -2  11  -6    9.80    8.20
   2  12  -6  103.79   17.50
  -2  12   6  134.69   19.30
  -2  12  -6  133.49   22.30
   2  12   6   91.39   17.10
  -2  13   6   52.79   13.80
   2  13  -6   39.10   13.90
  -2  13  -6   49.90   15.20
   2  13   6   97.69   21.60
  -2  14   6  103.79   19.00
   2  14  -6   59.29   15.60
   2  14   6   70.09   17.50
  -2  14  -6   96.19   20.40
   2   0   7   -1.00    4.80
   2   0  -7   -1.40    2.50
  -2   0  -7    1.80    4.40
   2   0  -7    2.70    3.30
   2   1  -7   17.60    5.00
  -2   1   7   13.60    5.00
  -2  -1  -7   18.50    6.90
   2   1  -7   13.70    3.80
   2  -1  -7    7.10    3.80
  -2   1  -7    5.30    4.50
   2   1   7   14.90    7.10
  -2   1  -7   12.50    4.90
  -2   2   7   13.40    4.90
  -2  -2  -7   -1.10    4.00
   2   2  -7    6.60    4.40
   2   2  -7    6.60    3.50
  -2   2  -7   -3.20    3.00
   2   2   7    9.90    6.10
   2  -2  -7    1.00    3.00
  -2   2  -7    2.40    4.30
  -2  -3  -7  796.82   32.40
   2   3  -7  751.72   26.90
  -2   3   7  753.22   28.40
   2  -3  -7  752.82   27.30
   2   3   7  790.62   33.60
  -2   3  -7  706.13   29.80
  -2  -3   7  764.22   26.60
  -2   3  -7  762.72   34.10
   2   4  -7  108.29    9.40
   2  -4   7   99.29   12.80
  -2   4   7   93.79   11.00
  -2  -4  -7  109.49   15.00
  -2   4  -7  136.29   15.70
   2  -4  -7  101.69   11.30
   2   4   7  105.29   15.20
  -2  -4   7  102.69   10.60
   2   5  -7  143.09   12.10
  -2   5   7  168.78   13.50
  -2  -5  -7  171.68   15.20
   2  -5   7  165.08   13.70
  -2  -5   7  172.48   12.40
   2   5   7  174.98   18.20
  -2   5  -7  176.48   15.00
   2  -5  -7  158.08   12.60
  -2  -6  -7   14.50    7.20
  -2   6   7   26.60    7.50
   2   6  -7   29.10    7.50
   2  -6   7    8.90    5.70
   2  -6  -7   28.70    8.00
  -2  -6   7   19.40    6.60
  -2   6  -7   45.70   10.10
   2   6   7   19.50    9.10
   2   7  -7  527.05   26.40
  -2   7   7  552.84   27.50
  -2  -7  -7  532.75   33.70
   2  -7   7  542.95   32.00
   2  -7  -7  557.64   27.00
  -2   7  -7  525.45   28.50
   2   7   7  543.35   30.50
  -2  -7   7  572.54   26.30
   2  -8   7    9.40    6.60
   2   8  -7   -3.80    5.40
  -2   8   7    4.60    5.90
  -2  -8  -7   -0.30    6.50
   2  -8  -7    3.00    5.30
  -2   8  -7   -8.50    5.40
  -2  -8   7    1.60    5.50
   2   8   7    4.00    6.80
   2   9  -7   55.49   12.70
  -2   9   7   21.20    8.60
   2  -9  -7   30.10   10.40
  -2   9  -7   29.80    9.60
  -2  -9   7   46.00   10.20
   2   9   7   24.20    9.70
   2  10  -7    2.00    6.50
  -2  10   7    2.20    6.90
   2  10   7   -4.90    7.00
  -2  10  -7    9.30    8.60
  -2  11   7   67.19   13.60
   2  11  -7   38.70   12.10
   2  11   7   82.49   18.00
  -2  11  -7   68.59   16.10
  -2  12   7   30.00   11.30
   2  12  -7   41.20   14.30
   2  12   7   42.50   14.30
  -2  12  -7   44.90   13.60
   2  13  -7  110.99   19.30
  -2  13   7  123.39   19.40
  -2  13  -7  138.89   23.20
   2  13   7  130.59   24.80
  -2  14   7    8.60   11.20
   2  14  -7   -4.60    8.80
   2  14   7   -7.40   10.40
  -2  14  -7    2.40    9.40
   2   0  -8   45.40    6.50
   2   0   8   44.60   10.30
  -2   0  -8   61.39   11.30
   2   0  -8   54.09    7.70
   2   1  -8  546.35   20.40
  -2  -1  -8  555.54   26.80
   2   1  -8  564.64   22.40
  -2   1   8  527.75   22.90
   2   1   8  548.35   28.30
  -2   1  -8  525.15   24.10
  -2   1  -8  557.94   27.90
   2  -1  -8  524.35   21.20
   2   2  -8  618.34   25.30
  -2  -2  -8  616.14   28.50
  -2   2   8  587.84   24.80
   2   2  -8  586.64   22.70
   2   2   8  650.63   31.10
   2  -2  -8  630.14   23.70
  -2   2  -8  582.34   26.30
  -2   2  -8  582.24   29.40
   2   3  -8  392.06   23.30
  -2   3   8  384.06   19.50
   2   3  -8  391.46   18.00
  -2  -3  -8  357.06   21.50
  -2   3  -8  349.87   23.10
   2  -3  -8  396.36   21.10
  -2   4   8   14.00    5.90
   2   4  -8   12.90    5.00
  -2  -4  -8    9.20    6.40
   2  -4  -8   19.90    6.10
  -2   4  -8   23.20    7.20
   2   4   8   25.10    8.70
  -2   4  -8   11.00    7.00
  -2  -4   8   20.30    5.60
   2   5  -8  175.28   13.80
   2  -5   8  224.18   16.70
  -2   5   8  215.98   15.80
  -2  -5  -8  186.38   16.60
   2   5   8  224.98   23.00
  -2   5  -8  181.78   15.80
   2  -5  -8  222.08   15.10
  -2  -5   8  192.28   13.80
  -2  -6  -8  436.36   25.80
   2  -6   8  404.76   24.30
  -2   6   8  398.36   23.10
   2   6   8  391.66   25.60
  -2   6  -8  406.86   24.20
   2  -6  -8  409.56   22.00
  -2  -6   8  399.76   21.10
  -2  -7  -8  261.57   20.90
   2   7  -8  273.17   18.90
  -2   7   8  264.57   19.60
   2  -7   8  298.77   20.90
  -2  -7   8  315.37   19.40
   2   7   8  305.47   23.40
  -2   7  -8  267.97   20.60
   2  -7  -8  294.57   19.60
  -2  -8  -8    4.30    6.90
  -2   8   8   -2.60    5.40
   2   8  -8   11.10    6.80
   2  -8   8   12.20    7.80
  -2   8  -8    5.20    7.20
   2   8   8    1.70    7.10
   2  -8  -8    2.70    7.00
  -2   9   8  149.39   18.40
   2   9  -8  162.68   19.20
   2   9   8  164.28   22.90
  -2   9  -8  168.98   21.80
  -2  -9   8  134.59   17.30
   2  -9  -8  163.38   19.20
   2  10  -8   97.19   16.00
  -2  10   8   77.19   16.30
   2  10   8   85.49   16.60
  -2  10  -8  123.69   20.10
   2  11  -8  130.79   20.10
  -2  11   8  100.79   16.60
  -2  11  -8  129.39   23.10
   2  12  -8   15.30   11.80
  -2  12  -8   -0.50    7.10
   2  12   8   17.30   11.50
  -2  13   8   15.60   11.60
   2  13  -8   29.60   11.60
  -2  13  -8   31.10   13.10
   2  13   8   38.90   15.10
   2   0  -9    5.50    3.60
   2   0  -9   -4.90    3.20
  -2   0  -9   -5.00    3.80
  -2  -1  -9   29.50    8.90
  -2   1   9   31.20    7.70
   2   1  -9   31.70    7.00
   2   1  -9   42.80    6.80
   2   1   9   33.30   11.90
  -2   1  -9   38.40    9.90
  -2   1  -9   29.90    7.40
   2  -1  -9   32.10    6.80
   2   2  -9    8.00    5.40
  -2   2   9    7.70    5.60
   2   2  -9    4.90    3.90
  -2  -2  -9    4.50    5.80
  -2   2  -9    1.30    4.80
   2   2   9    1.50    5.90
  -2   2  -9   14.00    6.00
   2  -2  -9    7.50    5.20
   2   3  -9   67.79    9.10
  -2   3   9   95.99   12.40
   2   3  -9   84.89   12.10
  -2  -3  -9   79.39   13.40
   2  -3  -9   75.69   10.30
   2   3   9   82.49   14.30
  -2   3  -9   85.89   14.60
  -2   3  -9   79.39   12.50
  -2   4   9    3.70    5.50
   2   4  -9    3.00    4.50
   2   4  -9    0.70    5.60
  -2  -4  -9    7.10    6.30
  -2   4  -9    3.30    5.40
   2  -4  -9   -4.80    3.30
   2   4   9   -1.60    6.10
  -2   4  -9    0.50    5.70
   2   5  -9   50.49    9.20
  -2  -5  -9   47.30   11.10
  -2   5   9   42.70    9.50
  -2   5  -9   54.49   13.30
  -2   5  -9   44.90   10.40
   2   5   9   39.30   11.90
   2  -5  -9   50.19    9.60
  -2  -5   9   46.60    9.00
   2  -6   9   40.00   10.10
  -2   6   9   27.60    8.50
  -2  -6  -9   25.10    9.30
   2   6  -9   29.30    8.40
   2   6   9   15.10    9.10
  -2  -6   9   21.60    7.30
  -2   6  -9   39.10    9.90
   2  -6  -9   21.50    7.60
  -2  -7  -9  101.19   15.30
   2   7  -9  175.38   19.10
  -2   7   9  131.19   16.70
   2  -7   9  148.39   17.60
  -2   7  -9  138.79   17.10
   2   7   9  145.89   21.20
   2  -7  -9  141.59   17.00
  -2  -7   9  141.39   15.80
   2   8  -9    9.00    7.00
  -2   8   9   -4.00    6.30
  -2   8  -9   -2.60    5.80
   2   8   9   -3.00    7.80
   2  -8  -9   -3.10    5.60
  -2  -8   9   -3.10    5.10
  -2   9   9   27.30    9.90
   2   9  -9   16.60    8.70
  -2  -9   9   45.60   11.70
   2  -9  -9    9.70    8.20
   2   9   9   18.50   10.70
  -2   9  -9   35.80   11.10
   2  10  -9    8.80    8.20
  -2  10   9   -3.50    7.80
  -2  10  -9   -1.10    6.70
   2  10   9   17.30   10.10
   2  11  -9    5.10    8.00
  -2  11   9   16.90    9.90
   2  11   9   39.40   13.80
  -2  11  -9   22.70   11.60
   2  12  -9    6.70    9.00
  -2  12   9    3.40    9.40
   2  12   9    0.40   10.00
  -2  12  -9    7.80    9.90
   2  13  -9    9.30   10.30
  -2  13   9   18.20   11.70
  -2  13  -9    3.80    9.80
   2  13   9    6.60   12.30
  -2   0 -10    8.50    7.50
   2   0 -10   28.00    6.20
  -2   0 -10   30.60    8.30
   2   0 -10   34.10    7.30
   2   1 -10   71.29    9.40
  -2  -1 -10   82.59   13.80
   2   1 -10   80.69   11.20
  -2   1 -10   60.49   12.10
   2  -1 -10   88.09   11.20
   2   1  10   85.59   15.00
  -2   1 -10   78.29   11.10
   2   2 -10  886.01   31.90
  -2  -2 -10  860.21   38.20
  -2   2  10  856.51   35.10
   2   2 -10  860.71   34.20
   2   2  10  894.11   41.20
   2  -2 -10  916.81   33.10
  -2   2 -10  926.21   41.10
  -2   2 -10  880.21   36.00
   2   3 -10  309.97   16.90
   2   3 -10  268.77   18.60
  -2   3  10  282.77   18.90
  -2  -3 -10  300.97   21.00
  -2   3 -10  304.57   22.80
   2   3  10  288.57   22.90
   2  -3 -10  295.77   17.40
  -2   3 -10  296.37   19.70
   2   4 -10   36.10    8.20
  -2  -4 -10   21.50    9.40
   2   4 -10   24.50    8.30
  -2   4  10   35.70    9.20
  -2   4 -10   52.99   10.70
   2  -4 -10   45.90    9.50
   2   4  10   14.20    8.80
  -2   4 -10   26.80   11.10
  -2   5  10  320.37   25.30
   2   5 -10  314.67   22.00
  -2  -5 -10  275.87   21.40
  -2   5 -10  320.47   25.10
   2   5  10  313.77   24.10
  -2   5 -10  278.87   20.60
   2  -5 -10  257.87   17.90
   2   6 -10  325.07   20.30
  -2   6  10  323.17   22.10
  -2  -6 -10  343.87   24.10
  -2  -6  10  311.57   19.60
  -2   6 -10  339.17   23.10
   2   6  10  322.77   25.50
   2  -6 -10  299.77   20.20
  -2   6 -10  290.97   25.00
  -2   7  10  162.48   18.70
   2   7 -10  159.08   17.40
  -2   7 -10  138.59   18.60
  -2  -7  10  169.88   18.00
   2   7  10  137.09   19.60
   2  -7 -10  120.09   16.20
  -2   8  10   72.29   14.00
   2   8 -10   91.59   14.60
  -2   8 -10  117.39   17.00
  -2  -8  10   73.49   13.00
   2  -8 -10   99.39   15.70
   2   8  10   59.19   14.50
  -2   9  10  100.99   16.90
   2   9 -10  106.59   16.70
  -2   9 -10  103.39   17.70
   2   9  10   68.69   16.00
   2  10 -10  122.69   17.90
  -2  10  10  103.59   17.80
  -2  10 -10  155.98   22.90
   2  10  10  112.39   24.30
  -2  11  10  113.69   18.60
   2  11 -10  153.38   21.10
  -2  11 -10  124.59   19.00
   2  11  10  168.38   24.00
   2  12 -10   27.50   12.60
  -2  12  10   19.70   12.20
  -2  12 -10   18.60   10.70
   2  12  10   19.60   13.80
   2   0 -11   -0.40    3.70
   2   0 -11   -1.20    4.50
  -2   0 -11   -6.90    4.90
  -2   0 -11   -3.80    4.20
   2   1 -11   24.30    6.90
   2   1 -11   13.40    5.60
  -2  -1 -11   17.10    8.40
   2   1  11   18.30   10.10
  -2   1 -11   20.10    7.70
   2  -1 -11   23.90    7.30
  -2   1 -11   22.50    9.20
   2  -1 -11   13.90    5.40
  -2  -2 -11  101.39   17.00
  -2   2  11   68.49   11.70
   2   2 -11   89.69   13.00
   2   2 -11   97.59   11.50
   2   2  11   84.09   16.20
  -2   2 -11   76.09   17.00
  -2   2 -11   87.99   13.20
   2  -2 -11   81.09   11.40
  -2   3  11   47.40   10.40
   2   3 -11   54.99    9.50
  -2  -3 -11   21.40    8.80
   2   3 -11   52.99   11.00
   2   3  11   46.80   13.00
   2  -3 -11   63.29   10.60
  -2   3 -11   43.00   12.80
  -2   3 -11   42.70   10.10
   2   4 -11    7.10    6.70
  -2   4  11    4.80    6.90
  -2  -4 -11   -3.50    5.90
   2   4 -11    2.60    6.60
  -2   4 -11    0.20    6.20
  -2   4 -11    0.20    5.50
   2  -4 -11   -2.40    4.70
   2   4  11    8.10    9.20
   2   5 -11   26.90    7.70
   2   5 -11   40.80   10.90
  -2   5  11   44.30   10.60
  -2  -5 -11   24.50    9.10
  -2   5 -11   57.09   14.30
  -2   5 -11   44.80   10.70
   2  -5 -11   38.20    9.50
   2   5  11   39.70   11.60
   2   6 -11    9.20    6.20
   2   6 -11   -1.30    7.30
  -2   6  11    1.40    7.20
   2   6  11    1.80    7.90
   2  -6 -11    6.30    6.90
  -2   6 -11    4.30    7.40
   2   7 -11    0.70    5.70
  -2   7  11   -4.20    6.40
  -2   7 -11    0.60    6.30
  -2  -7  11    6.50    7.00
   2  -7 -11    1.00    6.90
   2   7  11   -4.80    8.50
   2   8 -11   89.39   14.90
  -2   8  11   72.19   15.10
  -2   8 -11   88.59   16.30
   2   8  11   74.09   17.60
  -2  -8  11   80.49   14.10
   2  -8 -11   98.19   15.70
  -2   9  11   12.90   10.40
   2   9 -11   21.00    9.50
  -2   9 -11   14.40   12.10
   2   9  11   20.30   12.70
  -2  10  11   -3.50    8.30
   2  10 -11    9.70    9.20
   2  10  11    2.80    9.80
  -2  10 -11   -4.70    8.10
  -2  11  11   17.20   14.80
   2  11 -11   -9.20    7.20
   2  11  11   12.20   11.60
  -2  11 -11  -10.50    6.60
  -2   0 -12   11.70    6.60
  -2   0 -12   10.80    9.10
   2   0 -12   13.80    6.80
   2   0 -12    7.20    5.60
   2   1 -12  153.68   16.10
  -2  -1 -12  130.29   18.60
   2   1 -12  150.58   14.40
   2  -1 -12  129.59   15.00
  -2   1 -12  119.69   18.50
  -2   1 -12  153.48   17.10
   2  -1 -12  138.29   13.80
   2   1  12  139.59   20.50
   2   2 -12  648.44   27.90
   2   2 -12  679.33   31.10
  -2  -2 -12  652.23   34.20
   2  -2 -12  657.53   29.10
   2   2  12  697.93   38.40
  -2   2 -12  649.93   31.90
  -2   2 -12  641.24   35.60
  -2  -3 -12   66.99   13.90
  -2   3  12   90.09   14.70
   2   3 -12   88.89   13.90
  -2   3 -12   88.09   17.70
   2  -3 -12   86.99   12.70
   2   3  12   87.89   17.10
  -2   3 -12  109.69   15.60
   2   4 -12    9.30    5.90
  -2  -4 -12    1.90    6.50
   2   4 -12    1.50    7.10
  -2   4  12   -2.90    6.50
   2   4  12   -6.50    7.80
  -2   4 -12   -2.20    7.40
   2  -4 -12   -0.40    5.50
  -2   4 -12    5.10    6.30
   2   5 -12   49.90   12.50
   2   5 -12   67.19   11.80
  -2   5  12   66.99   14.00
  -2   5 -12  112.79   16.60
   2   5  12   50.09   13.50
   2  -5 -12   77.29   13.10
   2   6 -12  290.97   20.50
  -2   6  12  322.47   24.40
  -2   6 -12  333.87   24.20
   2   6  12  311.07   27.60
   2   7 -12    0.80    8.60
   2   7 -12   31.80    9.70
  -2   7  12   34.40   11.50
   2   7  12   16.90   12.00
   2  -7 -12   31.00   10.20
  -2   7 -12   29.70   10.90
   2   8 -12   -4.40    6.20
  -2   8  12   -5.40    7.80
  -2   8 -12    5.90    8.20
   2   8  12   18.20   11.80
   2   9 -12   26.30   10.50
  -2   9  12   23.60   11.90
  -2   9 -12    9.50    8.80
   2   9  12   36.80   16.20
  -2  10  12  428.16   31.60
   2  10 -12  432.16   29.70
  -2  10 -12  398.16   30.70
   2  10  12  396.96   34.20
  -2   0 -13    1.60    6.30
   2   0 -13    0.00    5.50
  -2   0 -13    0.30    6.90
   2   0 -13    8.40    6.60
  -2  -1 -13   97.09   15.20
   2   1 -13   65.99   12.20
  -2  -1 -13   51.89   13.50
  -2   1 -13   70.59   12.90
  -2   1 -13   47.60   12.90
   2  -1 -13   63.19   11.00
   2   2 -13   -2.00    6.60
   2   2 -13   -2.60    5.00
  -2  -2 -13    5.50    7.80
   2   2  13    0.50    7.60
   2  -2 -13    5.40    6.20
   2  -2 -13   -2.10    4.40
  -2   2 -13    0.60    7.40
  -2   2 -13    6.80    6.90
   2   3 -13    9.10    8.30
   2   3 -13    7.20    6.10
  -2   3  13   10.70    7.70
   2   3  13   12.00   11.40
  -2   3 -13    6.10    6.40
   2  -3 -13    9.20    7.20
   2   4 -13    5.10    5.80
  -2   4  13   21.80    9.50
   2   4 -13    3.60    7.90
  -2   4 -13   19.90    8.80
   2  -4 -13   25.10    8.80
   2   4  13    9.70   10.30
   2   5 -13    8.00    9.00
   2   5 -13   12.90    7.70
  -2   5  13    7.90    9.30
   2  -5 -13    1.90    7.30
   2   5  13   27.20   13.00
  -2   5 -13   17.20    8.60
   2   6 -13   -5.80    8.00
  -2   6  13   21.30   11.40
   2   6 -13    3.20    6.20
  -2   6 -13   -3.80    6.90
   2  -6 -13    7.60    8.60
   2   6  13   -4.80    9.40
   2   7 -13   53.09   15.10
   2   7 -13   72.59   13.80
  -2   7  13   70.99   16.50
   2   7  13   94.69   19.20
   2  -7 -13   21.80   10.50
  -2   7 -13   61.79   14.20
   2   8 -13   14.90    8.60
  -2   8  13   15.50   11.40
   2   8  13    4.60   11.20
  -2   8 -13    1.80    8.00
   2   9 -13   -0.50    7.80
  -2   9  13   15.50   12.30
   2   9  13   24.80   14.70
  -2   9 -13   21.70   10.40
   2   0 -14   28.70    9.20
  -2   0 -14   32.00    9.60
   2   0 -14   35.50    8.80
   2   1 -14   34.00   10.70
   2   1 -14   46.70   10.20
  -2  -1 -14   39.30   11.70
  -2   1 -14   34.90   10.20
   2  -1 -14   37.20    8.60
   2  -1 -14   42.50   10.50
   2   2 -14  179.28   17.70
   2   2 -14  144.49   18.10
  -2   2 -14  178.08   20.60
   2  -2 -14  171.58   14.60
   2  -2 -14  135.89   16.90
   2   3 -14   45.60   10.30
   2   3 -14   22.50   10.40
  -2   3 -14   15.90    7.90
   2   3  14   20.30   12.00
   2  -3 -14   15.70    8.50
  -2   4  14    2.10    7.80
   2   4 -14    4.10    6.10
   2   4 -14    5.90    9.30
  -2   4 -14   11.00    7.40
   2   4  14   12.50   10.00
   2  -4 -14    8.60    9.00
   2   5 -14   22.80   11.50
   2   5 -14   11.00    7.70
  -2   5  14    4.60    9.60
   2   5  14   10.50   10.80
   2  -5 -14   16.70    9.20
  -2   5 -14   12.20    8.70
   2   6 -14  189.08   20.80
  -2   6  14  112.79   18.00
   2   6 -14  105.19   19.70
  -2   6 -14  121.29   21.90
   2  -6 -14  123.89   18.20
   2   6  14  170.28   26.80
   2   7 -14   19.20    9.60
  -2   7  14    6.70   10.90
   2   7  14   14.40   14.00
  -2   7 -14    2.40    7.50
  -2   8  14  -10.90    8.50
   2   8 -14   15.00    9.50
   2   8  14   37.30   16.00
  -2   8 -14   -0.20    7.50
  -2   0 -15   -2.80    6.80
   2   0 -15   -0.20    7.50
   2   0 -15    0.70    5.70
  -2  -1 -15   59.89   13.50
   2   1 -15   73.89   13.80
   2   1 -15   78.89   12.30
   2  -1 -15   73.69   11.80
  -2   1 -15   64.69   13.80
   2  -1 -15   91.69   15.80
   2   2 -15    0.10    7.50
   2   2 -15   -1.70    5.60
  -2  -2 -15   -2.80    6.70
   2  -2 -15    9.50    6.80
  -2   2 -15   10.30    8.30
   2  -2 -15   -9.00    6.30
   2   3 -15   34.00    9.70
   2  -3 -15   38.70    9.80
  -2   3 -15   24.30   10.00
   2   3  15   49.00   16.20
  -2   4  15   -7.50    8.10
   2   4 -15    1.40    6.50
   2   4 -15    4.30    8.80
  -2   4 -15    1.30    7.20
   2  -4 -15    3.40    8.40
   2   4  15    3.50    9.90
   2   5 -15   48.10   14.60
   2   5 -15   80.29   13.70
  -2   5  15   55.39   14.60
   2  -5 -15   30.10   11.40
  -2   5 -15   48.90   13.10
   2   6 -15   22.00    9.80
  -2   6  15   13.80   11.80
   2   6  15    7.50   11.50
  -2   6 -15    4.60    8.50
  -2   0 -16   27.10   11.00
   2   0 -16   36.50    9.70
   2   1 -16   59.39   12.00
  -2  -1 -16   53.19   15.30
   2  -1 -16   48.80   10.70
  -2   1 -16   50.59   13.30
   2   2 -16   86.49   13.60
   2   2 -16   61.69   14.90
   2  -2 -16   49.90   12.50
   2  -2 -16   70.89   12.90
  -2  -3 -16  188.58   24.10
   2   3 -16  120.19   19.00
   2   3 -16  210.68   21.20
   2  -3 -16  173.48   18.70
  -2   3 -16  205.38   25.10
   2  -3 -16  160.68   20.20
   3   0   0    0.90    3.10
  -3   0   0   -0.30    3.10
  -3   1   0   13.90    3.80
  -3  -1   0   17.90    4.30
   3  -1   0   10.90    3.50
   3   1   0    9.50    4.00
  -3  -2   0    0.20    2.90
   3   2   0   -1.50    3.30
   3  -2   0   -2.50    3.00
  -3   2   0    0.50    2.80
  -3  -3   0    3.60    3.70
  -3   3   0    1.90    3.20
   3  -3   0   -2.40    3.00
   3   3   0   -2.30    3.50
   3  -4   0   -0.70    3.30
  -3   4   0    4.20    4.00
  -3  -4   0   -3.60    3.40
   3   4   0   -1.10    3.40
   3   5   0    0.60    4.00
   3  -5   0    2.30    4.00
  -3  -5   0    2.60    4.20
  -3   5   0    4.10    4.60
  -3  -6   0    8.00    4.40
  -3   6   0   -2.10    3.30
   3  -6   0    1.30    4.20
   3   6   0   -4.10    3.80
  -3  -7   0    8.50    5.40
  -3   7   0    3.50    4.60
   3  -7   0    6.40    5.70
   3   7   0    1.80    5.60
   3  -8   0    1.90    5.10
  -3  -8   0   -1.60    4.90
  -3   8   0    0.20    5.20
   3   8   0    3.40    6.50
  -3   9   0   -0.60    5.50
   3   9   0   -5.70    5.00
  -3 -10   0   -1.60    4.90
   3  10   0    1.50    5.80
   3 -10   0   -6.30    3.80
  -3  10   0   -2.20    5.10
   3  11   0   -2.50    6.70
  -3  11   0    8.00    7.90
   3  12   0    4.70   10.30
  -3  12   0   -6.60    6.00
  -3  13   0   -4.60    7.40
   3  13   0   -4.70    6.80
   3  14   0   -4.40    8.50
  -3  14   0   -3.40    7.60
  -3  15   0    4.50   12.10
   3  15   0    0.60   10.00
   3   0  -1  109.69    6.90
  -3   0  -1  126.79    9.20
  -3   0   1  117.89    6.70
   3   0   1  118.39    9.10
  -3   1   1   35.20    4.10
   3   1  -1   34.10    4.60
  -3  -1  -1   34.80    6.00
   3   1   1   41.00    6.70
  -3  -1   1   41.90    4.70
  -3   1  -1   29.10    6.20
  -3   1  -1   29.20    4.50
   3  -1  -1   27.50    3.80
   3   2  -1   21.90    4.50
  -3   2   1   20.40    4.10
   3  -2   1   20.10    5.00
  -3  -2  -1   22.10    5.40
  -3   2  -1   22.00    5.00
  -3  -2   1   18.20    4.20
   3   2   1   19.30    5.90
   3  -2  -1   24.90    4.20
  -3  -3  -1   97.79   10.40
   3   3  -1   95.09    8.10
   3  -3   1   78.89    9.00
  -3   3   1   88.19    7.60
  -3  -3   1   90.89    7.80
   3  -3  -1   91.39    8.70
  -3   3  -1   99.69   10.00
   3   3   1  110.99   11.40
   3  -4   1  536.15   26.60
  -3   4   1  609.84   22.30
   3   4  -1  577.24   22.60
   3   4   1  548.65   23.50
  -3   4  -1  579.44   23.10
   3  -4  -1  564.14   21.90
  -3  -4   1  563.04   22.10
   3  -5   1  940.41   33.80
  -3   5   1  923.91   33.10
  -3  -5  -1  953.90   34.20
   3   5  -1  928.41   33.50
  -3  -5   1  976.50   33.60
   3   5   1  943.01   34.80
   3  -5  -1  969.70   33.30
  -3   5  -1  980.20   34.30
  -3  -6  -1  202.58   14.50
   3   6  -1  188.28   13.90
   3  -6   1  198.68   14.00
  -3   6   1  193.08   13.90
  -3   6  -1  153.98   13.20
  -3  -6   1  173.28   13.20
   3   6   1  173.88   14.10
   3  -6  -1  146.89   12.50
   3  -7   1  550.64   25.80
  -3   7   1  501.75   25.00
  -3  -7  -1  581.04   26.80
   3   7  -1  502.05   25.40
  -3  -7   1  529.95   25.60
   3  -7  -1  526.65   25.10
  -3   7  -1  518.65   35.90
   3  -8   1  469.95   24.80
  -3   8   1  487.55   25.30
  -3  -8  -1  455.75   25.10
   3   8  -1  421.96   24.80
  -3   8  -1  442.66   25.00
  -3  -8   1  439.06   24.70
   3  -8  -1  519.15   25.70
  -3  -9  -1  136.29   18.00
   3   9  -1  101.19   13.80
   3  -9   1  128.79   15.80
  -3   9   1  124.99   16.80
  -3   9  -1  130.49   17.30
  -3  -9   1  159.88   22.30
   3  -9  -1   84.29   14.00
   3   9   1  103.19   14.80
  -3 -10  -1  325.97   23.30
   3  10  -1  318.57   23.30
  -3  10   1  347.17   23.40
   3 -10   1  297.87   22.10
   3 -10  -1  317.07   22.40
  -3  10  -1  292.07   22.50
  -3 -10   1  298.77   22.10
  -3  11   1  292.87   23.20
   3  11  -1  298.57   24.20
  -3  11  -1  309.77   24.00
   3  11   1  291.97   24.30
  -3  12   1  304.87   24.60
   3  12  -1  216.58   26.30
  -3  12  -1  183.18   22.80
   3  12   1  140.09   22.30
  -3  13   1  150.08   23.00
   3  13  -1  192.38   24.90
  -3  13  -1  144.19   21.20
   3  13   1  127.69   22.10
  -3  14   1   59.19   15.20
   3  14  -1   77.69   17.40
  -3  14  -1   76.99   18.60
   3  14   1   87.19   19.50
   3  15  -1   31.60   15.80
  -3  15   1    3.90    9.50
  -3  15  -1   34.20   14.80
   3  15   1   33.20   13.40
  -3   0  -2    5.90    5.20
  -3   0   2    6.90    1.70
   3   0   2    9.70    5.30
  -3   0   2   10.20    2.00
  -3  -1  -2 2161.08   60.69
   3   1  -2 2145.79   54.29
  -3   1   2 2176.48   53.99
   3  -1  -2 2129.99   53.89
  -3   1  -2 2160.08   61.79
  -3  -1   2 2086.09   53.99
   3   1   2 2112.19   60.79
  -3   1  -2 2134.69   58.79
  -3   2   2  651.23   20.10
  -3  -2  -2  640.84   24.30
   3   2  -2  632.04   20.20
   3  -2   2  657.43   23.10
   3   2   2  628.14   24.40
   3  -2  -2  651.53   20.10
  -3   2  -2  647.14   23.20
  -3  -2   2  636.24   20.00
   3  -3   2  469.85   19.70
  -3   3   2  503.25   18.30
  -3  -3  -2  464.65   20.70
   3   3  -2  517.65   18.70
  -3  -3   2  497.65   18.30
   3   3   2  465.15   21.10
  -3   3  -2  517.55   20.50
   3  -3  -2  479.35   18.00
  -3  -4  -2   35.80    6.90
   3  -4   2   52.19    8.20
  -3   4   2   56.39    8.00
   3   4  -2   50.29    7.60
   3   4   2   61.39   10.00
  -3  -4   2   51.59    7.70
  -3   4  -2   46.60    7.20
   3  -4  -2   47.90    7.00
  -3  -5  -2  519.45   24.00
   3   5  -2  539.95   22.90
  -3   5   2  550.84   22.90
   3  -5   2  550.84   23.70
   3  -5  -2  563.44   22.70
  -3  -5   2  513.95   22.70
   3   5   2  512.85   24.40
  -3   5  -2  575.34   24.40
  -3  -6  -2   11.10    5.60
   3  -6   2    6.50    4.60
  -3   6   2   13.10    5.90
   3   6  -2    8.90    5.70
   3   6   2    9.40    5.60
   3  -6  -2   18.70    5.70
  -3  -6   2   17.60    5.90
  -3   6  -2    6.10    4.70
   3  -7   2  105.99   14.00
  -3   7   2  138.09   15.80
  -3  -7  -2   85.69   11.80
   3   7  -2   87.29   11.30
   3   7   2  137.89   16.90
  -3   7  -2  127.69   14.60
  -3  -7   2  132.69   15.00
   3  -7  -2  101.49   12.00
   3   8  -2  192.28   16.40
   3  -8   2  206.48   16.40
  -3  -8  -2  192.98   20.60
  -3   8   2  220.68   16.70
   3   8   2  203.58   17.40
   3  -8  -2  194.78   15.60
  -3  -8   2  171.58   15.20
  -3   8  -2  212.18   17.00
   3   9  -2   90.09   13.70
   3  -9   2   94.29   13.20
  -3  -9  -2   59.49   11.20
  -3   9   2  104.19   14.80
   3  -9  -2   90.79   13.60
   3   9   2  100.39   14.20
  -3  -9   2   76.49   12.90
  -3   9  -2   90.79   12.80
  -3 -10  -2   20.70    9.00
  -3  10   2   20.60    8.10
   3 -10   2    5.70    6.10
   3  10  -2   21.90    9.10
   3 -10  -2   14.60    7.40
  -3 -10   2   -0.80    5.60
  -3  10  -2   16.90    8.30
   3  10   2    2.00    6.70
   3  11  -2   17.40    9.00
  -3  11   2   17.90    9.80
   3  11   2   11.90    8.30
  -3  11  -2   18.50    8.80
   3  12  -2  111.79   18.90
  -3  12   2   98.09   16.60
   3  12   2  148.49   23.20
  -3  12  -2  113.89   18.00
  -3  13   2   57.69   15.20
   3  13  -2   53.49   14.30
   3  13   2   71.29   18.00
  -3  13  -2   75.99   17.30
  -3  14   2   50.39   14.60
   3  14  -2   38.10   15.00
  -3  14  -2   49.20   16.50
   3  14   2   30.40   13.50
   3  15  -2   15.50   13.30
  -3  15   2    2.00    8.90
   3  15   2   31.20   14.50
  -3  15  -2   34.00   15.50
   3   0   3 3915.61  105.79
  -3   0  -3 3879.71  105.19
  -3  -1  -3 9451.75  238.48
  -3   1   3 9999.00  230.18
   3  -1  -3 9474.55  229.08
   3   1   3 9416.56  239.18
  -3  -1   3 9213.08  228.98
  -3   1  -3 9229.28  236.08
  -3  -2  -3  136.29   13.30
  -3   2   3   90.19    6.30
   3   2  -3   90.79    6.50
   3  -2   3  101.69    8.80
  -3   2  -3  112.59    9.00
   3  -2  -3   92.09    6.20
   3   2   3  116.49   12.50
  -3  -2   3   98.89    6.20
   3  -3   3  628.54   24.40
  -3  -3  -3  639.84   25.80
  -3   3   3  615.34   21.20
   3   3  -3  640.44   21.40
  -3  -3   3  615.74   21.10
   3   3   3  609.54   25.80
  -3   3  -3  629.24   24.30
   3  -3  -3  589.84   21.00
   3  -4   3  685.13   26.90
   3   4  -3  693.23   24.90
  -3   4   3  667.93   24.60
   3   4   3  717.63   29.00
  -3   4  -3  699.63   27.50
   3  -4  -3  730.03   25.10
  -3  -4   3  670.93   24.60
   3   5  -3  642.64   25.00
   3  -5   3  609.94   26.10
  -3   5   3  597.64   24.30
   3   5   3  576.64   27.10
  -3  -5   3  649.64   25.20
   3  -5  -3  615.74   24.90
   3   6  -3   98.49   12.60
  -3   6   3   97.19   11.30
   3  -6   3   87.29   11.70
  -3  -6  -3  117.09   15.20
  -3   6  -3  112.19   14.40
   3  -6  -3  118.39   13.60
   3   6   3  111.99   14.80
  -3  -6   3  104.49   11.50
  -3  -7  -3  928.81   38.50
   3   7  -3  999.20   37.60
   3  -7   3  970.10   38.00
  -3   7   3  987.90   37.30
   3   7   3  957.40   39.60
  -3  -7   3  988.80   37.10
  -3   7  -3  885.71   37.60
   3  -7  -3  997.50   37.00
  -3  -8  -3  423.36   24.60
   3  -8   3  438.46   24.40
   3   8  -3  374.16   22.60
  -3   8   3  437.76   23.80
  -3  -8   3  420.56   23.20
   3  -8  -3  446.26   23.70
   3   8   3  391.46   24.70
  -3   8  -3  411.56   24.50
   3   9  -3  270.17   19.80
  -3  -9  -3  231.08   24.90
  -3   9   3  229.98   18.70
   3  -9   3  240.48   19.20
  -3   9  -3  233.98   19.60
   3   9   3  247.68   20.40
   3  -9  -3  302.67   20.70
  -3  -9   3  235.48   18.70
   3  10  -3   54.39   13.70
  -3  10   3   28.00    9.60
   3  10   3    4.30    7.70
  -3 -10   3   18.40    8.20
  -3  10  -3   47.40   12.40
   3 -10  -3   34.60   10.70
  -3  11   3   92.19   15.00
   3  11  -3   88.39   15.60
  -3  11  -3  117.79   19.40
   3  11   3   97.39   16.40
   3  12  -3  131.79   19.50
  -3  12   3  134.39   18.20
   3  12   3  114.69   18.20
  -3  12  -3  134.09   20.80
  -3  13   3  185.68   25.60
   3  13  -3  169.98   24.00
   3  13   3  215.68   29.60
  -3  13  -3  190.98   25.30
  -3  14   3    1.00    8.60
   3  14  -3   -6.50    8.60
   3  14   3    7.20   10.70
  -3  14  -3   -2.80    6.90
  -3  15   3   67.09   17.40
   3  15  -3   37.00   15.40
  -3  15  -3   38.20   14.40
   3  15   3   49.20   18.70
   3   0   4    1.60    4.60
  -3   0  -4    0.20    4.30
   3   1  -4 1830.02   47.10
  -3  -1  -4 1886.61   60.49
   3  -1  -4 1801.22   46.00
   3   1   4 1797.02   56.59
  -3   1  -4 1793.32   53.59
  -3  -1   4 1765.72   45.80
  -3   1  -4 1904.11   61.79
  -3   2   4  182.98    8.60
  -3  -2  -4  174.28   13.00
   3   2  -4  159.58    8.10
   3  -2  -4  176.28    8.40
  -3  -2   4  170.68    8.30
  -3   2  -4  194.38   14.50
   3   2   4  170.78   13.40
  -3   2  -4  184.68   12.00
   3  -3   4  196.98   12.70
   3   3  -4  165.48    9.70
  -3   3   4  175.98    9.90
  -3  -3  -4  183.68   13.50
  -3  -3   4  176.58    9.70
  -3   3  -4  170.98   12.40
   3  -3  -4  180.48    9.90
   3   3   4  175.78   13.80
  -3  -4  -4   35.80    7.70
  -3   4   4   38.70    6.60
   3  -4   4   31.80    7.00
   3   4  -4   43.30    7.10
   3   4   4   26.50    7.10
  -3  -4   4   61.09    7.70
   3  -4  -4   54.39    7.60
  -3   4  -4   41.50    8.10
   3   5  -4  715.43   26.80
  -3  -5  -4  686.63   30.00
   3  -5   4  704.03   29.00
  -3   5   4  713.33   27.10
  -3  -5   4  699.63   26.40
   3  -5  -4  702.93   26.70
  -3   5  -4  692.03   29.30
   3   5   4  663.93   30.20
   3   6  -4    0.60    4.00
   3  -6   4   13.90    5.90
  -3   6   4   12.30    5.20
  -3  -6  -4   15.20    6.70
  -3   6  -4   16.30    6.30
   3  -6  -4   16.40    5.40
  -3  -6   4   11.70    5.40
   3   6   4   14.70    7.20
   3   7  -4   69.39   10.90
   3  -7   4   80.59   12.70
  -3  -7  -4   71.09   12.40
  -3   7   4   53.49   10.10
   3  -7  -4   58.89   10.50
  -3  -7   4   64.29   10.70
  -3   7  -4   62.49   11.50
   3   7   4   87.99   14.60
  -3   8   4    2.60    5.20
   3   8  -4    2.70    5.20
  -3  -8   4    2.70    4.60
   3  -8  -4    2.30    5.50
   3   8   4   -7.20    4.90
  -3   8  -4    1.70    5.60
   3   9  -4  366.36   23.10
   3  -9   4  311.77   22.00
  -3  -9  -4  306.77   22.60
  -3   9   4  349.27   22.80
  -3   9  -4  322.17   22.90
  -3  -9   4  350.86   25.90
   3  -9  -4  355.06   26.30
   3   9   4  333.47   24.60
  -3  10   4    6.80    6.90
   3  10  -4   -5.50    4.80
   3  10   4  -11.30    5.70
   3 -10  -4    2.30    6.20
  -3 -10   4   -4.00    5.30
  -3  10  -4    4.20    7.30
  -3  11   4   43.30   11.10
   3  11  -4   57.29   13.20
   3  11   4   61.09   13.80
  -3  11  -4   49.99   14.20
  -3  12   4   20.60   11.10
   3  12  -4   11.90    9.40
  -3  12  -4   40.10   14.10
   3  12   4    9.80   11.50
  -3  13   4   67.99   18.00
   3  13  -4   21.60   10.80
  -3  13  -4   23.10   11.00
   3  13   4   33.00   12.50
   3  14  -4   29.10   13.50
  -3  14   4   21.00   11.90
   3  14   4   12.50   12.30
  -3  14  -4   35.00   13.30
  -3  15   4   72.49   17.70
   3  15  -4   49.30   15.20
   3  15   4   65.69   17.30
  -3  15  -4   78.29   19.60
   3   0  -5  475.45   14.70
   3   0  -5  490.15   14.20
  -3   0  -5  480.45   23.40
   3   0   5  486.55   24.40
  -3   1   5  557.34   17.40
   3   1  -5  559.34   16.50
  -3  -1  -5  531.35   24.80
   3   1  -5  570.14   17.70
  -3   1  -5  550.34   23.20
  -3   1  -5  542.45   25.70
   3   1   5  539.15   25.90
   3  -1  -5  569.64   16.60
  -3   2   5    5.60    2.90
  -3  -2  -5    3.90    4.50
  -3   2  -5    5.50    5.10
  -3   2  -5    9.70    4.40
  -3  -2   5    7.40    2.70
   3   2   5    5.20    5.20
   3   3  -5  204.88   11.00
   3  -3   5  241.18   14.70
  -3   3   5  235.58   11.70
  -3  -3  -5  222.08   15.40
  -3   3  -5  192.08   13.60
  -3  -3   5  202.78   10.50
   3   3   5  207.58   16.00
   3  -3  -5  232.58   11.20
  -3  -4  -5  571.84   26.30
  -3   4   5  530.95   21.30
   3  -4   5  567.34   24.70
   3   4  -5  571.44   21.40
   3  -4  -5  507.75   20.70
   3   4   5  533.45   26.40
  -3   4  -5  548.55   24.80
  -3  -4   5  528.05   20.70
  -3  -5  -5  447.36   23.40
  -3   5   5  432.36   20.00
   3   5  -5  417.86   19.60
   3  -5   5  396.76   21.40
   3  -5  -5  428.26   19.70
  -3  -5   5  431.26   19.40
   3   5   5  450.95   28.10
  -3   5  -5  418.96   25.40
  -3  -6  -5  112.19   15.60
  -3   6   5  126.19   13.80
   3   6  -5  100.49   12.20
   3  -6   5   81.19   11.50
   3  -6  -5  112.69   12.60
   3   6   5  102.09   13.70
  -3   6  -5   93.89   13.30
  -3  -6   5   91.09   11.10
  -3   7   5  486.55   24.80
   3   7  -5  474.15   24.50
  -3  -7  -5  489.05   26.80
   3  -7   5  513.85   26.30
   3   7   5  499.75   27.90
   3  -7  -5  512.45   24.70
  -3  -7   5  424.96   22.90
  -3   7  -5  474.15   26.20
   3  -8   5  237.08   18.50
  -3  -8  -5  246.88   19.70
   3   8  -5  275.57   18.70
  -3   8   5  240.28   18.30
   3  -8  -5  215.88   16.90
  -3  -8   5  244.58   17.50
  -3   8  -5  229.18   18.90
   3   8   5  230.68   20.10
   3  -9   5  108.39   16.30
   3   9  -5   65.29   11.80
  -3  -9  -5   53.99   11.70
  -3   9   5   93.19   15.10
   3   9   5   40.50   12.90
  -3   9  -5   56.99   12.10
  -3  10   5  312.57   23.20
   3  10  -5  302.27   22.60
   3  10   5  375.86   26.70
  -3 -10   5  316.27   23.00
   3 -10  -5  287.87   22.10
  -3  10  -5  283.57   23.00
  -3  11   5   69.29   14.40
   3  11  -5   52.99   13.10
   3  11   5   63.59   15.10
  -3  11  -5   42.90   11.10
  -3  12   5  154.78   21.60
   3  12  -5  134.79   21.50
  -3  12  -5  192.28   24.20
   3  12   5  180.38   27.00
  -3  13   5  114.99   21.20
   3  13  -5   97.39   17.50
  -3  13  -5  107.79   18.10
   3  13   5  104.09   18.90
  -3  14   5   31.30   14.50
   3  14  -5   14.90   10.70
  -3  14  -5   20.70   13.40
   3  14   5   24.30   14.20
   3  15  -5   62.39   18.30
  -3  15   5   30.30   15.00
  -3  15  -5   49.10   14.50
   3  15   5   40.90   14.90
  -3   0  -6   -1.60    4.70
   3   0  -6   -2.20    1.90
   3   0  -6    5.00    2.50
   3   0   6   -3.60    4.70
  -3  -1  -6    7.20    6.00
   3   1  -6    8.90    3.50
  -3   1   6   17.60    3.90
   3   1  -6   10.20    2.80
   3  -1  -6   16.00    3.40
   3   1   6   20.20    8.00
  -3   1  -6    5.90    5.20
  -3   1  -6    5.60    4.60
  -3  -2  -6   -0.60    4.50
  -3   2   6    3.70    3.20
   3   2  -6   -2.90    2.10
   3   2   6   -1.90    4.60
   3  -2  -6    0.90    2.60
  -3   2  -6    3.10    5.30
  -3   2  -6   -0.70    3.70
   3   3  -6 1090.19   33.30
  -3   3   6 1098.09   34.30
  -3  -3  -6 1039.70   40.30
  -3   3  -6 1032.60   42.20
  -3   3  -6 1086.29   39.10
   3  -3  -6 1072.29   33.40
   3   3   6 1126.49   42.40
  -3  -3   6 1122.49   33.20
  -3   4   6   38.20    6.80
   3  -4   6   24.30    6.90
  -3  -4  -6   34.70    8.40
   3   4  -6   42.10    6.80
   3  -4  -6   40.80    6.70
   3   4   6   24.40    7.40
  -3   4  -6   26.10    7.00
  -3  -4   6   36.70    6.00
   3  -5   6  183.18   14.50
  -3   5   6  193.28   13.20
  -3  -5  -6  210.08   16.40
   3   5  -6  187.58   12.90
  -3  -5   6  185.48   12.40
   3   5   6  191.28   16.90
   3  -5  -6  205.08   13.20
  -3   5  -6  189.68   15.30
   3  -6   6   -5.60    3.60
  -3   6   6    6.40    5.00
   3   6  -6    2.40    4.20
  -3  -6  -6    2.20    5.00
   3   6   6   -4.40    5.40
  -3  -6   6   -0.60    4.10
  -3   6  -6    1.70    4.60
   3  -6  -6    6.20    4.70
  -3   7   6  349.17   24.20
  -3  -7   6  378.56   20.60
   3  -7  -6  374.06   21.50
   3   7   6  390.96   25.40
  -3  -8  -6    7.80    6.70
  -3   8   6   20.80    8.00
   3   8  -6   12.20    7.70
   3  -8   6   -2.10    4.90
  -3   8  -6    2.60    5.70
   3  -8  -6    8.90    6.50
   3   8   6    6.90    8.00
  -3  -8   6    5.80    5.70
   3   9  -6   68.09   12.30
  -3   9   6   40.90   10.60
   3   9   6   41.90   12.90
  -3   9  -6   60.99   13.20
   3  -9  -6   54.89   11.80
  -3  -9   6   52.69   10.90
  -3  10   6   11.50    8.10
   3  10  -6   -7.40    7.00
   3  10   6    1.20    8.80
   3 -10  -6    2.30    7.00
  -3 -10   6   -3.00    6.20
  -3  10  -6    7.50    7.50
  -3  11   6  260.17   22.50
   3  11  -6  215.98   23.60
  -3  11  -6  238.68   27.20
   3  11   6  195.78   27.30
  -3  12   6   12.70   10.00
   3  12  -6   -1.30    7.50
   3  12   6   -8.60    9.40
  -3  12  -6   -0.20    8.30
  -3  13   6   63.79   16.40
   3  13  -6   83.59   16.60
  -3  13  -6   70.39   16.40
   3  13   6  100.19   22.30
  -3  14   6    9.60   10.70
   3  14  -6    8.10   10.80
   3  14   6   15.50   14.30
  -3  14  -6   -0.10    8.30
   3   0  -7   36.80    5.20
   3   0  -7   29.30    4.10
   3   0   7   25.30    8.60
  -3   0  -7   31.40    8.10
   3   1  -7  398.56   14.40
  -3  -1  -7  379.06   22.00
  -3   1   7  369.26   15.70
   3   1  -7  395.66   15.50
  -3   1  -7  378.16   22.50
   3   1   7  349.67   22.60
  -3   1  -7  392.06   20.20
   3  -1  -7  385.06   14.80
  -3  -2  -7   72.19   11.20
   3   2  -7   74.99    8.70
   3   2  -7   76.99    7.70
  -3   2   7   74.69    8.20
  -3   2  -7   48.00   10.40
  -3   2  -7   67.29    9.70
   3   2   7   74.79   12.30
   3  -2  -7   71.59    7.40
  -3   3   7  532.65   21.20
  -3  -3  -7  494.85   26.00
   3   3  -7  519.95   19.90
  -3  -3   7  524.95   19.60
  -3   3  -7  495.25   27.80
   3  -3  -7  519.85   20.10
   3   3   7  586.24   33.30
  -3   4   7    6.50    4.60
   3   4  -7   10.60    4.40
  -3  -4  -7    5.30    6.00
  -3   4  -7   10.60    7.30
  -3  -4   7    4.60    4.40
   3  -4  -7    4.20    4.60
   3   4   7    0.60    6.20
  -3   4  -7   10.90    5.90
   3   5  -7  436.56   20.10
   3  -5   7  405.06   22.70
  -3   5   7  455.85   21.10
  -3  -5  -7  401.56   24.10
   3  -5  -7  426.36   20.10
  -3   5  -7  392.06   23.00
  -3  -5   7  399.76   19.10
   3   5   7  408.76   25.50
   3   6  -7  200.08   14.90
   3  -6   7  200.48   16.50
  -3   6   7  207.98   15.50
  -3  -6  -7  206.88   17.90
  -3  -6   7  210.78   14.50
   3   6   7  241.18   20.10
  -3   6  -7  163.08   17.10
   3  -6  -7  212.38   15.10
   3   7  -7  347.07   20.70
   3  -7   7  360.96   23.00
  -3   7   7  417.46   23.30
  -3  -7  -7  304.67   22.60
  -3  -7   7  399.26   21.00
   3   7   7  373.86   25.90
  -3   7  -7  388.46   24.40
   3  -7  -7  333.27   20.50
  -3  -8  -7   44.20   12.60
   3   8  -7   78.19   13.20
   3  -8   7   44.90   11.80
  -3   8   7   67.09   12.60
  -3  -8   7   59.69   11.00
  -3   8  -7   62.49   14.00
   3  -8  -7   43.60   10.20
   3   8   7   60.19   14.20
  -3   9   7  226.68   19.60
   3   9  -7  263.37   19.90
  -3  -9   7  240.18   19.00
   3  -9  -7  226.48   19.10
  -3   9  -7  236.28   26.10
   3   9   7  228.68   27.30
  -3  10   7   31.60   10.60
   3  10  -7   23.60    9.90
  -3 -10   7   23.30   10.70
   3 -10  -7   15.90    9.00
  -3  10  -7   12.00    8.90
   3  10   7   10.60    9.40
   3  11  -7  201.68   22.10
  -3  11   7  179.28   23.00
  -3  12   7   48.80   14.60
   3  12  -7   29.80   12.00
  -3  12  -7   30.30   11.20
   3  12   7   28.10   12.80
  -3  13   7   74.59   16.20
   3  13  -7   69.19   16.00
   3  13   7   93.39   21.40
  -3  13  -7   77.19   17.20
   3  14  -7   27.80   13.60
  -3  14   7   36.30   13.80
   3  14   7   35.60   14.70
  -3  14  -7   24.70   12.80
   3   0  -8    2.30    2.60
  -3   0  -8    1.10    4.80
   3   0  -8    5.00    3.50
   3   1  -8   56.79    6.50
   3   1  -8   61.19    7.60
  -3  -1  -8   70.09   13.10
  -3   1  -8   60.69   12.40
   3  -1  -8   69.69    7.60
  -3   1  -8   58.09   11.80
  -3  -2  -8   28.00    8.30
   3   2  -8   35.70    5.80
   3   2  -8   38.30    7.00
  -3   2   8   40.30    6.90
   3   2   8   35.60   10.50
  -3   2  -8   39.70    8.10
  -3   2  -8   14.40    7.30
   3  -2  -8   44.20    6.80
   3   3  -8  113.79    8.80
  -3   3   8  108.79   11.30
   3   3  -8  114.79   12.70
  -3  -3  -8   99.19   15.10
  -3   3  -8  118.99   14.40
   3  -3  -8  104.09    8.80
   3   3   8  106.09   16.70
  -3   3  -8  100.79   14.50
   3   4  -8    5.40    4.30
  -3   4   8   -1.00    4.60
  -3  -4  -8    0.00    5.40
  -3  -4   8    5.00    3.90
  -3   4  -8    4.30    6.40
  -3   4  -8    8.80    6.30
   3   4   8    4.30    6.20
   3  -4  -8    1.70    3.90
   3   5  -8  135.69   11.30
  -3   5   8  105.69   12.80
  -3  -5  -8  117.09   15.70
  -3   5  -8   91.09   16.10
  -3  -5   8  142.19   11.20
  -3   5  -8  135.79   15.50
   3  -5  -8  122.79   13.10
   3   5   8  122.79   17.20
   3  -6   8   12.30    6.80
  -3  -6  -8   18.00    8.80
  -3   6   8   20.50    7.20
   3   6  -8   17.30    6.40
   3   6   8   23.10   10.40
   3  -6  -8   30.30    7.90
  -3  -6   8   20.60    6.60
  -3   6  -8   15.90    6.90
   3   7  -8  236.78   17.20
  -3   7   8  216.28   17.10
   3  -7   8  223.58   18.50
  -3  -7  -8  228.38   20.20
  -3   7  -8  274.07   20.90
  -3  -7   8  217.98   16.20
   3  -7  -8  224.58   17.30
   3   7   8  278.57   28.90
   3   8  -8    6.40    6.10
  -3   8   8    4.40    6.00
   3   8   8   12.70    8.30
  -3   8  -8   -0.20    5.60
  -3  -8   8    1.90    5.10
   3  -8  -8    5.60    6.80
   3   9  -8   92.59   14.20
  -3   9   8   84.79   15.70
   3  -9  -8   89.19   14.90
   3   9   8  115.69   20.40
  -3  -9   8  101.79   14.60
  -3   9  -8   71.39   14.40
  -3  10   8   17.30    9.90
   3  10  -8   38.70   10.60
  -3  10  -8   31.80   10.30
   3  10   8    7.60   10.30
   3  11  -8   59.69   12.90
  -3  11   8   42.00   12.80
  -3  11  -8   70.39   17.30
   3  11   8   58.09   16.40
  -3  12   8   -8.90    8.60
  -3  12  -8    8.90    8.50
   3  12   8    3.70   11.50
  -3  13   8   64.29   16.50
   3  13  -8   80.79   17.00
  -3  13  -8   61.19   17.60
   3  13   8   29.70   13.70
   3   0   9  166.28   21.50
   3   0  -9  162.18    9.60
   3   0  -9  146.69   10.30
  -3   0  -9  163.58   18.20
   3   1  -9  186.98   10.70
  -3  -1  -9  195.08   17.10
   3   1  -9  183.48   11.70
   3  -1  -9  169.08   10.30
   3  -1  -9  196.48   11.40
  -3   1  -9  200.38   15.60
   3   1   9  178.98   21.50
  -3   1  -9  195.68   20.70
  -3  -2  -9  524.15   28.30
   3   2  -9  519.35   20.40
   3   2  -9  497.95   22.20
  -3   2   9  557.04   23.10
   3  -2  -9  552.94   21.30
   3   2   9  461.65   29.10
  -3   2  -9  523.15   29.60
  -3   2  -9  522.55   26.20
   3   3  -9  371.96   17.50
  -3  -3  -9  400.06   24.60
  -3   3   9  386.26   19.90
  -3   3  -9  406.16   23.10
   3   3   9  378.46   25.90
  -3   3  -9  397.66   26.30
   3   4  -9  199.78   15.60
  -3  -4  -9  224.58   18.70
   3   4  -9  180.98   12.70
  -3   4   9  186.38   14.40
   3  -4  -9  182.18   12.90
  -3   4  -9  195.38   16.60
   3   4   9  198.58   22.20
  -3   4  -9  154.18   20.20
  -3   5   9  240.78   16.80
  -3  -5  -9  240.88   20.10
   3   5  -9  285.77   16.70
  -3   5  -9  238.78   19.00
   3   5   9  273.07   22.80
  -3  -5   9  250.97   15.40
  -3   5  -9  268.17   28.60
   3  -5  -9  275.77   16.80
  -3   6   9  226.28   17.90
  -3  -6  -9  229.38   20.10
   3  -6  -9  231.68   16.80
  -3  -6   9  260.57   16.50
  -3   6  -9  245.28   26.50
  -3   6  -9  238.48   20.00
   3   6   9  241.28   26.10
   3   7  -9   77.19   12.90
  -3   7   9   71.99   12.10
   3  -7  -9   77.29   12.70
  -3   7  -9   56.29   13.70
   3   7   9   58.89   14.40
  -3  -7   9   67.09   10.90
   3   8  -9   61.89   11.80
  -3   8   9   80.99   14.60
  -3   8  -9   83.69   14.40
   3   8   9   76.19   15.10
  -3   9   9   78.59   14.30
   3   9  -9   57.89   12.20
  -3   9  -9   68.09   14.40
  -3  -9   9   56.39   12.20
   3   9   9   70.09   16.20
   3  -9  -9   68.09   13.60
   3  10  -9   86.89   15.80
  -3  10   9   92.39   16.50
  -3  10  -9   78.39   24.20
  -3  11   9  104.09   17.60
   3  11  -9  102.69   18.50
   3  11   9   75.89   19.30
  -3  11  -9   46.90   14.40
  -3  12   9   22.00   12.20
   3  12  -9   27.50   12.20
   3  12   9   38.90   15.50
  -3  12  -9   44.20   15.20
  -3  13   9   28.20   14.30
   3  13  -9   21.90   11.50
   3  13   9   59.89   17.30
  -3  13  -9   18.20   12.50
  -3   0 -10    7.10    5.60
  -3   0 -10    0.70    6.00
   3   0 -10   -5.40    2.70
   3   0 -10   -4.40    3.60
  -3  -1 -10   64.29   12.70
   3   1 -10   64.49    7.80
   3   1 -10   74.69    9.60
  -3   1 -10   66.19   13.40
   3  -1 -10   61.89    8.50
   3  -1 -10   74.49    8.30
  -3   1 -10   49.99   10.40
   3   1  10   50.79   13.70
   3   2 -10   17.60    7.60
  -3   2  10   17.20    6.40
  -3  -2 -10   16.10    8.30
   3   2 -10   16.30    5.30
  -3   2 -10   13.20    6.30
  -3   2 -10   21.60    9.80
   3   2  10   17.30    8.80
   3  -2 -10   17.00    6.70
   3   3 -10    4.40    5.40
   3   3 -10   -2.50    3.70
  -3   3  10   -1.50    5.40
  -3  -3 -10   -7.70    4.60
  -3   3 -10    0.50    5.50
  -3   3 -10    5.00    5.80
   3  -3 -10   -2.60    3.60
   3   3  10    5.20    7.80
  -3   4  10   23.40    8.40
   3   4 -10   18.00    6.10
   3   4 -10   28.90    8.30
  -3  -4 -10   14.50    8.40
  -3   4 -10   29.70   11.20
   3  -4 -10   33.30    7.60
   3   4  10   45.70   12.20
  -3   4 -10   30.70   10.40
   3   5 -10   22.00    8.40
  -3   5  10    7.50    6.40
  -3  -5 -10   11.30    8.60
   3   5 -10    5.90    5.20
  -3   5 -10   10.50    6.70
   3   5  10    6.50    8.20
  -3   5 -10    5.70    8.20
   3  -5 -10    4.30    5.40
   3   6 -10   10.40    5.90
  -3   6  10    8.20    6.80
   3   6  10    4.60    7.60
  -3  -6  10    2.70    5.00
   3  -6 -10    4.70    5.90
  -3   6 -10   -2.70    5.70
  -3   7  10   49.70   11.20
   3   7 -10   58.09   11.50
   3   7  10   41.80   13.70
  -3   7 -10   31.10   10.90
  -3  -7  10   62.49   11.40
   3  -7 -10   56.69   11.80
   3   8 -10   83.79   14.50
  -3   8  10   81.39   14.60
   3   8  10   86.29   17.40
  -3  -8  10   76.19   12.80
   3  -8 -10   73.69   14.30
  -3   8 -10   53.29   13.80
   3   9 -10   52.49   11.90
  -3   9  10   31.70   10.80
   3   9  10   29.80   11.50
  -3  -9  10   11.20    8.30
   3  -9 -10   24.80   10.20
  -3   9 -10   53.89   13.70
   3  10 -10    0.50    6.90
  -3  10  10    4.90    9.00
  -3  10 -10  -13.20    6.90
   3  10  10    4.00    9.00
  -3  11  10   25.60   12.90
   3  11 -10    2.10    9.30
   3  11  10   18.20   11.70
  -3  11 -10    5.80    9.20
   3  12 -10    0.30    8.80
  -3  12  10   -1.80    9.40
   3  12  10  -16.40    9.20
  -3  12 -10   -1.40    7.90
  -3   0 -11  199.48   20.70
  -3   0 -11  199.58   22.00
   3   0 -11  158.08   11.20
   3   1 -11  330.07   19.60
   3   1 -11  291.17   15.40
  -3  -1 -11  301.07   23.10
   3   1  11  295.57   24.80
   3  -1 -11  319.67   18.70
  -3   1 -11  310.97   21.00
   3  -1 -11  305.67   15.50
  -3   1 -11  275.97   22.90
   3   2 -11  585.34   25.60
   3   2 -11  572.24   23.30
  -3  -2 -11  540.25   31.30
  -3   2  11  544.35   26.10
  -3   2 -11  590.54   29.70
  -3   2 -11  539.65   32.40
   3  -2 -11  560.64   24.00
   3   2  11  520.15   33.50
  -3  -3 -11  276.27   22.20
   3   3 -11  292.67   16.40
  -3   3  11  313.47   19.50
   3   3 -11  306.97   19.40
   3   3  11  322.17   26.30
   3  -3 -11  270.17   16.70
  -3   3 -11  305.87   21.50
  -3   3 -11  268.67   23.40
  -3   4  11   94.39   13.70
   3   4 -11   76.89   10.90
   3   4 -11   87.99   13.40
  -3  -4 -11   86.79   14.90
  -3   4 -11   91.69   14.00
   3   4  11   51.49   13.50
   3  -4 -11   60.19   10.00
  -3   4 -11   74.49   16.80
   3   5 -11  187.68   20.80
  -3   5  11  197.88   19.70
  -3   5 -11  246.88   20.20
   3   5  11  223.98   27.50
   3  -5 -11  178.48   15.10
  -3   6  11  116.99   16.20
   3   6 -11  135.99   15.40
   3   6 -11   99.99   15.50
   3  -6 -11  116.59   15.10
   3   6  11  100.99   18.50
  -3   6 -11  111.69   17.30
   3   7 -11   87.19   13.20
  -3   7  11   98.69   15.20
  -3   7 -11  104.49   16.80
   3  -7 -11  109.99   15.60
  -3  -7  11   92.59   14.10
   3   7  11  172.68   25.70
   3   8 -11   42.10   10.80
  -3   8  11   29.30   10.30
  -3  -8  11   23.50    8.60
  -3   8 -11   50.79   13.00
   3  -8 -11   45.10   12.40
   3   8  11   86.49   19.10
   3   9 -11  209.28   22.30
  -3   9  11  142.69   19.30
   3   9  11  169.78   26.40
  -3   9 -11  177.38   24.50
  -3  10  11  149.09   23.10
   3  10 -11  158.28   20.50
  -3  10 -11  116.79   22.20
   3  10  11  156.18   28.10
  -3  11  11  105.59   19.20
   3  11  11  121.69   23.40
  -3  11 -11   88.99   17.40
   3   0 -12    4.30    4.90
  -3   0 -12   -2.10    5.40
   3   0 -12    4.00    4.70
  -3   0 -12   -2.30    7.60
   3   1 -12    7.50    4.50
  -3  -1 -12   -2.30    6.30
   3   1 -12    9.20    6.00
  -3   1 -12   -2.00    7.20
   3  -1 -12    3.00    4.90
  -3   1 -12    6.70    6.40
   3   1  12    9.10    9.10
   3  -1 -12   11.30    5.10
   3   2 -12   25.70    6.80
  -3  -2 -12   24.10   10.60
   3   2 -12   32.70    8.60
  -3   2 -12   13.40    9.60
   3  -2 -12   28.50    7.50
   3   2  12   25.40   12.30
   3  -2 -12   40.10    7.50
  -3   2 -12   18.30    8.30
  -3   3  12   12.70    7.10
   3   3 -12    5.50    4.90
   3   3 -12    2.10    6.00
  -3   3 -12    3.00    6.60
   3  -3 -12    1.30    4.80
   3   3  12    2.10    8.90
  -3   4  12   19.70    8.50
   3   4 -12    7.20    7.40
   3   4 -12   10.60    6.10
   3  -4 -12    6.80    6.00
  -3   4 -12   15.70    8.40
   3   4  12    9.40   10.10
  -3   5  12    3.10    7.30
   3   5 -12    6.70    6.00
   3   5 -12   -3.80    6.60
   3   5  12   -0.10    8.90
  -3   5 -12    0.80    5.50
   3  -5 -12   -4.80    4.90
   3   6 -12    2.50    5.60
  -3   6  12    6.20    8.20
   3   6 -12   17.60   10.20
   3  -6 -12   -1.40    6.30
   3   6  12   11.10   10.50
  -3   6 -12    0.30    7.20
   3   7 -12   55.69   11.30
  -3   7  12   61.79   14.20
   3   7 -12   64.69   15.00
  -3   7 -12   78.19   15.10
   3   7  12   51.89   15.40
   3  -7 -12   61.09   13.10
   3   8 -12    9.10    8.20
  -3   8  12    3.70    8.80
   3   8  12   10.70   10.90
   3  -8 -12   -7.70    7.30
  -3   8 -12    5.70    7.80
   3   9 -12    4.70    8.20
  -3   9  12   13.10    9.20
   3   9  12   15.00   11.70
  -3   9 -12    7.40    8.90
  -3  10  12  -12.20    7.50
   3  10 -12    4.50    8.40
  -3  10 -12    1.70    7.50
   3  10  12    8.30   11.60
  -3   0 -13   47.80   12.00
   3   0 -13   33.00    8.50
   3   0 -13   35.70    7.60
   3   1 -13   89.49   12.50
  -3  -1 -13   94.29   15.80
   3   1 -13   82.99   11.40
  -3   1 -13   75.59   13.70
   3  -1 -13   99.59   11.60
   3   2 -13  189.28   16.00
   3   2 -13  232.68   15.40
   3  -2 -13  221.68   16.00
   3  -2 -13  239.18   14.90
  -3   2 -13  236.48   24.40
   3   2  13  207.68   26.30
   3   3 -13   84.39   11.50
   3   3 -13   88.89   14.00
  -3   3 -13  121.19   17.10
   3   3  13   89.39   19.00
   3  -3 -13   89.69   12.70
   3   4 -13   13.60    8.20
   3   4 -13   11.90    6.50
   3  -4 -13    2.80    6.40
   3   4  13    4.80    9.30
  -3   4 -13    9.40    8.10
   3   5 -13   59.79   11.00
   3   5 -13   69.29   14.20
  -3   5  13   39.60   11.60
   3  -5 -13   37.00    9.80
   3   5  13  100.39   20.00
  -3   5 -13   44.10   12.30
   3   6 -13  193.28   25.40
   3   6 -13  192.68   16.90
  -3   6  13  209.68   22.70
   3   6  13  212.48   29.40
   3  -6 -13  244.28   24.10
  -3   6 -13  225.58   25.10
  -3   7  13   94.19   17.30
   3   7 -13  109.09   15.80
   3   7 -13   73.09   17.00
   3  -7 -13   57.09   13.30
   3   7  13  102.29   21.70
  -3   7 -13   66.69   15.50
   3   8 -13    4.90    7.40
  -3   8  13   -8.00    7.40
   3   8  13   11.00   12.90
  -3   8 -13    3.50    8.30
  -3   9  13  111.19   19.80
   3   9 -13  112.99   17.80
  -3   9 -13  128.99   22.40
   3   9  13  161.08   26.60
   3   0 -14    4.20    6.00
   3   0 -14    1.40    4.50
  -3   0 -14    3.80    6.20
  -3  -1 -14   44.70   10.90
   3   1 -14   35.30    8.50
   3   1 -14   39.10    9.80
  -3   1 -14   33.00   10.20
   3  -1 -14   31.60    7.80
   3  -1 -14   40.30    9.40
   3   2 -14   11.70    7.90
   3   2 -14   -2.90    5.00
   3   2  14    4.10   10.70
   3  -2 -14    0.90    4.90
   3  -2 -14   -2.80    5.60
  -3   2 -14    6.10    6.80
   3   3 -14   54.69   10.60
   3   3 -14   27.90   10.00
   3   3  14   22.80   13.00
   3  -3 -14   42.20   10.10
   3  -3 -14   33.10    9.00
  -3   3 -14   26.00   10.10
  -3   4  14   11.30    9.50
   3   4 -14    3.00    7.40
   3   4 -14    4.90    5.40
   3  -4 -14   -3.50    6.80
  -3   4 -14    3.80    7.40
   3   4  14   -2.60    9.30
   3   5 -14   33.80   12.40
  -3   5  14   45.40   13.20
   3   5 -14   41.70   10.80
   3  -5 -14   34.70   10.70
   3   5  14   55.29   18.60
   3   6 -14    6.30    7.40
   3   6 -14   -3.00    9.40
  -3   6  14   10.30   10.10
  -3   6 -14   31.50   11.00
   3  -6 -14   13.60    9.50
   3   6  14   13.10   11.70
   3   7 -14   48.30   11.70
  -3   7  14   33.90   12.90
   3   7 -14   27.50   13.50
   3   7  14   43.80   15.60
  -3   7 -14   52.89   14.30
   3  -7 -14   41.10   12.50
  -3   8  14   13.90   12.20
   3   8 -14    7.10    8.40
  -3   8 -14   -5.10    7.20
   3   8  14   -1.60   11.00
   3   0 -15    3.50    6.80
  -3   0 -15   13.60    9.50
   3   1 -15   99.49   14.50
  -3  -1 -15  148.79   20.00
   3  -1 -15   98.79   18.90
  -3   1 -15   82.19   15.10
   3  -1 -15  114.39   15.00
   3   2 -15   34.10    8.70
   3   2 -15   26.50    9.70
  -3  -2 -15   10.40    9.80
  -3   2 -15   20.60   10.50
   3  -2 -15   31.50    8.70
   3  -2 -15   27.50    9.20
   3   3 -15  298.47   22.30
   3   3 -15  311.57   19.80
  -3   3 -15  249.78   32.90
   3  -3 -15  313.87   19.20
   3  -3 -15  271.67   20.50
   3   4 -15    4.50    7.00
   3   4 -15   -1.10    8.70
   3   4  15   -3.20   10.50
  -3   4 -15   -3.90    6.40
   3  -4 -15    7.90    8.40
   3   5 -15  111.89   15.60
  -3   5  15  109.89   17.70
   3   5 -15  106.99   23.10
   3   5  15  139.89   24.90
  -3   5 -15  148.69   21.50
   3  -5 -15  121.19   21.40
  -3   6  15   35.60   13.60
   3   6 -15   73.39   13.90
   3   6 -15   31.50   14.10
   3  -6 -15   52.39   14.20
  -3   6 -15   28.20   11.60
   3   6  15   44.50   16.30
   3   0 -16   -0.10    7.20
   3   0 -16    5.40    6.60
  -3   0 -16   -4.10    6.90
  -3  -1 -16   92.09   17.10
   3   1 -16   72.39   11.90
   3   1 -16   65.19   12.60
   3  -1 -16   55.69   12.00
   3  -1 -16   61.39   10.50
  -3   1 -16   55.19   14.90
   3   2 -16    5.90    6.50
  -3  -2 -16   -0.80    8.00
   3   2 -16    1.10    8.30
  -3   2 -16    8.00    9.30
   3  -2 -16   11.80    8.40
   3  -2 -16   12.10    7.40
  -4   0   0  244.68   12.60
   4   0   0  245.88   13.10
  -4  -1   0    3.20    3.80
  -4   1   0    6.50    3.60
   4   1   0    9.40    4.10
  -4   1   0    6.70    4.20
   4   2   0   23.50    5.70
  -4   2   0   21.40    4.70
   4  -2   0   27.00    5.20
  -4  -2   0   25.60    5.70
  -4   3   0   63.49    7.80
   4  -3   0   72.09    8.40
   4   3   0   68.69    9.30
  -4  -3   0   58.29    8.50
  -4   4   0  626.74   24.20
   4   4   0  610.24   25.00
  -4  -5   0  893.51   33.60
  -4   5   0  948.61   34.10
   4  -5   0  989.30   34.20
   4   5   0  965.90   34.90
  -4  -6   0 1747.63   55.39
  -4   6   0 1667.23   54.79
   4  -6   0 1752.22   54.99
   4   6   0 1719.63   55.89
  -4  -7   0  285.97   18.50
  -4   7   0  319.67   22.00
   4   7   0  309.87   22.50
   4  -7   0  292.37   18.30
  -4  -8   0  168.78   18.20
   4  -8   0  183.98   15.50
  -4   8   0  176.68   18.40
   4   8   0  165.68   16.90
   4   9   0  247.78   19.60
   4  -9   0  257.47   19.30
  -4  -9   0  216.58   18.40
  -4   9   0  265.87   20.00
  -4  10   0  186.08   19.70
   4 -10   0  206.78   22.20
   4  10   0  231.28   25.70
  -4 -10   0  162.88   18.80
   4  11   0   93.49   15.00
  -4  11   0  120.59   18.10
  -4  12   0   98.49   15.80
   4  12   0   98.59   17.90
   4  13   0  166.28   21.40
  -4  13   0  195.38   23.30
   4  14   0  114.19   22.90
  -4  14   0  122.49   20.40
  -4  15   0   20.90   13.10
   4  15   0   40.20   16.60
   4   0   1   -2.10    3.90
   4   0  -1   -5.90    3.10
  -4   0  -1    0.40    4.00
  -4   0   1   -0.40    3.10
   4   1  -1    3.20    3.50
  -4   1   1    2.40    2.70
  -4  -1  -1   11.90    4.60
  -4   1   1    1.70    3.40
   4   1   1   13.30    5.20
  -4   1  -1    1.60    4.60
  -4   1  -1    3.90    3.20
  -4  -1   1    2.00    3.20
  -4  -2  -1   43.20    7.00
   4   2  -1   43.70    6.10
   4  -2   1   50.39    7.30
  -4   2   1   40.50    5.70
  -4  -2   1   62.39    7.20
  -4   2  -1   41.60    6.30
   4  -2  -1   47.70    5.90
   4   2   1   42.90    7.70
   4  -3   1  202.18   12.20
  -4   3   1  208.08   11.50
   4   3  -1  224.98   12.60
  -4  -3  -1  236.28   13.70
   4  -3  -1  226.28   11.60
  -4  -3   1  215.98   11.80
  -4   3  -1  206.68   12.40
   4   3   1  233.98   14.30
  -4  -4  -1   47.50    7.40
   4   4  -1   36.40    6.80
   4  -4   1   55.59    9.00
  -4   4   1   49.50    7.40
   4  -4  -1   48.90    7.10
  -4  -4   1   63.99    8.80
  -4   4  -1   47.10    7.40
   4   4   1   58.49   10.10
  -4   5   1  355.46   17.80
  -4  -5  -1  352.06   18.90
   4  -5   1  343.27   17.90
   4   5  -1  343.87   18.20
  -4   5  -1  333.77   18.20
  -4  -5   1  354.76   17.90
   4   5   1  343.57   19.30
   4  -5  -1  317.17   17.00
  -4  -6  -1   -0.20    4.30
  -4   6   1    4.50    5.60
   4  -6   1    0.00    3.70
   4   6  -1   -3.10    4.00
  -4  -6   1    2.00    4.60
   4   6   1   -2.10    5.50
   4  -6  -1    6.90    5.20
  -4   6  -1    9.70    5.10
   4  -7   1   17.60    6.40
  -4   7   1   19.90    6.90
  -4  -7  -1   13.00    5.60
   4   7  -1   26.50    9.70
  -4   7  -1   13.30    5.90
   4  -7  -1   21.00    7.00
  -4  -7   1   22.80    7.00
   4   7   1   24.30    7.60
   4   8  -1    5.20    5.70
  -4   8   1    2.50    5.20
  -4  -8  -1    5.90    5.80
   4  -8   1   -0.80    4.70
   4  -8  -1   -1.90    5.00
  -4  -8   1   -1.40    4.40
  -4   8  -1   -1.20    5.20
   4   8   1    0.40    5.30
   4  -9   1    3.60    5.30
   4   9  -1   -2.00    5.50
  -4  -9  -1    8.80    6.30
  -4   9   1   -3.10    4.40
  -4  -9   1   10.00   12.00
  -4   9  -1    8.80    6.20
   4   9   1    5.40    6.90
   4 -10   1    0.20    5.40
  -4  10   1    2.70    5.50
  -4 -10  -1   -0.30    5.90
   4  10  -1    0.10    6.70
  -4 -10   1    0.30    5.90
  -4  10  -1    0.20    6.30
   4  10   1    1.80    7.00
   4 -10  -1    6.30    6.70
  -4  11   1   60.89   12.50
   4  11  -1   47.20   12.10
   4  11   1   49.40   12.00
  -4  11  -1   35.40   11.10
  -4  12   1   43.70   12.40
   4  12  -1   48.80   13.80
  -4  12  -1   92.09   16.80
   4  12   1   90.19   19.80
   4  13  -1    6.80    8.40
  -4  13   1   -4.80    7.20
  -4  13  -1    3.40    8.30
   4  13   1    4.50    9.60
  -4  14   1   -1.20    9.20
   4  14  -1   -0.40    9.80
  -4  14  -1   -0.60    8.10
   4  14   1   -2.60    9.80
  -4  15   1   26.20   11.90
   4  15  -1   26.40   12.00
   4  15   1   32.30   13.80
  -4  15  -1   11.60   10.60
  -4   0  -2   63.99    9.60
   4   0   2   66.19    9.90
  -4   1   2  150.48    7.30
  -4  -1  -2  162.88   11.70
   4   1  -2  157.68    8.10
  -4  -1   2  164.38    7.70
  -4   1  -2  191.78   13.10
   4   1   2  182.38   12.90
  -4   1  -2  177.38   10.80
   4   2  -2  402.06   15.10
  -4   2   2  397.86   14.30
  -4  -2  -2  398.36   18.90
   4  -2   2  404.76   17.60
  -4   2  -2  376.86   17.10
   4  -2  -2  400.16   14.40
   4   2   2  374.26   19.00
  -4  -2   2  402.46   14.60
  -4   2  -2  411.46   20.30
   4   3  -2  119.59    8.80
   4  -3   2  125.99   10.10
  -4  -3  -2  132.09   11.20
  -4   3   2  125.79    8.60
  -4  -3   2  119.99    8.40
   4  -3  -2  121.49    8.30
   4   3   2  118.19   12.30
  -4   3  -2  131.39   10.30
  -4   4   2  373.06   17.20
  -4  -4  -2  405.26   20.00
   4  -4   2  365.96   18.50
   4   4  -2  403.46   18.00
   4   4   2  374.66   20.00
   4  -4  -2  421.16   17.60
  -4  -4   2  382.06   17.30
  -4   4  -2  385.56   19.10
  -4   5   2  374.86   18.30
  -4  -5  -2  403.96   20.80
   4  -5   2  389.56   19.70
   4   5  -2  354.36   18.40
  -4  -5   2  362.96   18.20
   4  -5  -2  383.96   18.30
  -4   5  -2  385.16   20.00
   4   5   2  351.36   20.40
   4  -6   2  389.96   21.00
  -4  -6  -2  406.76   22.30
  -4   6   2  431.96   21.00
   4   6  -2  417.26   21.00
   4  -6  -2  426.16   20.60
  -4  -6   2  398.86   20.50
   4   6   2  448.16   23.80
   4   7  -2  333.57   20.70
  -4  -7  -2  334.87   21.10
   4  -7   2  363.66   20.80
  -4   7   2  381.56   20.80
  -4   7  -2  380.56   21.80
  -4  -7   2  352.96   20.70
   4   7   2  320.17   21.50
   4  -7  -2  358.96   20.20
  -4   8   2  198.58   16.20
   4   8  -2  206.98   17.30
  -4  -8  -2  159.18   18.30
   4  -8   2  178.58   15.70
  -4  -8   2  165.68   16.70
   4  -8  -2  210.88   16.30
  -4   8  -2  187.88   16.50
   4   8   2  166.38   17.20
   4  -9   2  140.29   18.00
  -4  -9  -2  140.59   18.00
  -4   9   2  134.89   17.40
   4   9  -2  124.59   15.30
   4  -9  -2  133.49   24.20
   4   9   2  175.68   21.90
  -4   9  -2  137.99   17.10
   4  10  -2  382.06   25.80
  -4  10   2  353.06   24.20
  -4 -10   2  357.16   24.30
   4  10   2  376.66   26.40
   4 -10  -2  360.36   24.20
  -4  10  -2  396.66   26.20
  -4  11   2  121.09   17.40
   4  11  -2   96.49   18.40
  -4  11  -2  112.99   18.40
   4  11   2  136.09   21.60
  -4  12   2   18.30   10.10
   4  12  -2    1.90    7.20
   4  12   2   21.30   10.50
  -4  12  -2   10.30    8.40
   4  13  -2  163.58   22.00
  -4  13   2  124.29   19.70
   4  13   2  162.98   22.70
  -4  13  -2  184.68   25.00
  -4  14   2   65.99   15.30
   4  14  -2   85.19   19.10
  -4  14  -2   86.79   18.70
   4  14   2   79.79   19.60
   4  15  -2   46.50   16.40
  -4  15   2   24.50   12.10
   4  15   2   28.00   14.60
  -4  15  -2   32.90   15.80
   4   0   3    2.20    5.10
  -4   0  -3    1.80    4.70
   4   1  -3 1695.53   43.20
  -4  -1  -3 1875.61   68.39
  -4   1   3 1713.63   44.30
  -4   1  -3 1687.13   66.69
  -4   1  -3 1615.14   49.90
   4   1   3 1618.34   52.79
  -4  -1   3 1659.93   42.60
   4  -1  -3 1605.34   42.40
   4   2  -3  151.98    8.30
  -4  -2  -3  150.38   12.30
  -4   2   3  165.38    8.00
   4  -2  -3  163.08    8.00
   4   2   3  160.08   13.20
  -4   2  -3  172.58   13.70
  -4   2  -3  157.78   11.20
  -4  -2   3  162.08    8.00
   4  -3   3  161.78   11.50
  -4  -3  -3  142.39   14.60
   4   3  -3  126.29    8.80
  -4   3   3  118.29    8.40
   4  -3  -3  140.99    8.70
  -4   3  -3  148.49   11.60
  -4  -3   3  148.79    9.00
   4   3   3  168.68   17.30
   4  -4   3   24.60    6.70
  -4   4   3   22.60    5.40
  -4  -4  -3   19.40    6.00
   4   4  -3   20.00    5.20
  -4   4  -3   24.80    6.40
  -4  -4   3   32.90    6.10
   4   4   3   26.10    8.00
   4  -4  -3   28.50    5.60
  -4  -5  -3  593.04   27.30
   4  -5   3  626.44   26.50
   4   5  -3  570.34   24.30
  -4   5   3  584.44   24.00
  -4  -5   3  563.64   23.80
   4  -5  -3  628.34   24.20
  -4   5  -3  595.64   26.60
   4   5   3  583.14   27.70
  -4  -6  -3   54.59   11.00
  -4   6   3   40.10    7.60
   4   6  -3   42.40    8.30
   4  -6   3   37.10    8.00
  -4   6  -3   35.40    9.40
  -4  -6   3   38.80    7.40
   4  -6  -3   38.90    8.00
   4   6   3   26.50    8.10
  -4   7   3   45.80    9.40
   4  -7   3   37.10    8.60
  -4  -7  -3   50.99   11.10
   4   7  -3   45.20    9.10
   4   7   3   52.39   11.30
  -4   7  -3   59.09   11.30
  -4  -7   3   47.00    9.20
   4  -7  -3   37.60    7.80
   4   8  -3   67.19   12.80
  -4   8   3   40.90    9.20
  -4   8  -3   46.40    9.60
   4   8   3   27.40    8.30
  -4  -8   3   50.39   10.50
   4  -8  -3   41.30    9.60
  -4  -9  -3  218.18   19.00
   4  -9   3  178.98   18.90
   4   9  -3  222.78   19.00
  -4   9   3  247.28   19.30
   4   9   3  171.28   19.10
  -4   9  -3  222.08   19.10
   4  -9  -3  235.08   24.90
  -4  -9   3  224.78   24.00
  -4  10   3    6.30    7.00
   4  10  -3   19.60    8.80
  -4 -10   3   25.10   10.60
   4 -10  -3   21.80    8.30
   4  10   3    9.20    7.90
  -4  10  -3   21.00    8.30
  -4  11   3   60.19   13.40
   4  11  -3   79.49   14.90
  -4  11  -3   62.89   13.60
   4  11   3   71.79   14.60
  -4  12   3   94.69   15.80
   4  12  -3   95.09   18.20
  -4  12  -3  111.59   22.60
   4  12   3  103.19   24.30
   4  13  -3   67.39   16.70
  -4  13   3   67.89   16.50
   4  13   3   47.70   16.30
  -4  13  -3   62.59   15.30
  -4  14   3   -7.70    7.00
   4  14  -3   -4.10    8.10
   4  14   3   10.80   10.70
  -4  14  -3    2.70    9.50
  -4  15   3   49.40   15.90
   4  15  -3   43.50   14.70
  -4  15  -3   51.49   15.90
   4  15   3   44.60   14.70
  -4   0  -4  111.29   13.30
   4   0   4   94.09   12.80
  -4  -1  -4 4474.85  121.59
  -4   1   4 4606.04  108.19
   4   1  -4 4554.34  108.39
  -4  -1   4 4085.69  107.89
   4   1   4 4420.36  122.59
   4  -1  -4 4425.16  107.99
  -4   1  -4 4591.64  122.99
  -4   1  -4 4446.16  118.69
  -4   2   4  479.25   15.70
   4   2  -4  467.05   15.90
  -4  -2  -4  487.15   23.30
  -4   2  -4  512.85   25.10
  -4  -2   4  479.75   15.70
   4  -2  -4  487.35   15.70
   4   2   4  437.96   23.20
  -4   2  -4  503.05   21.80
  -4   3   4  885.41   27.90
   4   3  -4  933.41   28.30
  -4  -3  -4  913.81   35.00
   4  -3   4  918.81   33.50
  -4  -3   4  906.41   27.90
   4  -3  -4  894.51   27.80
  -4   3  -4  882.11   33.20
  -4   4   4  238.58   12.80
   4  -4   4  247.38   15.60
   4   4  -4  235.78   12.90
  -4  -4  -4  261.77   17.10
   4   4   4  201.48   16.40
  -4  -4   4  258.57   12.90
   4  -4  -4  240.38   12.70
  -4   4  -4  224.28   15.40
   4  -5   4  722.43   31.00
  -4  -5  -4  742.63   32.40
  -4   5   4  751.42   28.40
   4   5  -4  806.12   29.00
  -4   5  -4  759.12   35.80
   4   5   4  804.92   38.90
  -4  -5   4  788.82   28.30
   4  -5  -4  777.62   28.80
   4  -6   4   46.80    9.20
  -4  -6  -4   36.40    9.10
  -4   6   4   56.49    9.50
   4   6  -4   23.90    7.50
   4  -6  -4   61.99    9.80
   4   6   4   37.40    9.20
  -4   6  -4   48.20    9.80
  -4  -6   4   64.69    9.60
   4  -7   4 1420.86   50.89
  -4  -7  -4 1424.56   52.49
  -4   7   4 1405.96   48.50
   4   7  -4 1395.86   48.60
  -4   7  -4 1431.26   51.99
   4   7   4 1452.25   53.79
  -4  -7   4 1391.76   48.20
   4  -7  -4 1397.36   48.20
   4  -8   4  204.18   17.30
  -4   8   4  177.08   15.70
  -4  -8  -4  178.38   19.20
   4   8  -4  214.18   16.80
   4  -8  -4  222.78   16.60
   4   8   4  187.78   19.90
  -4  -8   4  204.18   16.30
  -4   8  -4  231.18   18.60
   4   9  -4  233.78   18.80
   4  -9   4  215.78   22.60
  -4  -9  -4  171.38   18.90
  -4   9   4  247.98   18.90
  -4  -9   4  212.38   23.10
   4   9   4  261.77   21.80
   4  -9  -4  227.08   24.70
  -4   9  -4  187.28   19.30
  -4  10   4   11.70    8.20
   4  10  -4   -5.10    5.70
  -4 -10   4   -1.50    6.10
  -4  10  -4    5.60    6.60
   4 -10  -4    4.10    6.60
   4  10   4    6.00    8.90
   4  11  -4  243.18   25.50
  -4  11   4  224.78   23.10
  -4  11  -4  264.57   23.30
   4  11   4  255.37   28.70
  -4  12   4  111.59   20.00
   4  12  -4  117.49   18.90
   4  12   4  114.69   19.50
  -4  12  -4   79.79   15.80
   4  13  -4  143.19   23.50
  -4  13   4  147.79   21.10
  -4  13  -4  139.09   23.40
   4  13   4  142.99   25.20
   4  14  -4   -2.90    9.70
  -4  14   4    6.20   10.40
  -4  14  -4    9.70   11.70
   4  14   4   -8.90    9.50
  -4  15   4   82.09   18.30
   4  15  -4   88.39   20.30
  -4  15  -4   79.59   18.90
   4  15   4   80.79   19.40
  -4   0  -5   -3.50    3.90
   4   0   5   -2.10    5.00
  -4  -1  -5  460.85   23.40
   4   1  -5  455.95   12.70
   4   1  -5  453.85   12.30
   4  -1  -5  438.86   12.10
   4   1   5  435.86   24.00
  -4   1  -5  429.66   23.50
  -4   1  -5  447.06   21.20
  -4  -2  -5  108.79   13.30
   4   2  -5   97.59    6.20
  -4   2   5  106.19    6.40
   4   2   5   79.79   12.30
  -4  -2   5  105.79    5.90
   4  -2  -5   90.29    5.90
  -4   2  -5  110.99   12.00
  -4   2  -5  123.89   16.10
  -4  -3  -5  711.53   31.10
  -4   3   5  731.13   23.90
   4   3  -5  734.43   23.70
  -4   3  -5  710.53   29.60
   4   3   5  673.73   31.60
  -4   3  -5  739.73   33.50
  -4  -3   5  751.82   23.60
   4  -3  -5  722.63   23.50
  -4   4   5   17.50    4.80
   4   4  -5   11.90    4.30
   4  -4   5   17.00    6.00
  -4  -4  -5   12.30    6.40
  -4  -4   5    9.20    4.10
  -4   4  -5   10.00    5.20
   4   4   5   10.90    6.80
   4  -4  -5   13.10    4.60
   4   5  -5   14.70    5.30
  -4   5   5   11.70    4.80
  -4  -5  -5   10.40    5.50
   4  -5   5    7.80    5.60
  -4  -5   5    9.80    4.50
   4  -5  -5   12.40    4.70
  -4   5  -5    5.60    4.80
   4   5   5   21.80    8.00
   4   6  -5   13.80    5.70
  -4   6   5    6.00    4.80
  -4  -6  -5   19.50    8.50
   4  -6   5    9.80    6.00
   4   6   5   21.70    9.50
   4  -6  -5    9.80    5.20
  -4   6  -5   21.10    8.10
  -4  -6   5   10.50    5.70
  -4   7   5  385.86   21.30
   4   7  -5  348.77   20.60
  -4  -7   5  396.46   21.10
   4   7   5  418.06   26.10
  -4   7  -5  386.96   23.90
   4  -7  -5  388.16   21.10
   4   8  -5   13.00    6.70
   4  -8   5    4.20    6.10
  -4   8   5    9.60    6.00
  -4  -8  -5   12.60    7.60
  -4  -8   5    4.50    5.40
   4   8   5   15.30    8.10
   4  -8  -5   14.80    6.30
  -4   8  -5    8.70    7.60
  -4   9   5  164.98   18.40
   4   9  -5  158.98   18.10
  -4   9  -5  164.28   21.00
   4   9   5  181.78   21.10
   4  10  -5   -1.80    5.80
  -4  10   5   -2.20    5.50
   4  10   5    6.10    9.20
  -4  10  -5    7.40    8.60
   4 -10  -5   -1.30    5.50
  -4 -10   5    5.20    7.20
  -4  11   5  168.48   20.40
   4  11  -5  138.09   18.90
  -4  11  -5  130.39   18.10
   4  11   5  218.18   28.70
   4  12  -5   18.00    9.70
  -4  12   5    9.60    8.80
   4  12   5    9.50   10.00
  -4  12  -5   18.30    9.20
  -4  13   5  134.49   21.10
   4  13  -5   74.09   15.70
  -4  13  -5  102.99   20.20
   4  13   5   76.29   19.00
  -4  14   5   24.70   12.70
   4  14  -5   13.80   11.50
   4  14   5   16.80   13.30
  -4  14  -5   12.10   10.50
  -4   0  -6   48.90    9.50
   4   0   6   50.99   11.40
  -4  -1  -6  696.53   31.70
   4   1  -6  734.13   20.20
   4   1  -6  735.43   20.90
  -4   1  -6  705.23   29.60
  -4   1  -6  722.83   32.70
   4   1   6  737.03   33.70
   4  -1  -6  694.73   19.50
  -4   2   6    9.70    3.40
  -4  -2  -6   10.20    6.10
  -4   2  -6    9.80    5.10
  -4   2  -6   12.00    6.30
   4   2   6   12.00    6.80
  -4  -3  -6  242.28   17.90
  -4   3   6  262.87   12.50
  -4   3  -6  255.27   19.60
  -4   3  -6  244.58   19.40
  -4  -3   6  254.27   11.50
   4  -3  -6  270.57   12.10
   4   3   6  287.37   22.90
  -4  -4  -6   14.50    6.10
   4   4  -6   23.80    5.20
  -4   4   6   16.50    5.00
  -4  -4   6   15.80    4.40
  -4   4  -6   17.00    7.50
   4  -4  -6   17.50    4.80
  -4   4  -6   17.90    6.50
   4   4   6   25.20    8.50
  -4  -5  -6  354.46   22.30
   4   5  -6  371.76   17.90
  -4   5   6  383.46   18.50
   4  -5   6  389.26   21.80
   4  -5  -6  386.86   18.10
  -4  -5   6  362.96   17.60
   4   5   6  370.76   24.00
  -4   5  -6  377.46   22.10
  -4   6   6   27.00    7.30
  -4  -6  -6   20.70    8.20
   4  -6   6   11.90    6.60
  -4   6  -6   21.10    8.00
   4   6   6    9.60    7.40
   4  -6  -6   18.40    6.20
   4  -7   6  471.55   26.40
  -4   7   6  432.16   23.50
   4   7  -6  462.55   24.20
  -4  -7  -6  491.75   28.30
  -4  -7   6  503.35   23.80
   4   7   6  485.15   29.40
   4  -7  -6  450.55   23.30
  -4   7  -6  510.25   28.10
   4   8  -6  117.79   14.60
   4  -8   6  124.19   16.90
  -4  -8  -6  143.79   20.30
  -4   8   6  150.28   17.90
  -4   8  -6  119.89   18.30
   4  -8  -6  119.19   14.50
   4   8   6  129.39   19.70
  -4  -8   6  121.49   14.70
  -4   9   6   46.90   11.40
   4   9  -6   93.29   14.70
  -4   9  -6  102.79   18.50
   4   9   6   69.09   14.90
   4  -9  -6   58.39   15.30
  -4  -9   6   55.39   13.60
  -4  10   6   29.60   11.20
   4  10  -6   32.70   11.00
   4  10   6   15.90   10.90
  -4  10  -6    5.40    7.30
  -4 -10   6   21.60    8.60
   4 -10  -6    6.70    7.60
   4  11  -6  153.38   20.00
  -4  11   6  133.69   18.20
  -4  11  -6  219.88   35.20
   4  11   6  129.49   25.30
  -4  12   6    9.70    8.80
   4  12  -6   17.50    9.80
  -4  12  -6    4.30    8.80
   4  12   6    8.50    9.90
   4  13  -6   48.80   14.70
  -4  13   6   70.09   17.50
   4  13   6   40.10   15.30
  -4  13  -6   55.99   16.50
   4  14  -6    2.20    9.50
  -4  14   6    9.80   11.40
  -4  14  -6   -0.90    9.20
   4  14   6   -8.80    9.70
  -4   0  -7   -6.20    3.80
   4   0  -7    1.10    1.80
   4   0  -7    1.70    1.70
   4   1  -7  242.18    9.50
  -4  -1  -7  215.18   17.50
   4   1  -7  241.48    8.80
  -4   1  -7  239.48   18.70
   4  -1  -7  204.48    8.50
  -4   2   7    0.40    3.10
   4   2  -7   -1.40    2.60
   4   2  -7   -1.60    2.20
  -4  -2  -7   -0.20    5.50
  -4   2  -7    3.20    5.70
   4  -2  -7    4.70    2.70
   4   2   7    1.60    5.70
  -4   2  -7    6.40    5.20
  -4  -3  -7  246.88   18.50
  -4   3   7  235.28   12.40
   4   3  -7  242.18   11.80
  -4  -3   7  255.57   11.50
   4   3   7  249.78   20.00
  -4   3  -7  251.27   20.20
  -4   3  -7  244.88   17.10
   4  -3  -7  229.88   11.60
   4   4  -7    9.70    4.30
  -4   4   7   17.70    4.80
  -4  -4  -7    5.10    5.60
  -4   4  -7   12.30    6.20
  -4   4  -7    4.30    6.50
  -4  -4   7    2.60    3.50
   4  -4  -7   13.50    4.60
   4   4   7   11.70    7.80
  -4   5   7  281.47   15.90
   4   5  -7  283.17   15.60
   4  -5   7  267.67   19.00
  -4  -5  -7  278.47   20.60
   4   5   7  253.67   21.30
  -4  -5   7  281.97   15.00
   4  -5  -7  265.87   15.20
  -4   5  -7  240.18   18.40
  -4  -6  -7   20.10    8.70
   4  -6   7   23.30    8.50
   4   6  -7    6.20    5.00
  -4   6   7   27.40    7.30
  -4  -6   7   15.10    5.90
   4   6   7   15.50    8.60
   4  -6  -7   12.60    6.30
  -4   6  -7    2.10    6.10
   4  -7   7  201.98   20.50
  -4   7   7  203.48   21.10
  -4  -7  -7  273.07   28.30
  -4  -7   7  246.38   16.50
  -4   7  -7  225.38   19.50
   4  -7  -7  207.98   15.90
   4   7   7  225.38   23.60
   4   8  -7    4.30    6.10
  -4   8   7    0.20    5.40
  -4   8  -7    0.30    6.70
   4   8   7    3.40    8.30
  -4  -8   7    7.80    5.80
   4  -8  -7    1.40    4.90
  -4   9   7  125.29   17.00
   4   9  -7  130.09   16.20
   4  -9  -7   94.19   13.90
   4   9   7   91.79   16.60
  -4  -9   7  123.09   16.10
  -4   9  -7  143.39   20.50
  -4  10   7   34.90   10.80
   4  10  -7   52.19   12.80
   4 -10  -7   24.90   10.20
  -4  10  -7   28.30   10.50
   4  10   7   41.40   14.40
  -4 -10   7   46.90   12.30
   4  11  -7  174.68   22.20
  -4  11   7  158.58   21.30
   4  11   7  133.59   21.90
  -4  11  -7  191.78   26.10
  -4  12   7   11.50   10.10
   4  12  -7   16.20    8.80
  -4  12  -7   19.80   11.20
   4  12   7   -2.10    9.00
  -4  13   7  117.49   21.40
   4  13  -7   60.79   16.30
  -4  13  -7   92.49   22.00
   4  13   7   67.79   18.20
   4  14  -7   20.30   11.80
  -4  14   7    1.50    9.80
  -4  14  -7   -7.90    7.80
   4  14   7   -1.30   11.40
   4   0  -8   84.19    5.40
   4   0   8  118.69   17.20
   4   0  -8   80.79    5.60
  -4   0  -8   88.89   14.10
  -4  -1  -8  106.29   15.30
   4   1  -8  101.09    6.80
   4   1  -8   92.09    6.10
   4  -1  -8   97.99    6.40
  -4   1  -8   84.69   14.10
   4   1   8  134.29   18.30
   4  -1  -8  100.09    6.00
  -4   1  -8   88.99   12.40
   4   2  -8  158.28    8.80
  -4   2   8  152.58    9.90
  -4  -2  -8  143.59   18.40
   4   2  -8  152.28    9.90
  -4   2  -8  208.68   15.90
  -4   2  -8  180.38   21.90
   4  -2  -8  166.58    9.00
   4   2   8  164.98   19.20
   4   3  -8  407.06   16.60
   4   3  -8  405.16   18.60
  -4   3   8  404.26   17.80
  -4  -3  -8  403.56   24.80
  -4   3  -8  427.16   23.60
   4  -3  -8  405.96   16.70
   4   3   8  422.06   27.10
  -4   3  -8  406.26   26.40
  -4  -4  -8  212.88   18.50
  -4   4   8  256.37   14.60
   4   4  -8  255.57   13.80
  -4  -4   8  238.88   12.80
   4  -4  -8  236.38   13.40
  -4   4  -8  261.27   27.20
   4   4   8  205.58   21.20
  -4   4  -8  244.88   18.50
  -4  -5  -8  394.26   25.70
   4   5  -8  430.56   20.20
  -4   5   8  458.25   21.50
   4  -5  -8  422.76   20.00
  -4   5  -8  430.06   28.90
  -4   5  -8  434.56   25.40
  -4  -5   8  444.16   19.70
   4   5   8  420.06   27.80
  -4  -6  -8  102.29   15.90
   4   6  -8  127.19   13.70
  -4   6   8  103.99   13.00
   4  -6   8   89.19   14.60
   4   6   8  133.09   21.70
  -4  -6   8   99.49   11.70
  -4   6  -8  129.59   17.00
   4  -6  -8  133.19   14.70
  -4   7   8   71.89   14.00
   4   7  -8   69.79   11.50
   4   7   8   78.59   16.30
  -4   7  -8   42.00   11.20
  -4  -7   8   69.49   11.50
   4  -7  -8   67.19   11.60
   4   8  -8   81.79   12.60
  -4   8   8   86.99   14.10
  -4   8  -8   94.99   15.10
   4  -8  -8   94.29   13.70
  -4  -8   8   67.99   11.70
   4   8   8   88.09   15.70
   4   9  -8   84.59   13.70
  -4   9   8   98.09   15.10
  -4  -9   8   97.39   14.00
  -4   9  -8   80.09   14.20
   4   9   8  103.69   20.30
   4  -9  -8   73.09   12.90
   4  10  -8    6.40    8.00
  -4  10   8    5.60    8.40
   4  10   8   23.10   15.30
  -4  10  -8   23.50   17.30
  -4  11   8   98.59   16.70
   4  11  -8   95.99   16.10
   4  11   8   75.59   17.60
  -4  11  -8   98.79   17.90
   4  12  -8   59.19   17.00
  -4  12   8   71.89   15.60
  -4  12  -8   45.70   14.30
   4  12   8   59.19   15.70
  -4  13   8   54.99   16.60
   4  13  -8   29.90   12.30
   4  13   8   88.19   22.80
  -4  13  -8   18.90   10.70
   4   0   9    7.30    7.20
  -4   0  -9   -5.60    6.00
   4   0  -9   -0.80    2.40
   4   0  -9    1.80    2.40
   4   1  -9  204.58    9.70
   4   1  -9  193.88   10.30
  -4  -1  -9  195.78   22.00
   4  -1  -9  188.98    9.80
  -4   1  -9  211.08   23.30
   4  -1  -9  178.38    9.20
  -4   1  -9  188.18   15.90
   4   1   9  184.48   21.20
   4   2  -9    6.80    3.30
   4   2  -9    9.60    4.80
  -4   2   9   -2.10    3.80
  -4  -2  -9    7.40    6.90
  -4   2  -9   -0.50    6.40
  -4   2  -9   14.80    6.70
   4  -2  -9    5.10    3.60
   4   2   9    7.00    8.60
   4   3  -9   15.30    4.80
  -4  -3  -9   16.90    9.50
  -4   3   9   20.40    5.90
   4   3  -9    7.90    5.00
  -4   3  -9   17.70    7.30
   4   3   9   30.90   11.50
  -4   3  -9   12.90   10.20
   4  -3  -9   30.60    6.00
  -4  -4  -9   55.59   11.80
   4   4  -9   78.29    9.20
   4   4  -9   35.90   10.70
  -4   4   9   54.69    9.40
  -4   4  -9   84.19   17.40
  -4   4  -9   51.19   10.80
   4   4   9   30.30   10.60
  -4  -5  -9   52.59   13.20
  -4   5   9   45.80    9.20
   4   5  -9   39.00    7.60
  -4   5  -9   38.80    9.90
  -4   5  -9   35.40   11.60
   4   5   9   65.89   14.10
  -4  -5   9   39.80    7.40
   4  -5  -9   35.60    7.60
  -4  -6  -9   10.60   14.30
   4   6  -9   13.30    5.80
  -4   6   9   -3.80    5.10
  -4   6  -9  -13.00    9.50
   4  -6  -9    5.00    5.60
  -4   6  -9    0.00    6.00
  -4  -6   9   -1.60    3.90
   4   6   9    4.60    7.70
   4   7  -9   84.09   12.70
  -4   7   9   65.49   12.10
  -4  -7   9   74.69   11.40
   4   7   9   49.80   13.00
  -4   7  -9   61.79   12.90
   4  -7  -9   67.79   12.20
  -4   8   9   26.90    9.40
   4   8  -9   83.59   13.50
   4  -8  -9   68.29   13.10
  -4   8  -9   49.60   12.30
   4   8   9   57.39   16.00
  -4  -8   9   52.89   10.90
  -4   9   9  149.09   19.30
   4   9  -9  125.39   16.30
  -4   9  -9  112.39   17.20
   4  -9  -9  154.78   18.40
  -4  -9   9  127.89   17.10
   4   9   9  123.39   20.30
   4  10  -9    2.90    7.60
  -4  10   9   13.80    9.50
   4  10   9    9.70   10.50
  -4  10  -9   -7.60    6.20
  -4  11   9   46.80   13.50
   4  11  -9   21.20    9.80
  -4  11  -9   30.50   11.50
   4  11   9   63.09   17.20
   4  12  -9    3.20   10.00
  -4  12  -9   14.50   10.90
   4  12   9   14.10   13.80
  -4   0 -10  374.96   25.70
   4   0 -10  344.97   14.40
   4   0  10  369.16   27.60
   4   0 -10  372.16   15.40
  -4  -1 -10  264.17   21.50
   4   1 -10  253.57   12.30
   4   1 -10  280.47   13.60
   4  -1 -10  245.38   11.80
  -4   1 -10  279.17   22.60
   4  -1 -10  248.58   12.60
   4   1  10  340.77   26.00
  -4   1 -10  298.57   20.50
   4   2 -10  227.98   13.40
  -4  -2 -10  251.47   24.60
   4   2 -10  229.38   12.00
  -4   2 -10  238.08   18.80
   4  -2 -10  230.58   12.30
   4   2  10  230.88   26.20
  -4   2 -10  266.67   23.00
  -4  -3 -10  334.47   24.20
   4   3 -10  297.27   15.10
   4   3 -10  293.97   17.00
  -4   3  10  350.46   18.00
   4  -3 -10  279.67   15.00
  -4   3 -10  311.07   25.30
  -4   3 -10  332.27   22.40
   4   3  10  340.17   26.20
   4   4 -10  219.68   13.60
   4   4 -10  220.88   16.20
  -4   4  10  204.38   15.10
  -4  -4 -10  252.47   26.90
   4   4  10  194.08   24.90
   4  -4 -10  222.48   14.00
  -4   4 -10  219.08   25.50
  -4   4 -10  212.68   18.70
  -4   5  10  211.28   15.80
   4   5 -10  171.08   13.40
   4  -5 -10  154.88   13.00
  -4   5 -10  170.48   20.60
   4   5  10  166.78   21.50
   4   6 -10  115.09   14.20
  -4   6  10   94.89   13.90
  -4   6 -10   84.09   14.50
  -4  -6  10   99.09   11.90
   4   6  10   66.79   15.20
   4  -6 -10  132.99   15.20
   4   7 -10   69.69   12.30
  -4   7  10   51.29   11.30
  -4   7 -10   68.89   13.70
   4  -7 -10   43.50   10.50
  -4  -7  10   35.50    9.10
   4   7  10   69.89   16.90
  -4   8  10  101.99   15.90
   4   8 -10  101.69   15.00
  -4   8 -10   78.29   14.50
   4   8  10  107.29   19.10
   4   9 -10  241.18   20.10
  -4   9  10  202.88   21.70
   4   9  10  199.58   25.40
   4  -9 -10  240.88   23.70
  -4   9 -10  219.88   25.40
  -4  -9  10  218.58   19.10
   4  10 -10   93.29   16.70
  -4  10  10   61.19   13.90
   4  10  10   70.69   17.50
  -4  10 -10   86.99   16.70
  -4  11  10   77.19   16.60
   4  11 -10   67.39   14.10
   4  11  10   61.19   16.60
  -4  11 -10  107.09   21.20
  -4  12  10   28.70   12.30
   4  12 -10   45.00   14.10
   4  12  10   30.70   14.20
  -4  12 -10   36.10   13.10
  -4   0 -11    7.10    8.30
   4   0 -11   -0.50    3.20
   4   0 -11    1.70    3.80
  -4   0 -11    4.30    6.00
   4   1 -11    4.00    3.90
  -4  -1 -11    9.20    8.10
   4   1 -11    0.70    3.80
   4  -1 -11    1.30    3.50
   4   1  11    8.80    8.20
  -4   1 -11    5.30    7.70
   4  -1 -11    9.60    4.10
  -4   1 -11   -0.50    4.90
  -4  -2 -11   56.29   13.00
   4   2 -11   77.09    9.00
   4   2 -11   61.39    9.10
  -4   2 -11   82.59   14.70
   4   2  11   58.79   14.60
   4  -2 -11   84.49    8.80
  -4   2 -11   53.89   13.60
   4  -2 -11   68.89    8.70
  -4   3  11   33.40    8.00
  -4  -3 -11   30.60   14.30
   4   3 -11   39.00   13.70
   4   3 -11   31.40    6.70
  -4   3 -11   47.40   21.10
  -4   3 -11   16.10    7.50
   4   3  11   23.10   11.50
  -4   4  11   17.70    7.20
   4   4 -11   13.60    5.60
   4   4 -11   11.50    6.70
   4   4  11   15.90   10.80
   4  -4 -11   28.00    7.30
  -4   4 -11   14.10    8.30
   4   5 -11    1.10    6.50
  -4   5  11    3.40    6.10
   4   5 -11   15.50    5.80
  -4   5 -11    5.70    7.70
   4   5  11    7.50    8.90
   4  -5 -11    8.60    5.60
   4   6 -11   13.20    8.40
   4   6 -11    4.80    5.80
   4   6  11   11.20   10.20
  -4   6 -11   -0.80    6.40
   4  -6 -11    9.90    6.70
  -4   7  11   -2.80    6.50
   4   7 -11   -0.60    5.70
   4  -7 -11    6.70    7.30
  -4  -7  11    1.30    6.10
   4   7  11   -3.70    8.20
  -4   7 -11   19.90    9.40
  -4   8  11    2.50    7.90
   4   8 -11    6.40    6.90
   4   8  11   -2.00    9.50
   4  -8 -11    3.30    7.50
  -4  -8  11    6.80    7.10
  -4   8 -11    9.30    9.90
   4   9 -11    5.60    7.60
  -4   9  11    4.70    8.50
  -4   9 -11  -10.30    6.40
   4   9  11    4.90    9.60
  -4  -9  11   -9.30    6.10
   4  -9 -11    0.50    7.80
   4  10 -11   -2.60    7.10
  -4  10  11   10.00    9.40
   4  10  11   14.80   12.00
  -4  10 -11    9.60    8.80
  -4  11  11   -2.30    9.10
   4  11 -11    3.90    8.10
  -4  11 -11    1.60    9.00
   4  11  11    5.00   11.20
  -4   0 -12  193.48   22.10
   4   0 -12  151.98   11.10
   4   0 -12  151.18   10.40
   4   1 -12   94.09   10.00
   4   1 -12   94.09   10.70
   4  -1 -12   97.29   10.50
   4  -1 -12   91.59    9.40
   4   1  12   78.99   17.90
  -4   1 -12   97.39   15.30
   4   2 -12  130.39   10.40
  -4   2 -12  107.89   15.90
   4  -2 -12  138.89   10.40
   4  -2 -12  148.69   21.30
   4   2  12  156.88   23.90
   4   3 -12  118.99   12.20
  -4   3  12   94.09   12.80
   4   3 -12  109.49   13.10
   4  -3 -12  114.59   12.40
   4   3  12   99.49   20.40
  -4   3 -12   98.29   15.90
  -4   4  12  127.29   15.60
   4   4 -12   86.79   13.60
   4   4 -12  129.09   13.70
  -4   4 -12  117.19   16.80
   4   4  12   88.19   18.90
   4  -4 -12  125.29   13.20
   4   5 -12   72.09   10.70
   4   5 -12   74.99   13.30
  -4   5  12   85.69   13.10
  -4   5 -12   95.69   15.50
   4   5  12   39.20   14.60
   4  -5 -12   53.69    9.80
  -4   6  12   56.69   12.00
   4   6 -12   59.69   13.70
   4   6 -12   63.29   11.10
  -4   6 -12   65.49   15.00
   4   6  12   48.70   15.90
   4  -6 -12   79.69   12.70
   4   7 -12  117.19   15.20
   4   7 -12  101.59   17.20
  -4   7  12  108.29   16.50
   4  -7 -12  152.28   17.80
  -4   7 -12  141.09   20.40
   4   7  12  102.39   27.10
   4   8 -12  195.78   20.60
  -4   8  12  152.18   20.30
   4   8  12  168.38   25.10
  -4   8 -12  153.78   24.20
   4  -8 -12  123.99   17.70
  -4  -8  12  130.19   17.10
  -4   9  12  155.78   20.10
   4   9 -12  133.69   18.30
   4   9  12  156.18   25.70
  -4   9 -12  129.09   20.20
   4  10 -12   15.00    9.50
  -4  10  12  -10.20    7.40
   4  10  12   -2.50   10.20
  -4  10 -12    6.80    8.80
   4   0 -13    6.20    4.50
  -4   0 -13    8.60    6.90
  -4  -1 -13   10.80    7.40
   4   1 -13    0.90    4.20
   4  -1 -13    0.40    4.10
  -4   1 -13   11.90    7.40
   4   2 -13    4.60    5.70
   4   2 -13    3.20    4.60
   4  -2 -13    4.90    4.90
  -4   2 -13   13.50    8.30
   4  -2 -13    8.50    5.60
   4   2  13   11.70   11.50
   4   3 -13   92.99   12.80
   4   3 -13  120.69   12.90
   4  -3 -13  121.59   13.30
   4  -3 -13   90.99   10.80
   4   3  13   99.39   20.90
  -4   3 -13  124.19   17.70
  -4   4  13    0.40    6.60
   4   4 -13   -4.40    6.70
   4   4 -13    2.20    5.00
   4  -4 -13    0.10    5.60
   4   4  13   16.50   12.30
  -4   4 -13    7.30    7.60
  -4   5  13    5.10    8.00
   4   5 -13    0.80    5.90
   4   5 -13   -1.60    7.00
   4   5  13   11.20   10.60
  -4   5 -13    1.30    7.50
   4  -5 -13   10.00    6.90
   4   6 -13   11.10    6.90
  -4   6  13   -4.00    7.40
   4   6 -13   -1.20    7.80
   4  -6 -13   -4.90    6.20
   4   6  13   10.20   12.00
  -4   6 -13   -2.80    6.60
   4   7 -13   74.59   13.40
  -4   7  13   40.90   12.30
  -4   7 -13   75.09   18.40
   4   7  13   63.99   17.60
   4   8 -13    8.90    7.60
  -4   8  13   12.10   10.30
   4   8 -13   -1.10   10.00
   4  -8 -13   14.00   10.50
  -4   8 -13    1.20    8.20
   4   8  13    7.20   11.90
  -4   9  13   20.30   11.40
   4   9 -13   34.50   11.00
   4   9  13    6.40   12.10
  -4   9 -13   11.30   10.40
   4   0 -14   39.00    8.40
  -4   0 -14   55.49   13.30
   4   0 -14   46.20    7.90
   4   1 -14  247.38   14.60
  -4  -1 -14  246.78   25.20
   4   1 -14  214.78   15.30
  -4   1 -14  224.78   24.60
   4  -1 -14  236.98   14.10
   4  -1 -14  205.98   14.70
   4   2 -14    7.00    6.30
   4   2 -14   -3.30    4.50
   4  -2 -14    4.60    5.70
  -4   2 -14    7.50    8.80
   4  -2 -14    6.70    5.20
   4   2  14   26.50   13.90
   4   3 -14  331.07   20.60
   4   3 -14  346.17   18.70
  -4   3 -14  353.36   46.00
   4   3  14  366.56   39.20
   4  -3 -14  367.46   20.00
   4  -3 -14  367.76   18.70
   4   4 -14  116.59   13.50
   4   4 -14  111.39   15.70
   4   4  14  101.29   23.30
   4  -4 -14  124.19   14.70
  -4   4 -14  113.49   17.80
   4   5 -14  170.98   15.00
   4   5 -14  152.18   18.40
  -4   5  14  180.88   21.20
   4   5  14  146.99   25.00
   4  -5 -14  178.98   18.30
  -4   5 -14  217.98   26.60
   4   6 -14   53.29   13.70
   4   6 -14   46.10   11.00
  -4   6  14   36.20   11.40
   4  -6 -14   43.50   11.90
  -4   6 -14   55.79   15.40
   4   6  14   40.80   15.70
   4   7 -14   63.99   15.90
  -4   7  14  110.79   18.70
   4   7 -14   84.29   14.20
   4  -7 -14   84.39   15.50
  -4   7 -14  112.69   20.10
   4   7  14   95.89   22.10
   4   0 -15    3.80    6.10
  -4   0 -15   -4.10    6.90
   4   0 -15    3.60    5.00
   4   1 -15   26.40    8.10
   4   1 -15   45.70    8.30
  -4  -1 -15   58.29   13.60
   4  -1 -15   47.40    8.50
   4  -1 -15   44.40    9.20
  -4   1 -15   50.39   13.80
   4   2 -15    3.70    6.50
  -4  -2 -15    7.70    8.50
   4   2 -15    4.90    5.40
   4  -2 -15    5.20    6.30
   4  -2 -15    7.80    5.50
  -4   2 -15    7.60    8.50
   4   3 -15   42.70   10.60
   4   3 -15   53.79    9.90
  -4   3 -15   38.30   12.20
   4  -3 -15   46.90    8.80
   4  -3 -15   44.70    9.70
   4   3  15   25.30   15.20
   4   4 -15   -2.20    7.10
   4   4 -15   -2.40    9.00
  -4   4 -15    5.30    8.50
   4   4  15   17.80   14.50
   4  -4 -15    3.60    6.90
   4   5 -15   90.99   13.30
   4   5 -15   67.09   14.60
  -4   5  15  103.79   17.10
  -4   5 -15  100.99   19.80
   4  -5 -15   71.79   13.20
   4   5  15  103.19   24.60
   4   0 -16    4.50    6.70
   4   0 -16   -0.90    5.20
  -4   0 -16    2.80    7.90
   4   1 -16   52.49    9.40
  -4  -1 -16   48.80   14.00
   4  -1 -16   39.40    9.60
  -4   1 -16   79.49   15.90
   4  -1 -16   48.90    9.00
  -5   0   0    4.60    3.90
   5   0   0    4.90    4.40
  -5   1   0    3.60    3.00
  -5   1   0    0.00    4.10
  -5  -1   0    1.30    3.30
   5   1   0    4.80    4.90
   5  -2   0    2.90    3.40
  -5   2   0    3.60    3.50
   5   2   0    0.00    3.80
  -5  -2   0   -0.30    4.00
  -5  -3   0    0.00    3.70
  -5   3   0    4.70    3.50
   5   3   0    1.30    4.30
   5  -3   0   -2.40    3.00
  -5   4   0    4.00    3.70
   5  -4   0    0.30    3.30
  -5  -4   0    4.20    4.20
   5   4   0    5.50    4.90
   5  -5   0    5.40    4.10
   5   5   0   -2.80    4.00
  -5   5   0    1.60    4.00
  -5  -5   0    2.50    4.30
  -5  -6   0   -0.40    4.50
   5  -6   0    0.30    3.90
  -5   6   0    4.20    5.20
   5   6   0    1.20    4.90
  -5   7   0   -4.70    4.00
   5  -7   0    2.00    4.40
   5   7   0   15.00    6.40
  -5  -7   0   -0.50    4.60
  -5   8   0    5.30    4.90
   5   8   0   -2.50    6.20
   5  -8   0   -1.70    4.70
  -5  -8   0    0.40    4.90
   5  -9   0   -0.20    5.80
  -5   9   0   -0.60    5.20
  -5  -9   0   -2.00    4.90
   5   9   0   -2.50    6.40
  -5  10   0    3.40    6.70
   5  10   0   -6.10    6.40
   5 -10   0    0.50    6.30
  -5 -10   0   -3.10    6.90
  -5  11   0  -10.50    5.10
   5  11   0   -0.80    6.70
   5  12   0   -1.40    7.60
  -5  12   0    3.30    8.00
  -5  13   0    8.50    9.80
   5  13   0   -7.90    7.60
  -5  14   0   -1.20    8.00
   5  14   0    8.30    9.70
  -5  15   0   -5.00    8.10
   5  15   0   19.20   14.00
   5   0   1  139.79   12.90
  -5   0  -1  134.19   10.90
  -5   0   1  133.59    8.90
   5   0  -1  120.29    9.30
  -5   1   1  531.45   18.10
  -5  -1  -1  489.15   21.40
   5   1  -1  522.55   19.90
  -5   1   1  519.95   20.00
  -5   1  -1  526.95   22.60
  -5   1  -1  506.85   20.10
   5   1   1  515.75   22.50
  -5  -1   1  545.25   19.40
  -5   2   1  991.30   30.40
  -5  -2  -1 1010.80   33.90
   5   2  -1  937.81   31.30
  -5   2  -1 1011.00   35.80
  -5  -2   1  957.10   30.80
  -5   2  -1  962.20   32.20
   5   2   1  931.61   34.10
   5  -2  -1  994.20   30.20
   5  -3   1  197.98   12.50
  -5   3   1  194.58   11.60
   5   3  -1  210.58   12.80
  -5  -3  -1  191.88   13.20
  -5  -3   1  205.58   12.10
  -5   3  -1  217.08   13.00
   5   3   1  225.68   14.70
   5  -3  -1  196.18   11.30
   5   4  -1  412.26   19.40
   5  -4   1  441.46   19.80
  -5   4   1  425.46   18.80
  -5  -4  -1  430.16   20.60
  -5   4  -1  401.26   19.70
   5   4   1  391.56   20.80
  -5   5   1  199.48   13.80
  -5  -5  -1  233.88   15.60
   5  -5   1  210.08   14.20
   5   5  -1  213.88   14.60
  -5  -5   1  217.38   14.20
  -5   5  -1  187.38   14.00
   5   5   1  223.78   16.00
   5  -5  -1  226.68   13.90
   5   6  -1 1783.22   57.49
   5  -6   1 1768.92   57.09
  -5  -6  -1 1775.02   58.09
  -5   6   1 1726.93   55.99
   5   6   1 1920.71   61.09
  -5   6  -1 1771.52   57.69
   5  -6  -1 1796.42   56.39
  -5  -6   1 1712.83   56.29
   5   7  -1  184.88   16.00
  -5   7   1  203.08   21.50
   5  -7   1  174.98   14.60
  -5  -7  -1  163.18   18.40
  -5  -7   1  172.48   14.60
  -5   7  -1  191.68   19.60
   5  -7  -1  146.59   15.00
   5   7   1  221.18   22.80
  -5  -8  -1   17.70    7.80
   5  -8   1   20.50    7.50
   5   8  -1   34.80    9.60
  -5   8   1   29.10    9.30
  -5   8  -1   18.00    7.70
   5  -8  -1   28.20    8.20
  -5  -8   1   47.80   11.10
   5   8   1   23.10    8.50
  -5  -9  -1  168.78   20.00
   5   9  -1  240.28   19.40
   5  -9   1  166.38   18.80
  -5   9   1  177.18   18.30
  -5   9  -1  166.78   19.60
  -5  -9   1  163.08   17.20
   5   9   1  158.28   19.00
   5  -9  -1  170.78   17.60
   5  10  -1  259.77   22.10
  -5  10   1  324.37   22.90
  -5  10  -1  341.07   24.10
   5 -10  -1  258.07   20.80
  -5 -10   1  251.47   21.30
   5  10   1  276.27   22.90
   5  11  -1   35.80   12.90
  -5  11   1   52.99   12.50
  -5  11  -1   49.99   12.10
   5  11   1   54.29   12.80
   5  12  -1   -0.40    7.40
  -5  12   1    7.10    8.50
   5  12   1    4.40    9.60
  -5  12  -1    3.10    7.10
   5  13  -1  114.99   19.10
  -5  13   1  151.78   21.10
  -5  13  -1  136.39   20.60
   5  13   1  145.49   21.70
   5  14  -1  178.78   27.10
  -5  14   1  192.08   26.00
  -5  14  -1  181.38   25.00
   5  14   1  171.38   25.00
  -5  15   1   11.20   11.30
   5  15  -1   13.20   12.90
  -5  15  -1    6.60   11.40
   5  15   1   13.20   11.70
  -5   0   2    2.70    2.70
   5   0   2    2.60    5.40
  -5   0  -2   11.80    5.30
  -5   1   2  212.28   10.40
  -5   1   2  194.18    8.90
   5   1  -2  209.48   10.30
   5   1   2  176.98   13.70
  -5   1  -2  182.88   12.00
  -5  -1   2  200.68    9.50
  -5   2   2    3.30    2.90
  -5  -2  -2    5.80    4.80
   5   2  -2    1.20    3.20
  -5  -2   2    0.20    2.60
   5   2   2    5.40    5.10
  -5   2  -2    3.40    4.80
  -5   2  -2   11.60    4.60
   5  -2  -2    8.90    3.30
  -5  -3  -2   86.89   10.40
   5  -3   2   66.79    8.80
  -5   3   2   77.19    8.10
   5   3  -2   83.29    9.10
  -5   3  -2   66.99    8.60
   5  -3  -2   88.39    8.40
  -5  -3   2   83.49    8.50
   5   3   2   78.59   10.90
  -5  -4  -2   36.80    8.60
  -5   4   2   41.30    7.00
   5   4  -2   34.60    6.90
   5  -4   2   33.60    7.40
   5   4   2   28.20    7.70
  -5   4  -2   37.10    7.70
   5  -4  -2   35.60    6.10
  -5  -4   2   44.50    7.10
   5   5  -2  365.06   19.20
  -5   5   2  381.36   18.70
   5  -5   2  408.86   20.60
  -5  -5   2  382.46   18.80
  -5   5  -2  396.96   20.80
   5   5   2  415.16   22.60
   5  -5  -2  367.66   18.30
   5   6  -2   66.29   10.40
   5  -6   2   62.79   10.50
  -5   6   2   48.00    9.10
  -5  -6  -2   50.89   10.60
   5   6   2   69.59   12.40
   5  -6  -2   61.89    9.30
  -5  -6   2   72.49   10.30
  -5   6  -2   60.99   11.40
   5  -7   2   -2.10    4.30
  -5  -7  -2    1.60    5.40
  -5   7   2    2.20    4.90
  -5   7  -2   -1.10    5.20
   5  -7  -2    1.40    4.70
  -5  -7   2   10.40    5.70
   5   7   2   -3.00    5.70
  -5  -8  -2    9.20    6.70
   5  -8   2    7.20    6.90
   5   8  -2    9.10    7.10
  -5   8   2   10.30    6.40
   5  -8  -2    5.40    6.10
   5   8   2   18.90    7.60
  -5   8  -2   17.00    7.20
  -5  -8   2   11.10    6.30
  -5  -9  -2   90.99   15.40
  -5   9   2   93.09   15.50
   5   9  -2   91.59   16.10
   5  -9   2   85.49   13.10
  -5   9  -2   96.09   15.90
   5   9   2   77.09   13.40
  -5  -9   2   98.19   15.80
   5  -9  -2   88.39   15.20
  -5  10   2   36.00   11.80
   5  10  -2   33.30   11.10
   5 -10  -2    5.70    6.20
  -5 -10   2   12.40    8.90
  -5  10  -2   15.40    7.90
   5  10   2   40.80   11.10
  -5  11   2   86.39   15.10
   5  11  -2   70.39   14.60
  -5  11  -2   86.29   15.30
   5  11   2   81.29   16.30
   5  12  -2   35.00   11.50
  -5  12   2   36.60   12.50
  -5  12  -2   20.80   13.50
   5  12   2   58.39   24.20
   5  13  -2   74.69   18.60
  -5  13   2   54.89   14.10
   5  13   2   41.20   14.80
  -5  13  -2   81.09   18.90
  -5  14   2   -8.70    7.60
   5  14  -2   -8.00    8.60
   5  14   2   -3.00    9.90
  -5  14  -2   -1.30    8.10
   5  15  -2   53.99   17.30
  -5  15   2   53.39   16.50
   5  15   2   46.10   16.60
  -5  15  -2   21.20   11.70
  -5   0   3   30.30    3.20
  -5   0  -3   20.40    7.30
  -5   0   3   35.00    3.60
   5   0   3   28.10    7.80
  -5   1   3  555.84   16.50
  -5   1   3  536.65   17.40
  -5  -1  -3  530.85   24.70
   5   1  -3  576.24   17.70
  -5  -1   3  551.34   16.60
  -5   1  -3  554.24   25.70
   5   1   3  503.75   25.20
  -5   1  -3  506.55   22.40
  -5   2   3  832.92   25.00
  -5  -2  -3  841.42   32.90
   5   2  -3  815.82   25.70
   5  -2  -3  854.01   25.00
  -5  -2   3  828.92   25.00
  -5   2  -3  832.72   34.20
  -5   2  -3  847.32   31.00
   5   2   3  854.11   33.80
  -5   3   3  373.46   14.90
  -5  -3  -3  359.56   19.80
   5  -3   3  352.16   18.30
   5   3  -3  328.17   15.10
  -5  -3   3  349.67   14.80
  -5   3  -3  358.96   18.50
   5   3   3  328.07   20.10
   5  -3  -3  366.66   14.70
  -5  -4  -3  115.69   15.10
   5   4  -3   89.49    9.80
  -5   4   3  104.39    9.00
   5  -4   3   95.89   11.30
   5  -4  -3   90.69    9.20
  -5   4  -3   98.79   12.40
   5   4   3   77.09   11.50
  -5  -4   3  109.39   10.60
   5   5  -3  582.84   24.40
   5  -5   3  588.54   26.50
  -5   5   3  560.74   23.70
  -5   5  -3  611.44   31.00
  -5  -5   3  572.14   23.80
   5   5   3  576.64   32.70
   5  -5  -3  591.04   23.60
  -5  -6  -3  418.66   23.40
  -5   6   3  371.36   19.30
   5  -6   3  388.46   21.60
   5   6  -3  338.97   19.40
  -5  -6   3  392.26   20.00
   5  -6  -3  359.46   19.00
  -5   6  -3  397.16   22.50
   5   6   3  408.26   24.00
   5   7  -3  731.53   32.30
   5  -7   3  759.72   33.00
  -5   7   3  643.34   29.70
  -5  -7  -3  698.13   33.20
   5   7   3  679.93   34.00
  -5  -7   3  776.22   31.60
   5  -7  -3  711.03   30.40
  -5   7  -3  735.63   33.40
  -5   8   3  128.79   14.90
   5  -8   3  122.19   16.30
   5   8  -3  103.79   14.20
  -5  -8  -3  146.59   20.00
   5  -8  -3  126.69   14.80
   5   8   3  109.59   17.60
  -5   8  -3  142.39   19.80
  -5  -8   3  117.89   14.40
  -5   9   3  162.98   17.70
   5  -9   3  164.38   17.70
   5   9  -3  190.28   21.10
  -5  -9  -3  223.38   23.70
   5   9   3  204.38   21.30
  -5   9  -3  177.28   20.70
   5  10  -3  156.48   18.90
  -5  10   3  172.68   18.60
   5 -10  -3  146.39   17.60
  -5  10  -3  178.58   21.00
  -5 -10   3  156.98   18.40
   5  10   3  179.38   23.80
  -5  11   3  182.08   21.20
   5  11  -3  225.98   24.20
  -5  11  -3  234.58   27.90
   5  11   3  199.58   22.40
   5  12  -3   -3.40    7.20
  -5  12   3    5.20    8.30
  -5  12  -3   -2.90    7.10
   5  12   3    8.00    9.20
   5  13  -3  129.49   22.90
  -5  13   3  150.38   23.10
  -5  13  -3  130.89   22.00
   5  13   3   83.99   19.40
  -5  14   3  102.59   18.30
   5  14  -3  103.59   22.60
  -5  14  -3  105.49   20.40
   5  14   3   47.00   15.00
   5  15  -3   47.60   15.80
  -5  15   3   39.50   15.00
   5  15   3   78.49   21.20
  -5  15  -3   37.00   15.20
   5   0   4   -3.70    3.90
  -5   0  -4   -1.40    4.50
  -5  -1  -4  404.26   21.70
  -5   1   4  385.96   11.30
   5   1  -4  370.86   11.80
  -5   1   4  390.46   10.90
   5   1   4  382.06   22.30
  -5   1  -4  423.96   20.10
  -5  -1   4  386.66   10.90
  -5   1  -4  373.36   21.80
   5   2  -4  206.08    9.50
  -5  -2  -4  206.68   15.40
  -5   2   4  227.98    9.00
  -5  -2   4  219.38    9.10
   5  -2  -4  215.58    8.90
  -5   2  -4  190.38   13.90
  -5   2  -4  197.58   16.30
   5   2   4  217.38   16.80
  -5   3   4  360.56   14.60
   5   3  -4  367.66   15.30
  -5  -3  -4  371.36   21.20
  -5  -3   4  370.16   14.80
   5   3   4  358.76   22.00
  -5   3  -4  359.26   19.60
   5  -3  -4  373.76   14.80
  -5   3  -4  369.36   22.60
   5   4  -4  101.49   10.30
  -5  -4  -4   81.39   13.00
   5  -4   4   87.89   12.20
  -5   4   4   87.19    9.00
  -5   4  -4   66.99   11.10
   5  -4  -4   85.39    8.80
   5   4   4   80.29   13.40
  -5  -4   4   80.69    8.50
  -5   5   4   64.59    8.90
  -5  -5  -4   59.59   11.30
   5  -5   4   72.19   12.00
   5   5  -4   55.89    9.10
  -5   5  -4   79.99   13.00
  -5  -5   4   69.59    9.40
   5   5   4   55.39   12.20
   5  -5  -4   53.59    8.10
   5   6  -4   34.70    7.80
   5  -6   4   31.10    8.20
  -5   6   4   39.00    7.90
  -5  -6  -4   40.70    8.70
   5  -6  -4   33.00    7.10
  -5   6  -4   30.90    7.90
  -5  -6   4   48.10    8.80
   5   6   4   25.50    8.70
  -5   7   4  222.48   16.20
   5   7  -4  242.58   17.30
   5   7   4  247.08   25.30
   5  -7  -4  237.58   16.30
  -5  -7   4  235.98   16.60
  -5  -8  -4   59.59   11.30
   5  -8   4   95.59   14.50
   5   8  -4  110.59   15.20
  -5   8   4  117.39   15.20
   5   8   4  104.29   16.70
  -5  -8   4  137.09   16.60
  -5   8  -4   81.39   12.80
   5  -8  -4  134.89   16.50
  -5   9   4  213.18   17.80
   5   9  -4  171.68   18.30
   5   9   4  185.78   21.40
   5  10  -4   12.80    8.60
  -5  10   4   -0.60    5.60
  -5  10  -4   16.60    8.50
   5 -10  -4    8.60    6.90
  -5 -10   4   15.00    7.90
   5  10   4    2.30    7.60
  -5  11   4  200.58   21.70
   5  11  -4  264.17   28.30
  -5  11  -4  197.08   23.20
   5  11   4  186.68   24.60
   5  12  -4   52.39   15.10
  -5  12   4   51.79   12.60
  -5  12  -4   22.00    9.70
   5  12   4   59.79   15.30
  -5  13   4   31.50   11.90
   5  13  -4   95.89   19.90
  -5  13  -4   89.79   19.80
   5  13   4   69.69   19.00
   5  14  -4    4.80   10.40
  -5  14   4    5.90   10.10
  -5  14  -4    2.50    9.70
   5  14   4   23.20   14.20
   5   0   5 1577.54   55.89
  -5   0  -5 1522.55   53.69
  -5   1  -5 2310.67   73.39
  -5   1  -5 2325.07   69.49
   5   1   5 2229.68   73.49
  -5   2   5  640.84   18.50
   5   2  -5  605.54   18.80
  -5  -2  -5  616.84   28.90
   5   2   5  601.74   30.40
  -5  -2   5  591.94   18.20
  -5   2  -5  587.94   29.90
   5  -2  -5  616.74   18.10
  -5   2  -5  644.14   27.50
  -5   3   5  345.07   14.10
   5   3  -5  335.27   14.20
  -5  -3  -5  353.76   21.40
   5   3   5  393.56   26.90
  -5   3  -5  374.36   23.40
   5  -3  -5  375.36   14.30
  -5  -3   5  347.57   14.00
  -5   3  -5  329.17   22.40
  -5   4   5  360.06   16.20
   5   4  -5  363.26   16.40
   5  -4   5  383.16   21.00
  -5  -4  -5  327.67   21.10
   5   4   5  356.26   23.20
   5  -4  -5  349.77   15.90
  -5  -4   5  385.66   16.20
  -5   4  -5  338.37   23.40
  -5   4  -5  393.26   21.40
   5  -5   5  413.16   22.50
  -5   5   5  395.76   18.60
   5   5  -5  386.96   18.60
  -5  -5  -5  383.36   23.30
   5  -5  -5  361.56   20.10
  -5   5  -5  401.76   22.80
  -5  -5   5  412.26   18.70
   5  -6   5  375.76   23.10
  -5  -6  -5  455.75   25.90
  -5   6   5  393.36   20.40
   5   6  -5  470.65   21.90
   5   6   5  421.86   26.50
   5  -6  -5  407.76   20.30
  -5   6  -5  478.95   25.90
  -5  -6   5  403.86   20.20
  -5  -7  -5  504.35   29.40
   5  -7   5  547.25   28.80
  -5   7   5  558.24   26.00
   5   7  -5  550.44   26.00
   5  -7  -5  594.64   26.20
   5   7   5  558.64   31.90
  -5   7  -5  617.14   31.00
  -5  -7   5  506.85   24.90
  -5  -8  -5  236.58   20.50
  -5   8   5  259.97   18.20
   5  -8   5  251.97   19.80
   5   8  -5  263.57   18.80
   5   8   5  210.88   23.00
   5  -8  -5  230.08   17.20
  -5  -8   5  237.18   17.50
  -5   8  -5  224.98   19.90
   5   9  -5   36.70   10.40
  -5   9   5   39.90   10.10
  -5   9  -5   30.00   11.20
   5   9   5   42.40   11.80
  -5  10   5  167.88   20.00
   5  10  -5  203.48   22.30
  -5 -10   5  194.48   21.20
   5 -10  -5  146.19   19.00
  -5  10  -5  171.68   19.90
   5  10   5  174.58   23.30
   5  11  -5   86.79   15.70
  -5  11   5   71.09   14.60
  -5  11  -5   90.79   20.40
   5  11   5   75.99   22.10
  -5  12   5   24.80   10.10
   5  12  -5   41.90   14.00
   5  12   5    8.30   10.80
  -5  12  -5   38.80   12.40
  -5  13   5   38.70   14.40
   5  13  -5   37.00   13.00
   5  13   5   28.60   13.40
  -5  13  -5   26.80   12.80
   5  14  -5   13.70   12.30
  -5  14   5   30.10   13.10
  -5  14  -5   31.70   13.00
   5  14   5   42.80   16.10
  -5   0  -6    0.30    5.60
  -5   1  -6  928.01   39.60
  -5   2   6   43.80    4.30
   5   2  -6   42.30    4.30
  -5  -2  -6   44.90   11.00
  -5   2  -6   28.30    8.10
  -5   2  -6   57.29   11.60
   5  -2  -6   40.30    3.90
   5   2   6   35.50    9.40
  -5   3   6  269.37   11.90
   5   3  -6  272.87   12.00
  -5  -3  -6  218.08   18.00
  -5   3  -6  238.48   20.00
   5   3   6  239.58   19.70
   5  -3  -6  265.07   11.50
  -5  -3   6  282.07   11.50
  -5   3  -6  247.68   17.60
  -5  -4  -6   -3.60    4.50
   5   4  -6    7.10    3.80
  -5   4   6    5.00    3.70
   5   4   6    5.30    7.20
   5  -4  -6   10.70    4.00
  -5   4  -6   -2.40    5.70
  -5  -4   6    8.80    3.40
  -5   4  -6    2.10    5.00
   5   5  -6  176.78   12.20
  -5   5   6  133.69   10.80
  -5  -5  -6  111.69   15.80
   5  -5   6  172.48   17.50
   5  -5  -6  155.38   14.90
  -5  -5   6  170.18   11.60
   5   5   6  137.89   18.20
  -5   5  -6  155.18   17.70
   5   6  -6   24.60    6.30
  -5  -6  -6   16.30    7.60
  -5   6   6   19.10    5.80
   5  -6   6   18.30    6.60
   5  -6  -6   33.90    7.50
   5   6   6   11.00    7.60
  -5  -6   6   27.00    7.10
  -5   6  -6   36.10    9.30
  -5   7   6  392.86   21.60
   5  -7   6  398.06   24.80
   5   7  -6  418.56   21.80
   5   7   6  392.26   27.30
   5  -7  -6  353.26   20.60
  -5   7  -6  381.26   25.00
  -5  -7   6  426.16   21.70
  -5   8   6   11.30    7.10
   5   8  -6    4.80    5.90
  -5   8  -6   17.80    7.40
  -5  -8   6    3.60    5.80
   5   8   6   12.00    9.00
   5  -8  -6   13.70    6.80
  -5   9   6  219.48   21.90
   5   9  -6  207.28   18.10
  -5   9  -6  172.78   19.40
   5   9   6  144.39   20.70
   5  10  -6   51.49   11.70
  -5  10   6   36.50   10.30
  -5 -10   6   36.40   10.60
   5 -10  -6   34.10    9.80
   5  10   6   42.80   14.40
  -5  10  -6   52.69   14.10
   5  11  -6  130.89   20.40
  -5  11   6  119.69   18.10
   5  11   6  119.59   19.10
  -5  11  -6  138.09   21.00
  -5  12   6    9.00   10.40
   5  12  -6   20.90   10.60
  -5  12  -6    8.30   11.60
   5  12   6    1.30    9.30
  -5  13   6  103.49   18.90
   5  13  -6  129.39   21.00
   5  13   6  115.39   20.80
  -5  13  -6  166.68   26.10
  -5  14   6    0.40    9.50
   5  14  -6   -3.10    9.80
   5  14   6   17.40   16.20
  -5  14  -6    3.10    9.00
  -5   0  -7   97.59   14.70
   5   0   7   90.49   16.20
  -5  -1  -7   50.69   12.60
   5   1   7   43.20   11.50
  -5   1  -7   44.50   11.40
  -5   1  -7   45.70    9.90
   5   2  -7   80.79    5.00
  -5  -2  -7   61.29   11.70
   5   2  -7   69.59    5.50
  -5   2   7   61.69    4.90
   5   2   7   97.49   16.30
  -5   2  -7   51.89    9.40
   5  -2  -7   69.39    4.50
  -5   2  -7   48.20   10.80
   5   3  -7  175.58    9.10
  -5   3   7  151.58    9.00
  -5  -3  -7  154.78   18.70
   5   3   7  172.18   21.10
  -5   3  -7  154.38   16.60
   5  -3  -7  149.29    8.50
  -5  -3   7  156.38    8.40
  -5   3  -7  157.58   19.00
   5   4  -7  395.56   16.80
  -5  -4  -7  380.66   24.40
  -5   4   7  367.36   16.80
  -5  -4   7  392.26   16.20
  -5   4  -7  350.66   25.50
  -5   4  -7  403.66   23.50
   5   4   7  367.86   25.50
   5  -4  -7  390.06   16.50
   5   5  -7  294.07   15.80
  -5   5   7  334.97   16.80
  -5  -5  -7  276.67   21.40
   5  -5  -7  294.37   16.00
  -5   5  -7  280.07   23.60
  -5   5  -7  320.67   21.20
  -5  -5   7  300.87   15.30
   5   5   7  354.66   25.00
  -5   6   7    5.80    5.10
   5   6  -7   22.90    6.80
  -5  -6  -7   17.00    8.70
   5  -6   7   17.80    7.20
   5  -6  -7   20.40    6.20
  -5   6  -7    9.70    6.70
   5   6   7   14.80    9.00
  -5  -6   7   13.10    5.50
   5   7  -7   51.59   10.00
  -5  -7  -7   27.70   16.20
  -5   7   7   49.99    9.80
   5  -7  -7   70.79   11.20
  -5  -7   7   56.49    9.80
  -5   7  -7   58.09   12.40
   5   7   7   53.49   13.90
   5   8  -7  114.59   15.60
  -5   8   7   85.49   13.20
  -5  -8   7   96.09   13.00
  -5   8  -7   63.59   12.60
   5  -8  -7  100.79   13.80
   5   8   7   79.29   15.50
   5   9  -7   40.20    9.50
  -5   9   7   33.80    9.80
  -5  -9   7   23.80    8.60
   5   9   7   33.90   12.30
  -5   9  -7   32.90    9.80
   5  -9  -7   25.50   10.20
  -5  10   7   -0.30    6.20
   5  10  -7   19.20    9.20
   5 -10  -7   15.90    8.90
   5  10   7    4.80   10.70
  -5 -10   7   12.70    8.20
  -5  10  -7    3.30    8.90
   5  11  -7  101.09   16.30
  -5  11   7  124.29   19.60
   5  11   7   89.19   21.40
  -5  11  -7  108.29   20.40
  -5  12   7   72.79   15.40
   5  12  -7   58.19   14.20
   5  12   7   59.49   18.50
  -5  12  -7   63.09   15.60
   5  13  -7   58.49   15.20
  -5  13   7   39.40   13.10
  -5  13  -7   26.50   13.70
   5  13   7   33.90   14.70
  -5   0  -8    0.50    5.80
   5   0   8   -3.70    6.70
  -5  -1  -8  484.95   28.30
  -5   1  -8  474.45   28.60
   5   1   8  483.55   30.20
  -5   1  -8  491.95   26.00
   5   2  -8    9.80    2.70
  -5   2   8    7.20    3.20
   5   2  -8    4.30    2.80
  -5  -2  -8   -2.50    5.50
   5  -2  -8   10.40    2.80
   5   2   8   -0.50    7.50
  -5   2  -8   11.40    6.20
  -5   2  -8    2.00    6.00
   5   3  -8  196.28   11.70
   5   3  -8  208.68   10.40
  -5   3   8  205.88   11.20
   5   3   8  253.57   22.00
  -5   3  -8  233.78   17.80
   5  -3  -8  201.08   10.20
   5   4  -8   94.79    8.40
  -5   4   8  110.39    9.30
  -5  -4  -8   93.09   15.10
  -5  -4   8  108.69    8.40
   5  -4  -8  100.29    8.60
  -5   4  -8  101.69   15.00
  -5   4  -8  129.29   19.40
   5   4   8  120.99   17.00
  -5  -5  -8  103.99   15.90
  -5   5   8  119.49   12.20
   5   5  -8  113.49   11.50
  -5  -5   8  120.59   10.00
  -5   5  -8  129.69   16.40
   5  -5  -8  126.79   12.10
  -5   5  -8   94.59   18.00
   5   5   8  133.59   18.40
  -5   6   8   -0.30    5.20
  -5  -6  -8    0.40    6.50
   5   6  -8    5.80    5.00
  -5   6  -8    5.10    9.50
   5  -6  -8    6.20    4.80
  -5  -6   8    1.40    4.20
  -5   6  -8    0.20    5.30
   5   6   8    0.10    6.20
  -5   7   8   39.10    9.40
  -5   7  -8   27.40    9.50
   5   7   8   45.60   14.20
  -5  -7   8   33.60    8.10
   5  -7  -8   35.90    8.70
   5   8  -8   13.30    7.30
  -5   8   8   27.10    8.90
   5   8   8   17.00    9.10
  -5   8  -8   20.10    9.00
  -5  -8   8   18.10    7.30
   5  -8  -8   14.50    7.50
   5   9  -8  178.98   19.30
  -5   9   8  172.28   19.60
   5  -9  -8  177.38   19.40
  -5  -9   8  182.78   19.10
   5   9   8  179.98   26.30
  -5   9  -8  199.58   24.40
  -5  10   8    1.60    7.60
   5  10  -8   11.50    8.30
   5  10   8   15.30   11.20
  -5 -10   8    8.90    8.80
   5 -10  -8    4.70    7.50
  -5  10  -8    3.80    7.60
   5  11  -8   86.09   15.30
  -5  11   8   89.69   15.80
   5  11   8  105.29   19.70
  -5  11  -8   62.89   15.10
  -5  12   8    8.00    8.60
   5  12  -8    3.90    9.10
   5  12   8    4.30   11.60
  -5  12  -8   -1.30    8.90
  -5  13   8   19.10   10.90
   5  13  -8   29.80   12.30
  -5  13  -8   25.90   13.60
   5  13   8   16.70   13.30
   5   0   9  439.46   30.30
  -5   0  -9  452.05   28.60
   5   1  -9  119.29    5.50
  -5  -1  -9  142.29   18.00
   5   1   9  188.28   22.40
  -5   1  -9  135.09   18.50
  -5   1  -9  103.69   14.00
   5   2  -9   33.70    4.40
  -5  -2  -9   49.10   12.00
   5   2  -9   30.00    4.90
   5  -2  -9   28.40    4.30
   5   2   9   42.60   11.70
  -5   2  -9   33.90   11.00
  -5   2  -9   42.50   10.60
   5   3  -9  326.87   15.60
   5   3  -9  337.97   14.10
  -5   3   9  339.77   15.50
  -5  -3  -9  306.27   23.60
   5  -3  -9  327.87   14.00
  -5   3  -9  353.96   22.80
  -5   3  -9  348.57   26.30
   5   3   9  368.76   27.50
  -5  -4  -9  312.67   23.60
  -5   4   9  283.77   15.40
   5   4  -9  279.27   14.30
  -5   4  -9  240.08   25.40
   5   4   9  300.47   25.40
   5  -4  -9  290.27   14.50
  -5   4  -9  274.67   21.10
   5   5  -9  199.08   13.20
  -5   5   9  185.38   13.70
   5  -5  -9  208.08   13.20
  -5  -5   9  176.68   12.10
  -5   5  -9  175.48   21.30
   5   5   9  220.48   26.30
  -5   6   9   23.10    7.70
   5   6  -9   24.00    7.20
  -5  -6   9   29.50    7.20
  -5   6  -9   24.10    8.80
   5   6   9   28.40   11.60
   5  -6  -9   36.80    8.00
   5   7  -9   61.99   11.60
   5  -7  -9   65.09   11.60
  -5  -7   9   85.09   12.00
   5   7   9   95.49   19.90
  -5   7  -9   88.79   15.20
   5   8  -9  203.38   16.90
  -5   8   9  194.28   17.20
  -5   8  -9  220.38   25.10
   5  -8  -9  190.38   19.40
  -5  -8   9  187.08   16.10
   5   8   9  131.89   21.20
  -5   9   9  271.47   20.90
   5   9  -9  241.78   19.70
  -5   9  -9  287.37   31.20
   5  -9  -9  219.98   19.40
  -5  -9   9  241.48   19.40
   5   9   9  204.18   32.20
   5  10  -9   13.70    9.50
  -5  10   9    9.30    8.50
  -5  10  -9   23.40   11.70
   5  10   9    7.50   11.30
  -5  11   9  132.49   19.50
   5  11  -9  131.69   18.40
  -5  11  -9  112.99   19.40
   5  11   9  114.29   23.10
   5  12  -9  126.09   29.80
  -5  12   9  101.99   20.40
   5  12   9  114.29   21.90
  -5  12  -9  156.58   26.30
  -5   0 -10   -5.10    6.50
   5   0  10    8.40    8.80
   5   0 -10   -1.00    1.70
   5   0 -10    0.20    2.10
   5   1 -10   52.79    4.90
   5   1 -10   55.69    5.00
  -5  -1 -10   61.29   13.40
   5  -1 -10   54.69    4.90
   5   1  10   58.59   15.20
  -5   1 -10   57.89   13.10
  -5   1 -10   41.70    9.60
   5  -1 -10   50.09    4.30
   5   2 -10  126.09    7.60
  -5  -2 -10  109.59   17.50
   5   2 -10  131.59    8.40
  -5   2 -10  147.09   22.50
  -5   2 -10  152.08   18.80
   5  -2 -10  139.09    7.90
   5   2  10  134.39   20.30
   5  -2 -10  132.69    7.40
   5   3 -10   58.99    8.30
  -5  -3 -10   82.39   16.90
   5   3 -10   63.29    7.60
  -5   3  10   59.99    8.30
   5  -3 -10   59.49    7.30
  -5   3 -10   48.60   11.20
   5   3  10   80.19   16.90
  -5   3 -10   53.89   15.00
   5   4 -10    1.80    5.00
   5   4 -10   11.10    4.70
  -5   4  10   10.50    5.70
  -5   4 -10   16.10    8.40
   5  -4 -10    9.80    4.40
   5   4  10   -7.50    7.80
  -5   5  10    1.70    4.70
   5   5 -10    0.90    4.10
  -5   5 -10    2.10    6.50
   5   5  10   12.90    9.50
   5  -5 -10   -0.60    4.30
   5   6 -10   11.40    5.40
  -5   6  10    1.50    6.30
   5  -6 -10   10.70    6.00
   5   6  10   -1.80    7.70
  -5  -6  10    9.10    5.20
  -5   6 -10    2.70    8.40
  -5   7  10    0.00    5.80
   5   7 -10    7.30    6.10
  -5   7 -10    0.70    7.30
   5  -7 -10   10.90    6.20
  -5  -7  10    3.80    5.70
   5   7  10   11.30    9.80
   5   8 -10    3.70    5.60
  -5   8  10   -7.40    5.70
  -5  -8  10   11.00    7.50
   5  -8 -10    9.80    7.70
  -5   9  10    7.80    7.70
   5   9 -10   13.40    7.70
   5  -9 -10    3.60    7.70
  -5   9 -10   20.60    9.30
  -5  -9  10    0.80    7.20
   5   9  10   21.00   13.00
  -5  10  10    2.10    8.00
   5  10 -10    2.30    8.40
  -5  10 -10    1.10    8.00
   5  10  10    8.50   11.40
   5  11 -10   31.00   11.70
  -5  11  10   31.60   12.30
   5  11  10   31.90   15.30
  -5  11 -10   10.50    8.80
   5   0 -11  291.57   11.40
   5   0 -11  324.47   11.40
  -5   0 -11  318.47   23.30
   5   1 -11   86.89    6.40
   5   1 -11   71.19    5.70
  -5   1 -11   81.49   13.70
   5  -1 -11   75.59    5.80
   5  -1 -11   73.69    5.80
   5   1  11   64.49   15.90
   5   2 -11   44.10    6.50
   5   2 -11   49.20    6.20
   5  -2 -11   44.50    5.80
   5  -2 -11   55.79    6.30
   5   2  11   29.90   13.20
  -5   2 -11   54.79   12.00
   5   3 -11   78.79    9.20
   5   3 -11   81.09    8.60
   5   3  11   90.39   18.80
  -5   3 -11  103.69   17.50
   5  -3 -11   98.29    9.40
   5   4 -11  191.88   12.40
  -5   4  11  159.68   13.40
   5   4  11  195.28   26.20
  -5   4 -11  200.58   22.00
   5   5 -11   42.30    8.10
  -5   5  11   49.50   10.20
   5   5 -11   37.40    9.40
   5  -5 -11   38.80    8.20
  -5   5 -11   49.10   12.00
   5   5  11   44.50   16.00
   5   6 -11   67.59   12.70
  -5   6  11   90.89   13.50
   5   6 -11   98.59   12.80
   5  -6 -11   63.89   10.90
  -5   6 -11   60.29   13.40
   5   6  11   90.39   20.00
   5   7 -11  136.29   15.80
  -5   7  11  118.39   15.90
  -5  -7  11  106.89   13.70
   5  -7 -11  165.18   17.20
   5   8 -11  233.58   18.80
  -5   8  11  267.87   20.80
   5  -8 -11  243.28   20.40
  -5   8 -11  226.58   26.40
   5   8  11  235.48   31.60
  -5  -8  11  238.98   24.60
  -5   9  11  100.09   16.60
   5   9 -11   95.69   15.80
   5  -9 -11   77.99   14.00
   5   9  11   99.89   21.20
  -5  -9  11   79.39   14.10
  -5   9 -11  135.99   21.40
  -5  10  11   21.50   11.10
   5  10 -11    5.80    8.20
  -5  10 -11    8.90   10.50
   5  10  11    3.10   12.10
  -5  11  11   33.10   12.50
   5  11 -11   29.80   11.90
  -5  11 -11    9.60   10.20
   5  11  11   -0.60   11.50
   5   0 -12   -1.60    2.80
  -5   0 -12    8.40    7.40
   5   0 -12   -1.90    2.60
   5   1 -12   10.40    3.60
   5   1 -12    0.40    3.30
   5  -1 -12    6.70    3.40
   5   1  12    8.40    9.40
   5  -1 -12    4.20    3.40
  -5   1 -12   12.50    8.20
   5   2 -12   11.20    4.70
   5   2 -12   12.20    4.30
   5   2  12   -2.20    8.10
   5  -2 -12    7.80    4.10
  -5   2 -12    1.50    7.10
   5  -2 -12   14.50    4.50
   5   3 -12   27.90    7.00
   5   3 -12   41.70    6.90
   5  -3 -12   47.80    6.80
   5  -3 -12   58.09    8.10
  -5   3 -12   36.10   11.60
   5   3  12   30.70   13.10
  -5   4  12    8.20    6.30
   5   4 -12    6.60    4.70
   5   4 -12    6.50    7.40
   5  -4 -12   12.40    6.80
  -5   4 -12   20.40   10.70
   5   4  12    3.00   11.40
   5   5 -12   13.50    6.10
   5   5 -12    9.00    7.50
  -5   5  12   17.00    7.80
   5   5  12   20.90   12.70
  -5   5 -12   19.60    9.90
   5  -5 -12   18.10    7.00
   5   6 -12   22.60    9.10
   5   6 -12   14.00    7.10
  -5   6  12   26.50    9.10
   5  -6 -12   13.70    7.80
  -5   6 -12   28.20   12.70
   5   6  12   14.00   12.70
   5   7 -12    4.70    6.60
   5   7 -12   12.10    9.60
  -5   7  12    6.90    8.50
   5  -7 -12   12.00    8.00
   5   7  12   22.90   14.10
  -5   7 -12   35.90   12.60
  -5   8  12    2.80    8.00
   5   8 -12    1.30    6.40
   5   8  12    6.30   10.60
   5  -8 -12    0.70   12.10
  -5  -8  12   -5.30    7.20
  -5   8 -12    2.80    8.00
  -5   9  12    5.50    8.30
   5   9 -12   18.90   10.00
   5  -9 -12   21.90   11.30
  -5  -9  12   13.60    9.30
   5   9  12   24.90   15.10
  -5   9 -12    6.50    9.40
   5  10 -12    5.50    8.40
  -5  10  12   -2.70    8.40
   5  10  12    0.10   12.10
  -5  10 -12    5.40    9.00
   5   0 -13  227.98   10.80
   5   0 -13  249.18   11.50
  -5   0 -13  208.28   23.10
   5   1 -13  234.08   11.20
  -5  -1 -13  265.67   22.90
   5   1 -13  233.28   11.70
   5  -1 -13  224.38   11.30
   5  -1 -13  226.98   11.10
  -5   1 -13  257.57   22.50
   5   2 -13    3.50    4.50
   5   2 -13   15.80    4.80
   5  -2 -13    4.50    4.10
  -5   2 -13    2.50    7.60
   5  -2 -13   11.20    4.30
   5   2  13   29.40   13.10
   5   3 -13  260.37   15.60
   5   3 -13  306.87   15.10
  -5   3 -13  324.57   25.30
   5   3  13  279.87   35.00
   5  -3 -13  289.27   14.40
   5  -3 -13  281.17   15.00
   5   4 -13  489.65   24.30
   5   4 -13  551.74   22.90
   5  -4 -13  558.04   23.40
  -5   4 -13  543.45   42.10
  -5   5  13  116.89   15.00
   5   5 -13  108.39   12.80
   5   5 -13   92.29   14.20
   5  -5 -13  103.89   12.70
  -5   5 -13  114.19   19.60
   5   5  13   98.69   20.90
   5   6 -13    3.90    6.70
   5   6 -13   -3.80    7.20
  -5   6  13    1.60    9.30
  -5   6 -13   -1.50    9.00
   5   6  13   -9.50   10.00
   5  -6 -13    7.50    7.30
  -5   7  13   57.89   12.60
   5   7 -13   62.09   14.90
   5   7 -13   59.59   11.70
   5   7  13   60.89   18.90
   5  -7 -13   61.69   12.50
  -5   7 -13   75.89   16.40
   5   8 -13  166.18   18.80
   5   8 -13  148.79   21.40
  -5   8  13  215.08   23.70
  -5   8 -13  169.78   26.60
   5   8  13  132.99   24.40
   5  -8 -13  136.09   18.20
  -5   0 -14    0.50    7.40
   5   0 -14    3.00    3.60
   5   0 -14    0.40    3.20
   5   1 -14   25.80    5.70
   5   1 -14   27.30    5.40
  -5  -1 -14   46.60   14.10
   5  -1 -14   25.60    5.40
  -5   1 -14   39.30   12.10
   5  -1 -14   27.70    5.20
   5   2 -14   10.50    4.60
   5   2 -14   19.10    5.60
   5   2  14   11.20   12.50
   5  -2 -14   17.20    5.00
   5  -2 -14    9.20    4.70
  -5   2 -14   10.60    8.90
   5   3 -14   94.29    9.90
   5   3 -14   53.69    9.50
   5  -3 -14   88.59   11.50
  -5   3 -14   92.19   18.00
   5   3  14   59.79   17.40
   5  -3 -14   78.69    8.70
   5   4 -14    1.50    6.40
   5   4 -14   -1.20    4.60
  -5   4 -14  -12.40    5.80
   5   4  14   -6.30   10.40
   5  -4 -14    1.80    5.10
   5  -4 -14    3.20    4.40
  -5   5  14   48.50   11.00
   5   5 -14   46.00   10.70
   5   5 -14   49.60    9.50
   5   5  14   29.80   14.70
  -5   5 -14   35.70   12.40
   5  -5 -14   59.09   10.60
   5   6 -14    2.80    8.60
   5   6 -14    6.10    6.60
  -5   6 -14    1.00    7.60
   5   6  14   -7.40   11.10
   5  -6 -14    9.40    8.10
   5   7 -14   62.59   12.00
  -5   7  14   48.50   13.00
   5   7 -14   19.80   11.50
   5   7  14   34.50   15.70
  -5   7 -14   65.19   17.00
   5  -7 -14   39.20   11.60
   5   0 -15   53.19    6.60
   5   0 -15   65.49    7.20
  -5   0 -15   91.79   17.70
   5   1 -15   90.59    8.90
  -5  -1 -15   82.19   16.30
   5   1 -15   89.59    8.50
   5  -1 -15   73.49    7.90
   5  -1 -15   79.39    7.80
  -5   1 -15   55.59   14.00
   5   2 -15   -0.20    4.00
   5   2 -15    5.30    5.10
  -5  -2 -15    3.90    9.00
   5  -2 -15    5.40    4.30
  -5   2 -15   -8.50    6.30
   5  -2 -15    4.60    4.50
   5   3 -15   96.79   10.50
   5   3 -15  109.99   18.40
   5   3  15   66.89   20.40
   5  -3 -15  103.99   10.40
  -5   3 -15  138.19   22.00
   5  -3 -15  116.39   18.60
   5   4 -15   93.09   12.50
   5   4 -15  108.49   12.10
  -5   4 -15   86.89   16.80
   5   4  15   99.19   22.70
   5  -4 -15   78.19   10.80
   5  -4 -15   89.89   10.60
  -6   0   0   24.90    6.10
   6   0   0   14.60    5.90
  -6   1   0  165.38   15.00
   6   1   0  140.09   13.60
  -6   1   0  118.79    9.00
  -6  -1   0  141.99   12.70
  -6   2   0 2588.04   71.99
  -6   2   0 2638.94   75.49
  -6  -2   0 2597.54   73.49
   6   2   0 2586.54   74.39
   6   3   0  188.48   13.60
  -6  -3   0  212.18   13.60
  -6   3   0  202.78   12.70
   6  -3   0  206.08   12.50
  -6  -4   0  646.14   26.40
  -6   4   0  595.84   25.20
   6  -4   0  633.84   25.20
   6   4   0  613.34   26.80
   6   5   0   25.60    7.30
   6  -5   0   27.80    7.10
  -6   5   0   20.70    6.10
  -6  -5   0   10.50    5.10
   6   6   0 1588.34   61.99
  -6  -6   0 1716.33   56.19
   6  -6   0 1770.32   55.79
  -6   6   0 1711.03   56.29
   6  -7   0  100.89   12.70
  -6   7   0   93.89   13.80
   6   7   0   99.79   13.50
  -6  -7   0  128.09   15.20
  -6  -8   0   18.80    7.40
  -6   8   0    4.60    5.80
   6   8   0    9.10    6.80
   6  -8   0   -0.30    4.00
  -6   9   0   81.79   13.10
  -6  -9   0   79.09   13.20
   6  -9   0   85.29   13.00
   6   9   0   86.99   13.70
   6  10   0  326.47   24.90
  -6  10   0  317.67   23.80
   6  11   0   23.30   10.70
  -6  11   0   28.60   11.30
   6  12   0    0.40    8.00
  -6  12   0   -3.30    6.00
   6  13   0   47.60   14.80
  -6  13   0   59.39   14.10
  -6  14   0  287.37   31.30
   6  14   0  314.67   32.40
   6  15   0    8.70   10.90
  -6  15   0   19.90   12.50
   6   0   1    2.30    4.60
  -6   0   1   -5.00    3.10
   6   0  -1    1.60    4.10
  -6   0  -1    0.00    4.60
  -6   1   1    0.30    4.00
  -6   1   1    2.80    3.20
   6   1  -1    7.60    4.50
   6   1   1   -3.00    4.50
  -6  -1   1    4.10    3.80
  -6   1  -1    8.10    4.10
  -6   2   1   27.10    5.50
  -6   2   1   40.20    7.40
   6   2  -1   34.60    6.70
  -6  -2  -1   26.90    6.70
  -6   2  -1   44.00    8.40
  -6   2  -1   43.40    7.50
   6   2   1   33.80    8.20
  -6  -2   1   35.10    6.40
  -6   3   1    1.00    4.00
  -6  -3  -1    8.50    5.30
   6   3  -1    6.80    4.80
   6  -3   1   10.60    4.80
  -6   3  -1   21.40    6.10
   6   3   1    7.40    5.10
  -6  -3   1    5.50    4.10
   6  -3  -1    5.20    3.60
   6  -4   1   -0.30    3.90
   6   4  -1    1.50    4.70
  -6  -4  -1   -0.30    4.00
  -6   4   1    0.20    3.50
  -6  -4   1    4.20    4.00
   6  -4  -1   -1.00    3.20
  -6   4  -1    0.80    4.20
   6   4   1    0.30    5.00
  -6  -5  -1   28.50    7.40
  -6   5   1   38.30    7.40
   6   5  -1   37.10    9.00
   6  -5   1   58.49   10.00
   6   5   1   32.70    9.00
  -6   5  -1   60.39    9.70
   6  -5  -1   42.70    7.60
  -6  -5   1   43.60    8.00
  -6   6   1    6.60    5.00
   6  -6   1   14.40    6.10
  -6  -6  -1    4.20    4.60
   6   6  -1    9.20    6.70
   6  -6  -1    1.10    3.40
  -6  -6   1    1.70    4.40
  -6   6  -1    4.10    4.90
   6   6   1    2.60    5.90
  -6  -7  -1   10.30    6.10
  -6   7   1    6.90    4.90
   6   7  -1    3.20    5.50
   6  -7   1    9.20    5.80
   6   7   1    9.00    6.30
  -6  -7   1    5.40    5.20
   6  -7  -1    4.00    5.10
  -6   7  -1   12.10    6.20
  -6  -8  -1   20.40    8.00
   6   8  -1    6.80    6.90
  -6   8   1   10.20    6.70
   6  -8   1    4.90    6.10
   6  -8  -1    1.50    5.10
  -6   8  -1    5.80    5.60
   6   8   1    3.50    7.00
  -6  -8   1    3.10    5.60
  -6  -9  -1   34.20   10.40
   6  -9   1   37.40   10.10
  -6   9   1   48.40   11.50
   6   9  -1   24.10    8.50
   6  -9  -1   24.80    8.20
  -6  -9   1   42.40   11.10
   6   9   1   45.80   11.60
  -6   9  -1   51.39   12.80
  -6  10   1    4.20    6.10
   6  10  -1  -11.60    5.00
  -6  10  -1   -0.20    5.90
   6  10   1   -4.00    5.90
   6 -10  -1   -0.50    6.20
   6  11  -1    8.60    7.80
  -6  11   1   -2.00    5.90
  -6  11  -1    1.10    6.90
   6  11   1    0.30    8.60
   6  12  -1    8.40    8.90
  -6  12   1    3.80    7.20
   6  13  -1   41.50   13.90
  -6  13   1   39.70   13.30
  -6  13  -1   20.30   10.20
   6  13   1   39.20   13.60
   6  14  -1  -11.10    9.30
  -6  14   1   13.60   10.10
  -6  14  -1    8.10   10.70
   6  14   1   -6.20   10.00
  -6  15   1    9.90   10.00
   6  15  -1   -5.30    9.60
   6  15   1    0.80   10.30
  -6  15  -1    5.90    9.20
  -6   0   2    8.20    3.30
  -6   0  -2   19.20    6.20
  -6   0   2   11.00    3.90
   6   0   2   15.20    6.30
  -6   1   2  231.58   11.90
  -6   1   2  227.28   10.30
  -6  -1  -2  179.68   13.90
   6   1  -2  203.08   11.60
   6   1   2  196.18   15.40
  -6  -1   2  224.18   11.00
  -6   1  -2  199.08   13.20
  -6   1  -2  204.88   15.20
   6   2  -2  951.90   31.00
  -6   2   2  923.91   31.60
  -6  -2  -2  909.71   35.10
  -6   2   2  942.31   29.40
   6   2   2  940.81   36.40
  -6   2  -2  953.10   37.20
  -6  -2   2  934.21   29.80
  -6   2  -2  954.60   33.60
  -6   3   2  459.65   18.30
  -6  -3  -2  438.16   22.10
   6   3  -2  424.36   19.10
  -6   3  -2  422.06   23.50
  -6  -3   2  423.86   18.10
  -6   3  -2  424.06   20.80
   6   3   2  465.65   23.70
   6  -3  -2  462.85   18.10
  -6   4   2   87.09   10.30
  -6  -4  -2   84.29   12.60
   6  -4   2   78.89   11.40
   6   4  -2   86.99   10.30
   6   4   2   78.79   13.40
  -6   4  -2   71.89   10.90
   6  -5   2  311.27   18.50
   6   5  -2  311.27   17.90
  -6  -5  -2  329.27   20.00
  -6   5   2  323.87   17.10
  -6  -5   2  314.17   17.00
  -6   5  -2  302.17   21.70
   6  -5  -2  322.97   16.70
  -6  -6  -2 1530.55   53.89
  -6   6   2 1500.95   49.90
   6  -6   2 1527.45   52.29
   6   6  -2 1574.54   51.59
   6  -6  -2 1514.95   49.70
  -6  -6   2 1480.15   49.90
   6   6   2 1558.94   55.39
  -6   6  -2 1545.65   53.49
  -6  -7  -2  346.77   22.10
   6  -7   2  328.97   20.90
  -6   7   2  325.67   20.20
   6   7  -2  329.07   20.80
  -6   7  -2  350.16   21.80
   6  -7  -2  296.87   18.80
   6   7   2  327.97   22.60
  -6  -7   2  314.67   19.50
  -6   8   2   -0.10    5.00
  -6  -8  -2   -1.60    4.70
   6   8  -2    4.80    6.30
   6  -8   2    1.30    4.90
   6   8   2   -0.90    6.00
  -6  -8   2   -3.50    5.00
   6  -8  -2   10.20    6.40
  -6   8  -2   -4.70    4.40
   6  -9   2  237.18   19.50
  -6  -9  -2  253.47   21.20
  -6   9   2  266.77   20.00
   6   9  -2  281.77   21.10
  -6  -9   2  215.98   18.80
   6  -9  -2  278.87   19.80
   6   9   2  255.77   22.40
  -6   9  -2  280.67   21.80
   6  10  -2  226.88   24.70
  -6  10   2  229.78   19.80
   6 -10  -2  162.38   20.20
  -6 -10   2  237.18   25.30
  -6  10  -2  238.18   26.50
   6  10   2  190.28   20.70
   6  11  -2  175.68   20.60
  -6  11   2  192.38   22.40
   6  11   2  178.98   23.70
  -6  11  -2  203.98   24.10
  -6  12   2   -1.80    8.30
   6  12  -2   -6.80    7.80
  -6  12  -2    2.50    9.30
   6  12   2    4.10    9.10
  -6  13   2   78.99   15.40
   6  13  -2   97.89   19.40
   6  13   2   53.89   14.70
  -6  13  -2   77.59   16.80
   6  14  -2  189.78   27.70
  -6  14   2  208.18   28.60
  -6  14  -2  209.08   27.80
   6  14   2  172.88   24.10
  -6   0  -3    1.90    4.90
   6   0   3   -0.50    4.60
  -6   0   3   -0.10    1.80
  -6   0   3    0.40    2.30
  -6  -1  -3   45.50    9.70
   6   1  -3   49.00    5.90
  -6   1   3   40.60    4.60
  -6   1   3   42.40    5.40
  -6   1  -3   36.10    8.20
  -6  -1   3   35.90    4.70
  -6   1  -3   25.80    6.60
   6   1   3   39.50    9.30
  -6  -2  -3  265.97   17.30
  -6   2   3  233.58   10.70
   6   2  -3  245.08   12.00
   6  -2  -3  242.88   10.80
  -6  -2   3  234.28   10.80
  -6   2  -3  238.08   15.20
   6   2   3  245.08   17.90
  -6   2  -3  264.57   18.40
  -6   3   3  209.08   11.40
   6   3  -3  213.98   12.30
  -6  -3  -3  215.48   16.30
  -6  -3   3  216.48   11.50
  -6   3  -3  230.78   15.30
   6  -3  -3  209.18   11.10
  -6   3  -3  229.18   17.50
   6   3   3  228.88   17.40
  -6  -4  -3  149.09   17.20
  -6   4   3  123.49    9.70
   6  -4   3  157.48   12.90
   6   4  -3  135.49   10.60
  -6   4  -3  164.68   16.50
  -6  -4   3  155.08   10.40
   6  -4  -3  134.49    9.60
   6   4   3  150.38   16.30
  -6  -5  -3  116.69   15.90
  -6   5   3  101.99   11.10
   6   5  -3  120.89   12.70
   6  -5   3  142.29   15.70
   6   5   3  143.49   18.40
   6  -5  -3  111.99   11.50
  -6  -5   3  107.79   11.30
  -6   5  -3  155.48   17.50
  -6  -6  -3   -2.30    4.30
   6  -6   3    2.10    4.70
  -6   6   3    2.40    4.20
   6   6  -3   -5.50    3.60
  -6   6  -3    3.00    4.70
   6   6   3   -3.20    6.00
  -6  -6   3    5.40    4.70
   6  -6  -3   -0.30    3.90
  -6   7  -3   95.19   12.80
   6   7   3  122.99   17.60
  -6  -7   3   80.19   12.50
   6  -7  -3  111.09   13.10
  -6   8   3   53.59   11.00
   6   8  -3   34.90    9.50
  -6  -8  -3   33.60    9.30
   6  -8   3   27.20    9.50
   6  -8  -3   38.30    9.20
   6   8   3   24.80   10.00
  -6  -8   3   49.00   10.40
  -6   8  -3   29.80    8.80
  -6   9   3  183.08   19.80
   6   9  -3  187.38   20.20
  -6  -9   3  165.48   19.60
   6  -9  -3  148.09   16.80
   6   9   3  159.98   21.50
  -6   9  -3  144.89   18.40
   6  10  -3   52.69   12.20
  -6  10   3   39.60   10.10
  -6  10  -3   27.70   10.00
   6  10   3   44.30   11.90
   6 -10  -3   24.40    9.50
  -6 -10   3   26.60    8.60
   6  11  -3  193.08   24.90
  -6  11   3  156.28   20.60
  -6  11  -3  138.99   22.10
   6  11   3  113.39   18.10
  -6  12   3    6.30    8.50
   6  12  -3    2.90    8.20
   6  12   3    6.40    9.90
  -6  12  -3    3.00    8.90
   6  13  -3   56.19   15.40
  -6  13   3   77.39   17.80
   6  13   3   59.59   14.80
  -6  13  -3   47.40   13.80
   6  14  -3  -15.40    7.60
  -6  14   3   -6.80    8.50
  -6  14  -3   10.30   12.10
   6  14   3    2.90    9.50
   6   0   4  781.72   35.20
  -6   0  -4  753.22   33.20
  -6   1   4  296.77    9.60
  -6   1   4  305.17   10.10
   6   1  -4  284.87   10.70
  -6  -1  -4  269.77   18.70
   6   1   4  252.67   19.30
  -6   1  -4  236.38   16.40
  -6  -1   4  291.07    9.70
  -6   1  -4  263.77   19.10
  -6   2   4  702.43   21.20
   6   2  -4  686.03   22.20
  -6  -2  -4  678.53   30.90
   6   2   4  650.93   32.10
  -6  -2   4  702.13   21.30
   6  -2  -4  689.93   21.00
  -6   2  -4  686.93   29.10
  -6   2  -4  749.92   33.40
   6   3  -4   56.89    7.20
  -6  -3  -4   42.60   10.40
  -6   3   4   40.90    6.00
  -6   3  -4   43.00   10.80
  -6   3  -4   23.50    8.20
  -6  -3   4   69.19    7.10
   6   3   4   17.10   12.30
   6  -3  -4   39.50    5.60
  -6  -4  -4  189.28   16.00
  -6   4   4  186.08   11.20
   6   4  -4  195.28   12.10
   6  -4   4  199.18   14.90
  -6  -4   4  199.48   11.60
  -6   4  -4  201.28   22.20
   6   4   4  215.18   22.10
   6  -4  -4  180.58   11.20
  -6   4  -4  191.98   15.10
  -6  -5  -4  198.98   20.80
   6   5  -4  213.68   13.80
   6  -5   4  177.08   14.80
  -6   5   4  185.88   12.50
   6   5   4  180.88   20.50
  -6  -5   4  181.68   12.50
  -6   5  -4  209.48   16.50
   6  -5  -4  188.78   12.60
  -6  -6  -4  726.73   34.40
  -6   6   4  738.03   29.30
   6  -6   4  730.73   33.10
   6   6  -4  767.22   30.30
   6  -6  -4  738.33   29.10
   6   6   4  787.82   36.90
  -6   6  -4  675.33   32.90
  -6  -6   4  723.63   29.00
  -6   7   4   78.59   11.40
  -6  -7  -4   53.09   11.40
   6   7  -4   81.39   12.10
   6  -7   4   77.39   13.30
  -6   7  -4   70.99   12.70
   6   7   4  102.19   17.60
   6  -7  -4   80.29   11.90
  -6  -7   4   84.19   11.50
   6  -8   4   98.29   14.50
   6   8  -4  114.29   15.50
  -6  -8  -4   68.59   13.60
  -6   8   4  127.29   15.90
   6   8   4   80.19   15.10
  -6  -8   4  109.69   14.10
  -6   8  -4   95.79   16.20
   6  -8  -4  101.49   14.40
  -6   9   4   -3.60    5.30
   6   9  -4    3.70    7.40
  -6   9  -4    2.60    6.20
   6   9   4    5.30    8.30
  -6  -9   4    2.20    6.80
   6  -9  -4    3.80    7.40
  -6  10   4  478.05   28.10
   6  10  -4  436.86   27.80
  -6  10  -4  512.05   31.30
   6 -10  -4  472.45   27.80
  -6 -10   4  435.06   27.00
  -6  11   4    1.40    7.30
   6  11  -4    9.00    7.90
   6  11   4   10.70   10.70
  -6  11  -4   11.60   10.10
   6  12  -4   78.59   16.00
  -6  12   4   82.19   15.30
  -6  12  -4   52.49   13.10
   6  12   4   42.20   14.90
   6  13  -4    2.10    9.00
  -6  13   4    4.60    9.80
   6  13   4    3.00   11.50
  -6  13  -4   16.00   10.50
   6  14  -4   72.79   19.10
  -6  14   4  116.09   20.20
  -6  14  -4  109.09   20.70
   6  14   4  102.89   19.80
  -6   0  -5   -0.50    4.50
  -6  -1  -5  902.51   38.90
  -6   1  -5 1003.40   40.90
   6   2  -5    8.30    2.80
  -6   2   5   14.90    2.80
  -6  -2  -5   19.90    6.60
   6   2   5    1.80    5.50
  -6   2  -5    6.70    6.60
  -6   2  -5   15.10    5.80
  -6  -2   5   10.60    2.40
  -6   3   5  123.69    7.60
   6   3  -5  125.29    8.40
  -6  -3  -5  115.29   14.30
   6  -3  -5  118.69    7.60
  -6   3  -5   99.19   12.20
  -6   3  -5  117.69   16.80
  -6  -3   5  120.79    7.60
   6   3   5  129.09   16.70
  -6   4   5    1.20    3.20
  -6  -4  -5   -3.00    4.50
   6   4  -5    4.10    3.70
   6   4   5    0.20    6.20
  -6   4  -5   -0.60    4.30
  -6  -4   5    0.40    3.00
   6  -4  -5   -0.10    2.60
  -6   4  -5   -6.00    4.60
  -6   5   5  226.98   13.60
   6  -5   5  249.58   17.90
  -6  -5  -5  185.58   19.10
   6   5  -5  252.77   14.80
  -6  -5   5  234.98   13.70
  -6   5  -5  214.08   17.50
   6  -5  -5  237.88   15.40
   6   5   5  178.98   20.30
   6   6  -5    5.80    4.80
  -6   6   5    7.50    4.80
   6  -6   5    0.70    5.00
  -6  -6  -5   -0.50    5.00
   6   6   5   -1.20    5.70
  -6  -6   5    5.20    4.90
  -6   6  -5   -9.80    3.60
   6  -6  -5    1.70    4.30
  -6  -7  -5  254.67   26.80
  -6   7   5  242.08   16.50
   6  -7   5  245.78   19.40
   6   7  -5  255.27   17.70
   6  -7  -5  249.08   16.70
  -6  -7   5  214.38   16.00
  -6   7  -5  224.68   19.30
   6   7   5  184.28   21.10
   6   8  -5    6.70    6.00
  -6   8   5   10.10    6.20
   6  -8  -5   -4.50    4.40
   6   8   5   16.20   10.00
  -6  -8   5    3.30    4.80
  -6   8  -5   -1.50    6.10
  -6   9   5  217.48   18.20
   6   9  -5  243.68   19.70
  -6  -9   5  208.28   29.60
   6   9   5  232.18   28.70
  -6   9  -5  229.58   26.20
   6  10  -5    9.00    7.90
  -6  10   5   21.40    8.70
  -6 -10   5   13.10    8.20
  -6  10  -5   -4.40    5.60
   6 -10  -5    9.20    7.20
   6  10   5   12.00   10.40
  -6  11   5  290.87   23.90
   6  11  -5  350.26   25.90
   6  11   5  336.27   29.10
  -6  11  -5  261.87   27.20
  -6  12   5    9.50    8.60
   6  12  -5   -2.20    8.00
   6  12   5   -2.30    8.40
  -6  12  -5   14.20    9.60
  -6  13   5   29.70   11.20
   6  13  -5   64.29   16.70
   6  13   5   36.40   14.00
  -6  13  -5   60.89   15.20
  -6  14   5   -4.00    7.70
   6  14  -5    5.70   11.60
  -6  14  -5   -1.30    8.40
   6  14   5   10.30   13.30
  -6   0  -6 1827.22   64.89
   6   0   6 1967.20   68.49
  -6  -1  -6  649.14   32.70
  -6   1  -6  710.93   34.70
  -6   1  -6  704.33   31.10
   6   1   6  663.23   34.40
  -6  -2  -6  406.16   24.90
  -6   2  -6  461.65   27.30
  -6   2  -6  448.16   23.80
   6   2   6  402.26   26.40
   6   3  -6  121.19    7.70
  -6   3   6  120.79    7.40
  -6  -3  -6  129.99   17.10
  -6   3  -6  117.19   14.70
   6   3   6  112.39   16.60
  -6  -3   6  115.69    7.00
   6  -3  -6  121.89    7.20
  -6   3  -6  105.49   15.90
  -6  -4  -6  807.32   37.80
  -6   4   6  873.71   28.50
   6   4  -6  847.62   28.60
  -6   4  -6  861.81   36.90
   6   4   6  840.12   40.20
  -6  -4   6  836.62   28.00
  -6   4  -6  857.31   41.10
   6  -4  -6  888.91   28.30
  -6  -5  -6  166.68   19.50
  -6   5   6  161.68   11.60
   6   5  -6  165.48   11.90
  -6   5  -6  160.68   17.50
  -6   5  -6  172.78   21.20
   6   5   6  189.48   22.50
  -6   6   6  259.17   16.00
  -6  -6  -6  211.28   23.60
   6   6  -6  246.88   16.10
   6  -6   6  264.87   20.10
  -6   6  -6  257.67   20.20
   6  -6  -6  246.28   15.40
  -6  -6   6  244.28   15.30
   6   6   6  266.87   22.80
   6   7  -6   61.59   10.70
   6  -7   6   42.10   13.50
  -6   7   6   69.19   11.20
  -6  -7  -6   61.49   20.60
   6   7   6   42.70   12.70
  -6   7  -6   69.59   13.90
  -6  -7   6   34.00    8.70
   6  -7  -6   63.19   10.30
   6   8  -6  155.58   17.50
  -6   8   6  127.79   15.60
   6  -8  -6  141.09   15.50
   6   8   6   95.99   17.60
  -6  -8   6  114.59   14.30
  -6   8  -6   96.49   14.90
  -6   9   6   24.70    9.40
   6   9  -6   23.00    8.30
   6   9   6   23.20   11.90
  -6   9  -6   27.10   10.00
  -6  10   6   69.99   14.30
   6  10  -6   72.99   14.20
  -6  10  -6   56.49   14.90
   6 -10  -6   56.69   12.50
   6  10   6   65.99   17.80
  -6 -10   6   36.30   11.80
  -6  11   6    4.30    7.80
   6  11  -6   24.80   11.20
  -6  11  -6    4.20    8.40
   6  11   6   16.00   10.80
   6  12  -6   64.49   15.50
  -6  12   6   70.29   15.40
   6  12   6   65.39   16.80
  -6  12  -6   67.69   14.90
   6  13  -6   11.30   10.40
  -6  13   6   13.00   11.20
   6  13   6   19.40   15.20
  -6  13  -6   19.60   10.70
   6   0   7   -4.60    5.60
  -6   0  -7   -2.00    5.20
  -6  -1  -7  978.20   42.80
  -6   1  -7  921.81   42.80
  -6   1  -7 1019.70   40.40
  -6  -2  -7  110.49   16.00
   6   2   7  100.19   17.20
  -6   2  -7  101.19   13.70
  -6   2  -7  103.89   16.90
   6   3  -7  405.66   15.00
  -6   3   7  410.86   15.00
   6  -3  -7  404.36   14.50
   6   3   7  477.75   29.50
  -6   3  -7  412.16   24.00
  -6  -3   7  407.86   14.40
  -6   4   7  100.69    9.40
  -6  -4  -7   82.99   15.80
   6   4  -7   97.09    9.20
  -6   4  -7   83.29   14.50
  -6   4  -7   98.59   17.50
   6  -4  -7   95.49    8.80
  -6  -4   7   80.79    7.80
   6   4   7   98.99   17.60
  -6   5   7   48.80    8.00
  -6  -5  -7   59.19   13.80
   6   5  -7   41.70    7.60
  -6   5  -7   44.20   10.80
   6   5   7   64.79   15.60
   6  -5  -7   53.89    9.40
  -6   5  -7   49.50   13.50
  -6   6   7    0.30    4.50
  -6  -6  -7    0.40    7.40
   6   6  -7   -5.70    3.70
   6   6   7   -5.80    6.60
   6  -6  -7    4.50    4.50
  -6   6  -7   -2.20    7.90
  -6  -6   7   -3.30    3.40
  -6   6  -7   10.50    7.80
  -6   7   7  140.99   15.00
   6   7  -7  131.19   14.80
  -6  -7   7  121.59   13.70
   6  -7  -7  118.29   13.40
   6   7   7  143.09   20.90
  -6   7  -7  100.59   16.30
  -6   8   7    7.20    5.70
   6   8  -7   14.60    7.10
   6   8   7   -5.10    7.00
   6  -8  -7   19.90    7.60
  -6  -8   7    5.40    6.30
  -6   8  -7   15.60    9.90
   6   9  -7  344.17   23.10
  -6   9   7  330.27   22.80
  -6   9  -7  321.87   25.70
  -6  -9   7  290.17   24.40
   6   9   7  352.26   29.20
   6  10  -7   39.00   10.80
  -6  10   7   34.90   11.70
  -6  10  -7   31.00   11.60
  -6 -10   7   15.10    8.70
   6  10   7   17.20   11.70
   6 -10  -7   17.50    9.10
   6  11  -7  129.19   20.60
  -6  11   7   83.19   15.20
  -6  11  -7   85.29   17.30
   6  11   7  108.29   21.90
  -6  12   7    8.20    9.40
   6  12  -7    2.40    9.10
   6  12   7   -1.10   11.60
  -6  12  -7    5.90    9.30
  -6  13   7   62.89   14.80
   6  13  -7   87.19   18.10
   6  13   7   68.49   18.20
  -6  13  -7   57.59   17.00
  -6   0  -8  619.24   34.40
   6   0   8  696.83   37.80
  -6  -1  -8  105.19   17.00
   6   1   8  149.99   21.20
  -6   1  -8  150.38   21.00
  -6   1  -8   97.19   13.80
  -6  -2  -8   41.40   10.00
  -6   2  -8   38.20   10.30
  -6   2  -8   33.10    8.50
  -6  -3  -8  219.78   23.30
   6   3  -8  227.08    9.90
   6   3  -8  219.48   10.70
  -6   3   8  219.18   10.10
   6   3   8  211.08   25.50
   6  -3  -8  215.78    9.30
  -6   3  -8  214.78   18.30
  -6   3  -8  275.47   29.60
   6   4  -8  328.87   14.80
  -6   4   8  349.37   15.50
  -6  -4  -8  312.87   23.90
  -6  -4   8  328.87   14.20
  -6   4  -8  345.67   23.20
  -6   4  -8  321.57   25.80
   6  -4  -8  298.37   14.00
   6   4   8  341.77   27.00
   6   5  -8  117.59   11.80
  -6  -5  -8  138.79   23.30
  -6   5   8  121.89   10.50
   6   5   8  150.38   23.80
  -6   5  -8  116.79   25.80
   6  -5  -8  138.79   14.10
  -6   5  -8  125.39   17.40
  -6   6   8   37.10    8.10
   6   6  -8   23.60    7.20
   6  -6  -8   31.10    7.10
  -6   6  -8   36.90   10.20
   6   6   8   34.50   11.40
  -6  -6   8   18.70    6.30
   6   7  -8   33.50    8.80
  -6   7   8   19.60    6.70
  -6  -7   8   12.60    7.00
   6   7   8   34.80   14.10
  -6   7  -8   14.20    7.90
   6  -7  -8   18.70    6.80
   6   8  -8  269.37   19.10
  -6   8   8  269.17   19.30
  -6   8  -8  279.47   30.30
   6  -8  -8  233.58   18.00
   6   8   8  231.68   27.30
  -6  -8   8  278.37   18.80
   6   9  -8  198.08   20.70
  -6   9   8  163.38   18.40
  -6   9  -8  163.38   29.50
   6  -9  -8  199.68   23.70
   6   9   8  199.08   40.10
  -6  -9   8  160.88   18.60
  -6  10   8    0.80    6.40
   6  10  -8    4.00    7.90
  -6  10  -8    3.40    8.40
  -6 -10   8    7.90    8.30
   6  10   8    7.20    9.60
   6 -10  -8    6.60    7.80
  -6  11   8  129.89   19.30
   6  11  -8  150.28   21.50
   6  11   8  134.99   22.50
  -6  11  -8  140.79   24.50
   6  12  -8   68.69   15.20
  -6  12   8  125.99   19.00
   6  12   8  149.19   27.50
  -6  12  -8   81.39   16.90
  -6   0  -9   -4.70    6.90
   6   0   9    1.00    7.00
  -6  -1  -9  156.78   19.40
  -6   1  -9  179.58   18.50
   6   1   9  162.28   22.30
  -6   1  -9  189.98   23.80
  -6  -2  -9  125.29   20.30
  -6   2  -9   91.59   17.60
   6   2   9  118.89   18.00
  -6   2  -9   97.49   15.10
  -6  -3  -9  224.68   23.30
  -6   3   9  187.48    9.50
   6   3  -9  199.88   10.00
   6   3  -9  215.08    9.30
  -6   3  -9  229.48   26.50
  -6   3  -9  233.18   19.10
   6   3   9  220.38   24.50
   6  -3  -9  178.58    8.50
   6   4  -9    6.40    3.80
  -6   4   9    8.50    4.60
   6   4   9    9.60    8.90
  -6   4  -9    4.20    6.40
   6  -4  -9    4.60    3.40
  -6   5   9    2.30    4.40
   6   5  -9    6.70    4.60
   6   5   9    3.10    9.70
  -6   5  -9    1.60    6.10
   6  -5  -9   12.80    6.40
  -6   6   9   31.20    7.50
   6   6  -9   19.40    7.00
  -6   6  -9    2.60    6.40
   6   6   9   16.60   10.40
  -6  -6   9   14.10    5.50
   6  -6  -9   15.40    6.00
   6   7  -9   10.90    7.90
  -6   7   9    9.50    6.20
  -6   7  -9   26.30    9.70
   6  -7  -9    1.70    4.90
   6   7   9   29.50   12.00
  -6  -7   9    0.90    5.60
  -6   8   9   14.20    8.20
   6   8  -9    4.90    6.90
  -6  -8   9    7.50    6.90
  -6   8  -9   -0.10   14.20
   6  -8  -9    2.70    6.40
   6   8   9    7.10   12.90
   6   9  -9   43.20   11.50
  -6   9   9   36.20    9.70
   6  -9  -9   13.40    8.10
   6   9   9   23.50   12.00
  -6   9  -9   48.70   13.90
  -6  -9   9   14.10    8.40
  -6  10   9    7.80    7.60
   6  10  -9   14.10    9.50
   6 -10  -9   11.70    9.40
  -6 -10   9    9.90    9.20
  -6  10  -9    8.20    8.50
   6  10   9    3.30   10.00
   6  11  -9   41.20   13.20
  -6  11   9   35.10   13.00
  -6  11  -9   34.40   13.10
   6  11   9   29.70   13.80
  -6  12   9    6.30   10.10
   6  12  -9  -13.10   14.10
  -6  12  -9    1.10    8.40
   6  12   9   15.20   14.50
   6   0  10  182.88   25.10
  -6   0 -10  186.68   19.70
  -6   1 -10   23.80    9.10
   6   1  10   11.20    9.20
   6   2  10   31.20   14.20
  -6   2 -10   52.29   12.80
   6   3 -10   77.59    6.00
   6   3 -10   91.69    6.90
   6   3  10  105.19   19.50
   6  -3 -10   78.89    5.70
  -6   3 -10  108.29   16.90
   6   4 -10  246.28   14.00
   6   4 -10  223.78   12.10
  -6   4  10  244.18   13.70
   6  -4 -10  245.88   12.10
  -6   4 -10  273.07   22.30
   6   4  10  259.27   31.10
  -6   5  10   91.49   11.20
   6   5 -10   96.29   10.50
  -6   5 -10   85.29   15.20
   6   5  10  108.19   22.30
   6   6 -10   18.70    6.30
  -6   6  10   31.80    8.00
   6   6  10   33.90   15.60
  -6  -6  10   28.50    7.10
  -6   6 -10   32.20   10.80
   6  -6 -10   19.50    6.50
  -6   7  10  107.69   14.50
  -6  -7  10  125.89   14.10
   6  -7 -10  114.99   13.70
  -6   7 -10  129.89   29.30
   6   7  10  103.19   24.80
   6   8 -10  412.36   23.60
  -6   8  10  463.25   25.60
  -6   8 -10  395.36   30.10
   6  -8 -10  380.76   23.00
  -6  -8  10  447.66   23.80
   6   8  10  366.16   32.60
  -6   9  10   30.30   10.10
   6   9 -10   50.69   11.60
  -6  -9  10   30.80    9.90
   6   9  10   48.00   15.80
   6  -9 -10   23.80    9.30
  -6   9 -10   60.29   15.20
  -6  10  10    0.90    7.00
   6  10 -10    7.30    9.00
  -6  10 -10    6.30    9.10
   6  10  10    3.30   11.80
   6  11 -10    7.70    9.30
  -6  11  10   38.10   12.10
  -6  11 -10    6.80   10.30
   6  11  10   20.50   13.90
  -6   0 -11    7.20    7.30
   6   1  11   -3.10    6.80
  -6   1 -11   13.60    8.30
   6   2  11   -2.20    9.20
  -6   2 -11   -5.60    5.70
   6   3 -11   26.00    4.60
   6   3 -11   24.20    4.20
  -6   3 -11   29.20    9.60
   6   3  11    7.30   10.50
   6  -3 -11   17.40    3.60
   6  -3 -11   17.90    3.40
   6   4 -11   -1.00    4.70
  -6   4  11   -0.50    4.20
   6   4 -11    5.70    4.00
  -6   4 -11   -3.30    6.50
   6   4  11   -3.80    8.30
   6  -4 -11    5.30    4.00
  -6   5  11    5.00    5.60
   6   5 -11    2.20    4.20
  -6   5 -11    1.30    6.60
   6   5  11    4.40   11.80
  -6   6  11   11.20    6.80
   6   6 -11    2.40    6.70
   6   6 -11   -0.80    5.00
   6  -6 -11   -0.40    4.80
  -6   6 -11   13.20   10.30
   6   7 -11   24.20   12.20
  -6   7  11    4.60    7.70
  -6  -7  11    1.70    5.70
   6   7  11   28.90   13.90
  -6   7 -11   17.30    9.80
   6  -7 -11   13.50    7.00
  -6   8  11    0.40    6.70
   6   8 -11    6.10    6.80
   6   8  11   10.50   10.90
   6  -8 -11    7.30    7.00
  -6  -8  11    5.70    6.90
  -6   8 -11   -2.40    6.90
  -6   9  11    1.80    7.80
   6   9 -11    7.20    7.80
  -6  -9  11    5.40    7.50
   6  -9 -11    7.10    8.00
   6   9  11   19.80   15.20
  -6   9 -11   15.70    9.70
  -6  10  11   -0.80    8.40
   6  10 -11   -4.20    7.20
  -6  10 -11    5.50    9.00
   6  10  11    8.30   12.90
  -6   0 -12  491.65   31.00
  -6   1 -12   74.09   14.60
   6   1  12   70.89   17.40
   6   2  12   56.39   16.70
  -6   2 -12   67.09   14.70
   6   3 -12   69.49    5.80
   6   3 -12   64.39    6.10
  -6   3 -12   55.29   12.60
   6  -3 -12   68.09    5.40
   6   3  12   48.10   17.20
   6  -3 -12   64.99    5.40
   6   4 -12  837.22   28.00
   6   4 -12  875.61   30.00
   6  -4 -12  868.21   28.00
   6   4  12  936.81   62.39
  -6   5  12   21.80    7.50
   6   5 -12   38.80    7.90
   6   5  12   36.70   14.90
  -6   5 -12   25.20   10.60
  -6   6  12    5.90    6.60
   6   6 -12   -3.30    6.70
   6   6 -12   10.80    6.10
  -6   6 -12   14.50    9.30
   6  -6 -12    6.10    5.70
   6   6  12    3.80   11.70
   6   7 -12   48.70   10.40
   6   7 -12   49.30   12.70
  -6   7 -12   50.79   15.30
   6   7  12   45.90   17.40
   6  -7 -12   46.50    9.90
  -6   8  12  264.57   21.30
   6   8 -12  296.17   20.20
   6  -8 -12  276.37   20.40
  -6   8 -12  258.37   28.80
   6   8  12  238.08   34.50
  -6   9  12   15.80    9.70
   6   9 -12   14.30    8.80
   6  -9 -12   17.80    9.20
   6   9  12   18.80   13.50
  -6   9 -12    5.80    8.90
  -6  -9  12   18.30   10.00
  -6   0 -13   -3.00   11.60
  -6  -1 -13   37.10   12.80
  -6   1 -13   32.50   13.00
  -6   2 -13   14.80    8.70
   6   2  13   22.40   12.80
  -6   3 -13   15.50    9.80
   6   3  13   22.70   13.40
   6   4 -13    7.20    4.60
   6   4 -13    7.00    4.60
   6  -4 -13   13.10    4.40
  -6   4 -13   -8.20    7.50
   6  -4 -13    4.80    4.20
   6   4  13    3.60   10.90
  -6   5  13   75.79   11.00
   6   5 -13   51.59    8.20
   6   5  13   42.90   15.90
  -6   5 -13   49.30   14.20
   6   6 -13    7.60    8.20
   6   6 -13    1.20    5.30
  -6   6  13    3.20    7.20
   6  -6 -13   12.20    6.80
  -6   6 -13    5.40    9.70
   6   6  13    1.50   11.10
   6   7 -13   23.50   11.10
   6   7 -13    7.40    6.90
   6   7  13   14.20   14.00
  -6   7 -13   17.20   11.60
   6  -7 -13   29.50    8.90
  -6   8  13    1.70    8.10
   6   8 -13   11.90    7.50
   6   8 -13    0.60   10.30
  -6   8 -13    2.40   10.60
   6   8  13   13.80   14.90
   6  -8 -13   -0.90    7.30
  -6   0 -14  174.38   22.80
  -6  -1 -14   63.39   15.80
  -6   1 -14   65.89   16.30
  -6   2 -14   37.00   12.90
   6   2  14    5.60   13.00
   6   3  14   27.90   15.00
  -6   3 -14   18.80   10.70
   6   4 -14  318.27   14.90
   6   4 -14  299.07   13.60
   6   4  14  311.07   37.20
   6  -4 -14  318.87   13.70
   6  -4 -14  301.07   13.10
  -6   4 -14  314.67   27.20
   6   5 -14   18.30    5.90
  -6   5 -14   13.80   10.60
   6   5  14   16.80   14.20
   6   6 -14   14.80    8.40
  -6   6  14   -0.90    6.80
   6   6 -14   -1.20    5.20
   6   6  14    1.30   11.40
  -6   6 -14    3.40    9.80
   6  -6 -14    8.70    6.50
  -6   0 -15   -1.70    7.90
  -6  -1 -15   42.80   13.50
  -6   1 -15   52.59   14.20
  -6  -2 -15    1.30    8.30
  -6   2 -15    8.30    9.90
  -6   3 -15   30.70   12.40
   6   3  15   52.69   18.50
  -7   0   0    5.20    5.20
   7   0   0    3.50    4.70
  -7   1   0    2.70    3.40
   7   1   0   12.20    6.10
  -7   2   0    1.20    4.40
   7   2   0    1.70    4.50
  -7  -2   0    3.50    4.20
  -7   2   0   -1.50    3.10
   7   3   0    4.70    4.80
  -7  -3   0    9.40    5.20
  -7   3   0   11.40    6.00
  -7   3   0    5.40    4.30
  -7  -4   0    1.60    3.90
   7   4   0   -0.20    4.70
  -7   4   0    4.30    4.20
   7  -4   0   -0.40    3.40
  -7  -5   0   10.40    6.00
  -7   5   0    7.80    5.60
   7   5   0    3.80    6.10
   7  -5   0    9.60    5.20
  -7  -6   0   -1.30    4.90
  -7   6   0    0.80    4.50
   7  -6   0    0.10    4.20
   7   6   0    0.40    6.00
  -7   7   0   -2.00    5.20
   7  -7   0    5.90    5.20
   7   7   0   -5.90    4.40
  -7  -7   0    4.30    5.10
  -7  -8   0   -3.10    4.80
   7  -8   0    4.90    5.50
   7   8   0   -3.00    5.40
  -7   8   0   15.60    8.10
   7  -9   0   -3.80    4.60
  -7   9   0    5.80    6.90
   7   9   0    3.00    8.40
  -7  -9   0   13.00    8.40
   7  10   0   -9.60    5.60
  -7  10   0    4.50    7.40
   7  11   0    3.90   10.00
  -7  11   0   -0.10    8.40
   7  12   0    2.90   10.40
  -7  12   0   -7.60   13.30
   7  13   0   -7.80    8.60
  -7  13   0   -3.10    8.70
  -7  14   0    6.00   10.30
   7  14   0   -1.90    9.00
   7   0  -1  144.09   11.80
  -7   0  -1  155.18   12.80
   7   0   1  168.58   17.90
  -7   0   1  135.59   10.70
  -7   1   1    5.40    3.30
  -7  -1  -1    7.90    5.20
   7   1  -1    3.20    4.20
  -7   1   1    4.00    4.10
  -7   1  -1    2.70    4.40
   7   1   1    9.60    6.10
  -7  -1   1    6.70    4.10
  -7   1  -1    5.10    3.70
  -7   2   1 2100.09   63.69
   7   2  -1 2089.09   62.89
  -7  -2  -1 2125.89   64.99
  -7   2   1 2202.98   60.79
  -7   2  -1 2108.39   66.79
   7   2   1 2138.79   66.69
  -7  -2   1 2084.29   61.39
  -7   2  -1 2161.38   63.09
  -7  -3  -1  162.48   13.50
   7   3  -1  186.58   13.60
  -7   3   1  168.68   11.70
  -7   3  -1  177.08   13.00
   7   3   1  175.08   16.90
   7  -3  -1  178.28   11.70
  -7  -3   1  158.58   12.10
  -7   3  -1  180.98   15.30
  -7   4   1   74.39   10.40
   7  -4   1   98.39   12.30
  -7  -4  -1  102.39   14.00
   7   4  -1   74.59   11.00
  -7  -4   1   77.69   10.60
   7   4   1   91.79   13.80
   7  -4  -1   80.99   10.40
  -7   4  -1   96.29   12.70
  -7   5   1   23.00    6.50
   7   5  -1   29.80    7.80
   7  -5   1   28.20    7.70
  -7  -5  -1   37.80   10.00
  -7  -5   1   24.30    6.80
   7  -5  -1   21.40    6.70
   7  -6   1 1618.14   53.99
  -7   6   1 1592.94   56.49
   7   6  -1 1427.76   66.99
  -7  -6  -1 1577.94   55.19
   7  -6  -1 1576.34   52.29
  -7   6  -1 1672.23   55.39
  -7  -6   1 1628.04   53.59
   7   6   1 1523.45   56.09
  -7  -7  -1  121.99   15.90
   7  -7   1  149.99   15.90
   7   7  -1  145.89   16.70
  -7   7   1  157.28   17.40
   7   7   1  123.39   16.10
   7  -7  -1  125.79   14.00
  -7   7  -1  168.38   18.10
  -7  -7   1  144.99   17.60
   7   8  -1    4.90    7.40
   7  -8   1   10.90    6.60
  -7  -8  -1   16.30    8.30
  -7   8   1   12.80    7.70
   7   8   1   18.60    8.80
  -7   8  -1   20.20    8.50
   7  -8  -1   14.90    6.80
  -7  -8   1    8.40    8.80
   7  -9   1  106.29   14.60
  -7   9   1   95.19   14.10
  -7  -9  -1   97.89   15.50
   7   9  -1   95.49   14.90
  -7   9  -1   83.19   14.20
   7  -9  -1   80.99   13.30
  -7  -9   1   96.89   14.30
   7   9   1  120.09   17.10
   7  10  -1  457.35   29.40
  -7  10   1  439.56   27.70
   7  10   1  436.36   29.70
  -7  10  -1  360.66   26.30
   7  11  -1  128.39   19.20
  -7  11   1  129.49   19.10
   7  11   1  117.09   20.00
  -7  11  -1  123.19   18.00
  -7  12   1   -3.70    7.90
   7  12  -1   -1.70   13.70
   7  12   1   -1.90   10.70
  -7  12  -1   16.30   11.10
  -7  13   1   19.10   10.00
   7  13  -1    5.60    9.70
   7  13   1   10.30   10.00
  -7  13  -1   26.30   13.20
   7  14  -1  365.56   32.00
  -7  14   1  229.88   27.00
  -7  14  -1  364.86   30.20
   7  14   1  288.57   30.50
  -7   0   2    3.40    3.20
  -7   0  -2    2.70    4.50
   7   0   2   -4.00    4.70
  -7   0   2    0.20    2.40
   7   1  -2   39.20    7.20
  -7  -1  -2   61.29   10.90
  -7   1   2   45.50    7.30
  -7   1   2   52.89    6.50
  -7  -1   2   47.30    6.90
  -7   1  -2   57.59    9.60
  -7   1  -2   31.50    8.30
   7   1   2   52.39   10.40
  -7  -2  -2  144.99   14.90
  -7   2   2  106.89   11.30
  -7   2   2  122.29    8.70
   7   2  -2  119.19   10.00
  -7   2  -2  112.39   13.90
  -7  -2   2  104.99   10.20
  -7   2  -2  126.79   11.10
   7   2   2  132.19   16.70
  -7  -3  -2   41.40    8.50
  -7   3   2   49.50    7.10
   7   3  -2   49.30    8.10
   7  -3  -2   45.80    6.70
  -7   3  -2   50.69   10.50
   7   3   2   39.70   10.30
  -7  -3   2   50.39    7.60
  -7   3  -2   45.70    8.30
   7   4  -2  280.27   16.60
  -7   4   2  272.47   15.00
   7  -4   2  295.77   17.90
  -7  -4  -2  293.97   19.00
  -7  -4   2  270.07   15.10
   7   4   2  296.47   23.40
  -7   4  -2  269.97   17.60
   7  -4  -2  258.97   14.40
   7  -5   2  139.59   14.90
   7   5  -2  138.19   14.30
  -7  -5  -2   96.89   13.10
  -7   5   2  136.19   11.60
  -7  -5   2  129.59   13.50
   7  -5  -2  133.49   11.10
  -7   5  -2  117.79   13.60
   7   5   2  144.99   17.40
   7   6  -2   73.09   11.60
  -7  -6  -2   50.09   10.70
   7  -6   2   25.90    8.60
  -7   6   2   53.49    9.60
   7  -6  -2   34.30    7.80
   7   6   2   51.49   11.90
  -7   6  -2   47.70   10.40
  -7  -6   2   46.50    9.40
   7  -7   2   50.59   12.00
  -7  -7  -2   70.09   14.30
  -7   7   2   58.79   11.40
   7   7  -2   57.49   10.80
  -7   7  -2   41.30    9.40
  -7  -7   2   53.49   10.60
   7  -7  -2   71.49   10.70
   7   7   2   47.00   11.50
   7   8  -2   53.49   11.30
  -7   8   2   52.79   10.60
  -7  -8  -2   58.19   11.40
   7  -8   2   33.40    9.50
  -7   8  -2   59.59   11.40
  -7  -8   2   69.89   12.20
   7   8   2   51.19   12.20
   7  -8  -2   63.39   11.00
   7   9  -2  144.09   17.70
  -7   9   2  153.78   18.70
  -7   9  -2  123.89   18.60
   7   9   2  148.19   20.50
  -7  -9   2  149.79   18.20
   7  -9  -2  107.29   14.40
   7  10  -2    1.70    7.60
  -7  10   2    8.50    6.90
   7  10   2   -1.80    7.10
  -7  10  -2   -0.50    6.00
  -7  11   2    0.60    6.60
   7  11  -2    3.60    6.80
  -7  11  -2    5.00    7.50
   7  11   2    8.50    9.80
  -7  12   2   11.90    8.60
   7  12  -2   -3.80    7.00
   7  12   2    2.30   11.50
  -7  12  -2   28.50   11.00
   7  13  -2   79.69   17.40
  -7  13   2  105.99   18.40
   7  13   2   43.00   15.50
  -7  13  -2   82.59   18.60
   7  14  -2   -2.90    9.70
  -7  14   2   14.00   11.10
   7  14   2   21.10   13.80
  -7  14  -2    9.50   11.00
  -7   0   3  265.27   10.80
   7   0   3  258.67   19.50
  -7   0   3  255.37   11.70
  -7   0  -3  275.67   18.80
  -7   1   3   13.50    4.20
  -7  -1  -3   20.10    8.20
  -7   1   3   17.10    3.80
   7   1  -3    7.80    4.00
  -7  -1   3   15.60    4.00
  -7   1  -3   17.30    6.70
   7   1   3   22.10    8.20
  -7   1  -3   10.30    6.10
  -7   2   3  805.02   25.70
  -7  -2  -3  796.52   34.00
   7   2  -3  788.32   27.10
  -7   2   3  804.52   27.80
  -7  -2   3  775.12   25.80
  -7   2  -3  769.62   31.50
  -7   2  -3  784.32   35.10
   7   2   3  817.82   35.90
  -7  -3  -3   56.69   10.80
  -7   3   3   34.50    6.10
   7   3  -3   39.00    7.00
  -7   3  -3   32.20    9.60
  -7  -3   3   49.00    7.00
   7  -3  -3   44.00    6.40
   7   4  -3   45.70    8.20
  -7   4   3   38.00    6.90
  -7  -4  -3   35.00    8.30
  -7   4  -3   43.30    8.60
   7   4   3   49.90   11.10
  -7   4  -3   48.90   11.20
  -7  -5  -3    7.50    5.90
  -7   5   3    2.50    4.00
   7   5  -3   -4.50    3.70
   7  -5   3    2.50    4.60
  -7  -5   3    4.90    4.40
   7   5   3    2.00    6.30
  -7   5  -3    6.90    5.30
   7  -5  -3    4.90    3.80
   7  -6   3 1273.67   46.60
  -7   6   3 1261.67   43.00
  -7  -6  -3 1192.38   48.00
   7   6  -3 1211.28   43.60
  -7   6  -3 1181.68   46.50
   7  -6  -3 1228.98   41.80
   7   6   3 1203.98   49.20
  -7  -6   3 1164.18   42.00
   7  -7   3   15.70    7.10
  -7   7   3   50.29   10.10
   7   7  -3   28.10    8.50
  -7  -7  -3   38.00   10.10
   7   7   3   38.70   10.70
  -7   7  -3   27.50    9.40
   7  -7  -3   20.30    7.20
  -7  -7   3   33.20    8.80
   7  -8   3   43.20   11.10
  -7  -8  -3   60.69   12.60
  -7   8   3   56.29   10.80
   7   8  -3   51.59   12.10
   7  -8  -3   53.69   10.90
  -7   8  -3   42.70   10.60
   7   8   3   90.39   17.10
  -7  -8   3   68.49   12.10
  -7   9   3    6.80    6.40
   7   9  -3    9.30    7.80
   7   9   3    2.80    8.60
   7  -9  -3    9.60    6.30
  -7   9  -3    7.00    6.60
  -7  -9   3    3.70    6.60
   7  10  -3  351.76   25.30
  -7  10   3  334.37   23.50
   7  10   3  344.67   28.00
  -7  10  -3  346.97   26.10
  -7 -10   3  374.96   30.20
   7 -10  -3  339.07   24.90
  -7  11   3   13.30    9.70
   7  11  -3   10.30    8.60
  -7  11  -3   19.40   16.30
   7  12  -3   23.40   11.30
  -7  12   3   18.70    9.50
   7  12   3   51.89   16.60
  -7  12  -3   27.90   11.20
  -7  13   3   -7.30    7.60
   7  13  -3    7.60   12.40
  -7  13  -3   -6.90    8.30
   7  13   3   -4.70   10.70
   7  14  -3  208.48   29.60
  -7  14   3  174.88   25.60
  -7  14  -3  188.48   25.10
   7  14   3  150.48   23.40
  -7   0  -4    8.50    5.80
  -7   0   4    1.20    2.00
  -7   0   4    2.30    1.80
  -7   1   4  331.37   11.10
  -7   1   4  301.57   11.70
  -7  -1  -4  270.47   19.40
   7   1   4  371.06   42.20
  -7   1  -4  288.27   20.50
  -7  -1   4  304.57   11.00
  -7   2   4   -3.10    3.00
  -7  -2  -4    7.10    5.50
  -7   2   4   -1.50    2.30
   7   2  -4   -0.20    3.00
  -7   2  -4    2.60    4.10
   7   2   4   17.80    8.00
  -7  -2   4   -0.10    2.50
  -7   2  -4    0.40    4.90
   7   3  -4  276.87   14.00
  -7  -3  -4  282.47   19.90
  -7   3   4  315.77   13.50
   7  -3  -4  281.77   12.70
  -7   3  -4  237.18   20.00
  -7  -3   4  295.87   13.10
  -7   3  -4  324.47   19.30
   7   3   4  279.47   21.00
  -7   4   4    0.90    3.60
  -7  -4  -4   -0.10    5.10
   7   4  -4   -0.20    3.70
  -7   4  -4   12.20    7.20
   7  -4  -4    3.70    3.50
  -7   4  -4    1.00    4.40
   7   4   4   -8.90    5.40
  -7  -4   4    2.50    3.70
  -7  -5  -4  210.98   18.10
   7   5  -4  240.88   15.10
  -7   5   4  207.98   13.50
   7  -5   4  236.18   17.80
   7  -5  -4  237.38   13.90
  -7   5  -4  222.18   17.60
   7   5   4  229.48   20.00
  -7  -5   4  230.28   14.00
  -7  -6  -4   28.50    9.90
  -7   6   4   12.50    5.50
   7  -6   4    9.20    6.60
   7   6  -4   22.50    6.60
  -7   6  -4   13.10    7.20
   7   6   4   27.10   11.30
   7  -6  -4   17.80    5.90
  -7  -6   4   16.60    6.20
  -7  -7  -4  262.57   21.80
   7  -7   4  344.77   22.60
   7   7  -4  316.77   37.10
  -7   7  -4  307.77   22.30
  -7  -7   4  324.07   19.40
   7   7   4  328.17   25.20
   7  -7  -4  314.07   18.80
   7   8  -4   -0.10    6.20
  -7   8   4   -4.80    4.10
  -7   8  -4   -2.00    5.80
   7   8   4   -2.10    7.50
  -7  -8   4   -4.20    4.50
   7  -8  -4    2.10    5.50
  -7   9   4  104.89   14.40
   7   9  -4  102.69   16.00
   7   9   4   80.19   16.90
  -7   9  -4   75.59   15.10
  -7  -9   4  132.49   16.70
   7  -9  -4  129.59   16.30
   7  10  -4   -2.70    7.20
  -7  10   4   -1.80    5.60
   7  10   4   -0.30    9.10
  -7  10  -4   -2.60    7.20
  -7 -10   4   -0.20    6.40
   7 -10  -4    5.40    6.50
   7  11  -4  175.68   21.10
  -7  11   4  223.78   23.60
  -7  11  -4  210.58   28.70
   7  11   4  195.88   27.20
  -7  12   4    6.80    9.50
   7  12  -4    3.80    9.00
   7  12   4    1.00    9.60
  -7  12  -4    0.90    7.20
  -7  13   4   57.29   14.80
   7  13  -4   51.39   14.40
  -7  13  -4   62.69   16.80
   7  13   4   41.70   16.80
   7  14  -4   -4.50    9.60
  -7  14   4   -7.00    7.80
  -7  14  -4  -12.00    7.10
   7  14   4   -8.80    8.70
  -7   0  -5   75.89   14.10
   7   0   5   79.49   14.80
  -7  -1  -5    1.60    4.40
   7   1   5   15.50    8.80
  -7   1  -5    2.40    6.00
  -7   1  -5   10.40    6.00
   7   2  -5  120.69    7.50
  -7  -2  -5  115.09   14.70
  -7   2   5  136.79    7.50
  -7   2   5  161.28    6.90
  -7   2  -5  123.59   13.90
   7   2   5  162.48   21.00
  -7  -2   5  144.29    6.70
  -7   2  -5  159.18   21.10
  -7  -3  -5   -0.60    5.20
  -7   3   5   13.00    3.50
   7   3  -5    7.00    3.80
   7   3   5    5.10    7.20
  -7   3  -5   11.30    8.20
  -7  -3   5   10.80    3.10
   7  -3  -5    9.30    3.10
  -7   3  -5    6.90    5.00
  -7  -4  -5  466.75   27.50
   7   4  -5  487.95   20.40
  -7   4   5  521.05   19.70
   7   4   5  510.35   29.90
   7  -4  -5  538.75   19.70
  -7   4  -5  451.55   29.40
  -7   4  -5  507.55   26.90
  -7  -4   5  487.25   19.50
  -7   5   5   21.70    5.60
  -7  -5  -5   14.30    8.00
   7   5  -5   21.80    6.00
  -7   5  -5   40.50   10.10
  -7  -5   5   19.10    5.50
   7   5   5   20.30   10.00
  -7   5  -5   16.40    8.90
   7  -5  -5   22.30    5.60
  -7   6   5  341.07   18.50
   7  -6   5  384.86   24.00
   7   6  -5  404.66   20.60
  -7  -6  -5  393.56   25.80
  -7   6  -5  370.66   24.00
  -7  -6   5  355.46   18.80
   7  -6  -5  348.17   18.50
   7   6   5  368.06   26.70
   7  -7   5    3.20    6.10
  -7   7   5    0.40    4.50
  -7  -7  -5    9.20   12.30
   7   7  -5   -5.00    5.30
   7  -7  -5    4.20    4.90
  -7  -7   5    1.20    4.80
   7   7   5   -1.20    5.70
  -7   7  -5    1.10    7.20
  -7   8   5    9.80    6.90
   7   8  -5   11.80    7.20
  -7   8  -5   25.00    9.90
  -7  -8   5    3.70    5.60
   7   8   5   31.90   12.60
   7  -8  -5   12.60    6.30
  -7   9   5    5.20    5.90
   7   9  -5    3.00    6.10
   7  -9  -5    5.20    6.60
  -7   9  -5   -1.80    6.20
  -7  -9   5   -1.40    5.90
   7   9   5   -5.00    7.00
  -7  10   5  199.48   20.60
   7  10  -5  164.38   20.00
  -7 -10   5  175.28   21.10
  -7  10  -5  169.88   23.90
   7 -10  -5  149.99   18.60
   7  10   5  158.28   26.40
   7  11  -5   19.20   10.20
  -7  11   5   33.10   10.60
   7  11   5   17.70   11.60
  -7  11  -5   21.90   11.10
   7  12  -5   89.59   16.50
  -7  12   5   88.29   15.60
  -7  12  -5   56.49   13.80
   7  12   5   67.39   17.00
  -7  13   5   -2.00    7.80
   7  13  -5   -8.90    7.70
   7  13   5   -6.00    9.30
  -7  13  -5   -3.00    8.00
   7   0   6    5.80    7.60
  -7   0  -6    2.80    6.20
  -7  -1  -6  985.70   43.00
  -7   1  -6  958.30   39.80
  -7   1  -6  982.50   43.70
   7   1   6  990.80   45.30
  -7  -2  -6  160.58   19.60
  -7   2  -6  193.88   23.30
   7   2   6  123.49   18.70
  -7   2  -6  147.19   17.70
  -7   3   6  415.86   14.40
   7   3  -6  388.26   15.10
   7  -3  -6  401.56   14.20
   7   3   6  377.36   27.00
  -7  -3   6  380.96   14.10
  -7   3  -6  389.46   23.40
  -7   4   6   45.90    6.30
  -7  -4  -6   25.50    9.20
   7   4  -6   39.90    6.80
  -7   4  -6   46.30   10.20
  -7   4  -6   27.30    9.90
  -7  -4   6   49.00    6.60
   7  -4  -6   34.30    5.70
   7   4   6   49.30   11.60
  -7   5   6   89.59   10.20
   7   5  -6  103.69   11.30
  -7  -5  -6   81.59   13.90
   7   5   6   72.89   14.00
  -7   5  -6   99.59   14.10
  -7   5  -6   90.59   15.80
   7  -5  -6  120.49   16.60
  -7  -6  -6    7.60    6.70
  -7   6   6   10.80    5.40
   7   6  -6   17.30    6.30
  -7   6  -6    3.10    7.70
  -7  -6   6    7.70    5.10
  -7   6  -6   14.60    6.90
   7   6   6    8.80    9.30
   7  -6  -6   12.30    5.00
  -7   7   6   96.49   12.50
   7   7  -6   49.30    9.90
   7   7   6   56.69   14.10
  -7   7  -6   65.19   14.50
   7  -7  -6   64.39   10.00
  -7  -7   6   66.49   10.70
  -7   8   6    5.90    5.70
   7   8  -6   24.40    7.90
  -7  -8   6   19.10    7.60
   7  -8  -6   12.70    6.80
   7   8   6   20.80   10.60
  -7   8  -6    6.30    6.80
  -7   9   6  418.46   25.30
   7   9  -6  407.86   25.60
  -7  -9   6  395.06   28.40
  -7  10   6   -0.50    7.00
   7  10  -6  -10.80    5.10
   7 -10  -6   -4.10    5.50
  -7  10  -6    4.70   10.20
   7  10   6   -0.50    9.90
  -7 -10   6   -1.50    7.40
   7  11  -6  215.68   23.90
  -7  11   6  258.07   22.60
  -7  11  -6  248.98   30.40
   7  11   6  207.88   28.80
   7  12  -6    0.30    7.90
  -7  12   6   -3.30    8.00
  -7  12  -6    4.70    8.20
   7  12   6   -5.80    9.50
   7  13  -6    6.70    9.30
  -7  13   6   21.10   11.40
   7  13   6    9.20   11.60
  -7  13  -6   16.90   11.00
  -7   0  -7 1868.81   69.09
   7   0   7 2012.60   73.09
  -7  -1  -7   35.10   10.50
  -7   1  -7   28.60   11.20
   7   1   7   44.50   13.40
  -7   1  -7   45.70   10.80
  -7  -2  -7  497.35   29.40
   7   2   7  438.96   30.10
  -7   2  -7  475.55   29.90
  -7   2  -7  420.76   25.40
  -7  -3  -7   72.99   14.40
  -7   3   7   61.19    4.90
   7   3  -7   60.89    5.30
  -7  -3   7   49.50    4.10
   7  -3  -7   54.79    4.30
  -7   3  -7   52.59   11.00
   7   3   7   69.19   15.50
  -7   3  -7   49.80   13.70
  -7  -4  -7  619.74   33.30
   7   4  -7  551.14   20.80
  -7   4   7  524.95   20.10
  -7   4  -7  548.15   29.90
  -7  -4   7  556.34   19.80
   7   4   7  527.15   33.60
   7  -4  -7  573.64   19.80
  -7   4  -7  554.34   34.10
   7   5  -7    5.20    4.90
  -7  -5  -7   12.30   10.40
  -7   5   7    2.90    4.20
  -7   5  -7    7.80    7.00
  -7  -5   7    4.20    4.00
  -7   5  -7    9.60   10.70
   7   5   7    8.10    8.90
   7  -5  -7   11.70    4.90
  -7   6   7  218.28   14.50
   7   6  -7  209.18   14.80
  -7   6  -7  238.58   20.50
  -7  -6   7  199.38   13.90
   7  -6  -7  226.98   14.40
   7   6   7  203.78   24.20
  -7   7   7   -3.90    4.40
   7   7  -7   10.60    6.20
   7  -7  -7    8.40    5.30
  -7  -7   7   -2.90    4.70
   7   7   7   -1.80    8.30
  -7   7  -7   -4.00    5.20
  -7   8   7  411.36   23.80
   7   8  -7  432.36   24.40
   7   8   7  446.06   33.10
   7  -8  -7  382.26   22.70
  -7   8  -7  411.36   29.00
  -7  -8   7  427.56   23.70
  -7   9   7   56.89   11.60
   7   9  -7   77.89   13.00
  -7  -9   7   42.90   13.80
   7   9   7   56.79   25.00
  -7  10   7   83.79   14.90
   7  10  -7   70.19   13.80
  -7  10  -7   78.99   17.00
   7  10   7   88.59   18.10
  -7 -10   7   62.89   13.80
   7 -10  -7   60.09   13.40
  -7  11   7   37.50   11.70
   7  11  -7   40.00   12.70
  -7  11  -7   16.90   11.10
   7  11   7   14.50   12.10
  -7  12   7  119.19   19.30
   7  12  -7  151.88   21.70
   7  12   7   88.99   21.40
  -7  12  -7  121.49   21.70
  -7  13   7    6.70    9.80
   7  13  -7    2.70    9.50
  -7  13  -7    3.10    9.50
   7  13   7   10.70   14.00
  -7   0  -8    1.10    6.60
   7   0   8    6.70    8.40
  -7  -1  -8  465.35   30.40
  -7   1  -8  522.55   28.70
   7   1   8  508.15   33.40
  -7   1  -8  486.05   31.10
  -7  -2  -8   -1.40    6.50
   7   2   8   -0.50    7.90
  -7   2  -8   12.40    6.60
  -7   2  -8   -3.40    7.20
  -7  -3  -8  175.28   23.40
  -7   3  -8  191.68   23.80
  -7   3  -8  184.38   22.10
   7   3   8  164.08   25.30
  -7   4   8   -2.20    3.00
   7   4  -8   -0.50    3.10
   7   4   8    1.80    8.10
  -7  -4   8    0.20    2.60
  -7   4  -8   -5.60    5.10
   7  -4  -8   -0.90    2.70
  -7   5   8    2.80    4.40
   7   5  -8   -4.30    3.60
  -7  -5   8    3.80    4.00
   7   5   8   -1.40    6.60
   7  -5  -8    0.00    3.30
  -7   5  -8    0.30    5.90
  -7   6   8    3.30    4.80
   7   6  -8    6.70    5.20
   7   6   8    2.90    7.90
   7  -6  -8    3.00    4.50
  -7   6  -8    2.70    6.50
  -7  -6   8    1.80    4.10
   7   7  -8   77.29   11.90
  -7   7   8   81.29   11.60
   7   7   8   92.69   20.60
  -7  -7   8   62.19   10.00
  -7   7  -8   70.29   15.40
   7  -7  -8   63.09   10.10
   7   8  -8   67.19   11.70
  -7   8   8   38.80    9.70
  -7   8  -8   50.79   16.90
   7   8   8   31.50   14.80
   7  -8  -8   36.40    9.20
  -7  -8   8   60.99   10.90
  -7   9   8   64.59   12.90
   7   9  -8   79.09   13.90
  -7   9  -8  111.89   20.80
   7   9   8   94.09   21.00
  -7  10   8    5.20    7.10
   7  10  -8    3.60    7.40
  -7 -10   8   -4.70    6.70
   7 -10  -8   -1.00    7.00
  -7  10  -8    5.30    9.60
   7  10   8    0.70    9.40
  -7  11   8   57.39   13.50
   7  11  -8   79.09   15.80
  -7  11  -8   41.80   15.80
   7  11   8   46.10   15.70
   7  12  -8   -4.60    8.00
  -7  12   8   -1.40    7.70
  -7  12  -8   -6.40    7.10
   7  12   8   17.40   14.20
   7   0   9  314.67   31.40
  -7   1  -9    9.10    8.10
   7   1   9   13.60   12.10
   7   2   9    7.80   10.70
  -7   2  -9   25.50   10.30
  -7   3  -9   72.89   13.30
   7   3   9   65.59   15.50
   7   4  -9  239.08   12.40
  -7   4   9  230.98   11.30
   7   4  -9  246.38   11.40
  -7   4  -9  236.98   24.30
   7   4   9  237.18   30.20
   7  -4  -9  231.38   10.40
  -7   5   9   20.30    5.60
   7   5  -9   25.60    6.10
  -7   5  -9   14.70    8.70
   7  -5  -9   26.00    5.70
   7   5   9   22.30   13.40
  -7  -5   9   23.90    5.30
  -7   6   9    2.80    5.00
   7   6  -9    1.00    4.60
   7   6   9   -5.00    9.20
   7  -6  -9    1.10    4.50
  -7   6  -9   -3.70    5.40
  -7  -6   9    5.20    4.70
   7   7  -9   34.40    9.10
  -7   7   9   36.30    9.10
   7   7   9   59.89   18.50
  -7  -7   9   33.10    8.00
  -7   7  -9   44.40   15.50
   7  -7  -9   37.00    8.60
   7   8  -9  502.05   26.50
  -7   8   9  476.75   25.90
  -7  -8   9  468.35   24.80
   7  -8  -9  506.65   25.90
  -7   8  -9  559.74   34.70
   7   8   9  521.05   37.70
  -7   9   9   30.10   10.00
   7   9  -9    5.00    7.60
  -7  -9   9   13.50    9.60
   7   9   9   41.40   16.00
  -7   9  -9   21.80   10.70
  -7  10   9   -8.60    6.50
   7  10  -9   -3.10    6.80
  -7 -10   9    0.90    7.60
  -7  10  -9   -3.30    9.00
   7 -10  -9   -3.70    6.60
   7  10   9    5.50   12.30
  -7  11   9    8.80    9.20
   7  11  -9   20.30   10.70
  -7  11  -9   21.60   10.30
   7  11   9   32.00   17.40
  -7   0 -10   -2.10    5.30
  -7   1 -10   40.20   10.90
   7   1  10   44.60   13.50
   7   2  10   -2.10    8.30
  -7   2 -10    0.10    5.70
   7   3  10    7.30    9.70
  -7   3 -10    3.30    7.50
   7   4 -10    2.30    3.60
   7   4 -10    4.60    3.20
  -7   4  10    1.10    3.10
   7   4  10    6.40   10.50
   7  -4 -10    0.00    2.50
  -7   4 -10   -0.50    6.40
   7   5 -10   35.90    6.90
  -7   5  10   24.60    6.50
   7   5 -10   33.60    7.50
   7  -5 -10   41.20    6.80
  -7   5 -10   55.99   13.80
   7   5  10   25.80   11.90
  -7   6  10    0.30    4.90
   7   6 -10    4.20    5.10
  -7  -6  10    3.30    4.50
   7   6  10   -7.00   13.60
   7  -6 -10    5.30    4.70
   7   7 -10   -3.10    4.40
  -7   7  10    8.80    6.10
   7   7  10    9.20   10.70
  -7   7 -10   -4.40    7.60
  -7  -7  10   -7.00    4.90
   7  -7 -10    1.30    5.10
   7   8 -10   -7.30    5.60
  -7   8  10    3.60    6.70
  -7  -8  10    0.10    5.50
   7  -8 -10    1.00    6.20
  -7   8 -10   -4.30    6.30
   7   8  10   -6.20    8.20
   7   9 -10   -1.90    6.40
  -7   9  10    2.00    7.20
   7   9  10  -10.50   11.00
   7  -9 -10    7.30   14.00
  -7   9 -10    0.90    8.70
  -7  -9  10   -5.60    7.70
  -7  10  10   24.70   10.50
   7  10 -10    4.90    8.60
  -7  10 -10   10.80   10.50
   7 -10 -10   13.20    9.00
  -7 -10  10    5.60    9.40
   7  10  10   33.60   17.10
  -7  11  10   -0.90    8.10
   7  11 -10   26.70   11.80
   7  11  10   -6.40   11.50
  -7  11 -10    6.00   10.10
  -7   0 -11  624.04   35.60
  -7   1 -11    8.20    7.30
   7   1  11   13.50   10.50
   7   2  11   72.89   18.80
  -7   2 -11   70.09   15.50
  -7   3 -11    6.30    7.80
   7   3  11   13.20   12.80
   7   4  11 1132.79   59.49
  -7   4 -11 1208.68   55.19
   7   5 -11    8.80    5.50
  -7   5  11    4.60    5.20
   7   5 -11    2.00    4.20
   7  -5 -11    5.40    4.10
  -7   5 -11    4.50    7.70
   7   5  11   22.60   14.20
   7   6 -11    2.00    6.00
   7   6 -11    1.70    4.90
  -7   6  11    2.30    5.50
  -7   6 -11   15.70    9.20
   7  -6 -11    1.80    4.70
   7   6  11   13.40   12.40
  -7   7  11   21.30    8.60
   7   7 -11   28.00    8.30
   7  -7 -11   16.60    6.80
  -7   7 -11   24.30   10.40
   7   7  11   25.60   12.80
  -7  -7  11   25.10    7.80
   7   8 -11  361.16   22.40
  -7   8  11  404.26   24.00
  -7   8 -11  386.56   30.60
   7  -8 -11  364.46   22.20
  -7  -8  11  360.36   21.30
   7   8  11  353.06   38.20
  -7   9  11   -7.40    6.50
   7   9 -11    2.80    6.90
  -7  -9  11    4.20    7.60
   7  -9 -11    5.50    9.60
  -7   9 -11   18.50   11.70
   7   9  11   11.30   13.00
   7  10 -11    2.70    7.60
  -7  10  11    9.80    9.40
  -7  10 -11   -0.30   10.80
  -7 -10  11  -10.20   12.70
   7  10  11   -5.10   12.00
   7 -10 -11    7.10   11.50
  -7   0 -12    3.10   10.40
   7   1  12   -6.20   16.80
  -7   2 -12    9.00    9.30
  -7   3 -12   13.70    9.00
   7   3  12    3.40   11.40
  -7   4 -12   18.30   10.20
   7   4  12   20.90   13.70
   7   5 -12   12.50    4.70
  -7   5  12    8.70    5.20
   7   5 -12   17.40    5.90
   7  -5 -12   11.50    4.40
   7   5  12   13.10   11.80
  -7   5 -12   20.40   10.50
   7   6 -12    0.20    6.90
  -7   6  12   -6.00    5.40
   7   6 -12    9.50    5.40
  -7   6 -12    3.20    8.00
   7  -6 -12    3.10    8.20
   7   6  12   28.80   16.80
  -7   7  12    8.90    7.30
   7   7 -12   12.60    6.80
   7   7 -12   16.20    9.10
  -7   7 -12   21.60   11.80
   7  -7 -12    6.60    6.10
   7   7  12   25.80   15.10
   7   8 -12   15.20    7.40
  -7   8  12   -3.00    7.40
   7  -8 -12    1.50    6.70
  -7   8 -12   -1.90    8.00
   7   8  12  -11.90   10.00
  -7   0 -13  351.16   28.00
  -7  -1 -13   10.50    8.50
  -7   1 -13   -7.40    5.50
   7   2  13   42.70   15.40
  -7   2 -13   16.50   11.20
  -7   3 -13   12.90    9.80
   7   3  13  -13.50    9.80
   7   4  13  383.66   39.60
  -7   4 -13  418.26   31.30
   7   5 -13    1.50    4.10
   7   5 -13    2.30    3.70
   7  -5 -13    1.60    3.10
   7   5  13   13.30   12.10
  -7   5 -13    0.80    8.50
   7   6 -13    8.70    5.70
  -7   6  13   11.80    6.70
   7   6  13   -8.40   10.20
  -7   6 -13   15.10   10.10
   7  -6 -13   20.80   11.30
  -7   7  13    1.30    7.00
   7   7 -13    0.70    5.40
   7   7 -13    5.90    8.50
   7   7  13    1.90   13.30
  -7   7 -13    6.00    9.50
   7  -7 -13   -1.20    5.80
  -7   0 -14    1.40    8.20
  -7  -1 -14   72.59   15.80
  -7   1 -14   36.20   11.90
   7   2  14    5.60   13.70
  -7   2 -14    9.50    9.30
   7   3  14    2.50   12.60
  -7   3 -14   15.80    9.70
  -7   4 -14   14.00   10.10
   7   4  14    6.40   12.60
  -7   5 -14   26.40   13.60
   7   5  14   49.00   19.40
  -7   0 -15   53.09   14.80
  -7  -1 -15   29.90   12.10
  -7   1 -15   19.90   11.60
   8   0   0  319.87   19.30
  -8   0   0  329.67   18.50
  -8   1   0  142.39   10.90
  -8  -1   0  143.69   14.50
   8   1   0  167.58   18.20
  -8   1   0  191.88   18.20
  -8   2   0 2108.69   65.39
  -8   2   0 2082.99   61.49
   8   2   0 2032.50   64.89
  -8  -2   0 2028.70   63.09
  -8  -3   0    4.00    5.60
  -8   3   0    0.90    4.00
  -8   3   0    9.20    6.00
   8   3   0   -1.20    4.90
  -8  -4   0   10.10    5.90
  -8   4   0   10.90    5.50
   8   4   0   -1.20    5.10
   8  -4   0    5.00    4.70
   8   5   0   10.70    8.50
   8  -5   0   11.80    5.50
  -8  -5   0   38.90    9.70
   8   6   0 2025.20   68.39
  -8   6   0 1989.70   65.69
   8  -6   0 2084.59   65.59
  -8  -6   0 2062.79   66.69
  -8  -7   0   29.70    9.50
   8   7   0   20.20    8.90
  -8   7   0   52.49   11.50
   8  -7   0   35.70    9.20
   8   8   0  136.89   18.30
   8  -8   0  115.89   15.00
  -8  -8   0  130.59   17.80
  -8   8   0  122.99   17.40
   8   9   0  109.69   17.80
   8  -9   0  136.59   19.30
  -8   9   0  124.79   16.70
  -8  10   0  804.82   40.00
   8  10   0  857.71   42.60
   8  11   0  129.09   20.10
  -8  11   0  160.88   21.00
  -8  12   0   21.80   11.50
   8  12   0    3.50    9.80
   8  13   0    2.50    9.60
  -8  13   0   15.40   10.90
   8  14   0  428.46   35.50
  -8  14   0  483.85   35.20
  -8   0  -1    0.00    4.50
  -8   0   1    0.60    4.00
   8   0   1   -4.40    4.40
  -8  -1  -1  117.99   13.30
   8   1  -1  109.29   13.40
  -8   1   1  104.49    9.00
   8   1   1   83.09   12.40
  -8   1  -1  110.29   12.50
  -8   1  -1  132.29   15.90
  -8   2   1  138.29   14.60
   8   2  -1  114.29   13.60
  -8  -2  -1  109.29   13.00
  -8   2   1  114.49    9.80
  -8  -2   1  141.69   13.40
  -8   2  -1  146.59   16.40
   8   2   1  147.69   17.80
  -8   2  -1  137.79   11.50
  -8  -3  -1    5.00    5.10
  -8   3   1   -0.90    3.80
  -8   3   1    7.60    6.40
   8   3  -1    5.90    5.90
  -8   3  -1    2.80    5.30
  -8  -3   1    4.00    4.40
  -8   3  -1    2.10    4.50
   8   3   1    7.40    6.10
  -8  -4  -1  126.99   14.90
   8   4  -1  137.89   15.00
  -8   4   1  144.89   12.00
  -8   4  -1  180.78   19.70
  -8   4  -1  165.28   19.50
  -8  -4   1  138.59   12.00
   8  -4  -1  132.99   11.20
  -8   5   1  151.98   13.00
   8  -5   1  174.48   17.40
   8   5  -1  141.59   16.60
  -8  -5  -1  116.09   14.20
  -8   5  -1  145.69   15.10
  -8  -5   1  155.98   13.30
   8  -5  -1  146.99   12.40
   8   5   1  144.89   17.50
  -8  -6  -1   57.09   11.10
   8   6  -1   72.59   12.60
   8  -6   1  131.49   16.20
  -8   6   1   68.49   10.80
   8   6   1   70.89   14.50
  -8  -6   1   90.29   12.80
   8  -6  -1   73.69   11.10
  -8   6  -1   53.79    9.80
  -8  -7  -1    2.20    6.20
  -8   7   1   -1.80    4.80
   8  -7   1    0.20    5.20
   8   7  -1    1.10    6.00
  -8  -7   1    1.70    5.50
  -8   7  -1   -2.00    4.80
   8   7   1    2.30    6.90
   8  -7  -1    0.10    4.60
   8   8  -1   57.89   12.10
   8  -8   1   30.80    8.90
  -8   8   1   51.39   11.50
  -8  -8  -1   27.80    8.90
   8   8   1   33.20   10.10
  -8  -8   1   47.10   11.70
  -8   8  -1   25.10    8.30
   8  -8  -1   24.50    7.70
   8   9  -1   63.99   13.40
  -8   9   1   49.40   11.00
  -8   9  -1   74.99   15.30
   8  -9  -1   62.69   12.20
  -8  -9   1   70.89   13.00
   8   9   1  100.79   17.90
  -8  10   1   -6.00    5.30
   8  10  -1   15.50    9.60
  -8  10  -1    9.20    9.20
   8  10   1   -9.60    6.00
   8  11  -1    6.10    8.80
  -8  11   1    8.00    8.40
   8  11   1   -1.30    9.50
  -8  11  -1   -1.50    6.90
  -8  12   1    3.30    7.90
   8  12  -1    7.70   10.00
  -8  12  -1    3.10   10.10
   8  12   1    8.40    9.30
   8  13  -1   23.00   11.10
  -8  13   1   -3.90    7.00
   8  13   1   14.50   11.40
  -8  13  -1   10.30    9.60
  -8  14   1   -1.40    8.10
   8  14  -1    1.00    9.90
  -8  14  -1   10.20   10.40
   8  14   1    2.00   10.80
   8   0   2  361.26   23.10
  -8   0   2  383.66   17.50
  -8   0   2  386.86   16.10
  -8   0  -2  371.86   21.80
  -8  -1  -2  164.08   18.40
   8   1  -2  128.29   11.00
  -8   1   2  138.09   10.70
  -8   1   2  109.69    8.70
  -8   1  -2  145.09   16.50
  -8   1  -2  144.49   14.50
   8   1   2  143.79   17.80
  -8  -1   2  111.59    9.60
  -8  -2  -2 1369.86   49.50
  -8   2   2 1393.76   45.30
  -8   2   2 1438.86   42.70
   8   2  -2 1375.26   45.20
  -8   2  -2 1404.76   47.30
  -8  -2   2 1409.06   43.60
   8   2   2 1367.56   51.19
  -8   2  -2 1367.06   50.99
  -8  -3  -2   45.50    9.80
   8   3  -2   43.60    8.50
  -8   3   2   32.30    6.40
  -8   3   2   34.60    8.00
  -8   3  -2   29.60    8.90
  -8  -3   2   44.10    7.90
   8   4  -2    1.80    4.50
  -8   4   2   -0.70    3.70
  -8  -4  -2   -2.40    4.00
  -8  -4   2   -3.70    3.30
  -8   4  -2   -1.80    4.30
  -8   4  -2    3.60    5.80
   8  -4  -2    3.50    3.90
   8   4   2   -1.80    6.40
  -8  -5  -2   73.89   13.40
   8  -5   2   57.99   10.40
   8   5  -2   93.69   12.80
  -8   5   2   54.99    9.10
  -8   5  -2   69.09   11.90
   8  -5  -2   52.49    8.80
   8   5   2   73.59   12.70
  -8  -5   2   60.79    9.70
   8  -6   2 1051.69   42.40
  -8   6   2  998.40   43.30
  -8  -6  -2 1108.79   48.40
   8  -6  -2 1071.49   39.20
  -8  -6   2 1102.79   40.20
   8   6   2 1079.69   45.50
  -8   6  -2 1043.20   42.50
   8   7  -2  127.39   16.20
   8  -7   2  138.49   17.30
  -8  -7  -2  125.89   16.50
  -8   7   2  163.48   17.50
   8   7   2  119.09   18.30
   8  -7  -2  150.38   16.50
  -8  -7   2  136.79   15.90
  -8   7  -2  136.59   16.60
  -8   8   2   16.70    7.00
   8  -8   2   11.20    6.80
  -8  -8  -2    3.10    7.30
   8   8  -2   20.80    8.80
   8   8   2   10.40    8.50
  -8   8  -2   24.00   10.20
   8  -8  -2   11.50    7.90
   8   9  -2   55.79   12.90
  -8   9   2   44.50   10.40
  -8  -9   2   25.80    9.20
   8  -9  -2   44.70   11.20
  -8   9  -2   47.00   12.80
   8   9   2   49.40   13.40
   8  10  -2  307.77   25.00
  -8  10   2  335.27   24.30
   8  10   2  351.96   27.90
  -8  10  -2  335.07   26.00
  -8  11   2   53.79   12.60
   8  11  -2   29.90   12.60
   8  11   2   33.20   15.60
   8  12  -2   -7.20   11.80
  -8  12  -2    3.90    7.50
   8  12   2    5.10   11.20
  -8  13   2   25.00   11.50
   8  13  -2   51.49   16.30
  -8  13  -2   25.00   12.90
   8  13   2   46.50   17.10
  -8  14   2  202.68   26.20
   8  14  -2  221.58   31.60
  -8  14  -2  207.88   26.80
   8  14   2  197.78   28.60
  -8   0   3    2.30    2.60
  -8   0   3   -3.40    2.50
  -8   0  -3    1.50    4.80
  -8   1   3  296.17   14.10
   8   1  -3  299.97   15.10
  -8   1   3  281.87   12.50
  -8  -1  -3  279.77   19.60
  -8   1  -3  247.78   19.40
  -8   1  -3  304.97   21.30
   8   1   3  265.17   23.20
  -8  -1   3  272.17   13.10
  -8   2   3   29.50    6.60
   8   2  -3   28.30    6.60
  -8   2   3   25.00    5.10
  -8  -2  -3   29.80    8.50
  -8  -2   3   27.80    5.50
  -8   2  -3   35.30    8.30
  -8   2  -3   22.10    9.10
   8   2   3   25.50    8.70
   8   3  -3  218.98   14.00
  -8  -3  -3  220.38   17.80
  -8   3   3  254.37   15.00
  -8   3   3  247.48   13.10
  -8   3  -3  193.88   15.80
   8   3   3  247.88   20.00
  -8   3  -3  243.08   19.60
  -8  -3   3  217.38   12.70
  -8   4   3   16.50    5.60
  -8  -4  -3   -0.20    4.90
   8   4  -3    2.70    4.90
  -8   4  -3    4.80    5.60
  -8  -4   3    2.50    3.90
  -8   4  -3    2.30    6.50
   8   4   3    7.10    6.70
   8  -4  -3   -1.90    3.40
   8   5  -3  288.47   18.20
  -8   5   3  312.67   17.30
   8  -5   3  324.77   20.70
  -8  -5  -3  338.67   22.30
   8   5   3  322.17   23.60
   8  -5  -3  325.97   17.20
  -8  -5   3  305.77   17.20
  -8   5  -3  280.07   19.90
  -8   5  -3  308.07   23.70
  -8  -6  -3   29.90    9.20
   8  -6   3   24.60    8.50
   8   6  -3   23.40    7.80
  -8   6   3   37.20    8.40
  -8  -6   3   28.30    7.60
  -8   6  -3   19.30    8.30
   8  -6  -3   20.80    6.70
   8   6   3   30.70   10.30
  -8  -7  -3  228.98   20.00
  -8   7   3  230.18   17.00
   8   7  -3  210.88   17.70
   8  -7   3  200.18   17.80
   8   7   3  259.67   22.30
   8  -7  -3  228.68   16.30
  -8  -7   3  258.47   17.70
  -8   7  -3  237.48   19.90
  -8   8   3    6.00    6.60
   8   8  -3   -4.00    5.60
  -8  -8   3   -2.10    5.70
   8   8   3    2.00    8.20
   8  -8  -3    6.30    5.70
  -8   8  -3   15.20    7.50
  -8   9   3   27.30    9.60
   8   9  -3   47.80   11.30
  -8  -9   3   47.40   11.90
   8  -9  -3   19.30    8.00
  -8   9  -3   37.20   10.30
   8   9   3   78.79   15.40
   8  10  -3   -0.50    7.10
  -8  10   3   10.00    7.70
  -8  10  -3   12.50    9.00
   8  10   3   16.30   12.50
  -8  11   3   53.89   13.10
   8  11  -3   48.70   14.90
  -8  11  -3   47.00   12.70
   8  11   3   28.20   12.20
  -8  12   3   -2.10    7.50
   8  12   3   -4.30    8.60
  -8  12  -3    7.20    8.40
  -8  13   3   96.79   18.50
   8  13  -3   36.30   13.60
   8  13   3   51.79   16.10
  -8  13  -3  100.99   18.70
   8   0   4    4.10    6.70
  -8   0   4    4.40    2.50
  -8   0   4    7.90    2.60
  -8   0  -4    5.60    5.50
  -8   1   4    1.10    2.50
  -8  -1  -4    0.10    5.40
  -8   1   4   -0.30    2.70
  -8  -1   4   -1.90    2.10
  -8  -1   4    1.00    2.30
   8   1   4   -2.40    4.80
  -8   1  -4   -0.10    5.30
  -8   1  -4    4.70    5.60
  -8   2   4  549.95   18.90
  -8  -2  -4  493.95   27.90
   8   2  -4  543.55   20.80
  -8   2   4  564.54   20.70
  -8   2  -4  538.55   26.80
  -8  -2   4  532.25   18.90
  -8   2  -4  537.55   30.10
   8   2   4  559.74   31.20
   8   3  -4    9.40    4.80
  -8   3   4    4.50    4.10
  -8   3   4    8.70    3.50
  -8  -3  -4    0.10    5.20
   8   3   4    8.70    7.50
  -8  -3   4    7.50    3.50
  -8   3  -4   -0.90    5.20
  -8   3  -4    5.20    5.30
   8   4  -4  125.39   12.70
  -8   4   4  144.29   10.30
  -8  -4  -4  150.48   19.80
   8   4   4  147.39   18.90
  -8   4  -4  156.78   18.60
  -8   4  -4  149.69   20.90
  -8  -4   4  134.29   13.90
   8  -4  -4  125.29    9.80
  -8  -5  -4   60.09   11.90
  -8   5   4   66.69    9.30
   8   5  -4   62.29   10.20
  -8  -5   4   71.69    9.80
   8  -5  -4   69.09    8.90
  -8   5  -4   61.89   13.30
   8   5   4   76.89   14.50
  -8   5  -4   69.59   12.30
   8   6  -4  517.15   25.20
  -8   6   4  506.45   24.00
  -8  -6  -4  521.45   30.10
   8  -6   4  549.95   29.40
  -8  -6   4  502.95   23.90
   8  -6  -4  531.65   23.80
  -8   6  -4  535.25   29.50
   8   6   4  572.44   33.10
   8   7  -4   72.89   12.20
  -8   7   4   82.69   11.80
   8  -7  -4   93.39   12.20
  -8  -7   4   86.09   12.20
  -8   7  -4   76.19   14.80
   8   7   4  112.59   19.00
   8   8  -4    1.70    5.90
  -8   8   4   -0.20    4.80
   8   8   4    2.90    8.20
  -8   8  -4    6.40    7.60
  -8  -8   4    2.30    6.00
   8  -8  -4    0.80    5.40
  -8   9   4    3.90    6.20
   8   9  -4    4.20    6.80
   8   9   4    4.60    8.50
   8  -9  -4   -0.20    5.30
  -8  -9   4    1.20    6.70
  -8   9  -4   10.00    9.10
  -8  10   4  145.49   18.20
   8  10  -4  162.78   20.00
   8  10   4  122.29   27.00
  -8  10  -4  127.49   22.80
  -8  11   4   42.10   11.80
   8  11  -4   31.10   11.10
   8  11   4   64.89   16.20
  -8  11  -4   78.69   17.90
  -8  12   4   33.40   11.40
   8  12  -4   41.80   15.60
   8  12   4   21.10   12.90
  -8  12  -4   29.10   11.30
  -8  13   4    4.60   10.00
   8  13  -4    2.40   10.50
   8  13   4   -9.50    8.50
  -8  13  -4   -1.90    8.10
   8   0   5   -2.60    6.20
  -8   0  -5    4.80    6.00
  -8  -1  -5  497.05   28.40
   8   1   5  467.35   29.70
  -8   1  -5  462.55   25.50
  -8   1  -5  486.15   28.70
   8   2  -5   37.60    5.40
  -8   2   5   49.00    5.10
  -8   2   5   53.99    5.80
  -8  -2  -5   54.99   12.80
  -8   2  -5   57.29   11.90
  -8  -2   5   49.50    5.00
  -8   2  -5   50.09   11.90
   8   2   5   29.70   10.40
  -8   3   5  536.95   20.90
  -8  -3  -5  376.76   43.10
  -8   3   5  552.84   19.30
   8   3  -5  555.54   20.80
  -8   3  -5  570.04   28.50
  -8  -3   5  524.15   19.00
   8   3   5  641.54   34.20
   8   4  -5    9.70    4.80
  -8   4   5   10.90    4.30
  -8  -4  -5   15.30    7.20
  -8   4  -5   15.60    8.10
   8   4   5    7.20    8.00
   8  -4  -5   15.00    4.40
  -8  -4   5   10.20    4.30
  -8   4  -5   11.70    6.60
   8   5  -5   76.89   10.80
  -8  -5  -5   84.99   15.40
  -8   5   5   75.49    9.40
   8   5   5   75.99   15.80
  -8  -5   5   83.19   10.10
  -8   5  -5   71.19   14.80
   8  -5  -5   87.49    9.90
  -8   5  -5  106.49   16.00
  -8  -6  -5    5.50    8.90
  -8   6   5    3.30    4.10
   8   6  -5   -1.00    4.20
   8   6   5    0.80    7.50
  -8  -6   5    2.10    4.60
  -8   6  -5    2.60    5.80
  -8   6  -5   -3.30    7.70
   8  -6  -5    1.00    4.40
   8   7  -5  204.48   30.60
  -8   7   5  192.58   20.20
   8   7   5  168.48   24.90
  -8  -7   5  181.38   17.40
  -8   7  -5  130.79   17.20
   8  -7  -5  151.28   13.20
   8   8  -5   28.90    8.90
  -8   8   5   34.60    9.00
   8   8   5   37.40   12.10
   8  -8  -5   27.00    8.30
  -8  -8   5   38.10    9.60
  -8   8  -5   41.70   12.70
  -8   9   5  264.27   20.10
   8   9  -5  238.48   20.60
  -8   9  -5  280.97   30.50
   8  -9  -5  241.88   19.00
   8   9   5  290.07   33.00
  -8  -9   5  239.48   19.70
  -8  10   5   11.20    7.50
   8  10  -5    4.90    8.60
   8 -10  -5   13.30    8.00
   8  10   5   -8.60    7.60
  -8  10  -5    3.10    6.70
  -8 -10   5   -1.50    8.20
  -8  11   5  160.98   20.30
   8  11  -5  156.68   22.00
  -8  11  -5  128.99   19.40
   8  11   5  163.38   24.40
  -8  12   5   10.60    9.70
   8  12  -5    5.00    9.70
   8  12   5   20.80   13.70
  -8  12  -5    8.10   10.60
  -8  13   5   36.20   12.80
   8  13  -5   22.10   11.80
  -8  13  -5   30.00   14.50
   8  13   5   29.10   15.20
   8   0   6  618.14   35.40
  -8   0  -6  570.74   32.40
  -8  -1  -6   55.79   11.60
  -8   1  -6   52.09   12.30
  -8   1  -6   72.09   11.90
   8   1   6   79.09   15.70
  -8  -2  -6  399.76   26.40
  -8   2  -6  375.56   23.60
   8   2   6  425.96   29.20
  -8   2  -6  402.36   27.60
   8   3  -6    2.80    3.40
  -8  -3  -6    8.70    7.60
  -8   3   6    1.80    3.20
  -8   3   6    1.90    2.60
   8   3   6    6.80    7.90
  -8  -3   6    4.70    2.50
  -8   3  -6    7.60    6.60
  -8   3  -6    4.70    6.80
   8   4  -6  266.37   14.60
  -8   4   6  288.87   13.70
  -8  -4  -6  352.16   24.70
  -8  -4   6  273.77   13.30
   8   4   6  348.37   26.80
  -8   4  -6  341.67   26.20
   8  -4  -6  294.97   13.70
  -8   4  -6  333.77   22.50
  -8  -5  -6   33.70   14.50
   8   5  -6   30.80    7.10
  -8   5   6   24.70    5.90
  -8   5  -6   34.60   14.90
  -8   5  -6   23.30    9.30
   8   5   6   37.40   12.60
  -8   6   6  189.28   13.50
   8   6  -6  166.48   14.00
  -8  -6   6  197.48   13.70
   8   6   6  234.98   26.80
   8  -6  -6  188.38   13.20
  -8   6  -6  203.38   21.30
  -8   7   6   23.00    7.20
   8   7  -6   17.50    7.60
  -8  -7   6   37.50    8.70
   8   7   6   23.40   11.30
   8  -7  -6   21.50    7.20
  -8   7  -6   34.90   11.10
   8   8  -6  179.58   18.80
  -8   8   6  206.38   16.60
   8   8   6  231.38   29.60
  -8  -8   6  195.08   19.10
   8  -8  -6  201.78   16.30
  -8   8  -6  169.18   22.60
  -8   9   6    1.90    5.90
   8   9  -6   10.50    8.00
  -8  -9   6    1.10    5.90
   8  -9  -6    0.70    6.00
   8   9   6   28.10   19.00
  -8   9  -6   30.00   19.70
   8  10  -6  136.89   18.80
  -8  10   6  164.28   19.50
  -8  10  -6  125.29   18.70
   8 -10  -6  115.39   16.60
   8  10   6  158.48   24.20
  -8 -10   6  161.58   19.20
  -8  11   6   27.90   11.00
   8  11  -6    3.00    8.80
   8  11   6   16.00   12.20
  -8  11  -6   18.90   10.40
   8  12  -6  136.69   20.80
  -8  12   6  190.68   24.20
  -8  12  -6  151.48   25.10
   8  12   6  123.99   22.40
   8  13  -6   -5.60    8.70
  -8  13   6   13.70   11.10
   8  13   6   16.10   13.90
  -8  13  -6    7.50   10.50
   8   0   7    5.50    9.00
  -8   0  -7   -3.50    6.40
  -8  -1  -7  501.65   31.40
  -8   1  -7  527.55   32.30
  -8   1  -7  567.94   30.30
   8   1   7  614.24   36.50
  -8  -2  -7    9.40    7.80
  -8   2  -7    6.60    6.90
  -8   2  -7    0.30    7.00
   8   2   7   -5.70    6.60
  -8  -3  -7   85.29   15.10
  -8   3  -7   64.89   11.60
   8   3   7   92.09   17.30
  -8   3  -7   95.79   16.70
  -8   4   7   14.40    4.00
   8   4  -7    8.10    4.20
   8   4   7    3.70    9.00
  -8   4  -7   15.50    8.00
  -8  -4   7   12.80    3.90
   8  -4  -7   13.00    3.70
  -8   5   7   19.60    5.70
   8   5  -7   33.40    7.10
  -8  -5   7   32.60    6.30
  -8   5  -7   32.00    9.60
   8   5   7   35.50   13.90
   8  -5  -7   40.70    6.50
   8   6  -7    0.50    5.00
  -8   6   7   -1.40    3.90
   8  -6  -7   11.80    5.10
  -8   6  -7    2.60    6.50
  -8  -6   7    5.90    4.80
   8   6   7   16.30   11.70
   8   7  -7   77.19   11.80
  -8   7   7   82.19   11.60
   8   7   7   92.89   18.90
   8  -7  -7   75.59   10.80
  -8  -7   7  114.09   13.40
  -8   7  -7   90.59   15.40
   8   8  -7   50.39   11.40
  -8   8   7   49.70   10.90
  -8   8  -7   41.10   14.80
   8  -8  -7   20.30    7.80
  -8  -8   7   38.60    9.60
   8   8   7   21.20   11.50
  -8   9   7  176.98   19.30
   8   9  -7  193.28   20.40
  -8  -9   7  142.49   20.90
  -8   9  -7  185.48   22.30
   8   9   7  185.48   26.90
   8  10  -7    7.00    8.00
  -8  10   7    4.70    7.70
   8  10   7    5.00   11.60
  -8 -10   7    5.80    8.20
   8 -10  -7   10.90    8.30
  -8  10  -7    7.10    8.80
  -8  11   7  163.18   22.00
   8  11  -7  154.68   20.30
  -8  11  -7  117.09   20.40
   8  11   7  105.49   23.70
   8  12  -7   -4.50    7.90
  -8  12   7   -2.80    7.60
   8  12   7    4.30   10.20
  -8  12  -7  -11.30    6.80
   8   0   8 1042.00   51.49
  -8   1  -8   22.30    9.90
   8   1   8   31.60   12.70
   8   2   8   48.90   15.70
  -8   2  -8   56.29   13.20
  -8   3  -8   -6.30    5.20
   8   3   8   -6.10    5.90
   8   4  -8  296.47   12.80
  -8   4   8  274.07   11.90
   8   4   8  357.66   28.90
  -8  -4   8  275.67   11.40
  -8   4  -8  335.37   24.30
   8  -4  -8  303.77   11.50
   8   5  -8   -1.60    4.10
  -8   5   8    4.00    3.80
   8  -5  -8    3.80    3.90
  -8   5  -8    5.30    7.60
  -8  -5   8    4.80    3.80
   8   5   8    5.50   10.40
   8   6  -8   56.39    9.40
  -8   6   8   45.20    8.00
  -8  -6   8   56.69    8.40
   8  -6  -8   49.80    7.90
   8   6   8   68.49   17.20
  -8   6  -8   42.60   11.30
   8   7  -8   -0.30    5.30
  -8   7   8   -2.40    5.10
   8   7   8   -1.30   10.90
   8  -7  -8    3.70    4.90
  -8  -7   8   -1.20    4.60
  -8   7  -8   -8.30    6.80
  -8   8   8  620.24   29.40
   8   8  -8  608.84   29.90
   8   8   8  643.34   41.60
   8  -8  -8  566.44   28.20
  -8   8  -8  640.74   37.40
  -8  -8   8  581.34   28.30
  -8   9   8   28.40    9.30
   8   9  -8    3.70    7.30
   8   9   8   24.70   14.20
  -8   9  -8    9.20    9.20
   8  -9  -8   14.30   14.20
   8  10  -8    2.30    7.50
  -8  10   8   -9.90    6.10
   8 -10  -8    7.50    7.70
  -8 -10   8    9.20    8.40
  -8  10  -8    3.90    9.50
   8  10   8   15.80   11.90
   8  11  -8   -0.10    7.50
  -8  11   8   -5.70    7.00
   8  11   8    0.90   12.00
  -8  11  -8    0.40    7.90
   8   0   9   11.70    9.70
  -8   0  -9    9.70    7.90
  -8   1  -9   57.39   14.00
   8   1   9   23.40   11.50
  -8   2  -9   67.19   14.20
   8   2   9   50.49   15.00
   8   3   9   17.20   10.70
  -8   3  -9    7.40    7.30
  -8   4  -9    8.10    8.20
   8   4   9    0.20    9.80
  -8   5   9   39.50    6.30
   8   5  -9   56.29    8.00
   8  -5  -9   60.09    6.90
  -8   5  -9   28.90   10.40
   8   5   9   26.50   13.50
  -8  -5   9   46.90    6.30
  -8   6   9    3.10    4.80
   8   6  -9    5.60    5.00
  -8  -6   9   -3.20    3.90
   8   6   9    3.00    9.90
   8  -6  -9    3.10    4.60
  -8   6  -9    0.90    8.60
  -8   7   9   20.90    7.50
   8   7  -9   13.00    7.00
   8  -7  -9   24.00    7.30
   8   7   9   17.40   10.80
  -8  -7   9   33.60    8.30
  -8   7  -9    8.30    8.40
  -8   8   9   -2.70    5.50
   8   8  -9    7.90    6.80
   8  -8  -9   -1.10    5.60
  -8  -8   9    4.50    6.50
  -8   8  -9    6.10    9.30
   8   8   9   -3.30    9.40
  -8   9   9   -3.10    6.50
   8   9  -9   10.30    7.90
  -8   9  -9    8.70    9.10
   8   9   9   -2.40   10.00
  -8  -9   9   12.10    9.90
   8  -9  -9    8.30    8.70
  -8  10   9    6.00    8.10
   8  10  -9    0.80    7.50
  -8 -10   9   -0.40    8.00
   8  10   9    9.20   13.30
  -8  10  -9    4.20    9.20
   8 -10  -9    3.60    8.00
  -8  11   9   11.50    9.30
   8  11  -9   26.60   11.30
   8  11   9   14.80   14.20
  -8  11  -9   28.70   13.20
  -8   0 -10  808.52   41.20
  -8   1 -10   18.00    8.50
   8   1  10   21.20   12.30
   8   2  10    7.20   10.10
  -8   2 -10   17.70    9.60
   8   3  10   81.99   20.70
  -8   3 -10   60.69   13.70
  -8   4 -10  998.20   47.30
   8   4  10 1004.80   53.89
   8   5 -10   16.40    5.80
   8   5 -10   21.50    5.30
  -8   5  10   23.10    5.10
   8   5  10   21.60   14.00
   8  -5 -10   16.60    4.30
  -8   5 -10   28.30   10.30
  -8   6  10   -1.80    4.40
   8   6 -10    1.80    4.90
   8  -6 -10    3.70    5.20
  -8  -6  10   -2.10    6.70
   8   6  10   10.30   10.30
  -8   6 -10    2.00    6.50
  -8   7  10   -1.50    5.30
   8   7 -10   -2.20    5.20
   8  -7 -10    1.30    5.00
  -8  -7  10    0.10    4.70
  -8   7 -10    3.90    7.90
   8   7  10   -3.50    9.70
   8   8 -10  405.46   23.10
  -8   8  10  415.16   30.30
  -8   8 -10  455.05   32.80
   8   8  10  286.97   33.90
  -8  -8  10  348.77   20.80
   8  -8 -10  358.06   21.50
   8   9 -10   -2.00    6.10
  -8   9  10   -1.00    6.50
   8   9  10   11.80   14.50
  -8  -9  10    6.50    8.10
   8  -9 -10    0.80    6.90
  -8   9 -10    0.90    8.40
  -8  10  10   -8.80    6.10
   8  10 -10   -0.80    6.80
  -8  10 -10   11.60   10.00
   8  10  10   -0.60   10.50
  -8 -10  10    2.30    8.90
   8 -10 -10    5.50    8.70
  -8   0 -11    9.70    8.30
  -8   1 -11   -0.20    7.40
   8   1  11   -2.00   10.60
  -8   3 -11   26.20   10.20
   8   3  11    2.50    9.60
   8   4  11    3.90   10.90
  -8   4 -11   11.00    9.30
   8   5 -11    5.70    3.20
   8   5  11    1.10   11.20
  -8   5 -11   16.80   10.30
  -8   6  11    4.40    5.10
   8   6 -11   -2.70    4.50
   8   6 -11   -1.60    5.60
   8  -6 -11   -1.90    3.90
  -8   6 -11   -9.10    6.80
   8   6  11   -3.50   10.00
  -8   7  11   -2.30    5.10
   8   7 -11    1.10    5.60
   8   7  11  -15.70    9.20
   8  -7 -11   -3.90    4.60
  -8   7 -11    1.60    8.80
   8   8 -11    0.40    7.20
  -8   8  11   14.20   12.70
  -8  -8  11    1.90    6.00
   8  -8 -11    2.20    6.20
  -8   8 -11    5.80    9.00
   8   8  11   -0.50   13.00
  -8   9  11   10.10    8.60
   8   9 -11    4.30    7.00
   8  -9 -11    4.30    7.90
  -8  -9  11   17.80    8.80
  -8   9 -11    1.40   10.00
   8   9  11   12.70   11.80
  -8   0 -12  344.77   27.80
  -8  -1 -12   -2.00    7.10
   8   1  12    1.00   10.60
  -8   1 -12    2.80    7.80
   8   2  12    2.10    9.80
  -8   2 -12    5.50    9.10
   8   3  12   43.50   18.20
  -8   3 -12   41.40   14.70
  -8   4 -12  575.14   36.20
   8   4  12  535.35   41.50
  -8   5 -12   -1.30    8.10
   8   5  12   -8.90   10.30
   8   6 -12    7.90    5.70
  -8   6  12   11.30    5.30
   8   6 -12    6.30    4.80
   8   6  12    4.20   12.70
   8  -6 -12   10.90    4.20
  -8   6 -12   -5.10    7.90
  -8   7  12    2.20    5.80
   8   7 -12   -1.30    5.50
   8   7 -12    3.90    7.30
   8   7  12    6.60   11.80
   8  -7 -12    2.00    5.30
  -8   7 -12    1.70    9.10
  -8   8  12  204.18   17.50
   8  -8 -12  170.08   16.40
  -8   8 -12  208.88   28.00
   8   8  12  157.28   26.70
  -8   0 -13   -2.60    8.20
  -8  -1 -13   13.10   10.80
  -8   1 -13   20.00   11.10
  -8   2 -13   -5.20    8.10
   8   2  13    9.30   12.70
  -8   3 -13   29.90   12.50
   8   3  13   28.50   16.20
   8   4  13   16.10   13.30
  -8   4 -13    5.30   10.10
  -8   5 -13   39.90   14.70
   8   5  13   23.70   14.10
  -8   6 -13  -11.10    7.10
   8   6  13   -7.30   11.40
  -8   0 -14  150.18   24.00
  -8  -1 -14   13.10   11.70
  -8   1 -14   -8.90    7.10
  -8  -2 -14    3.30   10.50
  -8   2 -14   13.00   10.60
   8   3  14   16.00   15.20
  -8   3 -14   19.20   12.90
   8   4  14  111.69   23.60
  -8   4 -14  111.09   21.20
  -9   0   0   -5.00    4.20
   9   0   0    0.20    5.30
  -9   1   0    1.80    3.80
  -9   1   0    1.10    4.70
  -9  -1   0   -2.30    4.00
   9   1   0   -2.40    4.50
  -9  -2   0   -7.30    3.40
  -9   2   0    4.50    5.60
   9   2   0   -7.80    4.40
  -9   2   0    1.90    4.30
  -9  -3   0    2.20    4.30
   9   3   0   -9.90    4.10
  -9   3   0    1.50    6.20
  -9   3   0   -2.70    3.40
  -9  -4   0    5.40    4.80
  -9   4   0    2.30    5.70
  -9   4   0    2.30    5.50
   9   5   0    3.00    6.90
  -9  -5   0    1.80    5.70
  -9   5   0    9.60    5.40
   9  -5   0    4.50    4.80
  -9   6   0   -1.40    4.50
   9  -6   0    4.80    5.10
   9   6   0    2.10    6.70
  -9  -6   0   -1.10    5.70
  -9   7   0    2.30    5.70
   9  -7   0   -6.00    4.50
   9   7   0    1.50    7.20
  -9  -7   0    4.10    6.60
  -9   8   0   10.10    7.60
   9  -8   0   -0.70    5.60
   9   8   0   -6.50    6.40
  -9  -8   0   -5.80    6.50
  -9   9   0   -1.70    6.60
   9   9   0   -3.10    7.30
  -9  10   0   -4.70    5.80
   9  10   0   -7.80    8.00
   9  11   0   -1.10    9.10
  -9  11   0   -2.60    6.50
   9  12   0  -15.20    8.00
  -9  12   0    1.70    8.40
  -9  13   0   -2.40    7.40
   9  13   0    7.20   11.90
  -9   0   1  139.69   10.70
  -9   0  -1  124.49   15.00
   9   0   1  171.98   19.50
  -9   0   1  143.39   12.40
   9   1  -1  450.55   23.40
  -9   1   1  449.95   22.30
  -9  -1  -1  461.45   24.10
  -9   1   1  456.35   20.10
   9   1   1  460.55   26.00
  -9   1  -1  463.15   22.20
  -9  -1   1  436.36   21.60
  -9   1  -1  443.56   24.50
  -9   2   1 1146.19   38.00
   9   2  -1 1096.99   41.30
  -9  -2  -1 1093.99   42.10
  -9   2   1 1105.99   41.00
  -9   2  -1 1114.19   40.00
  -9   2  -1 1074.69   43.40
  -9  -2   1 1107.59   39.20
   9   2   1 1119.09   44.40
   9   3  -1  109.79   13.80
  -9   3   1  138.49   14.00
  -9   3   1  127.19   15.90
  -9  -3  -1  107.59   14.40
  -9   3  -1  102.99   16.00
   9   3   1  129.89   20.30
  -9  -3   1  117.99   13.30
   9   4  -1   -2.50    5.40
  -9  -4  -1    2.80    5.20
  -9   4   1    0.00    4.60
  -9   4   1    7.60    6.90
   9   4   1    1.10    6.50
  -9   4  -1    5.50    6.60
  -9  -4   1    0.50    4.80
  -9   4  -1   12.00    6.00
  -9  -5  -1  109.59   14.60
   9  -5   1  114.19   14.60
   9   5  -1   93.79   14.70
  -9   5  -1  123.09   17.00
   9  -5  -1  120.19   14.20
  -9  -5   1   95.99   13.50
   9   5   1  116.69   17.80
  -9   5  -1  119.89   14.70
  -9   6   1 1157.48   43.10
   9  -6   1 1213.48   50.19
   9   6  -1 1080.29   44.80
  -9   6  -1 1132.89   44.80
  -9  -6   1 1053.99   42.40
   9  -6  -1 1162.48   42.60
   9   6   1 1134.39   47.70
   9   7  -1  232.88   19.80
   9  -7   1  206.38   20.50
  -9   7   1  196.68   17.00
  -9  -7  -1  202.58   21.10
  -9   7  -1  191.68   20.70
  -9  -7   1  193.68   20.80
   9   7   1  208.28   24.20
   9  -7  -1  197.28   19.10
  -9  -8  -1   -6.10    5.90
  -9   8   1   15.50    7.20
   9   8  -1    6.40    8.00
   9  -8   1   15.30    8.10
   9  -8  -1   12.40    7.20
  -9  -8   1    7.90    7.00
  -9   8  -1    2.30    6.20
   9   8   1    0.00    7.10
   9   9  -1   39.30   11.90
  -9   9   1   16.10    8.70
   9   9   1   33.10   12.30
  -9   9  -1   28.90   10.00
   9  10  -1  490.45   31.90
  -9  10   1  451.05   29.20
  -9  10  -1  488.05   31.00
   9  10   1  466.55   32.50
  -9  11   1   25.90   11.50
   9  11  -1   14.40    9.50
   9  11   1   21.60   11.40
  -9  11  -1   16.90   10.20
  -9  12   1    9.60   10.60
   9  12  -1  -11.20    9.00
   9  12   1   -7.40    8.60
  -9  12  -1   -0.50    8.20
   9  13  -1   30.10   14.00
  -9  13   1   22.20   11.30
  -9  13  -1   42.30   14.00
   9  13   1   35.70   14.80
  -9   0   2   -2.00    3.40
  -9   0  -2   -1.10    4.40
   9   0   2   -3.70    5.30
  -9   0   2    3.90    3.50
  -9  -1  -2  177.28   19.00
   9   1  -2  166.18   13.50
  -9   1   2  188.88   11.60
   9   1   2  210.28   23.60
  -9   1  -2  177.18   14.90
  -9   1  -2  191.58   19.10
   9   2  -2   -0.90    4.40
  -9  -2  -2   -3.60    4.00
  -9   2   2   -1.40    3.00
  -9   2   2    0.00    4.90
  -9   2  -2    8.90    5.90
   9   2   2    3.20    5.80
  -9   2  -2   -1.40    4.80
  -9  -2   2    2.70    3.90
  -9  -3  -2  128.69   17.20
  -9   3   2  136.09   12.80
   9   3  -2  125.99   14.50
  -9   3   2  129.49   14.90
  -9   3  -2  126.29   18.20
  -9  -3   2  103.79   12.00
  -9   3  -2  100.59   13.30
   9   3   2  109.59   15.70
  -9   4   2    2.50    5.00
  -9  -4  -2   -0.50    4.90
  -9   4   2    1.40    4.40
   9   4  -2    3.90    5.50
  -9   4  -2   -1.90    4.30
  -9  -4   2    4.40    4.00
  -9   4  -2    3.80    6.20
   9   4   2    2.20    7.60
   9   5  -2  233.08   17.70
  -9   5   2  265.77   16.70
  -9  -5  -2  261.57   20.30
   9  -5  -2  258.47   16.20
   9   5   2  241.58   21.00
  -9   5  -2  215.28   17.70
  -9   5  -2  210.58   23.10
  -9  -5   2  260.97   16.90
  -9   6   2   84.39   12.90
  -9  -6  -2   39.20    9.80
   9  -6   2   75.69   12.90
   9   6  -2   63.89   12.40
  -9  -6   2   58.09   10.70
   9   6   2   41.80   11.20
   9  -6  -2   57.59   10.30
  -9   6  -2   62.49   11.50
  -9   7   2   46.00   10.60
   9   7  -2   42.70   10.60
  -9  -7  -2   51.09   13.40
   9  -7   2   56.89   11.60
  -9   7  -2   39.30   11.50
  -9  -7   2   56.89   10.70
   9   7   2   32.20   10.60
   9  -7  -2   62.49   10.90
   9   8  -2    2.30    7.80
  -9   8   2   23.20    8.60
  -9   8  -2   11.60    7.70
  -9  -8   2    9.40    7.50
   9   8   2    8.70    8.20
   9  -8  -2   20.10    7.60
  -9   9   2   16.10    8.90
   9   9  -2   23.40   10.20
  -9  -9   2   31.20   10.60
  -9   9  -2   22.20    9.60
   9   9   2    9.40    9.50
   9  -9  -2   22.50    8.40
  -9  10   2   -1.70    6.20
   9  10  -2   -6.60    8.40
   9  10   2    0.20    8.80
  -9  10  -2    9.80    7.40
  -9  11   2   17.20    8.70
   9  11  -2   16.50   10.90
  -9  11  -2    9.20    8.20
   9  11   2   50.89   16.90
   9  12  -2   -2.90    7.90
  -9  12   2   -1.70    6.70
  -9  12  -2    4.90    9.90
   9  12   2   14.50   13.00
  -9  13   2   23.90   11.40
   9  13  -2   32.90   14.30
   9  13   2   17.60   13.00
  -9  13  -2   24.40   12.90
  -9   0  -3    1.00    5.70
   9   0   3    2.20    6.10
  -9   0   3    5.40    3.20
  -9   0   3    7.20    4.00
  -9   1   3  157.28    9.70
   9   1  -3  133.09   11.30
  -9   1   3  146.49   10.80
  -9  -1  -3  196.78   21.10
  -9   1  -3  196.88   19.80
  -9  -1   3  133.89   10.10
  -9   1  -3  189.18   22.10
   9   1   3  148.09   18.20
  -9  -2  -3  618.44   31.30
  -9   2   3  631.34   23.20
   9   2  -3  621.74   25.60
  -9   2   3  630.74   25.20
   9   2   3  627.84   33.30
  -9   2  -3  611.84   32.30
  -9   2  -3  580.54   28.30
  -9  -2   3  620.44   23.50
  -9   3   3   60.29    8.40
  -9  -3  -3   47.90   11.70
   9   3  -3   66.49   10.10
  -9   3   3   50.19    8.90
  -9  -3   3   39.50    7.50
  -9   3  -3   84.39   14.90
  -9   3  -3   71.29   12.20
   9   3   3   46.70   11.70
  -9   4   3    9.10    6.00
  -9  -4  -3    3.30    7.30
  -9   4   3   11.30    5.10
   9   4  -3    6.80    6.00
  -9   4  -3    7.80    6.00
  -9  -4   3    8.00    4.40
   9   4   3   -1.50    5.80
  -9   4  -3    1.40    7.90
  -9   5   3  177.28   13.20
   9   5  -3  155.18   16.50
  -9  -5  -3  227.18   24.70
   9   5   3  161.08   22.50
  -9   5  -3  186.08   21.70
  -9   5  -3  195.98   16.90
  -9  -5   3  142.29   12.70
   9  -5  -3  150.08   12.20
  -9  -6  -3  401.26   26.10
  -9   6   3  385.36   23.90
   9  -6   3  354.36   23.50
  -9   6  -3  374.36   27.90
   9   6   3  387.46   27.60
   9  -6  -3  380.16   20.60
  -9   6  -3  384.86   24.60
  -9  -6   3  362.96   20.70
   9   7  -3  100.09   15.40
  -9   7   3  111.99   14.60
   9  -7  -3   73.19   11.50
   9   7   3   83.19   16.80
  -9   7  -3  117.89   16.10
  -9  -7   3   90.39   13.30
  -9   8   3    2.40    6.10
   9   8  -3   11.00    8.30
  -9   8  -3    0.90    7.20
   9   8   3    1.40    7.50
  -9   9   3    1.30    6.60
   9   9  -3   -1.60    6.50
   9  -9  -3    8.20    7.20
  -9  -9   3    6.50    7.90
  -9   9  -3    4.20    8.60
   9   9   3    0.80    8.50
   9  10  -3  127.09   18.60
  -9  10   3  163.38   20.30
   9  11  -3   49.99   13.10
  -9  11   3   30.10   11.60
  -9  11  -3   56.09   15.90
   9  11   3   53.39   16.20
  -9  12   3   -4.40    7.90
   9  12  -3   -3.60    7.90
   9  12   3   13.40   10.90
  -9  12  -3    9.70    8.80
   9  13  -3   49.90   16.40
  -9  13   3   39.40   13.60
   9  13   3   52.59   18.20
  -9  13  -3   30.80   14.20
  -9   0   4   -0.30    2.80
   9   0   4    2.50    6.60
  -9   0   4    1.10    2.60
  -9   0  -4    5.60    6.50
  -9   1   4  292.07   13.50
  -9   1   4  286.47   12.60
  -9  -1  -4  338.57   23.10
  -9   1  -4  345.37   23.60
  -9   1  -4  274.47   19.20
  -9  -1   4  284.27   12.80
  -9  -1   4  302.17   12.40
   9   1   4  290.87   23.50
  -9   2   4   16.90    4.30
   9   2  -4   30.50    6.50
  -9   2   4   28.00    6.40
  -9  -2  -4   15.30    7.70
  -9  -2   4   27.50    5.30
  -9   2  -4   11.00    8.40
   9   2   4   38.60   10.80
  -9   2  -4   30.90    8.80
   9   3  -4  534.95   23.00
  -9  -3  -4  537.75   34.20
  -9   3   4  556.24   21.10
  -9   3   4  543.95   23.30
  -9  -3   4  528.65   20.90
   9   3   4  580.74   33.00
  -9   3  -4  581.04   28.90
  -9   3  -4  541.45   36.00
   9   4  -4    2.40    4.90
  -9   4   4    4.60    4.10
  -9  -4  -4   -0.30    5.90
  -9  -4   4    0.10    3.70
  -9   4  -4    5.00    5.60
   9   4   4    9.40    8.10
  -9   4  -4    4.50    6.70
   9   5  -4  166.98   14.20
  -9  -5  -4  196.28   23.30
  -9   5   4  181.78   12.90
  -9   5  -4  113.49   18.00
   9  -5  -4  169.78   12.30
   9   5   4  193.98   24.00
  -9   5  -4  187.58   21.20
  -9  -5   4  168.28   12.60
   9   6  -4   54.29   10.80
  -9   6   4   44.00    8.70
  -9   6  -4   66.29   24.40
  -9   6  -4   48.00   12.80
  -9  -6   4   29.70    8.10
   9  -6  -4   43.20    8.60
   9   6   4   31.60   11.10
   9   7  -4  111.59   15.40
  -9   7   4   77.99   11.90
  -9   7  -4  139.39   18.90
   9  -7  -4  106.59   13.10
  -9  -7   4   92.79   12.80
   9   7   4  135.59   21.40
   9   8  -4   64.19   12.10
  -9   8   4   47.40   10.50
  -9  -8   4   30.90    9.60
   9   8   4   74.79   17.90
  -9   8  -4   56.19   13.30
   9  -8  -4   50.99   10.40
   9   9  -4  130.49   17.90
  -9   9   4  138.69   17.40
  -9  -9   4  148.19   18.40
   9  -9  -4   94.89   14.00
   9   9   4  104.89   18.60
  -9   9  -4  163.48   21.00
   9  10  -4   -4.40    6.90
  -9  10   4   14.50    8.20
  -9  10  -4   15.80   10.30
   9  10   4    0.60   10.40
   9  11  -4   54.99   13.70
  -9  11   4   90.29   16.50
  -9  11  -4   74.49   17.40
   9  11   4   46.20   16.00
   9  12  -4   -5.10    8.50
  -9  12  -4   -0.30    8.20
   9  12   4  -14.10    9.00
   9  13  -4   77.69   19.40
  -9  13   4   29.60   12.40
  -9  13  -4   55.99   16.50
   9  13   4   64.19   19.30
  -9   0   5   64.49    5.30
  -9   0   5   58.59    4.10
   9   0   5  121.79   17.30
  -9   0  -5  112.49   16.20
  -9   1   5  122.09    6.50
  -9  -1  -5  135.79   20.00
  -9   1   5  123.89    6.20
   9   1   5  139.29   19.10
  -9   1  -5  165.08   20.20
  -9  -1   5  127.09    6.10
  -9   1  -5  162.78   18.70
  -9  -1   5  125.29    6.20
  -9  -2  -5  504.45   29.80
   9   2  -5  532.95   19.20
  -9   2   5  505.75   17.10
  -9   2   5  502.95   18.10
  -9  -2   5  500.65   17.10
  -9   2  -5  480.05   30.20
  -9   2  -5  484.35   27.30
   9   2   5  508.05   32.00
  -9   3   5    1.10    3.70
  -9   3   5    3.80    3.50
  -9  -3  -5   12.30    7.60
   9   3  -5   -2.00    3.60
  -9   3  -5   15.00    7.10
  -9   3  -5   17.50    9.60
   9   3   5   23.70    9.00
  -9  -3   5    2.70    3.00
  -9  -4  -5  126.99   18.80
  -9   4   5  101.29    9.00
   9   4  -5  128.19   11.10
  -9   4  -5  125.99   19.60
  -9   4  -5  122.69   17.40
   9   4   5  201.48   26.50
  -9  -4   5  115.19    9.50
  -9   5   5  156.28   11.70
   9   5  -5  170.28   13.60
   9   5   5  167.48   20.80
  -9   5  -5  192.98   21.40
   9  -5  -5  186.48   12.40
  -9  -5   5  156.48   11.80
  -9   6   5  179.88   13.50
   9   6  -5  171.28   14.90
   9  -6  -5  179.28   13.20
  -9  -6   5  185.98   13.80
   9   6   5  263.37   30.90
  -9   6  -5  192.48   22.70
  -9   7   5  140.69   17.30
   9   7  -5  161.08   17.80
  -9   7  -5  124.79   18.70
   9   7   5  161.58   21.70
  -9  -7   5  152.28   15.60
   9  -7  -5  156.78   15.70
  -9   8   5   90.99   13.10
   9   8  -5   66.39   13.00
  -9   8  -5   83.99   16.00
   9   8   5  129.39   24.20
   9  -8  -5   53.59   10.80
  -9  -8   5   77.19   13.70
   9   9  -5   12.30    8.20
  -9   9   5   18.80    7.20
   9  -9  -5   20.30    8.30
   9   9   5   41.50   14.70
  -9   9  -5   29.00   16.00
  -9  -9   5   10.20    8.20
   9  10  -5  149.59   19.80
  -9  10   5  161.98   19.30
  -9  10  -5  147.29   20.70
   9  10   5  194.28   26.80
  -9  11   5   19.80   10.20
   9  11  -5   21.00   11.00
   9  11   5   40.70   16.40
  -9  11  -5   23.20   11.80
  -9  12   5   61.29   16.70
  -9  12  -5   58.79   15.30
   9  12   5   39.70   15.60
   9   0   6    2.90    8.00
  -9   0  -6    1.50    6.90
  -9  -1  -6  418.86   28.60
  -9   1  -6  468.65   27.10
   9   1   6  436.96   31.10
  -9   1  -6  489.45   30.50
  -9  -2  -6   -4.30    6.30
  -9   2  -6   -2.80    7.10
   9   2   6   -2.10    8.30
  -9   2  -6   -6.00    4.60
  -9  -3  -6  102.79   17.70
  -9   3   6   90.79    6.30
  -9   3   6   88.09    7.20
   9   3  -6   83.19    8.00
   9   3   6  125.69   21.80
  -9  -3   6   88.09    6.10
  -9   3  -6  108.39   16.20
  -9   3  -6  107.79   18.90
   9   4  -6   31.00    6.70
  -9   4   6   25.60    5.40
  -9   4   6   33.40    6.80
  -9  -4   6   26.60    5.60
   9   4   6   32.50   12.80
  -9   4  -6   26.70    9.40
   9   5  -6   29.30    7.50
  -9   5   6   29.80    6.40
  -9  -5   6   39.30    8.80
   9   5   6   17.50   11.10
  -9   5  -6   32.40   10.80
  -9   6   6    7.20    4.90
   9   6  -6   12.10    6.50
  -9   6  -6   -7.60    4.80
   9  -6  -6    3.20    4.60
  -9  -6   6    5.10    4.80
   9   6   6   -2.50    7.00
  -9   7   6  244.38   16.30
   9   7  -6  225.78   30.90
   9   7   6  265.07   31.10
  -9   7  -6  223.78   25.50
   9  -7  -6  198.58   15.20
  -9  -7   6  234.88   16.40
   9   8  -6   44.90   10.80
  -9   8   6   33.50    9.00
  -9   8  -6   35.00   13.10
   9   8   6   18.70   16.70
  -9  -8   6   26.60    8.50
   9  -8  -6   38.30    9.40
   9   9  -6  121.29   17.10
  -9   9   6  152.88   17.90
   9   9   6  199.78   34.00
  -9   9  -6  180.18   25.30
   9  -9  -6  150.08   17.30
  -9  -9   6  155.48   18.50
   9  10  -6    2.10    8.60
  -9  10   6    5.10    7.00
  -9  10  -6    8.20    9.00
   9 -10  -6    4.80    8.30
   9  10   6   -5.30    9.20
   9  11  -6   47.00   12.10
  -9  11   6   55.99   13.60
  -9  11  -6   78.99   18.00
   9  11   6   76.39   17.70
  -9  12   6  -10.10    6.30
   9  12   6    1.30   12.30
  -9  12  -6   -1.60    8.00
   9   0   7  252.17   27.30
   9   1   7   34.30   13.40
  -9   1  -7   42.90   11.40
   9   2   7   39.30   13.60
  -9   2  -7   36.60   11.80
  -9   3  -7    4.30    6.00
   9   3   7    8.10    9.00
   9   4  -7  235.48   12.30
  -9   4   7  226.48   10.90
  -9   4   7  225.98   12.50
  -9  -4   7  228.18   10.70
   9   4   7  308.07   35.10
  -9   4  -7  244.28   21.10
  -9   5   7   35.50    6.50
   9   5  -7   16.50    5.90
   9  -5  -7   23.00    5.30
   9   5   7   22.20   11.60
  -9  -5   7   27.60    6.20
  -9   5  -7    8.30    8.00
   9   6  -7   81.59   11.60
  -9   6   7   54.69    8.90
   9  -6  -7   44.90    8.00
  -9   6  -7   56.99   13.10
  -9  -6   7   45.20    8.40
   9   6   7   79.09   18.90
  -9   7   7   14.20    6.30
   9   7  -7   14.40    7.30
   9  -7  -7   15.10    6.30
  -9  -7   7    8.20    5.70
  -9   7  -7    5.80    8.70
   9   7   7   17.50   12.50
  -9   8   7  277.87   20.00
   9   8  -7  255.27   20.10
  -9   8  -7  345.07   27.20
   9  -8  -7  282.67   19.40
  -9  -8   7  293.57   20.00
   9   8   7  296.07   33.60
  -9   9   7   87.99   14.10
   9   9  -7  106.79   16.50
  -9   9  -7   83.79   17.80
   9  -9  -7   89.79   20.30
   9   9   7  114.09   23.60
  -9  -9   7   82.89   16.50
  -9  10   7    7.80    8.60
   9  10  -7    7.30    8.60
   9  10   7  -10.70    9.30
  -9 -10   7   -3.40    7.20
  -9  10  -7   -0.10    9.00
   9 -10  -7    4.50    7.30
   9  11  -7   66.29   14.90
  -9  11   7   63.99   14.10
  -9  11  -7   55.19   14.70
   9  11   7   49.20   16.20
   9   0   8   -8.40    6.50
   9   1   8  113.69   20.10
  -9   1  -8  107.99   16.20
   9   2   8  108.69   21.30
  -9   2  -8   93.39   16.20
  -9   3  -8   25.20   10.60
   9   3   8    7.80    9.60
   9   4   8   14.30   10.90
  -9   4  -8    5.20    7.10
   9   5  -8  115.59   10.10
  -9   5   8  121.99    9.30
  -9  -5   8  126.99    8.90
   9   5   8  112.19   19.90
   9  -5  -8  133.79    9.00
  -9   5  -8  137.59   20.40
  -9   6   8   13.90    5.80
   9   6  -8   21.40    7.30
   9   6   8   34.70   20.10
   9  -6  -8   22.70    6.20
  -9   6  -8   16.80   11.00
  -9  -6   8   11.50    5.50
   9   7  -8   27.00    8.40
  -9   7   8   30.40    8.30
   9   7   8   39.70   16.70
  -9  -7   8   25.60    7.30
  -9   7  -8   12.80    9.30
   9  -7  -8   21.30    6.90
   9   8  -8   -5.00    5.50
  -9   8   8    0.30    5.80
  -9  -8   8    1.50    6.00
   9   8   8   -8.30    8.70
  -9   8  -8   11.30    8.40
   9  -8  -8   -2.00    5.00
   9   9  -8   52.49   12.10
  -9   9   8   48.10   10.80
   9  -9  -8   60.59   14.10
  -9   9  -8   65.79   16.70
   9   9   8   35.20   14.70
  -9  10   8    5.30    7.60
   9  10  -8   17.30    9.20
   9 -10  -8   17.10    8.80
   9  10   8   21.70   13.70
  -9 -10   8    4.80    8.10
  -9  10  -8    9.00   10.20
   9  11  -8   96.19   17.70
  -9  11   8   87.49   16.10
  -9  11  -8   63.09   16.70
   9  11   8   52.99   16.80
  -9   0  -9 1276.47   54.39
   9   1   9  357.06   31.40
  -9   1  -9  342.67   26.00
   9   2   9   31.30   12.80
  -9   2  -9   38.90   13.40
  -9   3  -9  527.65   32.40
   9   3   9  525.65   38.00
  -9   4  -9  782.22   40.90
   9   4   9  761.22   46.30
  -9   5   9  179.78    9.70
   9   5  -9  171.68   10.70
  -9   5  -9  224.28   26.40
   9   5   9  149.88   30.10
  -9   6   9    9.20    5.20
   9   6  -9    0.00    4.80
   9   6   9  -11.70    7.90
  -9   6  -9   10.80    9.70
   9  -6  -9    4.00    4.20
  -9  -6   9   -1.70    3.80
   9   7  -9   22.50    8.00
  -9   7   9   43.30    9.00
   9  -7  -9   35.90    7.50
   9   7   9   43.00   17.80
  -9   7  -9   11.40    9.00
  -9  -7   9   40.30    8.20
   9   8  -9  394.56   23.60
  -9   8  -9  381.56   30.40
   9   8   9  349.27   39.70
  -9  -8   9  360.76   21.00
   9  -8  -9  353.56   21.00
  -9   9   9   33.50   10.10
   9   9  -9   38.70   11.20
   9   9   9    7.50   11.40
   9  -9  -9   21.20    8.80
  -9   9  -9   41.70   14.30
  -9  -9   9   25.50    8.80
  -9  10   9   -8.20    6.20
   9  10  -9   -2.80    6.90
   9  10   9   -2.10   11.20
   9 -10  -9    4.00    8.00
  -9  10  -9   -6.70    6.60
  -9 -10   9    3.10    8.30
  -9   0 -10   -6.60    6.80
   9   1  10   -0.60    8.90
  -9   1 -10   -9.90    6.20
  -9   3 -10   64.89   14.90
   9   3  10   24.50   14.90
   9   4  10   27.70   13.70
  -9   4 -10   25.10   11.10
   9   5  10   32.10   14.30
  -9   5 -10   30.50   11.90
  -9   6  10    9.10    5.00
   9   6 -10   11.80    5.30
   9   6  10   -7.60    9.00
   9  -6 -10    6.90    4.00
  -9   6 -10  -10.40    5.80
   9   7 -10   20.70    6.90
  -9   7  10   11.40    6.20
   9  -7 -10   17.40    6.30
  -9  -7  10   11.20    5.60
  -9   7 -10    7.40    8.70
   9   7  10   28.50   15.80
  -9   8  10   13.00    7.00
  -9   8 -10  -12.30    6.70
   9  -8 -10    4.70    6.20
   9   8  10   -2.60   10.60
  -9  -8  10    2.00    6.20
  -9   9  10    8.80    7.40
   9   9 -10   15.00    8.50
  -9   9 -10    0.80   10.50
   9   9  10    4.60   10.60
   9  -9 -10   10.20    7.80
  -9  -9  10   18.50    8.40
  -9   0 -11  452.15   31.80
   9   1  11   36.70   15.50
  -9   1 -11   65.79   14.90
  -9   2 -11   -0.40    7.20
   9   2  11   12.40   11.20
   9   3  11  109.19   24.20
  -9   3 -11   85.59   17.40
  -9   4 -11  456.35   32.00
   9   4  11  416.86   37.00
   9   5  11   35.00   15.60
  -9   5 -11   17.70   10.30
   9   6 -11   15.70    4.70
   9   6 -11   15.00    4.90
  -9   6 -11   15.70    9.50
   9   6  11    2.00   11.70
   9   7 -11   42.40    8.10
  -9   7  11   36.90    7.90
   9   7  11   24.70   16.50
  -9   7 -11   34.40   13.00
  -9   8  11  115.79   14.20
   9   8 -11  179.48   17.30
   9  -8 -11  176.88   14.70
   9   8  11  184.48   32.90
  -9   8 -11  151.48   23.30
  -9  -8  11  160.68   13.60
  -9   0 -12  -10.80    7.20
  -9  -1 -12   -8.90    7.20
  -9   1 -12    4.30    9.40
  -9   2 -12    1.90    7.80
   9   2  12    0.30   10.90
   9   3  12    0.40   10.40
  -9   3 -12    4.10    8.40
  -9   4 -12    2.40    7.90
   9   4  12    3.90   12.30
   9   5  12    8.90   12.30
  -9   5 -12    5.20    8.90
  -9   6 -12    6.10   10.10
   9   6  12    3.70   13.80
  -9   7  12    8.70    5.20
   9   7 -12    3.50    5.10
   9   7 -12    2.00    5.50
   9   7  12   -4.90   10.50
  -9   7 -12    4.50    9.90
   9  -7 -12   -1.80    3.80
  -9   0 -13  174.78   24.70
  -9  -1 -13   10.50   10.10
  -9   1 -13    2.30    8.60
   9   2  13    4.20   12.30
  -9   2 -13   -4.70    7.00
  -9   3 -13   14.40   10.40
   9   3  13   28.30   15.90
  -9   4 -13  208.38   27.80
   9   4  13  221.98   35.00
  -9   5 -13   12.80    9.80
   9   5  13   24.20   15.20
  -9   0 -14  -11.10    6.80
  -9  -1 -14   32.00   13.90
  -9   1 -14   11.50   10.80
 -10   0   0    2.80    5.30
 -10   0   0   -3.50    3.90
  10   1   0  720.83   34.30
 -10   1   0  751.42   33.10
 -10   1   0  763.22   30.60
 -10  -1   0  784.72   33.00
 -10   2   0  603.34   29.30
  10   2   0  540.85   29.00
 -10  -2   0  563.14   27.50
 -10   2   0  584.24   26.10
  10   3   0  361.06   23.40
 -10   3   0  364.76   23.20
 -10  -3   0  353.36   21.30
 -10   3   0  361.96   23.00
 -10   4   0  106.19   13.30
  10   4   0  119.89   17.90
 -10   4   0  126.69   17.00
 -10  -4   0  126.29   16.30
  10   5   0  289.67   22.10
 -10   5   0  253.97   20.90
 -10   5   0  292.87   19.40
 -10  -5   0  283.37   20.10
  10   6   0  375.36   25.80
 -10   6   0  396.06   23.90
  10  -7   0  479.35   26.70
 -10  -7   0  470.15   27.80
  10   7   0  467.75   29.50
 -10   7   0  456.15   26.80
  10   8   0  200.18   23.60
 -10   8   0  144.29   18.00
  10   9   0  161.18   22.20
 -10   9   0  179.88   21.90
  10  10   0   82.59   16.90
 -10  10   0   70.49   14.20
  10  11   0   91.39   18.70
 -10  11   0  144.59   20.60
  10  12   0   73.59   16.60
 -10  12   0   86.39   17.70
  10  13   0   50.19   15.20
 -10  13   0   59.99   15.30
 -10   0   1   -4.50    4.00
 -10   0   1    0.20    3.70
  10   0   1   -8.20    4.80
 -10   0  -1   -2.80    4.70
 -10   1   1    0.20    4.20
 -10  -1  -1    0.70    5.80
  10   1  -1   -1.20    4.90
 -10   1   1   -5.30    4.10
  10   1   1  -11.30    4.40
 -10   1  -1   -2.10    4.30
 -10  -1   1   -4.90    3.80
 -10   1  -1   -0.40    4.30
 -10   2   1    0.60    4.90
 -10   2   1    3.20    4.60
 -10  -2  -1    3.60    6.40
  10   2  -1    2.90    5.50
 -10   2  -1   12.30    7.10
 -10   2  -1    7.70    4.90
 -10  -2   1    4.70    5.40
  10   2   1   11.70    7.60
  10   3  -1  184.48   16.20
 -10   3   1  213.28   17.10
 -10   3   1  176.98   13.80
 -10  -3  -1  192.88   16.70
 -10   3  -1  189.68   15.30
  10   3   1  212.58   23.60
 -10   3  -1  208.58   21.70
 -10  -3   1  182.18   14.60
 -10   4   1   -1.20    5.70
 -10  -4  -1    0.80    5.00
  10   4   1   -1.10    6.60
 -10  -4   1    7.30    5.50
 -10   4  -1    2.40    5.10
 -10   4  -1    0.20    5.60
 -10   5   1    4.10    5.50
  10   5  -1   -6.80    5.60
 -10   5   1   -0.70    5.50
 -10  -5  -1    2.20    7.50
 -10   5  -1    1.40    5.00
 -10  -5   1    8.40    6.40
  10   5   1   -9.00    6.30
 -10   5  -1    9.50    7.90
  10  -6   1   21.90    8.50
 -10  -6  -1   21.30    9.80
  10   6  -1   14.60    9.10
 -10   6   1   24.70    8.40
  10  -6  -1    5.40    6.30
 -10  -6   1   28.10    8.90
  10   6   1   21.00   10.40
 -10   6  -1   15.50    9.50
 -10   6  -1   16.40    8.50
 -10   7   1   64.19   12.10
  10  -7   1   41.50   11.40
 -10  -7  -1   58.39   12.80
  10   7  -1   56.79   14.00
  10   7   1   40.60   13.50
 -10   7  -1   72.59   14.40
 -10  -7   1   49.50   11.50
  10  -7  -1   45.10   10.60
  10   8  -1    8.90    8.60
 -10   8   1    6.70    6.20
 -10  -8   1    9.40    7.50
  10   8   1    2.20    9.10
 -10   8  -1   -4.40    6.40
  10  -8  -1   11.30    7.70
  10   9  -1   20.90   10.80
 -10   9  -1   25.50   11.60
  10   9   1    8.00    9.90
 -10  10   1   44.50   11.90
  10  10  -1   12.60   10.70
  10  10   1   25.90   12.30
 -10  10  -1   20.10   10.30
  10  11  -1   19.20   18.00
  10  11   1   18.00   11.00
 -10  11  -1   24.60   10.10
 -10  12   1    1.40    8.10
  10  12  -1    3.30    9.80
 -10  12  -1   -0.40    8.00
  10  12   1   -1.10    9.70
 -10  13   1   13.10   10.70
  10  13  -1  -12.50    9.70
 -10  13  -1    2.90   10.80
  10  13   1   -6.90    9.70
 -10   0  -2   66.29   12.50
  10   0   2  101.89   18.20
 -10   0   2   83.99   11.40
 -10   0   2   89.09    9.80
 -10   1   2  274.77   15.20
 -10  -1  -2  275.87   20.30
 -10   1   2  283.27   17.10
  10   1  -2  277.27   18.00
  10   1   2  274.87   22.10
 -10  -1   2  298.97   16.90
 -10   1  -2  270.27   18.20
 -10   1  -2  284.57   20.90
 -10   2   2  495.15   24.80
 -10   2   2  522.65   22.50
 -10  -2  -2  571.74   29.30
  10   2  -2  559.94   26.30
 -10   2  -2  505.45   29.00
 -10  -2   2  507.85   23.40
  10   2   2  516.55   30.20
 -10   2  -2  540.85   26.60
 -10   3   2  208.58   13.90
  10   3  -2  207.58   16.20
 -10  -3  -2  208.68   21.80
 -10   3   2  167.88   15.00
 -10  -3   2  190.28   14.00
  10   3   2  250.27   21.30
 -10   3  -2  197.48   15.90
 -10   3  -2  227.78   23.90
 -10   4   2    8.70    6.60
 -10   4   2    0.80    4.60
  10   4  -2    8.10    6.20
 -10   4  -2   11.80    6.70
  10   4   2    5.40    7.60
 -10  -4   2    0.70    4.90
  10   5  -2  276.07   20.30
 -10   5   2  248.98   19.60
 -10  -5  -2  233.78   24.50
 -10   5  -2  275.27   26.90
 -10  -5   2  254.57   17.60
  10   5   2  278.37   22.90
 -10   5  -2  256.17   19.50
  10   6  -2  475.55   27.00
 -10   6   2  490.95   24.90
 -10  -6  -2  423.16   27.20
 -10   6  -2  453.65   27.10
 -10  -6   2  436.56   24.30
  10  -6  -2  458.35   23.80
  10   6   2  440.46   29.80
 -10   6  -2  452.85   30.60
  10   7  -2  176.68   21.20
 -10   7   2  144.19   17.50
 -10  -7   2  157.98   21.60
  10  -7  -2  149.39   17.50
  10   7   2  179.38   22.40
 -10   7  -2  173.48   21.80
  10   8  -2   11.60    9.00
 -10   8   2    0.90    6.20
  10   8   2   10.90   10.00
 -10   8  -2   19.80    8.40
 -10  -8   2    5.70    7.60
  10  -8  -2    8.90    6.60
 -10   9   2   18.40    8.00
  10   9  -2   21.40    9.60
 -10   9  -2    9.70    8.90
  10   9   2   17.90   10.70
 -10  10   2  359.36   25.60
  10  10  -2  343.27   27.10
  10  10   2  301.67   35.30
 -10  10  -2  331.77   46.20
  10  11  -2   53.69   15.20
 -10  11   2   39.70   13.00
 -10  11  -2   28.40   12.60
  10  11   2   50.59   16.10
 -10  12   2   11.80   10.00
  10  12  -2   -4.50    8.10
 -10  12  -2   -5.60    8.30
  10  12   2  -10.60    8.70
 -10  13   2   62.19   15.00
  10  13  -2   57.99   18.00
  10  13   2   29.10   13.60
 -10  13  -2   53.49   16.20
 -10   0  -3   -3.30    4.90
 -10   0   3   -5.70    2.70
 -10   0   3   -0.40    3.90
  10   0   3    0.40    6.60
 -10  -1  -3  172.58   19.10
 -10   1   3  150.98   10.30
 -10   1   3  147.19   11.80
 -10  -1   3  149.39   11.30
 -10   1  -3  156.88   19.50
 -10   1  -3  147.69   15.90
 -10  -1   3  142.99   10.20
  10   1   3  144.09   20.20
 -10   2   3    4.20    3.80
  10   2  -3    0.40    4.70
 -10  -2  -3   11.10    8.70
 -10   2   3   15.80    5.50
 -10  -2   3   13.60    5.30
 -10   2  -3   19.50    9.50
 -10   2  -3   28.00    7.40
  10   2   3   -0.10    7.30
 -10  -3  -3  314.27   23.30
 -10   3   3  318.37   16.90
 -10   3   3  304.17   18.80
  10   3  -3  331.57   19.50
 -10  -3   3  330.17   17.50
 -10   3  -3  341.87   25.20
 -10   3  -3  357.36   22.30
  10   3   3  343.47   25.70
 -10   4   3   16.10    6.00
  10   4  -3    7.90    6.20
 -10   4   3   12.20    6.70
 -10  -4  -3    7.60    6.80
  10   4   3   13.10    9.50
 -10   4  -3    4.70    8.10
 -10   4  -3   22.40    7.90
 -10  -4   3   19.90    6.90
  10   5  -3  184.78   16.10
 -10  -5  -3  158.18   21.20
 -10   5   3  153.28   13.10
 -10  -5   3  181.88   14.10
 -10   5  -3  178.98   20.50
 -10   5  -3  150.58   20.90
  10   5   3  150.58   21.00
  10   6  -3   35.90   10.00
 -10   6   3   39.50    8.80
  10   6   3   46.90   12.30
 -10   6  -3   66.79   13.90
 -10  -6   3   28.70    8.20
  10  -6  -3   33.30    8.30
  10   7  -3   47.20   12.20
 -10   7   3   41.00    9.50
  10   7   3   32.50   11.80
 -10   7  -3   32.60   11.90
  10  -7  -3   33.00    8.70
 -10  -7   3   45.20   10.40
 -10   8   3   41.30   10.80
  10   8  -3   50.69   12.20
 -10  -8   3    7.10    7.30
 -10   8  -3   19.00    8.70
  10  -8  -3   44.70   10.40
  10   8   3   17.60   11.40
 -10   9   3   55.29   12.40
  10   9  -3   29.90   10.90
 -10  -9   3   44.20   11.70
 -10   9  -3   80.59   17.40
  10  -9  -3   42.20   11.20
  10   9   3   35.90   14.20
  10  10  -3   -0.80    7.80
 -10  10   3   11.50    7.90
  10  10   3   12.00   11.10
 -10  10  -3    8.30    8.50
 -10  11   3   27.00   11.10
  10  11  -3   27.50   12.30
 -10  11  -3   26.50   13.10
  10  11   3   46.50   15.50
  10  12  -3   -8.20    7.00
 -10  12   3    5.30    8.70
 -10  12  -3   -0.60    6.90
  10  12   3   -0.80   11.70
 -10   0  -4   36.70   10.00
  10   0   4   20.10    9.40
 -10   0   4   18.60    4.50
 -10   0   4   10.50    4.20
 -10   1   4  346.87   15.90
 -10   1   4  335.07   14.70
 -10  -1  -4  351.76   24.70
  10   1   4  353.36   26.80
 -10   1  -4  370.76   22.70
 -10   1  -4  336.37   24.80
 -10  -1   4  337.97   14.50
 -10  -1   4  344.47   15.20
 -10   2   4  430.76   17.50
 -10  -2  -4  384.16   26.30
 -10   2   4  405.96   18.70
  10   2  -4  432.76   20.10
 -10   2  -4  364.76   26.80
 -10  -2   4  412.76   17.50
  10   2   4  426.96   29.30
 -10   2  -4  415.06   24.80
 -10   3   4   39.80   11.10
 -10   3   4   44.70    7.60
  10   3  -4   39.80    8.20
 -10  -3  -4   64.49   13.20
  10   3   4   72.79   16.00
 -10   3  -4   45.40   11.90
 -10   3  -4   63.59   11.70
 -10   4   4    3.70    3.90
 -10  -4  -4    5.80    6.20
  10   4  -4   10.50    6.60
 -10   4   4   13.20    6.90
 -10   4  -4   16.20    8.80
 -10  -4   4    1.20    4.10
  10   4   4   13.80    9.10
 -10   4  -4   24.80    8.70
  10   5  -4  185.78   15.50
 -10   5   4  175.68   13.40
 -10   5  -4  189.28   20.00
 -10  -5   4  200.48   14.20
  10   5   4  176.68   23.30
 -10   6   4   86.29   12.30
  10  -6  -4   73.49   10.90
 -10   6  -4  117.09   18.20
  10   6   4  112.69   20.60
 -10  -6   4   96.09   12.70
 -10   7   4  195.98   16.20
  10   7  -4  229.38   18.90
  10   7   4  169.28   23.30
  10  -7  -4  202.98   15.90
 -10   7  -4  272.27   22.50
 -10  -7   4  207.58   16.80
  10   8  -4   12.10    8.70
 -10   8   4    7.30    7.00
 -10   8  -4    6.40    7.00
  10   8   4   20.00   12.20
 -10   9   4   97.39   15.20
  10   9  -4   97.19   16.30
 -10  -9   4   94.49   15.50
  10   9   4  101.09   19.30
 -10   9  -4   84.19   18.20
  10  -9  -4   54.89   12.20
 -10  10   4  128.59   17.90
  10  10  -4  152.48   22.20
 -10  10  -4  184.08   24.10
  10  10   4  179.08   25.10
  10  11  -4   33.00   12.40
 -10  11   4   22.90    9.90
  10  11   4   49.10   15.50
 -10  11  -4   46.70   16.20
  10  12  -4   -6.70    8.20
 -10  12   4   16.00    9.50
  10  12   4   14.30   12.90
 -10  12  -4    5.20    9.30
 -10   0   5    0.60    2.30
  10   0   5    5.50    7.50
 -10   0  -5    9.40    7.30
 -10   0   5   -0.40    2.10
 -10  -1  -5  352.66   25.60
 -10   1   5  318.87   12.60
 -10   1   5  327.57   12.20
 -10  -1   5  326.27   12.10
  10   1   5  293.97   26.00
 -10   1  -5  325.57   25.20
 -10   1  -5  322.67   22.40
 -10  -1   5  318.77   12.20
 -10  -2  -5    7.90    7.20
 -10   2   5   -1.10    3.10
 -10   2   5   -5.60    2.40
 -10   2  -5    6.90    5.90
 -10   2  -5    0.60    6.80
  10   2   5   22.80   10.40
 -10  -2   5    1.20    2.90
 -10  -3  -5  108.39   19.10
 -10   3   5   86.59    9.00
  10   3  -5   96.39   10.50
 -10   3   5  101.09   10.70
 -10   3  -5   97.59   15.50
  10   3   5   86.29   17.10
 -10  -3   5  107.29    9.80
 -10   3  -5  144.69   23.70
 -10   4   5   27.10    6.40
  10   4  -5   26.10    7.50
  10   4   5   49.10   13.20
 -10   4  -5   31.00   10.30
  10   5  -5  150.48   15.50
 -10   5   5  140.29   11.70
 -10  -5   5  143.29   11.80
  10   5   5  116.69   18.70
 -10   5  -5  172.68   20.90
 -10   6   5    1.60    4.80
  10   6  -5    3.50    6.30
  10   6   5   -3.20    7.80
  10  -6  -5    6.40    5.00
 -10  -6   5    2.80    5.40
 -10   6  -5    1.90    6.60
  10   7  -5  211.18   21.10
 -10   7   5  225.38   16.10
  10  -7  -5  199.98   15.50
  10   7   5  198.08   27.30
 -10  -7   5  187.48   15.80
 -10   7  -5  155.58   20.00
  10   8  -5   19.10    9.00
 -10   8   5   15.10    7.50
 -10   8  -5   11.50   15.00
  10  -8  -5    4.90    5.70
 -10  -8   5   12.00    7.90
 -10   9   5  107.09   15.40
  10   9  -5   89.09   16.00
 -10  -9   5  106.79   16.10
  10  -9  -5   91.79   14.10
 -10   9  -5   87.19   15.90
  10   9   5  104.49   21.60
  10  10  -5    4.30    9.00
 -10  10   5    0.20    6.70
 -10  10  -5   -3.90    6.50
  10  10   5    6.10   11.80
  10  11  -5   33.50   12.90
 -10  11   5   30.20   11.30
  10  11   5   41.10   15.90
 -10  11  -5   39.60   13.00
  10  12  -5    2.50    8.50
 -10  12   5    0.90    9.20
 -10  12  -5   -0.10    9.40
  10  12   5    3.90   10.30
  10   0   6   43.90   12.80
 -10   1  -6   23.90    8.90
  10   1   6   23.70   12.20
  10   2   6   62.39   17.40
 -10   2  -6   43.90   11.80
 -10   3   6    0.80    2.60
  10   3  -6    0.50    3.70
 -10   3   6    4.70    3.50
 -10  -3   6    6.40    3.00
  10   3   6   12.20    9.50
 -10   3  -6    3.90    7.20
  10   4  -6   89.79   10.40
 -10   4   6   81.79   10.10
 -10   4   6  106.89    8.50
 -10  -4   6   89.79    8.00
 -10   4  -6  100.89   15.10
  10   4   6  108.19   22.00
 -10   5   6   62.79    8.70
  10   5  -6   58.59    9.60
 -10   5  -6   48.70   12.40
 -10  -5   6   66.39    9.00
  10   5   6   63.09   16.60
  10   6  -6   16.90    6.70
 -10   6   6   17.30    6.50
 -10   6  -6    8.10    8.00
 -10  -6   6   17.50    6.20
  10  -6  -6    9.60    5.30
  10   6   6    8.80    9.50
  10   7  -6  136.09   19.70
 -10   7   6  135.39   19.50
 -10  -7   6  114.29   13.90
  10   7   6  142.39   31.20
  10  -7  -6  105.49   13.50
 -10   7  -6  108.29   22.00
  10   8  -6   80.69   14.20
 -10   8   6   82.19   12.90
 -10  -8   6   82.59   13.20
  10   8   6  103.69   21.40
 -10   8  -6  134.99   21.60
  10  -8  -6   89.09   13.10
  10   9  -6  118.29   17.30
 -10   9   6   91.99   14.40
  10  -9  -6  126.59   16.90
 -10  -9   6  114.09   16.20
 -10   9  -6   88.19   17.20
  10   9   6  126.79   23.60
  10  10  -6    2.50    8.00
 -10  10   6    5.00    7.30
 -10  10  -6   -3.60    7.70
  10  10   6   -2.70   10.70
  10  11  -6   37.50   12.70
 -10  11   6   44.30   12.00
  10  11   6   52.19   17.00
 -10  11  -6   20.50   10.50
 -10   0  -7    2.90    6.80
  10   0   7   -2.40    8.10
  10   1   7  147.99   25.10
 -10   1  -7  110.79   18.10
  10   2   7   47.00   14.80
 -10   2  -7   36.10   11.10
  10   3   7  111.89   21.40
 -10   3  -7  116.09   16.80
  10   4  -7    3.30    3.90
 -10   4   7    9.70    4.10
 -10   4   7    0.70    2.90
 -10   4  -7   10.70    7.80
  10   4   7   -9.10    7.60
 -10  -4   7    2.10    3.00
 -10   5   7  144.09   10.50
 -10   5   7  161.78   12.50
  10   5  -7  160.68   12.50
 -10  -5   7  148.89   10.50
  10   5   7  176.68   26.40
 -10   5  -7  138.39   18.50
  10   6  -7   42.40    8.90
 -10   6   7   37.10    7.80
 -10  -6   7   12.80    5.90
  10  -6  -7   35.60    7.40
 -10   7   7  128.99   14.30
  10   7  -7  116.99   14.80
  10   7   7  107.69   21.90
 -10  -7   7  143.29   14.60
 -10   7  -7  137.39   22.00
  10  -7  -7  118.69   13.20
 -10   8   7    9.20    6.70
  10   8  -7   10.70    8.10
  10   8   7   10.10   11.40
 -10   8  -7    4.10    9.30
 -10  -8   7    2.80    6.30
  10  -8  -7   10.70    6.80
 -10   9   7  124.89   17.00
  10   9  -7  106.69   16.10
 -10  -9   7  107.99   16.20
  10  -9  -7   75.19   14.20
 -10   9  -7   78.39   16.60
  10   9   7  112.79   22.30
  10  10  -7    6.10    8.70
 -10  10   7    8.80    7.60
  10 -10  -7   10.10    8.40
 -10  10  -7   18.70   10.80
  10  10   7   10.20   13.80
 -10 -10   7   -1.30    9.40
  10  11  -7   42.00   13.50
 -10  11   7   56.09   13.90
  10  11   7   17.00   14.40
 -10  11  -7   47.70   15.20
 -10   0  -8  268.67   23.30
  10   1   8  254.87   29.70
 -10   1  -8  226.48   24.90
  10   2   8   12.00    9.90
 -10   2  -8    6.80    7.90
 -10   3  -8  492.45   31.30
  10   3   8  511.75   37.20
  10   4   8  254.87   30.60
 -10   4  -8  259.97   26.60
 -10   5   8  283.87   14.10
 -10   5   8  259.77   12.40
  10   5  -8  248.18   13.80
 -10  -5   8  253.07   11.90
 -10   5  -8  259.37   28.80
  10   5   8  337.57   39.50
 -10   6   8   -0.70    4.20
  10   6  -8   -0.10    5.40
 -10   6  -8   -5.80    6.40
  10   6   8   -4.80    8.00
 -10   7   8   73.29   10.70
  10   7  -8   75.69   12.00
  10   7   8   49.40   15.40
 -10   7  -8   80.29   17.70
 -10  -7   8   76.59   10.60
  10  -7  -8   72.19   10.10
 -10   8   8  173.48   17.40
  10   8  -8  182.98   19.70
 -10  -8   8  180.78   17.90
 -10   8  -8  196.68   25.00
  10   8   8  130.99   25.00
  10  -8  -8  180.38   15.90
  10   9  -8   47.90   11.90
 -10   9   8   38.90   10.50
 -10  -9   8   43.30   13.80
  10   9   8   34.30   15.40
  10  -9  -8   64.79   13.80
 -10   9  -8   62.39   15.30
  10  10  -8   -0.80    8.40
 -10  10   8    6.70    8.10
 -10 -10   8    0.50    8.30
  10 -10  -8   -1.80    7.70
  10  10   8   -1.20   10.60
 -10  10  -8    6.70    9.00
 -10   0  -9    7.90    8.60
  10   1   9   16.30   14.30
 -10   1  -9   13.90    9.70
  10   2   9    2.00   18.60
  10   3   9   36.60   13.80
 -10   3  -9   95.49   16.80
 -10   4  -9   24.70   11.00
  10   4   9    1.70   10.90
 -10   5  -9   87.89   16.70
  10   5   9   67.49   19.70
  10   6  -9    2.30    4.70
 -10   6   9    2.10    4.00
 -10  -6   9    4.70    4.10
  10   6   9  -12.80    9.30
 -10   6  -9   -7.80    6.40
 -10   7   9   29.60    7.40
  10   7  -9   37.50    9.10
  10   7   9   11.50   12.00
 -10  -7   9   23.30    6.90
 -10   7  -9   29.60   12.70
  10  -7  -9   25.30    6.80
 -10   8   9   24.50    8.50
  10  -8  -9   10.30    6.70
 -10   8  -9   11.10   10.30
 -10  -8   9   13.00    7.10
  10   8   9   20.70   12.20
 -10   9   9   37.70    9.90
  10   9  -9   26.60    9.80
  10  -9  -9   36.90    9.80
 -10  -9   9   19.20    8.50
 -10   9  -9   21.90   11.70
  10   9   9   55.09   20.20
 -10   0 -10  439.76   31.50
 -10   1 -10  316.37   26.60
  10   1  10  291.27   36.50
 -10   2 -10   53.29   13.60
  10   2  10   56.89   18.60
 -10   3 -10  321.77   27.10
  10   3  10  376.46   42.60
 -10   4 -10  252.87   29.00
  10   4  10  264.07   36.30
 -10   5 -10   79.89   18.10
  10   5  10   71.79   20.00
  10   6 -10   19.60    4.70
 -10   6 -10   23.50   11.20
  10   6  10   28.00   14.60
  10   7 -10   68.69   10.10
 -10   7  10   89.49   10.50
  10   7  10   99.99   24.40
 -10   7 -10   95.79   19.80
  10  -7 -10   69.09   11.50
 -10   8  10  116.09   13.90
  10   8 -10  112.09   14.60
  10  -8 -10   97.69   12.10
 -10   8 -10  116.49   22.60
  10   8  10  159.28   31.80
 -10  -8  10  105.89   12.40
 -10   0 -11   19.20   10.20
 -10  -1 -11    6.30    9.00
 -10   1 -11    0.40    7.90
  10   1  11   12.50   14.30
  10   2  11   -3.10   11.20
 -10   2 -11   -1.10    6.80
 -10   3 -11    0.80    8.20
  10   3  11   11.40   14.20
 -10   4 -11   -3.00    6.90
  10   4  11    7.80   14.90
  10   5  11    6.00   12.40
 -10   5 -11   15.00   11.40
 -10   6 -11   26.40   12.40
  10   6  11   -0.90   12.80
 -10   7  11    4.30    4.10
  10   7 -11    8.10    5.10
 -10   7 -11   -0.40    9.40
  10   7  11   36.00   16.40
 -10   0 -12  221.18   26.90
 -10  -1 -12   23.50   12.50
 -10   1 -12    5.00    9.60
 -10   2 -12    7.80    8.40
  10   2  12   -0.90   10.70
  10   3  12   27.50   16.80
 -10   3 -12   46.50   13.90
 -10   4 -12  181.48   23.70
  10   4  12  161.28   28.30
  10   5  12   36.00   18.70
 -10   5 -12   46.60   14.30
 -10   0 -13    8.90    9.90
 -10  -1 -13   22.00   12.50
 -10   1 -13   23.80   13.50
 -10  -2 -13  -10.50    6.60
  10   2  13   17.40   13.80
 -10   2 -13   -4.40    8.50
 -10   3 -13   20.40   11.10
  10   3  13   36.50   18.50
 -11   0   0    5.50    4.90
 -11   0   0    2.50    5.70
 -11   1   0   -6.30    4.40
 -11   1   0   -4.80    3.60
  11   1   0    5.70    7.00
 -11  -1   0    0.20    4.80
 -11   2   0    1.90    4.90
  11   2   0   -0.10    5.60
 -11   2   0    6.50    6.20
 -11  -2   0   -0.60    5.20
  11   3   0    2.40    6.60
 -11  -3   0    3.50    5.60
 -11   3   0   -8.50    4.60
 -11   3   0   -6.00    3.90
 -11  -4   0    1.30    5.40
  11   4   0   -2.10    6.20
 -11   4   0   -3.60    5.20
 -11   4   0    1.10    6.30
  11   5   0   -5.00    6.00
 -11   5   0    0.50    6.00
  11   6   0   -4.10    6.50
 -11   6   0   11.30    7.60
 -11  -6   0   -5.40    6.20
 -11   6   0    2.00    7.70
  11   7   0    4.90    8.30
 -11  -7   0   -1.20    6.00
 -11   7   0    0.40    5.90
  11  -7   0   -1.00    5.60
 -11   8   0   17.50    8.10
  11   8   0   20.20   10.70
 -11   9   0   -7.50    5.80
  11   9   0    6.30   10.00
 -11  10   0   -4.70    5.50
  11  10   0   16.20   14.80
  11  11   0    5.00   11.20
 -11  11   0    7.20    8.40
  11  12   0   -6.00    9.60
 -11  12   0   -0.60    8.90
 -11   0  -1  248.68   17.80
 -11   0  -1  274.47   20.40
 -11   0   1  268.97   16.30
 -11   0   1  316.47   19.40
 -11   1   1  355.36   21.50
 -11   1   1  368.06   19.30
 -11  -1  -1  378.46   23.50
  11   1  -1  326.97   22.00
 -11  -1   1  356.66   21.10
 -11   1  -1  330.27   22.90
 -11   1  -1  402.36   22.00
  11   1   1  345.87   24.90
  11   2  -1  287.77   21.00
 -11  -2  -1  271.37   20.50
 -11   2   1  299.17   17.80
 -11   2   1  294.37   20.00
 -11   2  -1  284.57   21.90
 -11   2  -1  284.77   19.00
 -11  -2   1  308.17   19.20
  11   2   1  266.47   22.10
 -11  -3  -1  290.37   21.10
 -11   3   1  289.47   20.70
  11   3  -1  271.57   20.90
 -11   3   1  299.37   20.90
 -11   3  -1  286.87   22.20
 -11   3  -1  268.87   19.00
  11   3   1  258.57   22.30
 -11  -3   1  277.17   18.70
 -11   4   1  222.98   16.60
 -11   4   1  260.97   25.20
  11   4  -1  226.78   20.00
 -11  -4   1  220.38   17.20
  11   4   1  252.17   27.50
 -11   4  -1  237.68   18.20
 -11  -5  -1  350.96   24.00
 -11   5   1  340.17   21.10
 -11   5   1  289.87   22.90
  11   5  -1  324.87   23.40
  11   5   1  373.96   26.50
 -11  -5   1  320.87   21.60
 -11   5  -1  349.17   22.70
 -11   5  -1  315.47   25.10
 -11   6   1  123.79   15.70
  11   6  -1  130.19   19.90
 -11  -6  -1  135.99   19.90
 -11   6   1   77.69   16.80
 -11  -6   1   96.89   16.20
 -11   6  -1   87.49   14.30
 -11   6  -1   98.49   17.10
  11   6   1   79.99   15.40
  11   7  -1  162.38   22.00
 -11   7   1  218.88   23.10
 -11  -7   1  164.48   20.60
  11   7   1  146.39   21.40
 -11   7  -1  136.99   18.50
  11  -7  -1  152.68   18.40
  11   8  -1  210.38   24.20
 -11   8   1  246.08   20.30
  11   8   1  215.28   25.80
 -11   8  -1  245.58   21.20
 -11   9   1   27.80    9.70
  11   9  -1   48.10   14.00
  11   9   1   27.10   10.90
 -11   9  -1    6.90    7.90
  11  10  -1   69.19   17.90
 -11  10   1   54.19   13.10
  11  10   1   37.10   13.50
 -11  10  -1   25.10   11.30
 -11  11   1   41.60   12.60
  11  11  -1   88.59   19.50
  11  11   1   59.29   17.40
 -11  11  -1   61.29   14.20
 -11  12   1  124.69   20.60
  11  12  -1   70.69   17.50
  11  12   1  130.39   23.10
 -11  12  -1   65.49   15.60
 -11   0   2    1.00    3.90
 -11   0   2   -0.20    4.40
 -11   0  -2    0.50    4.70
 -11   0  -2   -2.30    6.00
 -11  -1  -2    3.50    6.10
 -11   1   2    8.60    5.00
 -11   1   2    9.30    5.60
  11   1   2   -9.50    5.60
 -11   1  -2   -2.90    5.50
 -11   1  -2   -2.30    3.90
 -11  -1   2   -0.60    4.30
 -11   2   2    1.40    4.60
 -11   2   2    3.50    4.40
  11   2  -2    0.60    5.40
 -11   2  -2    3.40    5.20
  11   2   2   -6.20    6.00
 -11  -2   2   -1.80    5.00
 -11   3   2  303.57   17.80
  11   3  -2  328.97   21.30
 -11   3   2  290.37   20.00
 -11  -3  -2  300.57   22.50
 -11  -3   2  280.87   18.10
  11   3   2  343.87   25.70
 -11   3  -2  301.67   23.80
 -11   3  -2  319.47   21.00
 -11   4   2   76.79   17.50
 -11  -4  -2   53.89   12.10
 -11   4   2   62.79   12.00
 -11   4  -2   40.10   10.70
 -11   4  -2   40.40   11.70
  11   4   2   64.19   15.50
 -11  -4   2   63.79   11.20
 -11   5   2    2.30    6.60
 -11  -5  -2    6.90    7.50
  11   5  -2   -0.80    6.70
 -11   5   2   22.10    7.80
 -11   5  -2   -2.20    4.40
 -11   5  -2    5.40    8.80
 -11  -5   2   -1.70    5.20
  11   5   2    1.30    8.20
  11   6  -2   29.70   10.30
 -11   6   2   13.70    9.00
 -11   6   2   32.80    9.00
  11   6   2   14.40    8.90
 -11   6  -2   24.50    9.70
 -11  -6   2   21.70    8.10
 -11   7   2   83.59   13.00
  11   7  -2   66.29   13.90
  11  -7  -2   78.49   13.20
 -11   7  -2   98.29   17.20
  11   7   2   64.19   15.10
 -11  -7   2   76.69   13.60
 -11   8   2    5.10    6.20
  11   8  -2    8.90    8.90
  11   8   2    5.60    9.50
 -11  -8   2   11.00    8.20
 -11   8  -2   17.80    9.20
  11  -8  -2    3.90    6.50
 -11   9   2    3.10    6.50
  11   9  -2   -0.60    7.40
  11   9   2  -10.20    9.40
 -11   9  -2   10.70    7.50
 -11  10   2    6.10    8.50
  11  10  -2    4.60    9.80
  11  10   2   26.00   12.00
 -11  10  -2    0.20    7.60
  11  11  -2   25.50   12.70
 -11  11   2   36.20   14.30
  11  11   2   27.90   12.80
 -11  11  -2   25.20   11.30
 -11  12   2   -2.80    7.60
  11  12  -2    6.60   11.70
 -11  12  -2    5.70    9.90
  11  12   2    1.90   10.80
 -11   0   3  168.38   11.50
 -11   0   3  160.18   12.70
 -11   0  -3  217.78   22.20
  11   0   3  205.88   24.30
 -11   0  -3  238.38   25.00
 -11  -1  -3  509.95   30.40
 -11   1   3  555.94   22.30
 -11   1   3  574.54   24.40
 -11   1  -3  508.95   30.80
 -11   1  -3  553.34   28.60
 -11  -1   3  527.35   23.20
 -11  -1   3  536.55   22.00
  11   1   3  550.64   33.60
 -11  -2  -3  216.58   22.10
  11   2  -3  240.18   16.80
 -11   2   3  189.78   14.70
 -11   2   3  206.18   13.50
 -11  -2   3  205.98   13.90
 -11   2  -3  221.28   25.50
  11   2   3  208.48   23.70
 -11   2  -3  227.68   18.20
 -11   3   3  189.08   17.70
 -11  -3  -3  167.08   19.90
 -11   3   3  170.48   12.90
  11   3  -3  195.58   15.80
 -11   3  -3  169.68   18.40
  11   3   3  165.18   22.30
 -11   3  -3  213.88   24.60
 -11  -3   3  151.28   12.80
 -11   4   3    1.00    5.30
  11   4  -3    6.70    7.00
 -11   4   3   17.80    6.30
 -11  -4  -3    3.90    8.00
  11   4   3   16.80   10.50
 -11   4  -3   16.80    9.10
 -11  -4   3    8.10    5.60
 -11   4  -3    5.30    7.00
  11   5  -3  294.07   23.30
 -11   5   3  248.58   19.90
  11   5   3  294.07   31.00
 -11  -5   3  268.17   18.00
 -11   5  -3  296.77   22.00
 -11   6   3   97.89   16.20
 -11   6   3   76.89   12.60
  11   6  -3   81.89   14.60
  11   6   3   79.19   16.30
 -11  -6   3   62.79   11.30
 -11   6  -3   94.29   15.90
  11   7  -3  313.67   23.40
 -11   7   3  335.27   21.40
  11  -7  -3  317.37   23.80
 -11  -7   3  302.97   24.90
 -11   7  -3  309.77   24.10
  11   7   3  295.37   32.90
 -11   8   3    3.60    6.40
  11   8  -3   -4.50    6.20
 -11   8  -3   -0.40    6.40
  11  -8  -3   -5.60    4.90
 -11  -8   3   -0.50    6.20
  11   8   3   -3.80    8.90
  11   9  -3  187.38   24.10
 -11   9   3  231.58   23.50
 -11   9  -3  168.08   23.70
  11   9   3  198.28   26.40
 -11  10   3  265.17   22.70
  11  10  -3  266.07   29.20
  11  10   3  237.48   29.90
 -11  10  -3  311.07   33.30
 -11  11   3   90.89   15.90
  11  11   3   71.89   18.50
 -11  11  -3   68.69   14.30
 -11  12   3   -3.10    8.40
  11  12  -3   -0.30   10.40
  11  12   3   -0.20    9.60
 -11  12  -3    8.10   11.00
 -11   0  -4    5.50    6.00
 -11   0  -4   -2.30    6.10
  11   0   4   -1.10    6.60
 -11   0   4   -2.40    3.40
 -11   0   4    5.00    4.00
 -11   1   4  264.87   13.30
 -11   1   4  256.97   14.30
 -11  -1  -4  265.07   28.20
 -11   1  -4  223.78   18.90
 -11  -1   4  234.08   12.60
 -11  -1   4  229.98   13.30
  11   1   4  286.67   30.00
 -11   1  -4  260.97   26.30
 -11   2   4   19.00    5.40
 -11  -2  -4   21.90    9.50
  11   2  -4   23.30    7.20
 -11   2   4   20.10    7.50
 -11   2  -4   13.60    7.20
 -11   2  -4   15.50   10.70
  11   2   4   26.00   10.90
 -11  -2   4   31.20    7.60
 -11   3   4   42.90    7.60
  11   3  -4   33.10    8.50
 -11   3   4   28.90    7.80
 -11  -3   4   48.50    8.00
 -11   3  -4   53.49   12.20
  11   3   4   48.40   13.10
  11   4  -4   21.60    7.90
 -11   4   4    7.40    6.10
 -11   4   4   19.10    6.30
 -11  -4   4   18.50    6.40
  11   4   4    7.90    8.20
 -11   4  -4    8.10    7.30
 -11   5   4  171.48   13.40
  11   5  -4  162.18   17.60
 -11   5   4  156.88   17.80
 -11   5  -4  163.38   19.40
  11   5   4  152.08   24.20
 -11  -5   4  171.78   14.00
  11   6  -4    0.70    7.10
 -11   6   4   -0.90    4.40
 -11  -6   4    8.90    6.50
 -11   6  -4   13.20    7.70
  11   6   4   -0.50    7.80
  11   7  -4  131.99   17.90
 -11   7   4  110.49   14.50
 -11  -7   4  165.58   18.30
  11   7   4  121.29   20.10
 -11   7  -4  138.69   20.60
  11  -7  -4  145.99   16.00
 -11   8   4    4.30    6.50
  11   8  -4    0.50    7.30
  11  -8  -4    9.90    7.30
 -11  -8   4    0.50    7.00
  11   8   4    4.80   12.20
  11   9  -4   64.99   14.60
 -11   9   4   93.79   15.00
  11   9   4   81.89   20.30
 -11   9  -4   72.69   16.00
  11  -9  -4   84.29   14.40
 -11  -9   4   77.69   17.20
 -11  10   4    2.90    7.90
  11  10  -4    4.90    8.80
  11  10   4  -10.40    7.70
 -11  10  -4    3.20    9.70
  11  11  -4   40.10   14.30
 -11  11   4   21.40   10.70
  11  11   4    9.90   12.90
 -11  11  -4   26.70   11.20
  11   0   5   17.60    9.90
 -11   0   5    3.00    2.80
 -11   0   5    4.10    3.20
 -11   0  -5    7.00    6.30
 -11   1   5  166.88    8.80
 -11   1   5  152.28    9.30
 -11  -1   5  157.78    8.70
  11   1   5  182.78   25.60
 -11  -1   5  165.88    9.00
 -11   1  -5  142.99   17.20
 -11   2   5   32.70    5.50
 -11   2   5   38.00    6.40
 -11   2  -5   37.30    9.90
  11   2   5   46.50   14.20
 -11  -2   5   44.90    5.90
 -11  -2   5   44.10    6.10
 -11   3   5   37.50    6.50
  11   3  -5   23.70    7.00
 -11   3   5   31.10    7.00
 -11   3  -5   25.90    9.70
 -11  -3   5   37.40    6.60
  11   3   5   14.70   10.70
 -11   4   5   18.10    6.20
 -11   4   5   19.30    5.60
  11   4  -5   14.30    7.00
  11   4   5   35.60   14.00
 -11   4  -5   25.00    8.90
 -11  -4   5    4.00    4.90
 -11   5   5   64.09    9.60
  11   5  -5   68.09   11.50
 -11   5   5   58.89   11.20
  11   5   5   59.19   16.60
 -11  -5   5   57.09    9.30
 -11   5  -5   86.59   15.50
 -11   6   5   16.20    6.80
  11   6  -5   19.10    8.70
 -11   6  -5   13.30    7.90
  11   6   5   33.90   13.90
 -11  -6   5    5.10    6.10
  11   7  -5  224.28   18.70
 -11   7   5  166.78   14.90
 -11  -7   5  191.88   16.40
 -11   7  -5  155.48   30.90
  11  -7  -5  178.68   15.30
 -11   8   5    4.20    7.00
  11   8  -5    9.50    8.40
 -11   8  -5   18.60   10.40
  11   8   5   10.50   10.20
 -11   9   5  130.99   16.70
  11   9  -5  123.09   18.90
  11   9   5  158.98   27.80
 -11  -9   5  105.99   16.60
 -11   9  -5   86.99   16.90
  11  -9  -5   85.69   13.80
  11  10  -5    6.30    9.40
 -11  10   5    4.80    7.20
 -11  10  -5   -0.80    7.20
  11  10   5   -6.70    8.80
 -11  11   5   51.29   12.70
  11  11  -5   34.90   12.80
  11  11   5   60.79   21.40
 -11  11  -5   33.70   14.20
 -11   0  -6    7.90    6.90
 -11   1  -6   98.19   15.90
  11   1   6  103.69   18.60
 -11   2  -6   11.10    7.80
  11   2   6   36.10   13.80
 -11   3   6  157.88    8.70
 -11   3   6  159.38    9.70
 -11  -3   6  155.18    8.70
  11   3   6  207.78   27.50
 -11   3  -6  212.38   24.30
  11   4  -6   14.00    6.00
 -11   4   6   10.80    5.60
 -11   4   6   12.10    4.70
 -11  -4   6   13.80    4.80
  11   4   6   19.40   12.40
 -11   4  -6   22.50    9.50
 -11   5   6  214.18   13.50
 -11   5   6  229.38   16.20
  11   5  -6  234.48   16.30
  11   5   6  185.58   25.90
 -11  -5   6  234.28   14.00
 -11   5  -6  243.18   27.10
  11   6  -6    5.80    6.70
 -11   6   6   16.50    6.30
 -11   6   6   19.70    8.00
 -11  -6   6   19.20    6.90
 -11   7   6  147.69   23.10
  11   7  -6  119.89   16.40
  11  -7  -6   99.79   12.60
 -11  -7   6  107.19   14.00
 -11   7  -6   98.89   17.50
  11   7   6  106.89   21.40
 -11   8   6   -5.50    5.60
  11   8  -6   -3.20    6.30
 -11  -8   6   -1.50    6.60
  11  -8  -6    3.20    6.30
  11   8   6   -6.70    8.50
 -11   8  -6    5.10    8.50
 -11   9   6   91.69   14.60
  11   9  -6   77.49   15.70
  11  -9  -6   59.19   12.40
 -11  -9   6   58.59   12.50
 -11   9  -6   62.69   14.40
  11   9   6  114.19   24.70
  11  10  -6    2.80    9.60
 -11  10   6   -1.30    6.40
 -11  10  -6   -5.10    8.10
  11  10   6    7.70   12.50
 -11   0  -7   68.89   14.30
  11   1   7  263.77   30.60
 -11   1  -7  263.47   22.70
 -11   2  -7   17.30   10.20
  11   2   7   32.70   13.00
 -11   3  -7  510.05   31.80
  11   3   7  519.55   37.90
 -11   4   7   34.40    4.70
 -11   4   7   29.00    5.00
  11   4  -7   23.00    5.40
  11   4   7   91.29   20.10
 -11   4  -7   75.19   14.90
 -11  -4   7   33.60    4.70
 -11   5   7  257.17   15.40
 -11   5   7  280.07   14.30
  11   5  -7  292.77   16.60
  11   5   7  265.47   35.10
 -11  -5   7  261.17   13.80
 -11   5  -7  266.47   27.50
 -11   6   7   20.40    7.80
  11   6  -7   42.10    9.00
 -11   6   7   25.80    6.60
 -11  -6   7   40.60    8.10
 -11   6  -7   56.09   14.90
  11   6   7   25.00   13.10
  11   7  -7  112.89   15.20
 -11   7   7  141.89   14.70
  11   7   7  113.59   23.60
  11  -7  -7  125.89   13.40
 -11   7  -7   94.49   18.20
 -11  -7   7  131.69   14.60
 -11   8   7   34.50    9.70
  11   8  -7   22.30    9.20
  11   8   7   55.19   16.40
 -11  -8   7   35.50   10.30
  11  -8  -7   39.90   10.20
 -11   8  -7   46.20   13.20
  11   9  -7   60.39   13.60
 -11   9   7   93.99   15.00
  11   9   7   66.99   19.80
  11  -9  -7   42.30   10.90
 -11   9  -7   70.89   16.30
 -11  -9   7   47.40   11.90
  11  10  -7    1.50    9.00
 -11  10   7    8.80    8.20
 -11  10  -7    4.00    8.80
  11  10   7    5.20   11.80
 -11   0  -8   -5.40    6.10
 -11   1  -8   40.90   12.60
  11   1   8   47.50   16.50
 -11   3  -8   69.59   15.90
  11   3   8  148.59   28.10
  11   4   8   -4.80    8.90
 -11   4  -8   -5.50    7.10
  11   5  -8  146.89   10.00
 -11   5   8  141.79    8.80
 -11   5   8  155.58    8.30
  11   5   8  196.78   28.30
 -11  -5   8  136.89    7.80
 -11   5  -8  174.38   24.90
 -11   6   8    3.00    5.40
 -11   6   8    1.00    4.20
  11   6  -8    0.10    5.00
  11   6   8    0.60    9.80
 -11   6  -8  -12.10    5.20
 -11  -6   8    4.40    5.10
  11   7  -8   61.09   11.00
 -11   7   8   92.29   11.50
  11  -7  -8   86.99   10.90
 -11   7  -8   93.19   17.70
  11   7   8   83.69   20.60
 -11  -7   8   84.59   11.10
  11   8  -8    5.00    7.60
 -11   8   8    9.30    7.70
  11   8   8   26.60   17.00
 -11  -8   8    9.90    7.50
  11  -8  -8    5.60    6.10
 -11   8  -8   11.80   11.30
  11   9  -8   48.90   12.60
 -11   9   8   50.09   10.90
  11  -9  -8   52.89   12.10
 -11  -9   8   37.50   13.70
  11   9   8   26.30   13.50
 -11   9  -8   70.59   18.80
 -11   0  -9   75.39   17.40
  11   1   9  144.89   26.10
 -11   1  -9  128.89   20.80
  11   2   9   91.09   21.20
 -11   2  -9  125.49   18.60
  11   3   9  313.47   39.00
 -11   3  -9  249.88   27.90
  11   4   9   98.69   23.80
 -11   4  -9   73.69   17.90
 -11   5  -9  117.69   20.60
  11   5   9   92.99   21.10
 -11   6   9   45.50    6.00
 -11   6   9   51.69    6.70
  11   6  -9   56.39    8.00
  11   6   9   56.89   17.50
 -11   6  -9   61.49   16.40
 -11  -6   9   54.59    5.90
  11   7  -9   62.39   10.70
 -11   7   9   70.69    9.50
  11   7   9   70.89   21.80
 -11  -7   9   63.79   10.50
 -11   7  -9   71.39   17.50
 -11   8   9   26.50    8.20
  11   8  -9   36.20   10.70
  11   8   9   73.89   23.60
 -11  -8   9   27.10    8.10
  11  -8  -9   27.60    7.90
 -11   8  -9   46.40   15.40
 -11   0 -10   19.40   10.60
 -11  -1 -10   -1.50    6.70
  11   1  10   -3.30    9.50
 -11   1 -10    5.70    7.80
 -11   2 -10    3.60    7.90
  11   2  10    2.00   10.60
 -11   3 -10   19.80   11.10
  11   3  10   10.90   12.10
  11   4  10  -13.60    7.80
 -11   4 -10   -7.80    5.70
  11   5  10   12.40   11.90
 -11   5 -10   43.70   15.40
 -11   6 -10   10.30   10.10
  11   6  10    2.30   10.90
  11   7 -10   27.00    6.70
 -11   7  10   14.20    5.70
 -11   7  10   21.10    5.30
 -11   7 -10   26.80   12.90
  11   7  10   19.20   14.80
 -11   0 -11  166.28   23.90
 -11  -1 -11  131.59   24.60
 -11   1 -11   92.79   17.60
  11   2  11   57.19   18.80
 -11   2 -11   37.30   12.70
 -11   3 -11   77.49   16.10
  11   3  11  119.09   26.50
 -11   4 -11   48.20   14.90
  11   4  11   45.20   17.90
 -11   5 -11  108.79   20.30
  11   5  11   53.99   19.90
  11   6  11    9.00   13.50
 -11   6 -11   19.00   11.80
 -11   0 -12   11.70    9.60
 -11  -1 -12   30.70   14.20
 -11   1 -12   36.10   13.60
 -11   2 -12    0.80    8.20
  11   2  12   -6.60   11.90
 -11   3 -12    6.30    9.50
  11   3  12   12.40   14.00
  11   4  12   -2.80   12.40
 -11   4 -12   -0.60    9.80
 -12   0   0  542.35   26.40
 -12   0   0  543.95   28.80
 -12  -1   0  101.89   14.80
  12   1   0   97.79   16.80
 -12   1   0  129.69   15.20
 -12   1   0  113.49   16.20
 -12   2   0  139.29   18.90
 -12  -2   0  128.19   17.30
 -12   2   0  165.58   18.30
  12   2   0  168.28   22.30
 -12   3   0  231.68   23.20
 -12   3   0  188.38   15.90
 -12  -3   0  194.78   21.30
  12   3   0  167.78   21.30
 -12   4   0  457.75   25.50
 -12  -4   0  451.05   30.10
  12   4   0  414.76   28.70
 -12   4   0  506.05   33.70
  12   5   0  241.98   25.90
 -12   5   0  204.78   23.50
 -12   5   0  234.38   18.90
 -12  -5   0  240.68   20.10
 -12   6   0   18.90   10.20
 -12   6   0   24.50    9.00
  12   6   0   18.30   10.00
 -12  -6   0   20.90   10.20
  12   7   0   10.40    9.00
 -12   7   0   -0.30    6.20
  12   8   0  167.18   24.50
 -12   8   0  148.79   19.00
 -12   9   0    9.20    8.20
  12   9   0   -0.50    8.30
 -12  10   0   22.30   11.10
  12  10   0   44.20   14.50
 -12  11   0   22.40   11.00
  12  11   0   35.10   16.60
 -12   0  -1    0.40    5.80
 -12   0   1   -2.40    5.30
 -12   0   1   -1.90    4.10
 -12   0  -1   -0.20    5.20
 -12   1   1    8.10    5.50
 -12  -1  -1    9.60    7.50
 -12   1   1    7.80    6.90
 -12  -1   1    1.10    5.70
 -12  -1   1   -0.10    4.80
  12   1   1   -7.10    6.00
 -12   1  -1   10.60    8.30
 -12   1  -1    4.80    5.90
 -12   2   1    6.80    5.30
  12   2  -1   -5.60    5.60
 -12   2   1   -6.00    5.40
 -12   2  -1   -0.90    4.60
  12   2   1    9.80    8.70
 -12  -2   1    9.60    6.90
 -12   3   1   20.00    7.30
 -12  -3  -1   17.40    8.00
 -12   3   1   13.10    7.90
  12   3  -1   28.00    9.30
 -12  -3   1   17.40    8.10
  12   3   1   19.60   10.30
 -12   3  -1   20.70    8.30
 -12   3  -1   27.30   11.20
  12   4  -1   62.29   13.80
 -12   4   1   26.40   10.60
 -12  -4  -1   55.49   13.10
 -12   4   1   37.20    8.90
 -12   4  -1   40.00   11.60
 -12   4  -1   41.30   10.60
 -12  -4   1   36.50   10.00
  12   4   1   43.40   12.20
 -12   5   1   21.00    8.50
  12   5  -1    6.60    7.50
 -12  -5  -1   38.20   12.80
 -12   5  -1   12.40    8.00
 -12   5  -1    9.40   10.00
  12   5   1   13.90   11.00
  12   6  -1    0.20    7.10
 -12   6   1   -3.70    6.70
 -12   6   1   13.30    7.60
  12   6   1    1.40    8.30
 -12   6  -1   -2.70    5.60
 -12  -6   1   -0.50    6.70
  12   7  -1    8.10    8.80
 -12   7   1   14.60    7.90
 -12   7   1    3.00    9.90
  12   7   1   15.50   10.00
 -12   7  -1   23.30    9.80
 -12  -7   1   16.00    9.20
 -12   8   1    8.00    7.40
  12   8  -1    6.60    9.10
 -12   8  -1    3.10    7.40
  12   8   1   20.00   11.60
 -12   9   1    8.40    8.80
  12   9  -1   -5.30    8.90
  12  10  -1    5.50   11.40
  12  10   1   -3.40    9.40
 -12  10  -1   12.20   10.50
  12  11  -1    1.50    9.30
 -12  11   1    4.70    9.00
 -12  11  -1   -0.90    7.20
  12  11   1   14.00   14.10
 -12   0   2  634.54   26.40
 -12   0  -2  585.64   30.10
 -12   0  -2  633.14   34.10
 -12   0   2  597.04   28.20
 -12  -1  -2  431.26   27.70
 -12   1   2  399.96   22.90
 -12   1   2  398.76   20.50
 -12  -1   2  426.26   21.00
 -12  -1   2  425.76   22.70
  12   1   2  470.85   30.50
 -12   1  -2  424.56   27.90
 -12   1  -2  424.76   25.00
  12   2  -2  102.39   15.00
 -12  -2  -2   80.39   14.70
 -12   2   2   72.39   12.20
 -12   2   2   74.09   10.70
  12   2   2   99.99   16.90
 -12   2  -2   82.99   16.30
 -12  -2   2   66.39   11.70
 -12   2  -2   83.29   12.90
  12   3  -2  199.28   20.90
 -12  -3  -2  175.48   20.10
 -12   3   2  200.38   21.00
  12   3   2  232.48   26.20
 -12   3  -2  206.38   23.30
 -12  -3   2  188.78   15.50
 -12   3  -2  175.28   18.40
  12   4  -2  183.88   21.70
 -12   4   2  188.78   15.40
 -12  -4  -2  232.68   25.60
 -12   4   2  185.28   20.20
  12   4   2  182.28   24.20
 -12   4  -2  172.18   22.10
 -12   4  -2  183.88   20.30
 -12  -4   2  195.88   16.40
 -12   5   2  226.58   17.40
 -12   5   2  225.68   23.40
  12   5  -2  206.98   22.40
 -12  -5   2  208.28   17.60
  12   5   2  235.08   28.00
 -12   5  -2  198.28   20.90
  12   6  -2   -8.40    6.30
 -12   6   2    1.40    7.50
 -12   6   2    0.40    5.50
 -12   6  -2   -1.70    6.40
  12   6   2   -1.90    8.30
 -12  -6   2    7.90    7.60
 -12   7   2  161.58   22.70
 -12   7   2  195.88   21.50
  12   7  -2  170.08   22.60
 -12   7  -2  200.48   23.00
  12   7   2  143.59   23.90
 -12  -7   2  198.68   22.30
 -12   8   2  255.37   20.80
  12   8  -2  206.48   25.10
  12   8   2  255.77   30.30
 -12   8  -2  211.08   24.10
  12   9  -2   75.39   16.30
 -12   9   2   86.39   15.10
 -12   9  -2  115.89   18.60
  12   9   2  117.49   20.80
  12  10  -2   24.90   12.40
 -12  10   2   16.70    9.70
  12  10   2   20.40   12.40
 -12  10  -2   43.40   12.80
 -12  11   2   39.70   12.00
  12  11  -2   92.09   21.30
 -12  11  -2   41.90   15.00
  12  11   2   63.39   19.90
 -12   0  -3   -6.60    5.00
 -12   0   3   11.40    4.70
 -12   0  -3   -7.20    6.90
 -12   0   3    0.20    4.30
 -12   1   3   81.59   10.20
 -12  -1  -3   47.80   11.70
 -12   1   3   42.80    8.80
 -12  -1   3   83.29   11.40
 -12   1  -3   79.79   13.70
  12   1   3   48.90   13.50
 -12   1  -3   89.59   17.60
 -12  -1   3   72.29    9.60
  12   2  -3    2.00    6.40
 -12   2   3    0.90    3.90
 -12  -2  -3    0.50    7.30
 -12   2   3   12.40    6.50
  12   2   3   -3.50    6.60
 -12  -2   3    0.00    4.70
 -12   2  -3   11.90    8.40
 -12   2  -3    8.90    6.40
 -12   3   3   53.69    9.70
  12   3  -3   61.09   12.00
 -12   3   3   90.59   13.50
 -12   3  -3   74.09   14.20
 -12  -3   3   51.09    9.70
  12   3   3   73.89   15.70
 -12   4   3   71.29   12.70
 -12   4   3   60.29   10.60
 -12  -4   3   68.99   11.80
 -12   4  -3   80.39   14.90
  12   4   3   58.19   15.30
  12   5  -3   44.30   11.50
 -12   5   3   63.29   11.00
 -12   5   3   45.90   11.60
 -12   5  -3   48.30   11.90
 -12  -5   3   45.10   10.00
  12   5   3   57.69   16.40
 -12   6   3   37.50   11.00
  12   6  -3   38.10   11.70
 -12   6   3   15.80    7.40
  12   6   3   32.20   12.00
 -12   6  -3   17.80    8.90
 -12  -6   3    9.70    7.20
 -12   7   3  123.39   16.30
  12   7  -3  173.68   22.20
 -12   7   3  138.59   20.30
 -12  -7   3  134.39   18.30
 -12   7  -3  111.29   16.90
  12   7   3  173.38   26.40
  12   8  -3   -4.90    7.70
 -12   8   3    1.00    6.10
  12   8   3    2.80    9.80
  12  -8  -3    4.30    7.10
 -12   8  -3   -1.00    6.80
 -12  -8   3    0.30    7.30
  12   9  -3   33.70   12.60
 -12   9   3   18.40    9.70
 -12   9  -3   47.90   15.50
  12   9   3   32.30   12.70
  12  10  -3   -1.50    9.30
 -12  10   3    9.80    8.90
 -12  10  -3    3.90    9.20
  12  10   3  -12.60    7.70
 -12  11   3   28.20   11.00
  12  11  -3   19.70   12.90
  12  11   3    0.80   12.10
 -12  11  -3   28.80   11.60
 -12   0   4  103.09    9.10
 -12   0  -4  107.69   15.90
 -12   1   4  182.68   11.80
 -12   1   4  196.68   21.80
  12   1   4  166.88   22.60
 -12   1  -4  183.58   22.60
 -12  -1   4  154.38   10.90
 -12  -1   4  203.08   15.60
 -12   2   4   20.10    5.60
 -12   2   4   23.10    7.10
 -12  -2   4   34.40    6.80
 -12   2  -4   42.00   11.00
 -12  -2   4   18.50    5.90
  12   2   4   39.70   12.80
 -12   3   4  104.49   11.40
  12   3  -4  113.39   14.30
 -12   3   4   90.59   12.20
 -12  -3   4   81.09   10.40
  12   3   4  106.59   21.20
 -12   3  -4   90.99   14.80
 -12   4   4   -1.10    5.80
  12   4  -4    5.10    6.20
 -12   4   4    1.10    5.00
  12   4   4   -2.00    7.20
 -12  -4   4    2.60    5.30
 -12   4  -4    5.60    6.50
 -12   5   4  119.89   13.70
 -12   5   4   97.09   15.00
 -12   5  -4  114.99   18.70
 -12  -5   4  116.99   13.90
  12   5   4  108.19   19.80
 -12   6   4   10.80    6.70
 -12   6   4    6.50    7.80
  12   6  -4   16.40    9.10
 -12   6  -4    7.50    7.60
  12   6   4    8.70   11.10
 -12  -6   4   15.10    7.60
 -12   7   4  284.87   19.90
  12   7  -4  245.98   22.00
 -12   7   4  310.37   31.90
  12   7   4  295.67   40.20
 -12  -7   4  264.57   27.70
  12   8  -4   14.10   10.00
 -12   8   4   19.70    8.80
 -12  -8   4    5.90    8.50
  12   8   4   11.90   11.00
 -12   8  -4   19.00    9.50
  12  -8  -4    4.90    7.80
  12   9  -4  206.38   25.10
 -12   9   4  171.68   20.70
 -12   9  -4  217.78   27.90
  12   9   4  146.19   24.30
 -12  10   4   16.70    8.90
  12  10  -4   23.80   12.00
 -12  10  -4    2.50    8.90
  12  10   4   30.70   15.10
 -12   0   5    0.70    3.20
 -12   0  -5    1.80    6.20
 -12   0   5    0.80    3.20
 -12   1   5   93.59    7.60
 -12   1   5  101.29    9.50
  12   1   5   96.29   21.00
 -12  -1   5   85.69    7.30
 -12   1  -5   78.79   14.60
 -12  -1   5   79.99    8.20
 -12   2   5   16.20    4.90
 -12   2   5   10.30    5.10
 -12  -2   5   20.80    5.20
  12   2   5    7.20    9.50
 -12   2  -5   19.10    8.70
 -12  -2   5    7.80    4.20
 -12   3   5  206.58   17.00
 -12   3   5  183.28   11.60
  12   3  -5  203.78   14.60
 -12  -3   5  188.68   14.60
  12   3   5  157.08   24.70
 -12   3  -5  152.88   19.10
 -12   4   5   10.90    5.90
  12   4  -5   14.20    7.00
 -12   4   5   11.60    7.60
  12   4   5   12.10   10.70
 -12   4  -5   -3.00    6.10
 -12  -4   5   14.00    5.80
 -12   5   5  189.28   18.60
 -12   5   5  187.08   14.00
  12   5  -5  224.38   17.70
 -12   5  -5  235.98   25.30
 -12  -5   5  172.18   14.00
  12   5   5  207.58   30.20
  12   6  -5   34.90   10.50
 -12   6   5   24.60    9.50
  12   6   5   15.80   13.40
 -12   6  -5   38.80   16.50
 -12  -6   5   27.10    8.80
 -12   7   5   82.19   12.40
 -12   7   5   97.29   15.50
  12   7  -5   88.29   15.40
 -12  -7   5  122.59   16.00
 -12   7  -5   98.29   18.80
  12   7   5  150.18   27.50
  12   8  -5   10.70    8.60
 -12   8   5    4.10    6.20
 -12   8  -5   -0.20    7.50
  12  -8  -5   -5.30    5.60
  12   8   5    9.70   10.70
 -12  -8   5   -0.30    6.80
 -12   9   5  108.49   15.70
  12   9  -5  138.09   20.10
 -12   9  -5  103.99   19.10
 -12  -9   5  100.99   20.00
  12   9   5  122.69   23.90
  12  -9  -5   93.19   15.20
  12  10  -5    4.00    9.70
 -12  10   5   -3.50    6.30
 -12  10  -5   -3.50    8.20
  12  10   5   -4.60    8.90
 -12   0  -6   29.30   10.60
  12   1   6  228.38   29.90
 -12   1  -6  208.18   23.40
 -12   2   6  117.29    6.30
 -12   2   6  120.49    6.50
 -12  -2   6  105.09    5.90
  12   2   6  139.59   23.40
 -12  -2   6  103.99    5.80
 -12   2  -6  140.89   21.40
 -12   3   6  315.07   13.50
 -12   3   6  315.27   14.30
 -12   3  -6  365.16   26.80
  12   3   6  365.46   39.80
 -12  -3   6  345.27   14.00
 -12  -3   6  353.66   13.70
  12   4  -6   30.70    7.60
 -12   4   6   34.00    6.90
 -12   4   6   33.20    6.40
 -12   4  -6   39.60   12.50
  12   4   6   21.70   15.00
 -12  -4   6   23.20    5.80
 -12   5   6  154.58   11.80
  12   5  -6  131.09   14.60
 -12   5   6  152.58   15.50
 -12  -5   6  132.89   11.30
 -12   5  -6  112.59   17.60
  12   5   6  169.28   27.90
  12   6  -6   52.69   11.10
 -12   6   6   40.60   10.90
 -12   6   6   59.79    9.80
 -12  -6   6   47.20    9.40
 -12   6  -6   43.20   12.20
  12   6   6   62.19   17.20
 -12   7   6   94.79   14.80
 -12   7   6  166.68   16.90
  12   7  -6  184.98   19.80
  12   7   6  136.19   24.60
 -12   7  -6  148.69   20.70
 -12  -7   6  170.58   17.80
  12   8  -6    7.50    8.70
 -12   8   6    0.10    5.80
  12  -8  -6    1.30    6.40
 -12  -8   6    2.30    7.20
  12   8   6   -2.30    9.30
 -12   8  -6   12.80    9.90
 -12   9   6   65.79   12.30
  12   9  -6   63.89   14.60
  12  -9  -6   33.20   10.10
  12   9   6   46.80   16.70
 -12   9  -6  105.19   21.40
 -12  -9   6   38.90   12.20
  12  10  -6   11.80   11.10
 -12  10   6    4.80    7.70
 -12  10  -6   -4.80    8.80
  12  10   6   -5.10   11.10
 -12   0  -7   -3.20    5.40
  12   1   7   37.70   24.70
 -12   1  -7   62.89   14.40
  12   2   7   -5.40   19.20
  12   3   7   81.19   19.30
 -12   3  -7  132.49   20.10
 -12   4   7    2.30    3.20
 -12   4   7   -1.00    2.90
 -12  -4   7    6.50    3.30
  12   4   7   12.80   11.20
 -12   4  -7   -1.10    6.80
 -12   5   7  283.67   15.90
  12   5  -7  293.47   16.60
 -12   5   7  277.97   14.00
 -12   5  -7  359.76   28.00
  12   5   7  301.47   37.10
 -12  -5   7  270.87   13.90
 -12   6   7    0.70    4.70
  12   6  -7   -2.70    5.40
 -12   6   7    0.30    5.90
  12   6   7    2.20    9.50
 -12   6  -7   -0.90    7.30
 -12  -6   7    1.10    4.80
  12   7  -7   39.50   11.60
 -12   7   7   57.89   11.30
 -12   7   7   62.79   10.00
 -12  -7   7   77.59   11.90
 -12   7  -7   97.29   19.20
  12   7   7  103.09   25.00
 -12   8   7    6.70    6.80
  12   8  -7    6.10    8.10
  12  -8  -7   -0.70    6.40
 -12  -8   7    3.80    7.40
  12   8   7    8.90   14.20
 -12   8  -7   10.30   10.10
  12   9  -7   30.70   11.70
 -12   9   7   36.40   10.70
 -12  -9   7   26.90   10.90
  12   9   7   61.89   17.80
  12  -9  -7   42.90   10.70
 -12   9  -7   12.40   12.20
 -12   0  -8   14.60   10.60
 -12   1  -8  106.79   17.40
  12   1   8   71.89   18.40
  12   2   8  150.98   25.00
 -12   2  -8  122.69   18.80
 -12   3  -8  239.98   29.30
  12   3   8  249.48   34.80
  12   4   8    1.50   11.80
 -12   4  -8   16.50   10.20
  12   5   8   62.59   18.50
 -12   5  -8   54.09   14.40
  12   6  -8  104.39   12.00
 -12   6   8   96.09   10.60
 -12   6   8  104.29    9.90
 -12  -6   8  102.49    9.70
  12   6   8   96.29   24.00
 -12   6  -8   87.59   18.70
  12   7  -8   39.10    9.80
 -12   7   8   52.19    9.00
 -12   7   8   49.60   10.40
 -12   7  -8   55.19   14.80
 -12  -7   8   46.60    8.30
  12   7   8   42.60   17.20
  12   8  -8    5.10    8.30
  12   8   8    4.10   12.50
 -12  -8   8    5.30    7.00
 -12   8  -8   -0.50    8.60
 -12   0  -9    5.00    7.80
 -12  -1  -9   13.00    8.70
  12   1   9   30.50   14.70
 -12   1  -9   27.10   11.60
 -12   2  -9    1.40    6.90
  12   2   9   -1.10   12.20
 -12   3  -9   36.30   12.10
  12   3   9   22.00   15.30
 -12   4  -9    8.60    9.80
  12   4   9   17.90   13.90
 -12   5  -9   55.99   15.20
  12   5   9   23.40   14.80
 -12   6  -9    1.50    9.60
  12   6   9   -2.50   11.60
  12   7  -9   43.40    8.70
 -12   7   9   34.80    7.50
 -12   7   9   49.90    7.70
 -12   7  -9   39.30   13.30
 -12  -7   9   35.00    7.20
  12   7   9   33.20   15.60
 -12   0 -10  107.49   18.70
 -12  -1 -10  100.29   21.20
 -12   1 -10   68.49   16.10
  12   2  10   43.30   15.90
 -12   2 -10   93.29   18.00
  12   3  10   41.60   17.80
 -12   3 -10   62.69   15.20
  12   4  10   24.00   15.90
 -12   4 -10   41.10   13.40
 -12   5 -10  119.69   20.70
  12   5  10  104.99   26.70
  12   6  10   46.80   19.20
 -12   6 -10   50.79   15.30
 -12   0 -11    7.50    9.20
 -12  -1 -11    7.20    9.80
 -12   1 -11   20.30   11.70
  12   2  11   -2.20   11.10
 -12   2 -11   10.20   10.40
  12   3  11   -5.30   10.90
 -12   3 -11  -12.80    5.80
  12   4  11   -2.00   11.80
 -12   4 -11    6.70    9.00
 -13   0   0    7.00    5.90
 -13   0   0    4.60    6.80
 -13   1   0    5.50    5.70
 -13  -1   0    3.00    5.60
 -13   1   0    4.40    7.40
 -13  -1   0   -5.70    6.10
 -13  -2   0    4.70    7.90
 -13   2   0   -2.30    5.40
 -13   2   0    5.30    8.20
  13   2   0   -8.30    6.10
 -13  -3   0    8.60    7.40
 -13   3   0    3.80    5.30
  13   3   0   12.50    8.50
 -13   3   0   -5.10    5.80
 -13  -4   0   -2.30    5.90
 -13   4   0   -0.70    7.50
 -13   4   0    1.40    6.30
  13   4   0    5.20    7.90
 -13   5   0    4.90    8.60
 -13  -5   0    5.20    7.70
 -13   5   0   -7.20    5.60
  13   5   0   -1.20    8.10
 -13   6   0    5.00    7.20
  13   6   0   -3.30    7.50
 -13   7   0   -3.30    7.20
  13   7   0   -8.30    6.90
  13   8   0   14.20    9.80
 -13   8   0    9.90    8.00
  13   9   0   -6.60   10.50
 -13   9   0   -9.00    7.40
 -13  10   0    1.00    7.60
  13  10   0    3.60   10.20
 -13   0  -1  617.94   34.20
 -13   0   1  672.63   32.60
 -13   0  -1  689.53   32.20
 -13   0   1  676.43   29.90
 -13  -1  -1   91.49   16.80
 -13   1   1   96.59   13.10
 -13  -1  -1  113.09   15.90
 -13   1   1   80.49   14.60
 -13  -1   1   96.59   15.30
 -13  -1   1   92.69   13.10
 -13   1  -1   93.89   14.90
  13   1   1   95.69   18.00
 -13   1  -1   88.69   16.80
  13   2  -1   50.99   13.30
 -13   2   1   38.40    9.80
 -13  -2  -1   57.79   13.60
 -13   2   1   54.19   12.10
 -13   2  -1   67.89   14.20
 -13   2  -1   66.59   13.30
 -13  -2   1   25.90    8.80
  13   2   1   46.00   13.70
 -13   3   1  169.88   18.80
  13   3  -1  132.79   19.40
 -13   3   1  149.99   19.30
 -13  -3  -1  154.88   19.70
 -13  -3   1  142.39   18.00
 -13   3  -1  148.59   17.60
 -13   3  -1  114.99   18.60
  13   3   1  124.19   21.10
 -13   4   1  308.07   20.90
 -13   4   1  300.37   23.90
  13   4  -1  342.17   25.80
 -13  -4  -1  340.67   29.90
  13   4   1  302.17   26.20
 -13  -4   1  359.86   23.70
 -13   4  -1  324.67   35.00
 -13   4  -1  333.67   22.90
 -13   5   1   99.09   14.50
 -13   5   1   99.09   17.00
  13   5  -1   98.99   18.10
 -13  -5   1  107.19   17.10
 -13   5  -1   77.39   13.90
  13   5   1  106.89   18.40
 -13   6   1    8.50    7.40
 -13   6   1    1.80    7.70
  13   6  -1    5.80    9.60
  13   6   1   -0.30    8.80
 -13  -6   1    8.20    7.90
 -13   6  -1    5.10    7.10
 -13   7   1   26.30    9.40
  13   7  -1   12.60    9.50
 -13   7  -1   24.30   10.20
  13   7   1   15.60   10.50
 -13   8   1  214.48   24.00
  13   8  -1  180.88   24.70
 -13   8  -1  194.08   23.10
  13   8   1  245.78   46.20
 -13   9   1   51.19   13.70
  13   9  -1   61.29   17.10
  13   9   1   42.70   15.70
 -13   9  -1   47.40   13.20
 -13  10   1   14.50    9.50
  13  10  -1   10.20   11.30
  13  10   1   12.40   12.20
 -13  10  -1   29.10   11.20
 -13   0   2    2.10    5.80
 -13   0  -2    8.20    7.30
 -13   0  -2    0.70    5.50
 -13  -1  -2   51.49   13.60
 -13   1   2   41.00   10.40
 -13   1   2   30.30    9.50
 -13  -1   2   35.70    9.60
  13   1   2   36.00   13.10
 -13   1  -2   52.59   11.70
 -13  -1   2   41.30    9.80
 -13   1  -2   21.90   10.20
  13   2  -2   20.40    9.20
 -13  -2  -2   18.80   12.00
 -13   2   2   35.70   10.10
 -13   2   2   33.90    8.30
  13   2   2   33.50   13.30
 -13  -2   2   29.10    8.50
 -13   2  -2   50.99   12.20
 -13   2  -2   27.20   12.90
 -13   3   2    4.70    7.10
 -13   3   2   18.80    7.30
  13   3  -2    2.00    7.30
 -13  -3   2   13.50    6.80
  13   3   2   22.00   11.40
 -13   3  -2   22.20    8.80
  13   4  -2    0.80    7.30
 -13   4   2    1.40    5.60
 -13   4   2   18.10    9.50
  13   4   2   -6.70    6.60
 -13   4  -2    4.20    7.60
 -13  -4   2    4.00    6.40
 -13   5   2   46.20   10.70
  13   5  -2   45.00   12.30
 -13   5  -2   64.99   14.10
  13   5   2   42.20   14.20
 -13   6   2    8.90    9.80
  13   6  -2    9.70    8.80
 -13   6   2    4.90    7.60
 -13   6  -2   18.70    9.80
  13   6   2   15.30   11.20
 -13  -6   2    8.30    8.00
  13   7  -2   90.39   17.70
 -13   7   2  106.69   16.90
  13   7   2   63.29   16.00
 -13   7  -2   59.89   14.30
  13   8  -2   -3.60    8.40
 -13   8   2   10.80    8.50
 -13   8  -2    5.60    9.10
  13   8   2   -8.20    7.80
  13   9  -2    8.90   10.10
 -13   9   2   11.50    8.30
 -13   9  -2    2.10    8.20
  13   9   2    9.20   11.10
 -13  10   2   -1.80    9.20
  13  10  -2    1.90    9.20
 -13  10  -2    6.90    9.30
  13  10   2   -3.60    9.20
 -13   0  -3  302.67   22.30
 -13   0   3  261.77   16.30
 -13   0   3  320.27   19.20
 -13   1   3  131.39   15.30
 -13   1   3  145.89   14.30
 -13  -1   3  146.99   12.10
 -13  -1   3  133.99   15.00
  13   1   3  120.99   23.00
 -13   1  -3  117.09   16.20
 -13   2   3   -0.70    4.50
 -13   2   3    9.10    6.60
  13   2   3    8.10    9.40
 -13  -2   3    3.30    5.20
 -13  -2   3    3.80    4.70
 -13   2  -3   20.00    9.40
 -13   3   3   80.39   13.00
 -13   3   3   85.59   13.30
 -13  -3   3   74.39   11.90
 -13   3  -3   71.59   14.10
  13   3   3   45.10   13.80
  13   4  -3  136.19   17.90
 -13   4   3  105.99   13.60
 -13   4   3   79.19   13.80
 -13   4  -3  138.59   19.20
  13   4   3  118.99   20.70
 -13  -4   3  108.79   14.50
 -13   5   3   63.09   13.60
 -13   5   3   59.49   10.90
  13   5  -3   53.89   13.60
  13   5   3   76.59   18.00
 -13  -5   3   44.60   10.40
 -13   5  -3   57.79   13.90
 -13   6   3   -2.10    7.80
  13   6  -3    2.40    7.70
 -13   6   3   -2.30    5.70
 -13  -6   3    3.10    8.70
 -13   6  -3    3.20    6.70
  13   6   3    2.00    9.00
 -13   7   3  107.39   15.20
 -13   7   3   82.79   16.30
  13   7  -3   90.69   17.30
 -13  -7   3   70.59   14.30
  13   7   3   90.99   19.90
 -13   7  -3   74.99   15.30
  13   8  -3  220.78   26.00
 -13   8   3  249.58   24.90
 -13   8  -3  214.68   25.10
  13   8   3  210.88   30.00
  13   9  -3   54.89   14.50
 -13   9   3   19.80   10.20
  13   9   3   32.30   15.10
 -13   9  -3   35.40   12.10
 -13  10   3   -7.10    7.50
  13  10  -3   -2.20   10.90
  13  10   3   -2.00   10.20
 -13  10  -3   -5.10    7.00
 -13   0   4    3.20    4.70
 -13   0   4    0.50    4.20
 -13   0  -4   -8.70    5.70
 -13   1   4   40.20    7.50
 -13   1   4   31.70    7.90
 -13   1  -4   23.00   10.90
 -13  -1   4   19.20    6.70
 -13  -1   4   23.00    6.70
  13   1   4   37.80   14.80
 -13   2   4   10.20    5.50
 -13   2   4    7.80    5.60
 -13  -2   4    1.90    5.00
 -13   2  -4   10.20    7.50
 -13  -2   4    3.60    4.40
  13   2   4   20.90   10.90
  13   3  -4  230.18   18.10
 -13   3   4  214.98   16.70
 -13   3   4  250.37   15.40
 -13   3  -4  258.87   26.20
 -13  -3   4  249.88   15.90
  13   3   4  192.08   25.30
 -13   4   4    3.30    6.90
  13   4  -4   -4.30    5.90
 -13   4   4   -3.90    4.70
  13   4   4   -4.40    8.20
 -13   4  -4    4.00    7.90
 -13  -4   4   -4.00    5.40
  13   5  -4   91.39   15.10
 -13   5   4   68.99   11.40
 -13   5   4   76.89   13.60
 -13  -5   4   69.99   12.10
 -13   5  -4   84.69   15.70
  13   5   4   69.39   17.30
  13   6  -4   -1.00    7.10
 -13   6   4    7.50    8.20
 -13   6   4    2.50    5.80
 -13  -6   4   -2.30    6.20
 -13   6  -4    2.70    7.40
  13   6   4    2.90    9.00
  13   7  -4  173.88   22.20
 -13   7   4  160.48   18.30
 -13   7   4  111.09   18.10
 -13  -7   4  128.49   17.40
 -13   7  -4  171.48   25.20
  13   7   4  164.08   25.40
 -13   8   4   10.10    7.80
  13   8  -4   12.40   11.40
 -13   8   4    9.30   10.20
 -13   8  -4    9.20    9.30
 -13  -8   4   24.50   10.70
  13   8   4    3.30   11.60
  13   9  -4   93.79   18.40
 -13   9   4   88.29   15.60
 -13   9  -4   92.59   18.70
  13   9   4   53.39   17.50
 -13   0  -5  303.67   24.00
 -13   0   5  277.67   13.80
 -13   0   5  262.47   13.10
 -13   1   5   97.29    8.50
 -13   1   5   94.79    9.90
 -13   1  -5  103.19   17.10
 -13  -1   5  107.99    8.60
  13   1   5  111.29   22.50
 -13  -1   5  114.49    9.20
 -13   2   5  208.18   13.30
 -13   2   5  202.08   12.10
 -13  -2   5  180.88   12.00
 -13   2  -5  220.28   25.30
 -13  -2   5  196.28   11.60
  13   2   5  190.28   27.60
 -13   3   5  180.68   12.30
 -13   3   5  207.68   14.40
  13   3   5  198.08   29.20
 -13  -3   5  180.18   11.90
 -13  -3   5  197.48   13.20
 -13   3  -5  211.68   23.00
 -13   4   5  208.58   14.10
 -13   4   5  203.18   16.00
  13   4  -5  210.88   17.10
 -13   4  -5  221.18   38.20
 -13  -4   5  188.98   13.90
 -13   5   5   92.79   12.00
  13   5  -5  102.59   14.40
 -13   5   5  105.19   14.80
  13   5   5  127.19   22.70
 -13  -5   5  114.79   13.90
 -13   5  -5  129.89   19.20
  13   6  -5   56.79   13.00
 -13   6   5   55.89   10.40
 -13   6   5   39.30   11.30
 -13   6  -5   73.19   16.20
 -13  -6   5   68.59   11.40
  13   6   5   67.89   20.40
  13   7  -5  148.69   19.40
 -13   7   5  128.89   18.40
 -13   7   5  129.19   15.40
 -13   7  -5  189.98   26.30
  13   7   5  142.69   26.80
 -13  -7   5  103.59   15.80
 -13   8   5   37.20   10.00
  13   8  -5   22.80   11.20
 -13   8   5   22.30   11.10
  13   8   5   31.70   16.50
 -13   8  -5   43.00   13.80
 -13  -8   5   42.10   11.80
 -13   9   5   63.59   13.10
  13   9  -5   95.29   18.40
 -13   9  -5   86.29   17.60
  13   9   5   96.69   22.90
  13   1   6   48.90   27.20
 -13   2   6    1.10    2.70
 -13   2   6    7.40    3.20
 -13  -2   6    6.30    3.00
 -13  -2   6    5.90    3.00
  13   2   6    5.80   10.60
 -13   2  -6   -0.90    9.00
 -13   3   6  121.39    8.50
 -13   3   6  114.89    9.10
  13   3   6   94.69   20.10
 -13  -3   6  116.29    8.40
 -13   3  -6  129.09   18.50
 -13  -3   6  136.49    8.40
 -13   4   6   11.70    4.90
 -13   4   6    9.90    5.70
 -13  -4   6   12.40    5.60
 -13   4  -6   30.70   10.80
  13   4   6   -1.40   11.40
 -13   5   6  239.88   17.20
  13   5  -6  228.38   17.40
 -13   5   6  307.77   16.10
  13   5   6  261.27   33.80
 -13   5  -6  220.38   24.70
 -13  -5   6  248.98   15.30
 -13   6   6   -2.50    6.60
  13   6  -6    1.80    6.80
 -13   6   6    6.30    5.70
 -13  -6   6    3.70    6.00
 -13   6  -6   13.40    9.20
  13   6   6    5.10   11.70
 -13   7   6   91.39   15.50
  13   7  -6   99.69   15.40
 -13   7   6   59.29   11.10
 -13  -7   6   78.59   12.70
 -13   7  -6   92.69   18.50
  13   7   6   35.30   18.20
 -13   8   6    5.40    7.10
  13   8  -6   -7.50    6.70
  13   8   6   17.20   15.20
 -13   8  -6   -7.40    8.80
 -13   0  -7   17.00   10.00
 -13  -1  -7   44.60   12.90
 -13   1  -7   43.90   13.80
  13   1   7   55.09   17.00
  13   2   7  245.18   34.60
 -13   2  -7  170.08   25.30
 -13   3  -7  108.39   19.90
  13   3   7   90.19   21.00
 -13   4  -7   31.50   11.70
  13   4   7    4.30    9.90
  13   5  -7   36.80    8.40
 -13   5   7   27.40    6.50
 -13   5   7   35.40    6.30
  13   5   7   31.00   15.70
 -13   5  -7   18.50    9.70
 -13  -5   7   33.20    6.50
 -13   6   7   82.19   11.60
 -13   6   7   99.49   11.40
  13   6  -7  109.69   14.10
 -13  -6   7   92.59   11.10
  13   6   7   68.69   20.10
 -13   6  -7   99.69   18.50
 -13   7   7   24.10    9.80
 -13   7   7   35.60    8.30
  13   7  -7    2.40    9.30
  13   7   7   33.00   15.20
 -13   7  -7   42.00   14.00
 -13  -7   7   19.60    8.10
 -13   8   7   16.50   10.30
 -13   8   7   22.90    8.10
  13   8  -7   17.10    9.80
  13   8   7    0.80   12.00
 -13  -8   7   12.00    8.30
 -13   8  -7   29.00   13.30
 -13   0  -8   -2.90    7.40
 -13  -1  -8   42.90   15.00
 -13   1  -8   46.70   14.60
  13   2   8   -5.70   10.00
 -13   2  -8   -2.80    6.80
  13   3   8   65.99   20.00
 -13   3  -8   26.50   12.30
  13   4   8   12.80   15.40
 -13   4  -8   -0.10    8.40
  13   5   8   81.29   21.60
 -13   5  -8  185.78   24.60
  13   6  -8    2.60    5.40
 -13   6   8   -1.20    4.20
 -13   6   8    0.10    3.80
  13   6   8   13.60   13.90
 -13  -6   8   -2.20    3.70
 -13   6  -8    2.30    9.40
 -13   7   8   36.40    7.60
  13   7  -8   39.10    9.90
 -13   7   8   21.40    8.40
 -13   7  -8   39.30   14.30
 -13  -7   8   30.70    7.80
  13   7   8   40.40   17.30
 -13   0  -9   42.80   13.50
 -13  -1  -9   54.19   14.90
 -13   1  -9   62.49   16.60
 -13   2  -9   55.69   14.80
  13   2   9   72.39   19.50
  13   3   9   54.69   19.20
 -13   3  -9   56.59   16.30
  13   4   9   27.30   16.30
 -13   4  -9    5.90    9.10
  13   5   9   29.00   15.90
 -13   5  -9   47.10   15.50
 -13   6  -9  103.29   19.40
 -13   0 -10    6.60   10.20
 -13  -1 -10    0.50    8.80
 -13   1 -10    6.20    9.00
 -13   2 -10    1.80    9.00
  13   2  10  -15.80    9.30
  13   3  10   -9.00   10.60
 -13   3 -10    5.70    9.60
 -13   4 -10    2.20    9.40
  13   4  10   -4.10   11.80
 -14   0   0  970.90   40.50
 -14   0   0  971.60   43.90
 -14  -1   0   16.20    8.20
 -14   1   0   15.10    8.40
 -14   1   0   20.80    8.80
 -14  -1   0    8.10    7.80
 -14   2   0   -4.30    5.00
  14   2   0   -3.50    7.10
 -14  -2   0    1.70    6.80
 -14   2   0   -3.00    7.10
 -14   3   0  102.89   15.20
  14   3   0  118.09   20.00
 -14   3   0   54.39   13.50
 -14  -3   0   94.89   16.50
 -14   4   0  296.37   22.00
  14   4   0  310.27   26.40
 -14   5   0   14.60    7.80
  14   5   0    5.30    9.10
 -14   6   0   40.40   12.30
  14   6   0   36.60   13.70
  14   7   0  -10.00    8.50
 -14   7   0    2.40    8.10
  14   8   0  342.17   39.40
  14   9   0   70.09   19.30
 -14   9   0   82.09   15.70
 -14   0  -1   11.10    6.70
 -14   0   1   -3.50    6.40
 -14   0   1   -3.40    5.10
 -14   0  -1    4.00    7.40
 -14   1   1   20.50    7.90
 -14   1   1   15.10   10.70
 -14  -1  -1   16.10    9.80
 -14  -1  -1   13.20    7.80
 -14  -1   1   10.60   10.60
 -14  -1   1   25.70    8.50
 -14   1  -1   20.30    8.20
 -14   1  -1   11.00    9.00
  14   2  -1   32.90   10.90
 -14   2   1   32.90   13.00
 -14   2   1   31.70    9.00
  14   2   1   18.20   10.50
 -14   2  -1   39.20   10.10
 -14  -2   1   25.20   10.00
 -14   3   1    3.50    7.80
 -14   3   1   20.20    8.30
  14   3  -1    9.00    8.30
  14   3   1    3.60    9.30
 -14   3  -1   16.70    8.10
 -14  -3   1    3.60    7.10
  14   4  -1   24.80   10.80
 -14   4   1    0.50    5.70
 -14   4   1    0.20    7.70
  14   4   1    1.90    8.90
 -14   4  -1    2.30    7.10
 -14  -4   1   -1.40    6.50
 -14   5   1    9.90    7.10
 -14   5   1   -5.70    7.40
  14   5  -1   -0.20    7.80
 -14   5  -1    5.40    7.70
 -14  -5   1    5.30    8.20
  14   5   1   -0.20    8.40
 -14   6   1    8.40    7.60
  14   6  -1   12.50   10.30
  14   6   1   11.10   10.00
 -14   6  -1    3.00    6.80
  14   7  -1    5.90    9.70
 -14   7   1   22.40    9.70
 -14   7  -1   24.30   10.70
  14   7   1   27.80   16.00
  14   8  -1    5.10   10.30
 -14   8   1    1.40    9.00
 -14   8  -1   -2.30    6.40
  14   8   1   12.60   10.70
 -14   9   1   -4.00    7.40
  14   9  -1   27.10   13.60
  14   9   1   -6.20   11.10
 -14   9  -1   25.00   11.30
 -14   0   2  396.16   21.70
 -14   0  -2  345.47   24.10
 -14   0   2  386.16   23.80
 -14   1   2   15.50    8.10
 -14   1   2   32.20    8.80
 -14  -1  -2    8.30    7.20
 -14  -1   2   18.10    7.30
 -14  -1   2   12.60    8.00
 -14   1  -2   36.60   10.30
 -14   2   2    7.90    7.50
 -14   2   2    3.10    5.40
 -14  -2   2    8.40    7.60
 -14   2  -2    7.40    7.60
 -14  -2   2   18.80    6.80
  14   2   2   13.00    9.70
  14   3  -2   46.00   12.90
 -14   3   2   37.80    9.40
 -14   3   2   51.69   12.30
  14   3   2   34.30   13.40
 -14   3  -2   60.29   12.90
 -14  -3   2   46.70   11.80
 -14   4   2  254.37   28.70
  14   4  -2  213.28   24.50
 -14   4   2  258.87   19.00
 -14  -4   2  242.18   26.00
 -14   4  -2  250.57   21.60
  14   4   2  248.58   31.10
 -14   5   2   12.00   10.30
  14   5  -2   12.80    9.90
 -14   5   2   13.50    7.50
 -14   5  -2    6.80    7.90
  14   5   2    7.50   10.00
 -14  -5   2   14.50    9.60
  14   6  -2    6.60    9.20
 -14   6   2   -8.70    7.60
 -14   6   2   -0.20    6.20
 -14   6  -2    1.80    7.10
 -14  -6   2    7.70    7.80
  14   6   2    6.40   12.50
  14   7  -2   16.80   10.70
 -14   7   2    9.10    7.80
  14   7   2    8.70   10.90
 -14   7  -2   10.20    9.00
 -14   8   2  206.18   22.80
  14   8  -2  229.48   28.90
  14   8   2  212.48   30.30
 -14   8  -2  226.68   28.10
 -14   9   2    2.30    8.40
 -14   9  -2   24.30   12.10
  14   9   2    1.60   10.70
 -14   0  -3   -6.90    5.90
 -14   0   3    2.20    5.70
 -14   0   3   -4.60    4.10
 -14   1   3   32.70    8.50
 -14  -1  -3   81.09   16.40
 -14   1   3   37.90   10.00
 -14  -1   3   42.40    9.60
 -14   1  -3   60.49   13.50
 -14  -1   3   57.49   10.60
 -14   2   3    8.80    9.30
 -14   2   3    2.20    5.90
  14   2   3   -7.80    7.80
 -14  -2   3   -2.80    5.20
 -14   2  -3    3.00    6.90
 -14  -2   3    5.30    6.70
 -14   3   3  122.69   17.00
 -14   3   3  132.19   15.00
  14   3  -3  147.59   19.40
 -14  -3   3  122.09   15.80
 -14   3  -3  109.89   18.10
  14   3   3  139.99   24.70
 -14   4   3   -1.40    5.40
  14   4  -3   15.90    8.60
 -14   4   3    0.60    7.70
  14   4   3   -4.80    8.90
 -14  -4   3   11.20    7.50
 -14   4  -3   -8.10    5.50
  14   5  -3   40.90   12.70
 -14   5   3   33.90    9.80
 -14   5  -3   41.00   13.50
 -14   6   3    2.30    6.00
 -14   6   3    1.40    8.90
  14   6  -3    4.60    9.20
 -14   6  -3   -3.60    6.20
 -14  -6   3   -1.60    7.50
  14   6   3    5.30   11.00
 -14   7   3  102.39   15.70
  14   7  -3  103.79   18.60
  14   7   3   92.19   20.10
 -14   7  -3   99.09   18.80
  14   8  -3   -2.00    9.10
 -14   8   3    4.60    7.40
  14   8   3   -2.60   10.90
 -14   8  -3    0.50    7.00
 -14   9   3   37.60   12.10
  14   9  -3   33.80   13.70
 -14   9  -3   23.60   11.70
  14   9   3   40.70   16.60
 -14   0   4  464.25   22.70
 -14   0  -4  466.65   29.90
 -14   0   4  481.65   21.40
 -14   1   4   12.40    5.60
 -14   1   4   15.70    6.80
 -14  -1  -4   16.70    8.60
 -14  -1   4   18.20    7.20
 -14   1  -4   13.60    8.60
 -14  -1   4   17.60    6.40
 -14   2   4  148.69   16.30
 -14   2   4  176.08   13.30
 -14  -2   4  165.58   12.70
  14   2   4  139.39   24.20
 -14   2  -4  204.18   23.90
 -14  -2   4  155.78   13.60
 -14   3   4   36.20    9.40
 -14   3   4   25.60    7.40
  14   3   4   31.70   14.20
 -14   3  -4   29.40   10.70
 -14  -3   4   34.70    7.70
 -14  -3   4   27.50    7.80
 -14   4   4  471.15   26.50
  14   4  -4  464.45   27.60
 -14   4  -4  472.15   36.00
  14   4   4  511.05   38.60
 -14  -4   4  468.45   24.40
 -14   5   4   -5.80    5.50
 -14   5   4    5.60    8.00
  14   5  -4   16.80    9.30
  14   5   4    9.30   11.20
 -14  -5   4   18.70    8.20
 -14   5  -4   18.90   10.40
 -14   6   4   63.19   11.90
  14   6  -4   63.39   14.30
 -14   6   4   43.40   16.40
 -14   6  -4   53.19   14.30
 -14  -6   4   58.19   20.40
  14   6   4   83.49   19.60
 -14   7   4   17.40    8.20
 -14   7   4    5.30    9.40
  14   7  -4   10.30   10.40
 -14   7  -4   21.70   10.10
 -14  -7   4   14.30    9.10
  14   7   4   11.90   11.30
 -14   8   4  163.28   20.10
  14   8  -4  151.28   22.10
 -14   8  -4  184.58   27.10
  14   8   4  122.69   24.70
 -14   0  -5   17.60   16.30
 -14   0   5    0.60    4.10
 -14   0   5    0.80    3.80
 -14   1   5   63.89    9.60
 -14   1   5   65.19    8.30
 -14  -1  -5   90.49   18.90
 -14  -1   5   66.89    8.00
 -14   1  -5   91.99   19.20
 -14  -1   5   82.69   10.30
 -14   2   5   40.10    7.30
 -14   2   5   33.60   11.60
 -14  -2   5   40.60   11.70
 -14  -2   5   36.60    7.10
 -14   2  -5   35.50   11.10
  14   2   5   22.80   13.90
 -14   3   5   98.59   12.50
 -14   3   5   89.19   11.00
 -14   3  -5  106.79   17.70
 -14  -3   5  100.29   10.80
 -14  -3   5  107.99   12.10
  14   3   5   91.49   21.20
 -14   4   5    0.40    4.90
 -14   4   5    2.00    6.00
  14   4  -5    4.20    6.50
 -14  -4   5   -1.30    4.90
  14   4   5   -7.80    8.60
 -14   4  -5    6.00    7.60
 -14   5   5  205.38   16.00
 -14   5   5  192.78   19.50
 -14  -5   5  204.58   16.10
 -14   5  -5  216.88   24.60
  14   5   5  209.78   30.10
  14   6  -5    7.40    7.90
 -14   6   5   -4.80    7.60
 -14   6   5   -4.50    5.50
 -14   6  -5   -3.80    7.10
 -14  -6   5   -0.80    6.40
  14   6   5   10.40   12.10
  14   7  -5   58.59   14.40
 -14   7   5   57.49   11.20
  14   7   5  105.89   26.50
 -14   7  -5   88.79   17.50
 -14   8   5   -4.90    6.40
  14   8  -5    0.80    8.30
 -14   8   5   11.00   12.40
  14   8   5   -2.90   12.90
 -14  -8   5    9.20    9.60
 -14   8  -5   -5.10    7.60
 -14   0  -6  162.68   21.80
 -14  -1  -6   11.80   10.20
 -14   1  -6    3.40    8.80
 -14   2   6  181.08    8.70
 -14   2   6  197.28    9.20
 -14   2  -6  156.48   23.30
  14   2   6  204.98   31.10
 -14  -2   6  212.38    9.10
 -14  -2   6  189.58    8.90
 -14   3   6   20.90    5.80
 -14   3   6   23.30    4.90
  14   3   6   10.70   12.10
 -14   3  -6   14.10    9.80
 -14  -3   6   14.50    4.40
 -14  -3   6   14.20    4.90
 -14   4   6   94.19    9.90
  14   4   6  111.09   25.50
 -14  -4   6   93.49    9.60
 -14   4  -6  146.49   22.20
 -14   5   6   19.30    7.70
  14   5  -6   15.90    7.60
 -14   5   6   18.40    6.20
 -14   5  -6    6.60    9.10
  14   5   6    7.20   12.10
 -14  -5   6    9.50    5.90
 -14   6   6  115.79   13.40
 -14   6   6   86.99   13.70
  14   6   6   98.89   23.60
 -14   6  -6   66.89   17.00
 -14  -6   6   75.19   11.60
 -14   7   6   17.70    8.00
 -14   7   6   10.10    9.00
  14   7  -6   17.60    9.90
 -14  -7   6   14.30    8.50
 -14   7  -6    3.10    8.70
  14   7   6   10.30   15.40
 -14   0  -7   -3.20    8.10
 -14  -1  -7   61.59   16.70
 -14   1  -7   69.79   16.60
  14   2   7    3.40   12.50
 -14   2  -7   -8.20    5.80
  14   3   7   49.50   19.60
 -14   3  -7   60.09   16.20
  14   4   7    2.90   11.70
 -14   4  -7   24.90   11.30
 -14   5   7  102.59    8.70
 -14   5   7  110.59    9.70
 -14   5  -7   89.59   17.40
  14   5   7  129.29   25.60
 -14  -5   7  111.39    9.00
 -14   6   7    2.60    6.10
  14   6  -7    5.20    7.20
 -14   6   7   -2.90    4.40
 -14  -6   7    0.50    5.30
  14   6   7    2.50   12.30
 -14   6  -7    1.90    9.20
 -14   0  -8    0.20    9.60
 -14  -1  -8   31.20   12.70
 -14   1  -8   53.29   15.80
  14   2   8  141.09   29.10
 -14   2  -8  164.98   24.30
 -14   3  -8    2.90    7.90
  14   3   8   21.00   15.30
 -14   4  -8   -3.40    8.60
  14   4   8   13.40   12.80
  14   5   8    3.30   13.40
 -14   5  -8   12.10   11.70
 -14   0  -9   -2.90    7.50
 -14  -1  -9   10.80   10.80
 -14   1  -9    0.40    8.40
 -14  -2  -9   -1.10    9.60
 -14   2  -9    0.00    8.20
  14   2   9   -8.50    9.70
  14   3   9    4.80   14.20
 -14   3  -9   27.60   13.60
 -15   0   0    7.50    6.70
 -15   0   0   -2.20    8.60
 -15  -1   0    0.70    9.50
 -15   1   0   -0.40    8.50
 -15  -1   0   -4.00    4.80
 -15   1   0   -0.50    5.90
 -15  -2   0    0.20    5.80
 -15   2   0    2.60    5.70
  15   3   0   -5.90    7.30
 -15   3   0   11.10    7.80
 -15   4   0    0.50    6.70
  15   4   0   -5.70    7.10
  15   5   0    3.90    9.40
 -15   5   0   -6.40    5.40
  15   6   0   13.60   11.10
 -15   6   0    5.20    7.70
  15   7   0   -3.00   11.70
  15   8   0   -0.70    9.90
 -15   8   0    0.60    7.30
 -15   0   1  515.15   30.50
 -15   0   1  505.05   27.10
 -15   0  -1  521.45   29.70
 -15   1   1    2.40    7.90
 -15  -1  -1    5.40    7.30
 -15   1   1    2.80    6.20
 -15   1  -1   -5.30    5.70
 -15  -1   1   -8.50    6.40
 -15  -1   1    3.20    6.40
 -15  -2  -1    5.80    7.30
 -15   2   1   -0.10    8.10
 -15   2   1    8.50    7.50
 -15  -2   1   -1.10    6.90
 -15  -2   1   -7.30    5.90
 -15   2  -1   -5.30    6.10
 -15   3   1   75.99   13.50
  15   3  -1   90.39   18.00
 -15   3   1   41.20   12.70
  15   3   1   77.89   17.40
 -15   3  -1   55.89   12.70
 -15  -3   1   53.49   13.40
  15   4  -1  228.18   27.90
 -15   4   1  239.68   20.00
  15   4   1  238.38   30.00
 -15   4  -1  234.98   25.00
  15   5  -1   10.20   10.00
 -15   5   1   -2.00    6.20
 -15   5  -1   -1.30    7.00
  15   5   1   -7.50    8.80
 -15   6   1   12.30    8.10
  15   6  -1    5.80   10.60
 -15   6  -1   19.40   12.70
  15   7  -1   -9.90    9.90
 -15   7   1   -4.20    6.20
  15   7   1    4.60   10.50
 -15   7  -1   -5.70    6.80
 -15   8   1  411.66   33.30
  15   8  -1  336.97   36.30
 -15   8  -1  380.76   29.10
  15   8   1  388.16   39.90
 -15   0   2    6.90    6.60
 -15   0   2   -3.40    6.40
 -15   0  -2    5.60    7.40
 -15   1   2   21.10    9.50
 -15  -1  -2   16.90    8.70
 -15   1   2   42.10    9.60
 -15  -1   2   26.70    9.70
 -15  -1   2   53.29   10.60
 -15   1  -2   23.40    9.00
 -15   2   2    0.10    5.60
 -15   2  -2   -6.80    5.80
 -15  -2   2    9.10    7.10
  15   2   2   13.60   11.60
 -15   3   2  115.49   17.60
  15   3  -2  136.49   19.80
 -15   3   2  123.09   15.90
 -15  -3   2  118.69   16.50
 -15   3  -2   88.59   15.60
  15   3   2  125.49   22.80
  15   4  -2   14.00   10.70
 -15   4   2    6.60    8.60
 -15   4   2   13.10    8.00
  15   4   2   21.50   12.70
 -15   4  -2    2.60    6.30
 -15  -4   2    5.70    8.60
 -15   5   2   -4.90    5.60
 -15   5   2    0.30    8.60
  15   5  -2   10.40   10.30
 -15  -5   2    3.40    8.30
  15   5   2    9.80   10.90
 -15   6   2   -4.50    5.80
  15   6  -2    1.30    8.40
  15   6   2    5.70   11.10
 -15   6  -2    0.00    7.20
 -15   7   2   38.20   10.50
  15   7  -2   25.40   13.10
 -15   7  -2   52.79   13.70
  15   7   2   42.00   16.60
 -15   0   3  336.17   19.90
 -15   0  -3  329.77   25.10
 -15   0   3  346.27   22.10
 -15   1   3    5.20    7.90
 -15   1   3   16.50    6.80
 -15  -1  -3   19.90    9.20
 -15   1  -3    8.00    7.40
 -15  -1   3   13.00    6.40
 -15  -1   3    2.30    7.10
 -15   2   3   58.19   12.20
 -15   2   3   74.79   11.80
  15   2   3   58.09   17.60
 -15  -2   3   52.79   11.10
 -15  -2   3   72.29   11.70
 -15   2  -3   55.39   14.20
 -15   3   3   11.00    6.80
 -15   3   3    7.50    8.10
 -15  -3   3    6.40    7.30
 -15  -3   3    7.30    6.30
 -15   4   3  520.55   26.90
  15   4  -3  455.25   30.00
 -15   4  -3  491.45   31.70
  15   4   3  527.75   39.40
  15   5  -3    1.70    8.20
 -15   5   3    4.90    7.20
 -15   5   3    4.50    9.50
 -15  -5   3    5.10    7.90
  15   5   3   22.10   13.30
 -15   5  -3   12.50    8.80
 -15   6   3   19.50    9.20
  15   6  -3    9.60   10.50
 -15   6   3   15.60   11.30
  15   6   3    1.80   10.10
 -15   6  -3   11.90    9.30
 -15  -6   3    6.90    9.20
 -15   7   3    9.90    7.30
  15   7  -3  -12.80    8.50
  15   7   3   -0.10   10.60
 -15   7  -3   -5.30    7.00
 -15   0   4    3.30    5.10
 -15   0  -4    7.10    7.90
 -15   0   4    2.00    5.70
 -15   1   4   72.59   11.70
 -15  -1  -4   75.69   15.90
 -15   1   4   71.19   10.70
 -15  -1   4   94.19   11.80
 -15   1  -4   84.19   15.40
 -15  -1   4   82.29   11.90
 -15   2   4    8.50    5.50
 -15   2   4    2.80    6.50
 -15  -2   4    2.10    5.70
 -15  -2   4   -1.60    4.70
 -15   2  -4   11.40    8.90
  15   2   4   12.30   12.90
 -15   3   4   63.99   11.90
 -15  -3   4   52.49    9.90
  15   3   4   78.19   20.80
 -15   3  -4   54.29   14.00
 -15   4   4    8.00    8.20
  15   4  -4   11.70    9.10
 -15   4   4   15.70    7.50
  15   4   4   21.80   14.90
 -15  -4   4   11.50    7.70
 -15   4  -4    2.80    8.30
 -15   5   4  125.29   15.50
  15   5  -4   82.29   16.00
 -15   5   4  119.79   17.30
 -15   5  -4   97.89   17.50
 -15  -5   4  118.39   15.80
  15   5   4  110.69   23.70
  15   6  -4   -6.90    7.50
 -15   6   4    2.80    6.30
 -15   6   4    5.70    9.50
  15   6   4   10.40   12.60
 -15   6  -4   -5.30    6.60
 -15  -6   4    4.50    7.90
 -15   7   4   64.99   16.20
 -15   7   4   65.59   13.60
  15   7  -4   62.89   15.80
 -15   7  -4   98.79   18.10
 -15  -7   4   54.99   14.00
  15   7   4   38.80   17.60
 -15   0  -5  238.28   28.90
 -15   0   5  258.97   14.00
 -15   1   5   15.40    5.50
 -15  -1  -5    0.60    7.80
 -15   1   5    6.00    6.00
 -15  -1   5    7.90    8.60
 -15   1  -5   -5.10    7.30
 -15  -1   5   10.20    5.10
 -15   2   5  111.89   12.40
 -15   2   5  120.39   11.90
 -15   2  -5  134.79   20.50
  15   2   5   76.69   18.80
 -15  -2   5  124.49   12.60
 -15  -2   5  124.09   10.50
 -15   3   5    4.70    4.80
 -15   3   5    0.10    5.70
  15   3   5   11.80   11.00
 -15   3  -5    9.80    8.30
 -15  -3   5    8.80    5.30
 -15  -3   5    6.90    5.60
 -15   4   5  187.48   18.30
 -15   4   5  179.28   14.00
  15   4   5  233.78   32.40
 -15   4  -5  146.29   21.40
 -15  -4   5  190.58   13.90
 -15  -4   5  164.48   14.40
 -15   5   5    7.80    7.90
  15   5  -5   -1.20    6.90
 -15   5   5    3.00    7.00
  15   5   5   -5.80   10.30
 -15   5  -5   11.10    9.10
 -15  -5   5    1.70    6.80
 -15   6   5   38.20   11.70
  15   6  -5   40.50   12.10
 -15   6   5   66.09   11.90
 -15   6  -5   57.59   14.10
  15   6   5   56.29   18.10
 -15  -6   5   40.90   10.60
 -15   0  -6   14.80   10.40
 -15  -1  -6   84.19   18.60
 -15   1  -6   91.79   18.70
 -15   2   6    7.30    3.50
 -15   2   6    7.10    3.20
 -15   2  -6   -0.30    7.20
 -15  -2   6   11.30    3.50
 -15  -2   6   15.50    3.90
  15   2   6   29.10   16.90
 -15   3   6   41.80    6.80
 -15   3   6   45.10    6.40
 -15  -3   6   44.00    6.70
  15   3   6   55.49   19.00
 -15   3  -6   52.69   15.20
 -15  -3   6   39.00    6.00
 -15   4   6    5.20    4.80
 -15   4  -6   10.10    9.40
  15   4   6   -0.30   12.20
 -15  -4   6    9.30    4.50
 -15   5   6  107.19   11.90
 -15   5   6  118.99   13.90
 -15  -5   6  135.39   13.70
  15   5   6  108.49   23.50
 -15   5  -6  126.99   20.80
 -15   0  -7   24.50   11.40
 -15  -1  -7   -4.70    7.10
 -15   1  -7    8.00   10.00
 -15  -2  -7  152.28   21.90
 -15   2  -7  123.69   22.20
  15   2   7   91.59   21.90
  15   3   7  -12.70    9.90
 -15   3  -7   12.90   10.50
  15   4   7    2.30   12.50
 -15   4  -7   26.10   13.20
 -15   0  -8    0.10    8.20
 -15  -1  -8   25.30   13.30
 -15   1  -8   23.50   11.10
 -15  -2  -8    2.80    9.80
 -15   2  -8   -5.70    6.90
 -16   0   0  328.17   23.30
 -16   1   0   -3.20    6.20
 -16  -1   0   -0.30    6.20
 -16  -2   0    2.50    7.10
 -16   2   0   -0.90    6.70
  16   3   0   29.70   13.10
 -16   3   0   21.40    9.10
  16   4   0  180.58   25.70
 -16   4   0  237.78   24.70
  16   5   0   11.60   11.30
 -16   5   0   -8.40    5.40
  16   6   0  -12.40    8.60
 -16   6   0    3.40   13.80
 -16   0   1   -1.90    6.00
 -16   0  -1   -4.30    6.30
 -16   0   1    5.60   11.10
 -16   1   1   28.90    9.30
 -16  -1  -1   13.40    8.30
 -16   1  -1    4.70    7.90
 -16  -1   1   36.10   10.50
 -16  -2  -1   14.30    8.20
 -16   2   1   31.00   10.20
 -16  -2   1   27.90   10.10
 -16   2  -1    9.30    7.80
 -16   3   1   11.20    7.80
  16   3   1   11.80   12.40
 -16  -3   1   45.40   11.00
 -16   3  -1    8.90    8.20
  16   4  -1   10.40   10.50
 -16   4   1   -1.30    6.50
 -16   4  -1   -2.60    7.10
  16   4   1   10.90   14.50
  16   5  -1   15.10   11.10
 -16   5   1    9.60    7.50
  16   5   1    4.20   10.80
 -16   5  -1    3.70    7.40
  16   6  -1    1.60   10.20
 -16   6   1   10.40    9.10
  16   6   1    3.80   10.00
 -16   6  -1   -0.90    6.90
 -16   0   2  289.47   23.30
 -16   0   2  310.77   20.80
 -16   0  -2  303.87   24.20
 -16   1   2   81.69   13.30
 -16   1   2   73.19   15.00
 -16  -1  -2   84.79   16.10
 -16  -1   2   77.99   12.70
 -16  -1   2   77.09   15.20
 -16   1  -2   62.19   13.80
 -16   2   2   27.50    9.50
 -16   2   2   -0.80    7.90
 -16  -2  -2    4.40    9.50
 -16  -2   2   33.50   11.80
 -16   2  -2   10.40    9.60
 -16  -2   2   20.20    8.80
 -16   3   2    6.30    7.00
 -16   3   2   19.10   10.30
 -16   3  -2    6.50    9.10
 -16  -3   2   19.10    9.20
  16   3   2   22.30   12.70
 -16  -3   2   23.00   10.80
  16   4  -2  319.57   27.40
 -16   4   2  332.87   23.40
  16   4   2  321.57   36.20
 -16   4  -2  351.06   26.70
  16   5  -2   36.90   13.90
 -16   5   2   35.20   10.50
  16   5   2   29.00   15.60
 -16   5  -2   47.60   13.00
 -16   0   3    0.20    5.60
 -16   0  -3    2.80    8.60
 -16   0   3   -8.10    6.40
 -16   1   3   56.69   10.90
 -16  -1  -3   49.60   13.30
 -16   1   3   63.09   13.50
 -16  -1   3   77.19   12.30
 -16   1  -3   54.49   14.50
 -16  -1   3   48.80   11.60
 -16   2   3   -1.90    5.50
 -16  -2  -3    3.70    7.40
 -16   2   3   -3.60    7.50
 -16   2  -3    6.40    8.50
 -16  -2   3   -2.70    6.90
 -16  -2   3   -1.40    5.80
 -16   3   3   77.29   17.00
 -16   3   3   67.49   12.60
 -16   3  -3   91.39   18.70
 -16  -3   3   41.30   13.20
  16   3   3   64.19   19.50
 -16  -3   3   76.49   12.60
 -16   4   3    6.30    9.10
 -16   4   3    0.50    6.10
  16   4   3    3.50   11.50
 -16   4  -3   14.20   11.00
 -16  -4   3    0.60    8.20
  16   5  -3   11.80   10.20
 -16   5   3   17.30   10.80
 -16   5   3   33.90   10.40
  16   5   3   24.40   14.40
 -16   5  -3   11.10    9.70
 -16  -5   3   10.50    9.30
 -16   0   4  144.99   16.40
 -16   0   4  161.78   16.10
 -16   0  -4  148.79   21.80
 -16  -1  -4   47.50   13.90
 -16   1   4   58.19   12.00
 -16   1   4   40.60   10.60
 -16  -1   4   30.50   10.50
 -16   1  -4   60.49   14.50
 -16  -1   4   21.10    8.40
 -16  -2  -4    9.20   10.10
 -16   2   4   32.50   10.10
 -16   2   4   26.70   13.70
 -16   2  -4   22.70   11.70
 -16  -2   4   24.90    9.60
 -16  -2   4   30.80    9.50
 -16   3   4   32.60   10.10
 -16   3   4   37.50    9.00
 -16  -3   4   31.10    9.30
 -16  -3   4   32.10    8.80
 -16   3  -4   39.00   12.80
  16   3   4   19.80   13.10
 -16   4   4  141.99   18.90
 -16   4   4  173.88   18.00
  16   4   4  151.88   28.30
 -16  -4   4  189.38   15.80
 -16  -4   4  198.38   20.40
 -16   4  -4  156.68   23.40
 -16   0  -5    3.00    8.40
 -16   0   5    1.20    5.00
 -16   0   5   -0.90    4.30
 -16   1   5   68.59    9.10
 -16  -1  -5   73.69   17.60
 -16   1   5   66.79   10.10
 -16  -1   5   73.79    9.90
 -16  -1   5   71.79    9.60
 -16   1  -5   85.89   18.50
 -16  -2  -5    0.40    8.30
 -16   2   5   -2.80    5.50
 -16   2   5   -2.60    4.10
 -16  -2   5    1.90    5.40
 -16  -2   5   -2.50    4.30
 -16   2  -5   -3.70    6.60
 -16   3   5   54.89   10.70
 -16   3   5   71.19   10.40
 -16   3  -5   67.29   15.20
 -16  -3   5   47.20    9.60
  16   3   5   58.39   18.40
 -16  -3   5   63.99    9.60
 -16   0  -6   60.39   15.00
 -16  -1  -6   -1.40    8.60
 -16   1  -6   10.30    9.10
 -16  -2  -6  120.29   21.00
 -16   2  -6   93.29   17.70
 -17   0   0    5.10    6.50
 -17  -1   0   11.30    8.40
 -17   1   0    3.90    6.70
 -17   2   0    0.00    6.60
 -17  -2   0    4.30    7.40
 -17  -3   0   -0.60    7.90
 -17   3   0    2.30    7.70
 -17   0  -1  186.68   23.10
 -17   0   1  203.98   22.00
 -17  -1  -1   65.59   16.00
 -17   1   1   65.49   13.10
 -17   1  -1   78.99   17.70
 -17  -1   1   61.39   12.90
 -17   2   1    9.60    7.80
 -17  -2   1    4.10    7.50
 -17   0   2   -8.00    8.50
 -17   0  -2   10.50    8.10
 -17   0   2    4.90    7.40
 -17  -1  -2   52.59   13.80
 -17   1   2   47.00   11.10
 -17   1   2   23.90   12.10
 -17  -1   2   37.20   12.90
 -17   1  -2   22.10   10.10
 -17  -1   2   56.69   12.00
 -17  -2  -2    3.90    9.00
 -17   2   2    4.10    6.50
 -17   2  -2    4.60    8.30
 -17  -2   2   -2.70    6.70
 -17   0  -3   99.99   17.60
 -17   0   3   92.69   13.50
 -17   0   3  103.79   20.00
 -17   1   3   76.69   13.10
 -17   1   3  108.99   17.00
 -17  -1  -3  131.89   21.70
 -17  -1   3   88.49   15.80
 -17   1  -3   76.19   16.30
 -17  -1   3  107.49   14.60
   0   0   0    0.00    0.00


_computing_structure_solution     'SHELXT 2014/5 (Sheldrick, 2014)'
_computing_structure_solution     'SHELXT 2014/5 (Sheldrick, 2014)'
;
_shelx_hkl_checksum                41743
_shelx_fab_file
;
0 0 2 -161.0598 5.3382
0 0 4 -51.6755 -4.4602
0 0 6 -10.7147 2.7767
0 0 8 8.7653 -1.1765
0 0 10 0.7098 0.3352
0 0 12 5.4527 -0.3006
0 0 14 -2.2669 0.8371
0 0 16 3.1757 -1.4494
0 1 1 2.8811 0.6252
0 1 3 12.1076 -2.4143
0 1 5 -1.8931 3.2367
0 1 7 1.4401 -2.7881
0 1 9 -2.3853 1.5899
0 1 11 -0.6425 -0.0112
0 1 13 -0.7918 -1.1457
0 1 15 2.8634 1.5542
0 2 0 -44.2524 0.0449
0 2 2 24.2560 -0.4693
0 2 4 10.6319 2.0892
0 2 6 -2.2358 -3.7188
0 2 8 -0.5467 4.9774
0 2 10 4.0140 -5.3580
0 2 12 -2.5392 4.8836
0 2 14 1.5763 -3.5632
0 2 16 -0.2485 2.0547
0 3 1 1.1721 0.7790
0 3 3 8.1983 -2.3884
0 3 5 3.0080 3.1696
0 3 7 -2.0156 -2.7370
0 3 9 1.2575 1.5198
0 3 11 2.1198 0.0238
0 3 13 4.5278 -1.1588
0 3 15 -2.8508 1.6425
0 4 0 21.3433 -6.8331
0 4 2 -5.7248 6.3062
0 4 4 17.6530 -4.7055
0 4 6 -1.2019 2.7539
0 4 8 3.5385 -1.1641
0 4 10 -2.8810 0.3406
0 4 12 3.6746 -0.3390
0 4 14 -2.7621 0.8998
0 5 1 4.4195 0.9339
0 5 3 1.8392 -2.4220
0 5 5 -3.4252 3.0870
0 5 7 1.6062 -2.6914
0 5 9 1.4484 1.4643
0 5 11 0.4459 0.0164
0 5 13 0.1537 -1.1602
0 5 15 1.4057 1.5697
0 6 0 -0.4216 0.1026
0 6 2 1.5348 -0.5499
0 6 4 -1.3219 1.8749
0 6 6 4.2375 -3.4849
0 6 8 -2.3562 4.6633
0 6 10 -1.4320 -5.1439
0 6 12 1.2664 4.5432
0 6 14 2.8113 -3.0599
0 7 1 8.9156 0.8705
0 7 3 -0.5468 -2.3291
0 7 5 2.4202 2.9390
0 7 7 1.1553 -2.5737
0 7 9 -0.3383 1.3818
0 7 11 2.0247 -0.0007
0 7 13 3.6584 -1.0275
0 8 0 1.4452 -6.1340
0 8 2 -5.0300 5.5651
0 8 4 6.1695 -4.2047
0 8 6 1.4450 2.4988
0 8 8 -2.6218 -1.0758
0 8 10 4.4745 0.3523
0 8 12 -1.7394 -0.2731
0 8 14 -2.2557 0.8533
0 9 1 0.4010 0.8238
0 9 3 0.5486 -2.1260
0 9 5 -0.6512 2.6652
0 9 7 1.7926 -2.2867
0 9 9 4.8368 1.2518
0 9 11 -0.1252 0.0559
0 9 13 0.0715 -1.0198
0 10 0 1.5043 0.1028
0 10 2 1.0459 -0.5672
0 10 4 2.3817 1.7127
0 10 6 1.7909 -3.0188
0 10 8 -0.8304 4.1170
0 10 10 0.4049 -4.2869
0 10 12 -1.5687 3.6091
0 11 1 2.4292 0.7158
0 11 3 -0.9865 -1.9142
0 11 5 1.0127 2.3986
0 11 7 1.8852 -1.9509
0 11 9 0.4947 1.1071
0 11 11 1.7822 0.0362
0 12 0 3.4947 -5.0874
0 12 2 1.7230 4.6115
0 12 4 -0.4857 -3.4702
0 12 6 -0.5997 2.1363
0 12 8 -0.7871 -0.8263
0 12 10 1.4695 0.4263
0 13 1 3.4789 0.5886
0 13 3 0.1031 -1.6739
0 13 5 -1.6141 2.1220
0 13 7 3.6959 -1.6386
0 13 9 3.1070 0.9092
0 14 0 1.6772 0.0218
0 14 2 -3.6447 -0.6275
0 14 4 1.0653 1.4099
0 14 6 3.7117 -2.3638
0 14 8 3.3369 2.8815
0 15 1 6.6356 0.5904
0 15 3 -3.8710 -1.4653
0 15 5 -0.0381 1.6282
0 16 0 -2.7966 -3.1741
1 0 1 267.0590 1.0401
1 0 3 9.7930 0.3653
1 0 5 -9.4030 0.0500
1 0 7 -5.1374 -0.2128
1 0 9 5.6667 0.1629
1 0 11 2.7158 -0.2514
1 0 13 3.9805 0.1908
1 0 15 0.2494 0.4515
1 1 1 -35.8842 -0.8036
1 1 2 2.5318 0.1302
1 1 3 -14.2769 -0.6615
1 1 4 16.4543 0.1570
1 1 5 5.9098 -0.4383
1 1 6 2.1126 0.0589
1 1 7 2.1315 0.0301
1 1 8 2.0344 0.0489
1 1 9 -2.4949 -0.1115
1 1 10 -1.6722 -0.0924
1 1 11 1.5505 0.2606
1 1 12 -0.6369 -0.0351
1 1 13 -3.2549 -0.0623
1 1 14 -0.5376 -0.2770
1 1 15 2.3453 -0.0180
1 1 16 2.8719 -0.6418
1 2 1 -22.9849 -0.0407
1 2 2 12.1254 0.3080
1 2 3 9.1484 0.2646
1 2 4 0.4434 0.3517
1 2 5 16.2655 -0.2547
1 2 6 -0.4842 0.1080
1 2 7 2.1273 -0.1037
1 2 8 1.0943 0.2051
1 2 9 -1.3643 -0.0709
1 2 10 1.0829 -0.0300
1 2 11 -0.1034 -0.0863
1 2 12 0.6027 -0.1677
1 2 13 -0.2822 0.1188
1 2 14 0.9059 -0.0362
1 2 15 1.6628 -0.4130
1 2 16 -0.3162 -0.1662
1 3 1 7.9386 -0.7094
1 3 2 -1.5413 0.4224
1 3 3 -12.1449 -0.4019
1 3 4 12.2734 -0.0398
1 3 5 4.5037 -0.3781
1 3 6 9.2527 0.1613
1 3 7 -2.0514 -0.2040
1 3 8 -0.8201 -0.1490
1 3 9 1.6478 -0.1882
1 3 10 -1.1476 0.1059
1 3 11 -0.5911 0.0437
1 3 12 0.6157 0.0027
1 3 13 2.0910 0.1107
1 3 14 4.4142 -0.0697
1 3 15 -0.7217 0.3717
1 3 16 0.9844 -0.5102
1 4 1 9.3784 -1.8790
1 4 2 6.9669 0.0925
1 4 3 -2.7514 0.1709
1 4 4 0.9555 0.2239
1 4 5 6.4838 0.0960
1 4 6 0.1167 0.1087
1 4 7 0.0888 0.0482
1 4 8 -1.4058 0.1549
1 4 9 0.4094 0.0430
1 4 10 0.3452 0.0421
1 4 11 -1.2808 -0.1082
1 4 12 0.4413 0.0001
1 4 13 4.0521 0.0689
1 4 14 -2.6582 -0.1652
1 4 15 1.5083 -0.5050
1 5 1 -11.3966 0.8044
1 5 2 2.0733 0.5134
1 5 3 4.8997 0.2496
1 5 4 7.9254 0.0755
1 5 5 -1.2690 0.0927
1 5 6 -0.7301 0.0858
1 5 7 3.4820 0.0065
1 5 8 0.0964 -0.0744
1 5 9 -1.0448 -0.1005
1 5 10 0.9730 0.2153
1 5 11 1.8301 -0.0424
1 5 12 0.0401 0.0854
1 5 13 -1.5930 0.0576
1 5 14 0.4388 -0.2060
1 5 15 -0.2411 0.2570
1 6 1 5.6892 0.5676
1 6 2 3.5070 0.0193
1 6 3 0.0621 -0.0926
1 6 4 -1.0637 0.0504
1 6 5 -1.5359 -0.0844
1 6 6 -0.6914 0.0915
1 6 7 2.5387 -0.0337
1 6 8 1.0725 0.1248
1 6 9 -0.0068 -0.2499
1 6 10 0.0271 0.0949
1 6 11 -0.8940 0.0818
1 6 12 0.5003 0.0688
1 6 13 0.7703 0.4715
1 6 14 -1.0783 0.0850
1 6 15 1.2071 0.8763
1 7 1 -0.9063 -0.6623
1 7 2 5.0045 0.4328
1 7 3 -2.0147 -0.2167
1 7 4 0.1400 0.0562
1 7 5 2.1433 -0.1623
1 7 6 1.4601 -0.0482
1 7 7 -1.2242 -0.2042
1 7 8 -0.0479 0.0992
1 7 9 0.8923 -0.0783
1 7 10 -1.7098 0.2158
1 7 11 -0.9140 -0.0816
1 7 12 0.2098 0.1757
1 7 13 0.0877 -0.0025
1 7 14 1.1450 0.8303
1 8 1 -0.3627 -1.5933
1 8 2 -1.2306 -0.1135
1 8 3 -3.7836 0.0446
1 8 4 -0.1487 -0.0792
1 8 5 1.7222 0.0967
1 8 6 1.8371 0.0788
1 8 7 1.7893 0.1378
1 8 8 -2.6320 0.1085
1 8 9 -1.3244 -0.1363
1 8 10 2.8004 0.2684
1 8 11 4.8314 0.0692
1 8 12 -0.2721 0.2462
1 8 13 1.3823 -0.0066
1 8 14 -0.1791 0.2315
1 9 1 -1.1903 0.6616
1 9 2 0.1088 0.3695
1 9 3 -0.2683 0.2901
1 9 4 -0.4655 0.1044
1 9 5 0.0302 0.1779
1 9 6 0.9642 -0.0091
1 9 7 -1.5346 0.2001
1 9 8 1.5170 0.0084
1 9 9 -1.2043 -0.0773
1 9 10 3.8663 0.1146
1 9 11 0.6302 -0.4556
1 9 12 2.4113 0.1117
1 9 13 -1.3913 -0.7005
1 10 1 -1.2375 0.4991
1 10 2 0.7141 -0.0629
1 10 3 -1.3722 -0.0705
1 10 4 -2.8288 -0.0381
1 10 5 0.3112 -0.1720
1 10 6 1.7881 -0.0508
1 10 7 0.6809 0.1663
1 10 8 -2.4282 -0.1072
1 10 9 1.1451 -0.1349
1 10 10 1.1215 -0.1098
1 10 11 0.1946 -0.6268
1 10 12 -0.8611 -0.1610
1 11 1 -2.8119 -0.5319
1 11 2 1.6141 0.3735
1 11 3 -2.0405 -0.0224
1 11 4 -0.3861 0.0828
1 11 5 2.4466 0.0166
1 11 6 -1.0773 0.2245
1 11 7 -3.1989 0.1327
1 11 8 -0.2090 0.0239
1 11 9 -0.4736 0.1360
1 11 10 -0.3967 0.1456
1 11 11 0.5716 -0.0474
1 11 12 -0.2606 -0.4928
1 12 1 0.9066 -1.2805
1 12 2 2.3859 -0.1423
1 12 3 1.1677 0.1518
1 12 4 -0.4796 -0.1179
1 12 5 -0.3742 -0.1235
1 12 6 -1.9775 -0.0686
1 12 7 -0.0509 0.1759
1 12 8 2.3526 -0.1820
1 12 9 -0.8987 -0.1359
1 12 10 2.0296 -0.2225
1 13 1 -2.1385 0.5600
1 13 2 3.4220 0.2733
1 13 3 -0.2991 0.2326
1 13 4 0.4247 0.1193
1 13 5 0.0885 0.1571
1 13 6 -1.1672 0.3922
1 13 7 -2.4650 -0.0756
1 13 8 0.9154 0.0253
1 13 9 -0.1916 -0.3307
1 14 1 1.0306 0.6180
1 14 2 2.3976 -0.2225
1 14 3 -5.1803 -0.0860
1 14 4 1.3136 -0.2050
1 14 5 -2.4453 -0.0380
1 14 6 -0.1256 -0.1257
1 14 7 -0.4789 -0.2408
1 14 8 -1.8774 0.0632
1 15 1 -2.2307 -0.1093
1 15 2 3.9316 0.2035
1 15 3 -0.2459 -0.0009
1 15 4 -1.0138 -0.3215
1 15 5 1.3899 0.7664
1 16 1 -0.3217 -0.2945
2 0 0 -173.5116 -0.4582
2 0 2 51.8144 1.2477
2 0 4 43.0516 -0.9342
2 0 6 4.5954 0.5886
2 0 8 -8.5805 -0.3321
2 0 10 -1.7194 0.0494
2 0 12 -0.5623 0.0164
2 0 14 -0.8001 0.3292
2 0 16 -0.6283 0.4881
2 1 0 59.1435 -1.3674
2 1 1 -12.0128 -0.3672
2 1 2 -12.8211 -1.0645
2 1 3 -5.3064 -0.6548
2 1 4 -32.4638 0.9973
2 1 5 1.0642 0.6448
2 1 6 -5.4858 -0.4753
2 1 7 -4.1891 -0.8875
2 1 8 0.8118 0.7961
2 1 9 -0.4516 0.3525
2 1 10 2.4313 -0.3845
2 1 11 1.7088 -0.0885
2 1 12 1.4221 0.5765
2 1 13 0.7132 -0.3375
2 1 14 -1.3314 -0.6014
2 1 15 -2.0734 0.5169
2 1 16 1.5800 -0.5646
2 2 0 -11.6294 0.6234
2 2 1 -9.3871 -0.0927
2 2 2 -1.4798 0.5624
2 2 3 11.3755 0.3034
2 2 4 -15.1716 0.2116
2 2 5 1.6532 -0.4373
2 2 6 2.8551 -0.9713
2 2 7 -0.9074 0.0309
2 2 8 -3.2843 1.1754
2 2 9 -2.9158 -0.2976
2 2 10 0.1501 -1.2780
2 2 11 -3.5943 -0.1853
2 2 12 -1.6804 1.4121
2 2 13 0.7316 0.0686
2 2 14 -0.3626 -0.9998
2 2 15 0.8230 -0.1802
2 2 16 0.6555 -0.3258
2 3 0 -8.4778 1.5484
2 3 1 2.7218 0.0937
2 3 2 6.2560 1.4534
2 3 3 -12.3720 -1.0786
2 3 4 -9.7454 -0.5408
2 3 5 -3.5596 0.9666
2 3 6 -1.0153 1.0843
2 3 7 1.2175 -1.0516
2 3 8 0.2042 -0.6632
2 3 9 -3.2557 0.4501
2 3 10 0.9085 1.0824
2 3 11 -1.9739 -0.1235
2 3 12 1.7185 -0.5638
2 3 13 -1.4848 -0.5658
2 3 14 -0.1500 0.7218
2 3 15 -0.4195 0.0469
2 3 16 -0.0706 0.2438
2 4 0 -7.2517 4.3171
2 4 1 -6.6184 0.0499
2 4 2 -12.9206 3.4164
2 4 3 3.5500 0.0888
2 4 4 -2.3589 -0.8319
2 4 5 3.8490 -0.1221
2 4 6 -4.0299 0.5797
2 4 7 1.0424 0.0522
2 4 8 0.5321 -0.1532
2 4 9 -2.3652 -0.2661
2 4 10 -0.5217 -0.3133
2 4 11 0.1942 -0.1154
2 4 12 0.6741 0.1340
2 4 13 -0.2700 -0.0276
2 4 14 -0.6561 0.0234
2 4 15 -1.4691 -0.3290
2 5 0 7.6921 -1.6231
2 5 1 1.0823 0.2342
2 5 2 -2.8592 -1.3880
2 5 3 -6.0473 -1.0919
2 5 4 -0.1465 0.5598
2 5 5 0.0303 0.8722
2 5 6 -0.8774 -0.8275
2 5 7 -2.4543 -1.0256
2 5 8 0.9174 0.5907
2 5 9 -2.0331 0.5536
2 5 10 -1.6609 -0.5264
2 5 11 -0.3489 -0.0709
2 5 12 0.2211 0.6065
2 5 13 -0.4754 -0.6321
2 5 14 -1.1311 -0.4645
2 5 15 -0.9781 -0.4916
2 6 0 -12.7791 1.0765
2 6 1 -5.2738 0.0309
2 6 2 5.5073 0.5320
2 6 3 1.1042 0.0322
2 6 4 0.6281 0.5907
2 6 5 -1.1435 0.0775
2 6 6 0.7544 -0.7594
2 6 7 -0.9916 -0.0863
2 6 8 0.4047 1.3048
2 6 9 -0.1186 -0.0920
2 6 10 0.4644 -1.2172
2 6 11 -1.9702 -0.0744
2 6 12 -1.9248 1.4040
2 6 13 -0.8217 -0.1552
2 6 14 -0.2593 -0.6494
2 6 15 -1.8541 0.0158
2 7 0 6.8486 1.5181
2 7 1 -4.0708 0.2602
2 7 2 -1.3546 1.2519
2 7 3 -2.5278 -1.0104
2 7 4 -1.8544 -0.6067
2 7 5 -1.4663 0.7086
2 7 6 1.1592 0.6981
2 7 7 -0.6626 -0.8514
2 7 8 -2.1104 -0.6338
2 7 9 -0.9223 0.5720
2 7 10 0.2425 0.6819
2 7 11 -3.4705 0.0899
2 7 12 -1.1984 -0.6585
2 7 13 -1.9051 -0.3453
2 7 14 -1.0621 -0.3305
2 8 0 2.5896 3.7585
2 8 1 3.5758 -0.0153
2 8 2 -2.4933 3.0562
2 8 3 -0.8666 0.0793
2 8 4 -0.7683 -0.6390
2 8 5 -0.6915 0.1202
2 8 6 -0.1724 0.6468
2 8 7 2.0621 0.0909
2 8 8 -1.4927 -0.2022
2 8 9 -2.0907 0.0228
2 8 10 -3.0749 -0.3144
2 8 11 0.2772 0.0607
2 8 12 2.3750 -0.2303
2 8 13 -3.7078 0.0265
2 8 14 2.1942 -0.1768
2 9 0 -1.0244 -1.3600
2 9 1 0.3736 0.2194
2 9 2 0.5229 -1.1472
2 9 3 1.3582 -1.0335
2 9 4 -0.7517 0.4910
2 9 5 -3.0557 0.5074
2 9 6 1.5945 -0.8891
2 9 7 -0.9405 -0.9613
2 9 8 -0.7016 0.5284
2 9 9 -1.1189 0.4584
2 9 10 -1.0172 -0.8907
2 9 11 -4.1468 0.1743
2 9 12 -0.6540 0.2826
2 9 13 -0.2425 0.4353
2 10 0 0.5538 0.8625
2 10 1 0.0921 -0.0215
2 10 2 -2.4201 0.4687
2 10 3 -0.4746 0.1002
2 10 4 -2.7032 0.5646
2 10 5 -0.0470 0.0949
2 10 6 -1.6276 -0.7009
2 10 7 2.9637 -0.0367
2 10 8 -2.7324 1.0924
2 10 9 -1.8770 0.0196
2 10 10 1.7833 -1.2838
2 10 11 0.0615 0.0770
2 10 12 -0.7633 -0.6464
2 11 0 2.2263 1.2940
2 11 1 -3.6273 0.2337
2 11 2 0.6616 1.2017
2 11 3 -0.2724 -0.8719
2 11 4 -1.6695 -0.4249
2 11 5 1.2617 0.5810
2 11 6 1.8217 0.6468
2 11 7 0.4730 -0.8266
2 11 8 -0.4299 -0.5253
2 11 9 -2.2292 0.3245
2 11 10 -1.9875 0.3833
2 11 11 -2.1999 -0.0654
2 12 0 -1.1820 3.0670
2 12 1 -1.2995 -0.0865
2 12 2 -1.0967 2.5880
2 12 3 2.2524 0.1050
2 12 4 0.5217 -0.6036
2 12 5 -0.5987 0.1009
2 12 6 0.2526 0.6112
2 12 7 -2.2892 -0.2206
2 12 8 -0.2156 -0.1103
2 12 9 3.0013 -0.1000
2 12 10 1.1932 0.2218
2 13 0 2.0461 -1.0966
2 13 1 -5.1444 0.2967
2 13 2 -0.3449 -0.8797
2 13 3 -0.5201 -0.7015
2 13 4 0.3447 0.4559
2 13 5 -1.1003 0.4960
2 13 6 1.3032 -0.5676
2 13 7 -1.5027 -0.5207
2 13 8 -1.7060 0.2466
2 13 9 -1.1503 -0.1143
2 14 0 2.1831 0.6158
2 14 1 -1.1591 -0.0374
2 14 2 3.3785 0.4453
2 14 3 -3.6945 -0.0291
2 14 4 -3.0839 0.5816
2 14 5 2.3197 -0.1712
2 14 6 -0.8109 -1.2540
2 14 7 2.2049 0.0101
2 15 0 1.9686 1.5720
2 15 1 1.1176 0.1333
2 15 2 0.6642 1.1576
2 15 3 0.2701 -0.7784
2 15 4 1.3536 -0.1883
2 15 5 -1.6859 -0.4241
2 16 0 -0.3487 2.7811
3 0 1 -10.9599 0.3201
3 0 3 -45.6903 -0.1850
3 0 5 -0.3233 0.1388
3 0 7 5.8989 -0.0406
3 0 9 -7.5754 0.2098
3 0 11 1.4201 -0.0105
3 0 13 -0.6933 0.0262
3 0 15 1.9628 -0.0055
3 1 1 4.4919 -0.5084
3 1 2 -26.2109 -0.1556
3 1 3 47.8015 0.5772
3 1 4 -5.2596 -0.0039
3 1 5 -8.4400 -0.1741
3 1 6 -4.0166 -0.4369
3 1 7 -3.5069 0.5285
3 1 8 -1.4438 0.2401
3 1 9 0.5659 -0.4609
3 1 10 -1.1213 -0.0444
3 1 11 4.6141 0.2606
3 1 12 0.9632 -0.0021
3 1 13 0.7231 -0.4001
3 1 14 -0.4810 0.1311
3 1 15 -1.7899 0.0288
3 1 16 -0.6998 0.5735
3 2 1 -18.9423 -0.1084
3 2 2 -9.5961 0.1366
3 2 3 -2.0925 -0.2146
3 2 4 0.0864 -0.0910
3 2 5 -13.1063 -0.2569
3 2 6 1.5602 0.0311
3 2 7 -0.2587 0.4309
3 2 8 0.7042 -0.0670
3 2 9 0.1315 -0.0801
3 2 10 -0.2553 0.0550
3 2 11 1.1572 0.4378
3 2 12 -3.4631 0.0320
3 2 13 -1.1700 -0.2489
3 2 14 0.8572 0.1589
3 2 15 -0.6522 -0.3231
3 2 16 0.6940 0.1278
3 3 1 8.1763 0.4265
3 3 2 -0.0796 -0.2505
3 3 3 0.1219 -0.2498
3 3 4 -6.0804 0.0877
3 3 5 5.0324 0.3670
3 3 6 -4.5901 -0.3041
3 3 7 -0.7343 -0.5456
3 3 8 2.1828 0.2175
3 3 9 0.8442 0.2761
3 3 10 0.6148 -0.0007
3 3 11 -1.3942 -0.4246
3 3 12 1.0628 -0.1089
3 3 13 2.4874 0.3713
3 3 14 -1.3150 0.1675
3 3 15 -1.5156 0.1402
3 4 1 2.1456 -0.3215
3 4 2 -4.8929 -0.0394
3 4 3 -9.6338 -0.7962
3 4 4 -3.5697 0.0189
3 4 5 -5.1917 -0.1479
3 4 6 2.1250 -0.0131
3 4 7 0.0329 -0.0837
3 4 8 0.5776 -0.0140
3 4 9 0.4065 -0.1340
3 4 10 -1.0246 0.0403
3 4 11 -0.8309 0.1098
3 4 12 0.1880 0.0841
3 4 13 -0.3190 -0.1273
3 4 14 -0.7922 -0.1207
3 4 15 -1.4219 -0.0639
3 5 1 -3.2880 -0.2593
3 5 2 1.2279 -0.2158
3 5 3 2.3867 0.0518
3 5 4 -0.1024 0.1216
3 5 5 -2.7129 -0.4268
3 5 6 -1.9257 -0.3667
3 5 7 1.0290 0.5020
3 5 8 0.5186 0.2573
3 5 9 -0.2221 -0.2662
3 5 10 0.5901 -0.0425
3 5 11 0.1914 0.3446
3 5 12 -2.0428 -0.2643
3 5 13 -0.6740 -0.3717
3 5 14 -1.1735 0.0408
3 5 15 1.5105 -0.7121
3 6 1 -5.3125 -0.0985
3 6 2 -1.0703 -0.0528
3 6 3 -1.8190 -0.4663
3 6 4 -1.1598 0.0139
3 6 5 -1.8271 -0.2089
3 6 6 0.3623 0.0067
3 6 7 1.1542 0.4340
3 6 8 -0.4548 0.0712
3 6 9 -0.1669 -0.4848
3 6 10 0.2670 -0.0182
3 6 11 -0.4052 0.2669
3 6 12 0.6299 -0.0499
3 6 13 -1.4327 -0.4638
3 6 14 -1.9859 0.0519
3 6 15 0.2300 -0.4115
3 7 1 4.7743 0.2464
3 7 2 0.0499 -0.2137
3 7 3 0.4006 -0.0851
3 7 4 -2.0989 0.1367
3 7 5 -0.9451 0.4107
3 7 6 1.1725 -0.3570
3 7 7 -0.0159 -0.4708
3 7 8 -1.3486 0.3624
3 7 9 0.4020 0.2708
3 7 10 0.5416 -0.0204
3 7 11 -0.6570 -0.3854
3 7 12 -2.4875 -0.4533
3 7 13 1.3197 0.2537
3 7 14 -1.8139 -0.6638
3 8 1 1.4659 -0.0830
3 8 2 3.9191 0.0502
3 8 3 -1.9372 -0.8076
3 8 4 2.1299 0.0576
3 8 5 -0.3226 -0.2023
3 8 6 -2.1049 0.0676
3 8 7 0.8249 -0.0618
3 8 8 -1.7686 -0.0694
3 8 9 -0.8782 -0.3494
3 8 10 1.1769 0.0642
3 8 11 -3.8104 0.2120
3 8 12 2.2633 -0.0065
3 8 13 0.2321 0.3226
3 8 14 -3.4712 0.0132
3 9 1 -1.1305 -0.3005
3 9 2 -0.5449 -0.3424
3 9 3 1.3437 0.0814
3 9 4 1.2857 0.1785
3 9 5 -1.3425 -0.5009
3 9 6 -1.4144 -0.2818
3 9 7 1.7193 0.5084
3 9 8 -1.0312 0.4407
3 9 9 0.2901 -0.2114
3 9 10 0.1745 0.0742
3 9 11 0.7960 0.2059
3 9 12 -4.2994 -0.2208
3 9 13 -1.1057 0.5099
3 10 1 0.9809 0.0199
3 10 2 0.9273 0.0602
3 10 3 2.0321 -0.3828
3 10 4 -2.8602 0.0582
3 10 5 1.7958 -0.4663
3 10 6 0.9943 0.0165
3 10 7 -1.4856 0.3007
3 10 8 1.4540 -0.0360
3 10 9 -3.1458 -0.4323
3 10 10 2.8274 0.1139
3 10 11 1.7304 0.1738
3 10 12 -0.8908 0.0822
3 11 1 0.3998 0.1858
3 11 2 -2.4459 -0.2732
3 11 3 1.3304 -0.1090
3 11 4 -1.9514 0.0153
3 11 5 1.1308 0.2428
3 11 6 -0.2356 -0.2151
3 11 7 -0.9014 -0.3857
3 11 8 0.6879 0.2198
3 11 9 1.3977 0.2516
3 11 10 0.2314 0.1766
3 11 11 0.1053 0.7075
3 12 1 0.9520 -0.0392
3 12 2 0.6484 0.1142
3 12 3 0.5373 -0.6366
3 12 4 1.3641 0.1039
3 12 5 -0.9127 -0.3831
3 12 6 -1.7276 0.0052
3 12 7 1.4006 -0.1497
3 12 8 -4.9575 -0.0625
3 12 9 -2.0050 -0.2392
3 12 10 2.2889 -0.1349
3 13 1 -0.4936 -0.2410
3 13 2 -2.2665 -0.3450
3 13 3 1.0706 -0.0975
3 13 4 -1.5865 -0.1358
3 13 5 1.1860 -0.2325
3 13 6 -0.2568 -0.2567
3 13 7 1.8998 0.1637
3 13 8 -0.6703 -0.1875
3 13 9 0.8366 0.6221
3 14 1 1.5638 0.0288
3 14 2 5.2648 0.1742
3 14 3 3.1554 -0.3472
3 14 4 -2.8211 -0.0023
3 14 5 -0.6842 -0.5290
3 14 6 -0.9822 -0.2228
3 14 7 0.2755 -1.2293
3 15 1 -2.3023 -0.0578
3 15 2 2.6957 -0.3760
3 15 3 -1.7232 -0.4628
3 15 4 2.3416 -0.3220
3 15 5 1.0138 -0.5375
4 0 0 -14.6799 -0.3425
4 0 2 21.4782 -0.0910
4 0 4 7.4330 -0.2653
4 0 6 -0.8949 0.1781
4 0 8 7.3958 0.0107
4 0 10 -4.0506 -0.0108
4 0 12 -1.1352 -0.0832
4 0 14 -1.3969 -0.1626
4 0 16 3.6951 -0.0835
4 1 0 36.6167 3.2811
4 1 1 24.2037 -0.1727
4 1 2 -39.7801 0.4193
4 1 3 -6.0487 0.0599
4 1 4 24.3194 0.6193
4 1 5 3.4007 0.3922
4 1 6 14.4886 -0.5877
4 1 7 3.9285 0.0556
4 1 8 -4.1582 0.0662
4 1 9 3.6153 0.2848
4 1 10 -2.5734 -0.5073
4 1 11 -1.2058 0.0477
4 1 12 1.6239 0.2999
4 1 13 -0.3870 0.0803
4 1 14 -0.5361 -0.2028
4 1 15 -1.1429 0.5506
4 1 16 -2.2773 0.7725
4 2 0 1.7539 -4.2811
4 2 1 -2.0013 0.0651
4 2 2 16.4280 -0.2984
4 2 3 -1.9394 0.1349
4 2 4 -1.8302 -0.4411
4 2 5 -5.0312 -0.1580
4 2 6 1.3009 0.1397
4 2 7 3.8886 0.1523
4 2 8 0.4859 0.1748
4 2 9 2.9412 0.0258
4 2 10 0.7231 -0.4745
4 2 11 1.5351 0.0506
4 2 12 0.6793 0.0886
4 2 13 -0.0755 0.2734
4 2 14 -2.0109 -0.4308
4 2 15 0.1971 0.0124
4 3 0 -8.4510 -3.5539
4 3 1 7.7062 0.1616
4 3 2 6.0646 -0.6033
4 3 3 3.1868 -0.4517
4 3 4 -2.9882 -1.1781
4 3 5 5.0007 0.8943
4 3 6 -2.3793 0.2427
4 3 7 1.3766 -0.2801
4 3 8 -1.5253 -0.5424
4 3 9 0.0681 0.2969
4 3 10 -2.0758 0.5189
4 3 11 0.3279 -0.0322
4 3 12 -2.4870 -0.5370
4 3 13 0.0290 0.1055
4 3 14 1.3730 0.0572
4 3 15 0.8954 1.3782
4 4 0 10.8732 -3.5771
4 4 1 -0.1700 0.0266
4 4 2 1.8787 -0.2872
4 4 3 0.5776 0.1224
4 4 4 7.4936 -0.2086
4 4 5 -4.5941 -0.0904
4 4 6 -1.9692 0.1614
4 4 7 1.7565 0.1556
4 4 8 3.7451 0.4275
4 4 9 -0.3479 -0.0714
4 4 10 0.5939 -0.4955
4 4 11 1.2609 0.1253
4 4 12 0.4414 0.4131
4 4 13 0.8390 0.2405
4 4 14 0.3209 -0.0730
4 4 15 -1.3414 0.0001
4 5 0 -0.9209 3.5549
4 5 1 2.6280 0.3178
4 5 2 -2.6679 0.4401
4 5 3 1.4440 -0.3659
4 5 4 -2.6226 1.2618
4 5 5 5.3062 0.8342
4 5 6 -3.9616 -0.0914
4 5 7 -0.9134 -0.3596
4 5 8 -0.9683 0.3225
4 5 9 -0.6066 0.2649
4 5 10 1.5452 -0.4271
4 5 11 2.0702 -0.2520
4 5 12 1.2466 -0.0049
4 5 13 -0.4497 -0.1635
4 5 14 -0.4508 -0.6768
4 5 15 -0.2564 0.9520
4 6 0 1.4191 -3.8808
4 6 1 0.2831 0.0288
4 6 2 0.7208 -0.5628
4 6 3 4.4564 0.1199
4 6 4 0.0832 -0.3810
4 6 5 -1.6277 0.0380
4 6 6 -0.0785 -0.1265
4 6 7 1.0071 -0.0180
4 6 8 -0.3633 -0.0476
4 6 9 0.3713 -0.0771
4 6 10 0.3572 -0.6153
4 6 11 0.7163 -0.0030
4 6 12 -1.3004 0.0747
4 6 13 4.0200 -0.1195
4 6 14 0.7675 -0.1255
4 7 0 -2.3003 -3.4129
4 7 1 1.3157 0.3667
4 7 2 0.7671 -0.4281
4 7 3 1.3303 -0.1989
4 7 4 0.8150 -1.1811
4 7 5 1.0540 0.6601
4 7 6 0.8332 0.1315
4 7 7 1.8634 -0.1785
4 7 8 -1.2042 -0.3641
4 7 9 -0.8028 0.1746
4 7 10 3.0636 0.6211
4 7 11 1.9278 -0.2487
4 7 12 -1.1324 0.0119
4 7 13 -0.6289 0.0130
4 7 14 0.6619 0.9828
4 8 0 3.5811 -3.1295
4 8 1 -3.5446 -0.0156
4 8 2 3.2870 -0.3362
4 8 3 -2.2000 0.0353
4 8 4 1.3425 -0.1772
4 8 5 2.7355 0.0619
4 8 6 -0.8024 0.1582
4 8 7 -0.9464 -0.0614
4 8 8 1.6659 0.3021
4 8 9 -3.0505 -0.0115
4 8 10 1.1151 -0.3792
4 8 11 1.1952 -0.0443
4 8 12 -1.9338 -0.0304
4 8 13 6.3858 -0.0384
4 9 0 1.1991 3.1511
4 9 1 2.0197 0.3924
4 9 2 0.1528 0.4313
4 9 3 0.2616 -0.0624
4 9 4 0.8685 0.9780
4 9 5 -0.8323 0.7240
4 9 6 -0.9644 -0.1873
4 9 7 1.3829 -0.0263
4 9 8 -0.6944 0.6898
4 9 9 1.1740 0.3327
4 9 10 0.7643 -0.1607
4 9 11 2.0307 -0.1858
4 9 12 0.6589 0.6699
4 9 13 -0.8745 -0.4521
4 10 0 1.3771 -3.3266
4 10 1 3.2061 -0.0365
4 10 2 0.7731 -0.5039
4 10 3 2.4884 0.0038
4 10 4 0.8426 -0.4429
4 10 5 -3.1364 0.0450
4 10 6 5.0371 -0.2202
4 10 7 -0.3480 -0.0735
4 10 8 0.5703 -0.0405
4 10 9 -5.1745 0.1355
4 10 10 -1.9132 -0.1819
4 10 11 3.4136 0.1906
4 10 12 1.8666 0.6016
4 11 0 -2.0475 -2.9460
4 11 1 1.4539 0.2939
4 11 2 -0.3144 -0.3072
4 11 3 1.8074 -0.2595
4 11 4 -1.2683 -0.9853
4 11 5 -1.8445 0.5978
4 11 6 -0.5061 0.2242
4 11 7 0.7636 -0.1442
4 11 8 -3.2563 -0.4090
4 11 9 -0.5659 0.3854
4 11 10 -0.8346 -0.0476
4 11 11 0.4427 0.0828
4 12 0 0.1876 -2.5548
4 12 1 0.7815 -0.0689
4 12 2 -0.1038 -0.1261
4 12 3 1.8251 0.0239
4 12 4 1.8421 -0.2615
4 12 5 2.6430 0.0000
4 12 6 -2.1506 0.0830
4 12 7 -0.3779 -0.0711
4 12 8 2.6368 0.0706
4 12 9 -3.0430 0.0400
4 12 10 -1.3012 -0.4180
4 13 0 1.7059 2.6531
4 13 1 5.1482 0.2648
4 13 2 -1.2572 0.3589
4 13 3 0.2459 -0.3747
4 13 4 0.0287 1.1678
4 13 5 1.5457 0.2820
4 13 6 -0.2726 0.0110
4 13 7 1.3441 0.0983
4 13 8 1.0189 0.5859
4 14 0 -3.8415 -2.4701
4 14 1 -3.7677 0.0334
4 14 2 -0.3410 -0.2487
4 14 3 3.5176 0.0621
4 14 4 -1.1954 -0.1240
4 14 5 -0.4890 -0.0822
4 14 6 -1.7463 -0.6296
4 14 7 -1.6674 -0.0611
4 15 0 4.3549 -2.2527
4 15 1 -2.2649 0.1464
4 15 2 -0.9458 -0.7601
4 15 3 -0.7500 -0.2613
4 15 4 -1.9736 -1.4040
5 0 1 9.3815 0.0937
5 0 3 -14.9772 0.3603
5 0 5 -1.2256 0.2356
5 0 7 3.7507 0.1108
5 0 9 -1.9611 -0.1640
5 0 11 -4.2084 0.0537
5 0 13 0.6487 0.1438
5 0 15 -0.8097 0.5563
5 1 1 19.3851 -0.4137
5 1 2 14.1959 0.2725
5 1 3 -6.7953 0.1358
5 1 4 10.9781 0.3408
5 1 5 -21.2084 -0.5806
5 1 6 1.1136 -0.1412
5 1 7 7.4900 0.3387
5 1 8 -1.4257 0.1129
5 1 9 -2.5382 -0.4672
5 1 10 0.7901 -0.0882
5 1 11 -3.8805 0.5042
5 1 12 -1.9703 -0.0564
5 1 13 2.4580 -0.0046
5 1 14 -2.1997 -0.1192
5 1 15 1.1758 0.6191
5 2 1 -11.0374 0.5714
5 2 2 -1.3539 -0.0626
5 2 3 13.7752 0.2228
5 2 4 0.8834 -0.0978
5 2 5 6.6491 0.6429
5 2 6 -6.4239 0.1509
5 2 7 -0.9129 -0.0693
5 2 8 0.2853 -0.0344
5 2 9 -6.4317 -0.1677
5 2 10 1.3092 0.0419
5 2 11 -0.8796 -0.0077
5 2 12 -3.7790 -0.0054
5 2 13 0.0542 0.1154
5 2 14 -0.1635 0.0819
5 2 15 -1.8652 -0.0850
5 3 1 4.2022 0.1167
5 3 2 4.9986 0.1618
5 3 3 -4.4754 -0.0421
5 3 4 2.0677 0.6521
5 3 5 1.8318 0.9279
5 3 6 1.3970 -0.4505
5 3 7 -4.7705 -0.2139
5 3 8 1.4496 0.1621
5 3 9 -0.7116 0.6053
5 3 10 -1.8269 -0.1184
5 3 11 1.0218 -0.5062
5 3 12 1.7773 0.0246
5 3 13 -0.5172 0.1934
5 3 14 0.8595 0.1075
5 3 15 1.3714 -1.0780
5 4 1 7.9550 0.4337
5 4 2 -1.7701 -0.0199
5 4 3 0.3332 0.3577
5 4 4 2.0332 -0.0699
5 4 5 4.6807 -0.0700
5 4 6 -3.0279 0.0042
5 4 7 -0.7095 0.2486
5 4 8 1.2892 -0.1237
5 4 9 -0.5904 -0.8135
5 4 10 -0.4512 -0.0175
5 4 11 -0.8627 0.5734
5 4 12 2.0653 0.0538
5 4 13 -0.2838 -0.1701
5 4 14 0.2544 -0.1272
5 4 15 0.5378 0.9322
5 5 1 -3.4942 0.0186
5 5 2 -0.1375 0.3443
5 5 3 3.9539 0.0858
5 5 4 -0.7749 0.6418
5 5 5 0.0452 -0.7570
5 5 6 2.6949 -0.6315
5 5 7 1.1858 0.2489
5 5 8 -0.1261 0.0977
5 5 9 -3.3541 -0.5453
5 5 10 -1.8158 -0.1739
5 5 11 2.0196 0.2755
5 5 12 3.3216 0.0430
5 5 13 -0.4055 -0.0347
5 5 14 0.4675 0.6358
5 6 1 1.3190 0.3916
5 6 2 -4.5980 -0.0451
5 6 3 1.3630 0.2073
5 6 4 2.7570 -0.0342
5 6 5 -0.3568 0.6896
5 6 6 1.0237 -0.0404
5 6 7 2.6165 0.1238
5 6 8 0.7828 -0.0567
5 6 9 0.7013 -0.1542
5 6 10 1.1118 -0.0240
5 6 11 0.3645 0.2909
5 6 12 -0.5594 0.0045
5 6 13 -0.1003 0.0599
5 6 14 -0.6441 0.1817
5 7 1 -0.7569 0.0658
5 7 2 0.3699 0.3474
5 7 3 -0.8145 -0.1142
5 7 4 -1.3427 0.5307
5 7 5 0.1127 0.7595
5 7 6 3.4271 -0.6308
5 7 7 -0.2683 -0.2156
5 7 8 2.3404 -0.0243
5 7 9 -1.9900 0.6120
5 7 10 1.3159 -0.1042
5 7 11 0.4977 -0.2580
5 7 12 1.1947 0.0624
5 7 13 -0.8359 0.3142
5 7 14 0.4369 0.8826
5 8 1 2.4222 0.4917
5 8 2 -0.9082 -0.0422
5 8 3 1.3445 0.2377
5 8 4 -1.2811 0.0572
5 8 5 3.2697 -0.1271
5 8 6 1.9446 -0.0096
5 8 7 -0.6102 0.3957
5 8 8 1.5327 -0.0851
5 8 9 1.1022 -0.7844
5 8 10 -0.4590 0.0022
5 8 11 1.4208 0.3031
5 8 12 -3.2544 -0.0511
5 8 13 -2.0050 -1.0543
5 9 1 -0.9155 -0.0900
5 9 2 1.3492 0.2890
5 9 3 0.4930 0.1599
5 9 4 2.0369 0.6446
5 9 5 -3.9503 -0.7345
5 9 6 -1.0768 -0.5008
5 9 7 0.7563 0.4668
5 9 8 1.9055 0.0940
5 9 9 -1.0831 -0.3544
5 9 10 1.0477 -0.2038
5 9 11 0.5556 0.1637
5 9 12 -0.1069 -0.0787
5 10 1 -1.9110 0.3506
5 10 2 0.9455 -0.0568
5 10 3 0.0152 0.1249
5 10 4 3.5235 0.0294
5 10 5 -2.1246 0.3639
5 10 6 1.1332 0.0399
5 10 7 1.9553 0.0593
5 10 8 2.1894 0.0099
5 10 9 1.1379 -0.1368
5 10 10 -2.8014 0.1643
5 10 11 -3.4441 0.2203
5 10 12 -0.5734 -0.0169
5 11 1 -0.3190 0.0328
5 11 2 -1.2276 0.1530
5 11 3 -0.3068 -0.1332
5 11 4 1.8199 0.5085
5 11 5 -1.1508 0.6779
5 11 6 -0.8483 -0.2683
5 11 7 1.4800 -0.2439
5 11 8 1.0742 0.1040
5 11 9 -0.8677 0.0791
5 11 10 0.6104 -0.1874
5 11 11 -0.2665 -1.0810
5 12 1 0.6283 0.4030
5 12 2 0.8477 -0.0495
5 12 3 -1.1762 0.1469
5 12 4 -0.2843 0.0724
5 12 5 0.5929 -0.2399
5 12 6 2.4499 0.0771
5 12 7 -2.2741 0.0929
5 12 8 -0.8809 0.0875
5 12 9 1.4493 -0.4088
5 13 1 0.2836 -0.0970
5 13 2 3.8370 0.0049
5 13 3 -1.4874 0.1904
5 13 4 -1.6027 0.3072
5 13 5 -0.4224 -0.0412
5 13 6 -0.4211 -0.0966
5 13 7 -1.0441 0.3075
5 13 8 1.4488 0.3706
5 14 1 -0.9048 0.2299
5 14 2 -4.4021 0.2534
5 14 3 1.5436 0.4655
5 14 4 1.6504 0.1817
5 14 5 0.5910 0.5014
5 14 6 -2.4207 -0.0839
5 15 1 2.4314 0.3460
5 15 2 0.3747 -0.0105
5 15 3 0.2215 -0.5117
6 0 0 -14.0175 0.0089
6 0 2 6.1890 0.1038
6 0 4 -0.2049 -0.2784
6 0 6 -18.9486 -0.2003
6 0 8 4.1332 -0.2703
6 0 10 3.8818 0.1467
6 0 12 -1.5893 0.0636
6 0 14 1.9012 -0.0578
6 1 0 -3.4167 -1.8101
6 1 1 -7.4532 -0.0676
6 1 2 -6.4887 -0.2771
6 1 3 -6.8511 -0.0652
6 1 4 12.8660 -0.0240
6 1 5 0.2050 -0.2587
6 1 6 -8.3345 -0.1222
6 1 7 -0.6882 -0.1470
6 1 8 2.6027 0.0524
6 1 9 -3.6276 -0.0129
6 1 10 0.5177 0.0508
6 1 11 3.3233 -0.0074
6 1 12 0.3325 0.3621
6 1 13 1.0766 0.0096
6 1 14 -1.0313 0.0626
6 1 15 -0.6210 -0.8307
6 2 0 -4.5918 5.6014
6 2 1 0.0645 0.0083
6 2 2 0.7783 2.1213
6 2 3 3.5152 -0.0072
6 2 4 -10.6510 0.2701
6 2 5 2.7467 0.0576
6 2 6 9.1506 0.0910
6 2 7 -2.8047 0.0993
6 2 8 7.3369 -0.1178
6 2 9 -0.5338 0.0262
6 2 10 -4.0345 0.0022
6 2 11 3.4392 -0.0844
6 2 12 2.4573 0.2340
6 2 13 -4.4593 0.0982
6 2 14 0.1063 -0.0017
6 2 15 1.6191 -0.0775
6 3 0 -3.6101 1.8267
6 3 1 -3.3115 -0.0134
6 3 2 0.9859 0.6620
6 3 3 0.2254 -0.6409
6 3 4 0.6214 0.1444
6 3 5 -3.5415 -0.1654
6 3 6 1.2431 0.1179
6 3 7 -1.9372 -0.4057
6 3 8 -0.2036 -0.1399
6 3 9 0.3791 0.0766
6 3 10 -1.6922 -0.1267
6 3 11 0.3758 0.0456
6 3 12 2.3336 -0.3275
6 3 13 1.0349 -0.1614
6 3 14 -1.9164 -0.2073
6 3 15 0.9566 -0.5469
6 4 0 -3.8890 0.6534
6 4 1 1.6316 -0.0275
6 4 2 -2.7260 0.0527
6 4 3 0.8805 0.0353
6 4 4 -2.6984 -0.2767
6 4 5 2.6684 -0.1201
6 4 6 -1.5223 -0.4009
6 4 7 1.6919 0.0842
6 4 8 0.4167 0.0367
6 4 9 0.2912 -0.0192
6 4 10 -0.7854 0.2589
6 4 11 -2.9751 0.1355
6 4 12 0.3679 0.8454
6 4 13 2.6149 0.1781
6 4 14 -0.1090 0.7652
6 5 0 4.0966 -1.5666
6 5 1 0.0554 0.1571
6 5 2 -1.6794 -0.8332
6 5 3 -2.1254 -0.7711
6 5 4 1.7638 -0.0863
6 5 5 -1.8673 -0.3362
6 5 6 0.5690 -0.1244
6 5 7 -0.7024 -0.4748
6 5 8 3.8323 -0.0805
6 5 9 0.9682 0.2918
6 5 10 -2.6482 0.2203
6 5 11 -0.4937 0.0383
6 5 12 -0.0828 0.2006
6 5 13 0.3485 -0.2001
6 5 14 -0.5934 0.8716
6 6 0 -1.0884 5.1842
6 6 1 1.6583 -0.0420
6 6 2 -0.5107 1.9506
6 6 3 -3.5599 0.0792
6 6 4 -0.7701 0.4289
6 6 5 -1.1449 -0.1023
6 6 6 -2.0521 0.2576
6 6 7 1.5979 -0.0219
6 6 8 -0.5252 0.1427
6 6 9 0.1702 -0.0219
6 6 10 2.1687 0.1468
6 6 11 1.0735 0.1891
6 6 12 -1.5837 0.0228
6 6 13 -1.0745 0.1199
6 6 14 2.2371 -0.4135
6 7 0 -2.1442 1.5287
6 7 1 -0.2186 0.1662
6 7 2 0.1226 0.7713
6 7 3 0.0592 -0.6951
6 7 4 -2.6780 0.0983
6 7 5 -2.3236 -0.4917
6 7 6 1.0801 0.1952
6 7 7 -0.3032 -0.3617
6 7 8 -0.0946 0.0371
6 7 9 0.7634 0.1867
6 7 10 -0.1207 -0.0406
6 7 11 1.5229 -0.1154
6 7 12 -0.4392 -0.3214
6 7 13 -1.1410 0.1552
6 8 0 -4.4277 0.5722
6 8 1 1.2248 -0.0436
6 8 2 -2.2680 -0.1522
6 8 3 -0.4465 0.0783
6 8 4 0.4000 -0.2655
6 8 5 1.5332 0.0770
6 8 6 0.6488 -0.3901
6 8 7 1.3592 -0.0309
6 8 8 0.5091 -0.1646
6 8 9 0.2347 0.1117
6 8 10 0.0092 -0.1954
6 8 11 0.8241 0.0968
6 8 12 0.8925 -0.5380
6 8 13 -2.2165 0.1164
6 9 0 2.8180 -1.4562
6 9 1 -1.0847 0.1359
6 9 2 -1.5756 -0.5646
6 9 3 -1.8093 -0.5856
6 9 4 5.3784 -0.1717
6 9 5 -0.1562 -0.5694
6 9 6 -1.8322 -0.2060
6 9 7 -0.7621 -0.3716
6 9 8 -0.4617 -0.0016
6 9 9 -0.2381 0.0779
6 9 10 1.9331 -0.1927
6 9 11 1.1480 -0.0578
6 9 12 -1.4655 -0.7726
6 10 0 1.2554 4.3578
6 10 1 -2.9992 0.0041
6 10 2 -1.3544 1.7314
6 10 3 -2.1390 0.0807
6 10 4 -0.5732 0.4097
6 10 5 0.2208 0.1774
6 10 6 0.0001 0.2614
6 10 7 4.2565 -0.1322
6 10 8 1.8316 -0.1126
6 10 9 0.8873 0.0893
6 10 10 2.6751 0.0406
6 10 11 2.7018 -0.0419
6 11 0 -0.6071 1.2684
6 11 1 1.1533 0.1584
6 11 2 1.7015 0.6122
6 11 3 0.6239 -0.4706
6 11 4 4.8317 -0.0331
6 11 5 1.2451 -0.2811
6 11 6 -0.6495 0.1470
6 11 7 0.2694 -0.2505
6 11 8 1.4973 -0.1190
6 11 9 -0.8718 0.2022
6 11 10 0.4189 -0.4540
6 12 0 -1.6241 0.3248
6 12 1 -4.0538 -0.0223
6 12 2 -0.6484 0.1125
6 12 3 -2.2699 0.1461
6 12 4 -0.6819 -0.1278
6 12 5 -0.4656 0.0517
6 12 6 -1.3225 -0.4204
6 12 7 0.4319 0.0942
6 12 8 -2.1354 -0.2907
6 12 9 -1.7806 0.0010
6 13 0 1.8085 -1.1452
6 13 1 -2.2855 0.2338
6 13 2 1.8408 -0.7207
6 13 3 0.5021 -0.3867
6 13 4 1.4687 0.1942
6 13 5 0.8538 -0.2457
6 13 6 1.4103 -0.3514
6 13 7 -0.5326 -0.0352
6 14 0 -1.5034 3.5556
6 14 1 1.7599 -0.0051
6 14 2 0.4191 1.8748
6 14 3 -1.9462 0.1220
6 14 4 1.4192 0.6970
6 14 5 1.7525 -0.0036
6 15 0 -1.3756 1.0888
6 15 1 -0.4674 -0.0221
7 0 1 -0.4793 -0.2686
7 0 3 0.7020 -0.1960
7 0 5 12.4287 -0.2207
7 0 7 -7.0228 0.0335
7 0 9 2.5184 -0.0454
7 0 11 3.2897 0.0972
7 0 13 0.4982 -0.1486
7 0 15 -3.8676 -0.7424
7 1 1 -2.5313 -0.2316
7 1 2 -3.7051 -0.0121
7 1 3 -1.6808 0.0444
7 1 4 -2.8216 -0.0605
7 1 5 -0.7176 -0.0704
7 1 6 -1.7508 -0.0288
7 1 7 0.1961 0.2768
7 1 8 5.0974 0.1736
7 1 9 2.1277 -0.1267
7 1 10 -0.7974 0.0345
7 1 11 -0.3036 0.2849
7 1 12 5.4176 -0.1412
7 1 13 3.6551 -0.1374
7 1 14 0.6379 -0.4192
7 1 15 0.0199 -0.2509
7 2 1 -4.4979 0.2572
7 2 2 -3.0097 0.0438
7 2 3 2.0428 -1.4223
7 2 4 5.0775 0.0466
7 2 5 -11.7722 -0.2438
7 2 6 3.1842 0.0273
7 2 7 -0.6881 -0.5846
7 2 8 0.0774 -0.0805
7 2 9 6.4495 0.2299
7 2 10 0.3222 -0.1457
7 2 11 -1.5476 0.0151
7 2 12 0.5313 -0.1857
7 2 13 -0.3026 0.4428
7 2 14 -4.2513 -0.0886
7 3 1 6.5111 0.0403
7 3 2 -2.7166 -0.4953
7 3 3 -2.7369 -0.1475
7 3 4 4.9814 0.2086
7 3 5 3.2254 0.1068
7 3 6 -2.2161 -0.2270
7 3 7 -0.1713 -0.2188
7 3 8 1.2428 0.6091
7 3 9 0.4779 0.2110
7 3 10 -2.5004 0.0933
7 3 11 -4.4740 -0.0905
7 3 12 -1.9403 -0.0864
7 3 13 3.8299 0.2520
7 3 14 -3.3997 -0.3503
7 4 1 -0.0716 -0.3498
7 4 2 1.6396 0.1185
7 4 3 -3.0923 -0.0416
7 4 4 -0.2022 0.0140
7 4 5 -4.1059 -0.1115
7 4 6 1.2058 0.1825
7 4 7 -1.2483 1.1852
7 4 8 3.3549 0.0013
7 4 9 0.2394 -0.2686
7 4 10 1.9440 0.0897
7 4 11 0.3718 0.7684
7 4 12 -3.6257 0.0966
7 4 13 -0.7124 -1.0260
7 4 14 0.9387 -0.1503
7 5 1 1.6802 -0.1051
7 5 2 1.1856 -0.5714
7 5 3 0.9447 0.1618
7 5 4 -0.2406 0.2812
7 5 5 -1.6031 -0.0404
7 5 6 2.4287 -0.2171
7 5 7 -0.8536 0.2010
7 5 8 -1.3253 0.8145
7 5 9 0.1022 0.0068
7 5 10 -3.2633 0.1236
7 5 11 -0.9526 -0.0811
7 5 12 2.2288 -0.2010
7 5 13 -0.7972 -0.0442
7 5 14 -2.8339 -0.5878
7 6 1 -1.1792 0.1443
7 6 2 0.5925 -0.0526
7 6 3 2.4322 -1.2545
7 6 4 0.5726 -0.0491
7 6 5 -1.2230 -0.1203
7 6 6 -1.7849 0.1217
7 6 7 -0.3393 -0.6403
7 6 8 -1.8808 -0.0436
7 6 9 -1.6878 -0.2485
7 6 10 0.9444 0.0777
7 6 11 1.6235 -0.3485
7 6 12 2.5128 -0.0534
7 6 13 -1.7306 -0.4687
7 7 1 0.5000 0.2265
7 7 2 0.2098 -0.4852
7 7 3 1.4434 -0.1811
7 7 4 -0.6198 0.2360
7 7 5 -0.1307 0.0736
7 7 6 0.2433 -0.1394
7 7 7 -0.6565 -0.2081
7 7 8 -2.0108 0.6343
7 7 9 0.1491 0.0249
7 7 10 -1.5643 0.1470
7 7 11 1.1318 -0.1623
7 7 12 -0.1456 -0.1090
7 7 13 2.3148 -0.2911
7 8 1 1.3423 -0.3399
7 8 2 1.2950 -0.1533
7 8 3 -3.6660 0.0109
7 8 4 0.3609 0.0385
7 8 5 1.6950 -0.2822
7 8 6 -0.6580 -0.0660
7 8 7 -0.8503 1.1388
7 8 8 0.7206 -0.0160
7 8 9 -0.0263 -0.2574
7 8 10 0.3379 0.0406
7 8 11 0.9757 1.0427
7 8 12 1.1855 0.1577
7 9 1 2.9564 -0.1284
7 9 2 1.1816 -0.4915
7 9 3 0.6591 0.1872
7 9 4 -0.0520 0.2169
7 9 5 1.3845 -0.1882
7 9 6 -0.7300 -0.1606
7 9 7 2.9336 0.0897
7 9 8 0.2206 0.4978
7 9 9 -3.2732 -0.3383
7 9 10 -0.2783 0.0377
7 9 11 2.9652 -0.3120
7 10 1 -0.0901 0.2071
7 10 2 -2.5093 0.0881
7 10 3 1.2902 -1.0384
7 10 4 0.1322 0.1216
7 10 5 -0.4658 -0.1206
7 10 6 -2.1374 -0.0810
7 10 7 -2.0076 -0.5374
7 10 8 1.1360 -0.0574
7 10 9 1.4180 -0.0577
7 10 10 -1.8003 0.0930
7 10 11 3.1451 -0.2253
7 11 1 0.5700 0.0271
7 11 2 1.6058 -0.4022
7 11 3 -2.4272 -0.3495
7 11 4 1.1960 0.2502
7 11 5 4.6830 0.1863
7 11 6 2.7721 0.0030
7 11 7 0.8550 -0.0447
7 11 8 2.6077 0.5276
7 11 9 -2.8990 0.1573
7 11 10 2.8567 -0.0059
7 12 1 -0.1417 -0.0851
7 12 2 0.5741 0.2035
7 12 3 1.1874 0.1339
7 12 4 -1.4698 0.1205
7 12 5 1.2741 -0.3379
7 12 6 0.2384 0.0515
7 12 7 -1.7514 0.3729
7 12 8 -0.7080 -0.0289
7 13 1 0.7168 -0.5899
7 13 2 0.1178 -0.3167
7 13 3 0.1833 -0.0157
7 13 4 -0.1234 0.2308
7 13 5 2.4667 0.0933
7 13 6 -0.7137 0.0775
7 13 7 1.2065 -0.4206
7 14 1 -2.3407 1.0908
7 14 2 1.2656 0.0499
7 14 3 -1.2501 0.2332
7 14 4 1.4528 0.1218
8 0 0 -0.6817 -0.3605
8 0 2 2.3314 0.1678
8 0 4 4.1004 0.0684
8 0 6 8.5948 0.4137
8 0 8 -2.0660 0.0200
8 0 10 -5.2629 0.1575
8 0 12 -1.1240 -0.3109
8 0 14 2.6441 -0.2972
8 1 0 5.0012 -0.7297
8 1 1 1.7761 -0.0158
8 1 2 -0.6160 -0.0863
8 1 3 1.9480 0.0276
8 1 4 0.3658 -0.0166
8 1 5 2.2609 0.1381
8 1 6 -3.0157 -0.0100
8 1 7 -0.4444 0.2309
8 1 8 -0.0490 0.0757
8 1 9 3.1174 -0.0423
8 1 10 -1.7629 -0.0358
8 1 11 -2.4735 -0.1276
8 1 12 -0.5986 0.1296
8 1 13 3.4042 0.3073
8 1 14 -1.7680 -0.0042
8 2 0 1.7824 -6.1775
8 2 1 0.6140 -0.0269
8 2 2 1.5358 -1.8360
8 2 3 -5.3242 -0.1020
8 2 4 4.3443 -0.4329
8 2 5 1.5112 -0.0172
8 2 6 -1.1415 0.0393
8 2 7 -1.0574 0.0311
8 2 8 -2.4275 0.2864
8 2 9 -3.2398 0.0036
8 2 10 2.4417 -0.0268
8 2 11 6.2482 -0.1060
8 2 12 -0.1415 0.1825
8 2 13 0.8254 0.0105
8 2 14 -0.2660 0.4311
8 3 0 -4.4280 0.6756
8 3 1 -3.1612 0.0942
8 3 2 3.9468 0.1953
8 3 3 -1.5482 0.2356
8 3 4 2.0157 0.1367
8 3 5 2.1576 0.4933
8 3 6 2.0170 0.0741
8 3 7 0.0177 0.3312
8 3 8 2.2938 0.0430
8 3 9 1.0007 -0.1065
8 3 10 2.8429 -0.0037
8 3 11 -0.0051 -0.1954
8 3 12 -4.1318 -0.1648
8 3 13 2.5063 -0.2362
8 3 14 3.0236 -0.1570
8 4 0 2.5837 -0.2725
8 4 1 -1.2956 0.0783
8 4 2 3.6338 0.1471
8 4 3 2.3878 0.0215
8 4 4 -1.3441 0.3697
8 4 5 -3.7818 -0.0286
8 4 6 -0.6737 0.3706
8 4 7 -3.2961 0.0049
8 4 8 3.2129 -0.6915
8 4 9 1.4453 -0.1039
8 4 10 -1.7691 -0.2750
8 4 11 3.3465 -0.1646
8 4 12 0.4734 -0.8376
8 4 13 2.7641 -0.2373
8 4 14 -2.5902 -1.2157
8 5 0 -1.8896 -0.5810
8 5 1 0.0228 0.2603
8 5 2 -0.7710 -0.3725
8 5 3 -0.1342 0.3246
8 5 4 1.6927 -0.0762
8 5 5 -1.2512 0.5054
8 5 6 -2.1327 0.0684
8 5 7 2.5997 0.3309
8 5 8 1.3225 0.1479
8 5 9 2.9078 0.0556
8 5 10 1.4274 0.2663
8 5 11 -3.5805 -0.3222
8 5 12 -0.2293 0.1437
8 5 13 3.5281 -0.2882
8 6 0 1.9771 -5.9124
8 6 1 1.4546 -0.0312
8 6 2 -2.8517 -1.6693
8 6 3 -1.3712 0.1177
8 6 4 1.5307 -0.3309
8 6 5 2.0498 -0.0487
8 6 6 2.1929 -0.1883
8 6 7 -0.2135 -0.0798
8 6 8 0.0628 0.0277
8 6 9 -3.7287 -0.1902
8 6 10 -1.1721 -0.1123
8 6 11 0.9510 -0.1578
8 6 12 0.0243 0.2184
8 6 13 3.5353 -0.2173
8 7 0 -1.3548 0.6338
8 7 1 -1.5826 0.3186
8 7 2 3.9005 0.2474
8 7 3 0.6842 0.2914
8 7 4 -0.8436 0.0288
8 7 5 -0.5834 0.3316
8 7 6 0.9515 0.0823
8 7 7 1.3372 0.3100
8 7 8 -1.4592 0.0142
8 7 9 1.6957 0.0571
8 7 10 -0.8675 0.0565
8 7 11 1.4513 -0.5553
8 7 12 0.3547 0.1720
8 8 0 -1.7239 -0.0532
8 8 1 -1.6737 -0.0949
8 8 2 0.2760 0.0650
8 8 3 -1.2628 0.0754
8 8 4 -1.7044 0.3384
8 8 5 1.1977 -0.0678
8 8 6 -0.4919 0.4854
8 8 7 -1.3171 -0.1458
8 8 8 -0.4388 -0.3534
8 8 9 -2.1782 -0.1104
8 8 10 -0.1030 0.3487
8 8 11 2.1625 -0.0252
8 8 12 1.7003 1.0919
8 9 0 -1.4480 -0.5826
8 9 1 0.6587 0.2918
8 9 2 -0.7615 -0.1112
8 9 3 -1.0984 0.2829
8 9 4 2.7572 -0.1588
8 9 5 0.1358 0.1617
8 9 6 -4.3691 -0.0687
8 9 7 0.6704 0.2963
8 9 8 -0.4484 -0.0853
8 9 9 -0.1989 0.0727
8 9 10 -3.3257 -0.0409
8 9 11 2.1795 0.0037
8 10 0 0.0695 -5.0201
8 10 1 1.7049 -0.0457
8 10 2 -1.0687 -1.4319
8 10 3 -1.8297 -0.0277
8 10 4 -0.4296 -0.2611
8 10 5 -2.1252 0.0634
8 10 6 0.5830 -0.0524
8 10 7 -0.4408 -0.2505
8 10 8 -1.2940 0.0232
8 10 9 -0.8581 0.2333
8 10 10 -0.5815 0.0532
8 11 0 -1.4937 0.4383
8 11 1 -3.0134 0.1502
8 11 2 1.1596 0.1377
8 11 3 0.4193 0.1822
8 11 4 -2.2041 0.0440
8 11 5 -0.5850 0.0453
8 11 6 -0.1645 0.1295
8 11 7 0.7847 0.3520
8 11 8 3.4148 0.1586
8 11 9 1.3137 0.1889
8 12 0 0.6108 0.0018
8 12 1 1.5641 -0.0240
8 12 2 -0.4590 0.2190
8 12 3 2.4402 0.0114
8 12 4 0.7846 0.2778
8 12 5 2.5821 -0.1354
8 12 6 2.8570 -0.0493
8 12 7 -0.3590 -0.0093
8 13 0 -2.7581 -0.6251
8 13 1 1.3011 0.2724
8 13 2 -1.5574 -0.8379
8 13 3 -0.1490 0.2485
8 13 4 -4.0283 -0.1497
8 13 5 1.2698 0.2719
8 13 6 0.0425 0.2589
8 14 0 3.2385 -3.6328
8 14 1 -0.1680 -0.0579
8 14 2 1.2217 0.5503
9 0 1 -3.0229 0.1441
9 0 3 -2.9786 0.2245
9 0 5 0.8850 0.3323
9 0 7 -1.8336 -0.0352
9 0 9 5.9458 -0.1305
9 0 11 -1.7639 -0.1829
9 0 13 2.8783 -0.0601
9 1 1 2.0439 0.1883
9 1 2 -2.1235 0.1126
9 1 3 3.3748 0.2378
9 1 4 0.2505 0.1336
9 1 5 -1.7978 0.4005
9 1 6 -0.5714 -0.1018
9 1 7 -0.7102 0.2551
9 1 8 -0.9898 -0.2387
9 1 9 -0.6116 -0.0478
9 1 10 0.0949 -0.1524
9 1 11 -0.3630 -0.0327
9 1 12 -1.6186 0.1503
9 1 13 1.8111 -0.1579
9 1 14 1.6170 0.7113
9 2 1 2.8594 0.5679
9 2 2 0.1637 -0.1002
9 2 3 -2.1668 0.3573
9 2 4 -2.9224 0.0283
9 2 5 1.8492 0.7996
9 2 6 0.8037 -0.0098
9 2 7 3.2974 0.0149
9 2 8 2.6039 0.0500
9 2 9 -3.0181 0.1704
9 2 10 -8.2666 -0.0891
9 2 11 2.8637 -0.1228
9 2 12 4.9327 -0.0765
9 2 13 1.8893 0.1350
9 3 1 -3.6653 -0.2275
9 3 2 -3.9970 0.2781
9 3 3 -0.5849 -0.1263
9 3 4 2.2641 0.3889
9 3 5 -1.5796 -0.3752
9 3 6 -2.6486 -0.4377
9 3 7 -4.8051 -0.1763
9 3 8 3.6833 -0.2123
9 3 9 2.1333 -0.2536
9 3 10 -0.0918 -0.2973
9 3 11 0.7265 -0.0569
9 3 12 0.8576 0.2347
9 3 13 -1.9609 -0.2274
9 4 1 1.7139 0.4684
9 4 2 -1.7246 0.1144
9 4 3 7.3178 0.3323
9 4 4 0.9797 0.0040
9 4 5 -0.3413 -0.3496
9 4 6 0.8419 0.0431
9 4 7 -3.9901 -0.0958
9 4 8 -7.3767 -0.1991
9 4 9 4.4921 -0.8541
9 4 10 -1.0274 -0.1477
9 4 11 1.7901 0.2900
9 4 12 -0.8419 -0.0613
9 4 13 1.0212 -0.3685
9 5 1 -1.2444 0.0868
9 5 2 0.9155 0.2694
9 5 3 -1.6480 0.2210
9 5 4 0.1322 0.4747
9 5 5 -0.8571 0.5639
9 5 6 -0.4598 -0.5790
9 5 7 -1.2464 0.2292
9 5 8 -0.3606 -0.0813
9 5 9 -0.8085 0.6266
9 5 10 2.9550 -0.3511
9 5 11 2.0135 -0.0429
9 5 12 -0.4773 -0.0514
9 5 13 -2.3348 0.6041
9 6 1 0.5477 0.5191
9 6 2 -1.1985 0.0312
9 6 3 -0.4056 0.3393
9 6 4 -2.3758 -0.0626
9 6 5 -3.4941 0.7284
9 6 6 2.1287 0.1307
9 6 7 1.7353 0.0669
9 6 8 0.6947 -0.2395
9 6 9 2.0251 0.2919
9 6 10 -2.8125 -0.0435
9 6 11 0.3463 0.7966
9 6 12 -2.9655 -0.2033
9 7 1 -1.3694 0.0203
9 7 2 -1.7006 0.1458
9 7 3 1.1337 -0.1432
9 7 4 0.4303 0.3412
9 7 5 -0.6984 -0.3830
9 7 6 -0.5145 -0.5539
9 7 7 0.5931 0.0052
9 7 8 1.3734 -0.0024
9 7 9 -0.0060 -0.2877
9 7 10 0.4276 -0.2576
9 7 11 -0.2141 0.2903
9 7 12 2.3338 -0.2923
9 8 1 0.0082 0.2946
9 8 2 -1.4274 -0.0637
9 8 3 -2.6818 0.5128
9 8 4 -2.1246 0.0437
9 8 5 -0.0155 -0.3770
9 8 6 1.7134 -0.1155
9 8 7 0.2767 0.1526
9 8 8 0.4577 -0.1566
9 8 9 -0.6028 -0.5031
9 8 10 -4.0601 -0.2021
9 8 11 0.1476 0.7042
9 9 1 0.9312 -0.0014
9 9 2 2.9940 0.2179
9 9 3 -1.9636 0.0762
9 9 4 -1.8893 0.3657
9 9 5 2.8801 0.5163
9 9 6 -0.7351 -0.2703
9 9 7 1.0303 0.1493
9 9 8 0.5764 0.0594
9 9 9 0.1125 0.4319
9 9 10 0.7558 -0.1617
9 10 1 0.3353 0.4754
9 10 2 -3.1140 -0.0978
9 10 3 -1.3616 0.2853
9 10 4 1.9403 -0.0031
9 10 5 -1.0299 0.5915
9 10 6 -2.6379 -0.3039
9 10 7 -1.1519 -0.0029
9 10 8 -0.0063 0.0540
9 10 9 1.5075 0.3983
9 11 1 0.2000 -0.0321
9 11 2 -3.2203 0.1270
9 11 3 -0.5744 -0.2601
9 11 4 -2.5709 0.2862
9 11 5 1.0376 -0.0923
9 11 6 -0.7786 0.0464
9 11 7 0.6871 0.0584
9 11 8 -0.8072 0.3008
9 12 1 -0.2822 0.0041
9 12 2 -1.6370 0.0950
9 12 3 -0.5446 0.4841
9 12 4 -1.1096 -0.0210
9 12 5 -1.6355 -0.2965
9 12 6 2.9719 0.0540
9 13 1 -0.3957 -0.8327
9 13 2 1.8402 -0.2353
9 13 3 0.1312 -0.3324
9 13 4 0.0564 0.6590
10 0 0 0.6524 0.0814
10 0 2 1.3653 0.2243
10 0 4 -5.0115 -0.1059
10 0 6 3.3125 -0.1479
10 0 8 -6.6398 -0.2322
10 0 10 -2.9816 0.0711
10 0 12 0.2348 -0.1409
10 1 0 -0.5796 2.4316
10 1 1 0.3473 -0.0110
10 1 2 -0.9689 0.5067
10 1 3 -0.4651 -0.2024
10 1 4 6.1386 0.2128
10 1 5 -2.6331 -0.3466
10 1 6 -4.3341 -0.3268
10 1 7 -1.6917 -0.1223
10 1 8 4.1157 -0.1604
10 1 9 1.0628 -0.1105
10 1 10 -1.4830 -0.4906
10 1 11 -0.8144 0.0241
10 1 12 -2.4947 -0.0585
10 1 13 -3.1506 0.2728
10 2 0 0.9329 4.3331
10 2 1 1.4917 0.0494
10 2 2 -0.4428 1.0678
10 2 3 1.4769 0.0588
10 2 4 -2.7033 0.4677
10 2 5 2.7842 -0.0117
10 2 6 -4.0265 -0.0999
10 2 7 1.3045 0.0494
10 2 8 0.9490 0.0609
10 2 9 7.3177 0.0307
10 2 10 -2.9076 -0.0319
10 2 11 -4.8686 0.0951
10 2 12 -3.2609 0.0067
10 2 13 -3.1566 0.1662
10 3 0 1.1713 -2.5787
10 3 1 1.2377 -0.0801
10 3 2 -1.6961 -0.6911
10 3 3 -0.6645 -0.4664
10 3 4 1.6390 -0.4083
10 3 5 1.2641 -0.5691
10 3 6 5.0873 0.1026
10 3 7 -3.4284 -0.1829
10 3 8 -4.8173 -0.0378
10 3 9 1.2318 -0.1402
10 3 10 1.7072 0.6028
10 3 11 -0.8278 0.3401
10 3 12 1.7422 0.1378
10 3 13 -0.3380 0.7245
10 4 0 -3.2252 1.4460
10 4 1 -1.1823 0.1472
10 4 2 -1.3960 0.2146
10 4 3 0.2537 -0.0423
10 4 4 3.3721 -0.1562
10 4 5 -0.7496 -0.0615
10 4 6 2.5745 0.0769
10 4 7 8.9018 -0.0696
10 4 8 -2.7601 -0.4409
10 4 9 -3.4986 0.0324
10 4 10 -2.5651 0.7112
10 4 11 -1.3928 0.0685
10 4 12 1.1684 0.0378
10 5 0 2.5805 2.5403
10 5 1 0.4133 -0.0612
10 5 2 -0.5630 0.5980
10 5 3 -1.0187 -0.3880
10 5 4 2.1717 0.4610
10 5 5 0.1751 -0.7025
10 5 6 -1.3467 -0.1242
10 5 7 -1.1807 -0.1416
10 5 8 1.5291 0.2606
10 5 9 0.0250 0.0419
10 5 10 -1.0830 -0.4854
10 5 11 -0.2216 0.1708
10 5 12 -0.9225 -0.2633
10 6 0 1.1754 4.0327
10 6 1 1.4759 0.0205
10 6 2 -0.5206 0.9745
10 6 3 -1.4636 0.0668
10 6 4 1.0396 0.6350
10 6 5 -1.7003 0.0262
10 6 6 -1.7874 -0.0126
10 6 7 1.7450 -0.0607
10 6 8 -1.3581 0.1101
10 6 9 0.5149 0.0076
10 6 10 0.8086 0.2109
10 6 11 0.7530 -0.0156
10 7 0 -3.3745 -2.2607
10 7 1 -0.4219 0.0220
10 7 2 -0.5652 -0.5979
10 7 3 -0.1848 -0.3264
10 7 4 -0.2910 -0.5658
10 7 5 0.0047 -0.6713
10 7 6 -0.7318 0.2565
10 7 7 -2.4741 -0.0036
10 7 8 0.8221 -0.1676
10 7 9 -0.2666 0.1508
10 7 10 -0.1398 0.4716
10 7 11 -2.2080 -0.1096
10 8 0 1.4602 1.3054
10 8 1 -0.0709 -0.1412
10 8 2 2.4326 0.2545
10 8 3 0.2641 0.0711
10 8 4 -0.9495 -0.0731
10 8 5 -1.3197 -0.0752
10 8 6 0.5606 0.2302
10 8 7 4.8662 -0.0471
10 8 8 1.4520 -0.3821
10 8 9 -0.0429 -0.2341
10 8 10 1.0233 0.5637
10 9 0 -4.8353 2.0859
10 9 1 -1.9991 0.0543
10 9 2 0.4791 0.5598
10 9 3 1.0008 -0.2198
10 9 4 -0.6853 0.4593
10 9 5 0.1919 -0.4651
10 9 6 1.0478 -0.0386
10 9 7 -0.6732 0.0366
10 9 8 2.2938 0.2846
10 9 9 -2.1705 0.1974
10 10 0 0.4284 3.4858
10 10 1 2.6776 -0.2031
10 10 2 1.3964 0.7225
10 10 3 -5.1776 0.0082
10 10 4 -0.0619 0.4145
10 10 5 1.6568 -0.0219
10 10 6 -0.2551 -0.1805
10 10 7 0.4612 -0.3415
10 10 8 -2.8295 0.0631
10 11 0 -0.9426 -1.8834
10 11 1 -0.3192 -0.0481
10 11 2 -0.0988 -0.4983
10 11 3 -0.0683 -0.1788
10 11 4 -0.4331 -0.0842
10 11 5 -2.1276 -0.6938
10 11 6 0.9981 0.4265
10 11 7 -1.3621 0.8659
10 12 0 0.4546 0.7913
10 12 1 -1.2029 0.0366
10 12 2 0.7351 0.5048
10 12 3 -3.0763 0.0029
10 12 4 1.6623 0.3211
10 12 5 -1.3855 -0.0101
10 13 0 1.7161 1.6262
10 13 1 -4.1887 -0.1402
10 13 2 0.7269 -0.7580
11 0 1 -0.8622 -0.0201
11 0 3 2.4192 -0.3899
11 0 5 2.0097 -0.1010
11 0 7 3.4008 -0.1834
11 0 9 3.9747 0.0709
11 0 11 -6.0806 -0.1691
11 1 1 1.7050 -0.0363
11 1 2 -0.5479 -0.2471
11 1 3 -2.6104 -0.3881
11 1 4 1.5813 -0.1324
11 1 5 5.0999 -0.4202
11 1 6 0.2408 0.1068
11 1 7 -3.7452 -0.1730
11 1 8 -0.0415 0.1285
11 1 9 0.1200 -0.2917
11 1 10 2.1339 0.1290
11 1 11 6.5785 -0.0157
11 1 12 0.6443 0.0547
11 2 1 1.9373 0.0627
11 2 2 -0.3690 -0.0421
11 2 3 1.1555 -0.4885
11 2 4 -1.5100 -0.0244
11 2 5 -0.0584 -0.1475
11 2 6 -0.6767 0.0232
11 2 7 -0.0850 -0.0423
11 2 8 -0.3287 0.1886
11 2 9 0.6347 0.1867
11 2 10 0.8297 0.1247
11 2 11 -0.0087 -0.1118
11 2 12 1.6488 0.1075
11 3 1 -1.5640 -0.2444
11 3 2 -1.5370 -0.4155
11 3 3 0.2354 0.3720
11 3 4 1.0222 -0.0585
11 3 5 -2.2628 0.3471
11 3 6 -0.0965 0.0734
11 3 7 4.2457 0.3764
11 3 8 0.7436 0.2393
11 3 9 1.8554 0.3323
11 3 10 -0.8808 0.0993
11 3 11 -1.3063 0.3277
11 3 12 -1.8360 0.2436
11 4 1 -0.7931 -0.1680
11 4 2 -0.4600 -0.0482
11 4 3 -2.6068 -0.5050
11 4 4 0.9135 0.0024
11 4 5 -0.5727 -0.2615
11 4 6 -2.9366 0.0804
11 4 7 -1.3197 0.0215
11 4 8 3.4373 0.0796
11 4 9 0.9436 -0.0984
11 4 10 3.4815 0.1814
11 4 11 -2.7245 0.0188
11 4 12 0.6664 0.1661
11 5 1 1.3400 0.0264
11 5 2 2.2469 -0.4888
11 5 3 0.7153 -0.4245
11 5 4 -0.9436 -0.0331
11 5 5 1.8676 -0.4361
11 5 6 1.3177 0.0477
11 5 7 -1.8119 -0.6138
11 5 8 -1.2958 0.4709
11 5 9 -0.3208 -0.1235
11 5 10 0.5104 0.1293
11 5 11 0.9769 -0.5393
11 6 1 0.8243 0.0725
11 6 2 0.6139 0.0687
11 6 3 1.1675 -0.2459
11 6 4 0.0785 0.0068
11 6 5 0.2989 -0.0141
11 6 6 -1.1521 0.2280
11 6 7 -0.3264 0.0508
11 6 8 0.8440 -0.1070
11 6 9 -2.0401 -0.3908
11 6 10 -3.1970 0.1109
11 6 11 -1.7088 -0.1021
11 7 1 -1.1145 -0.0600
11 7 2 -2.3345 -0.3508
11 7 3 -0.1987 0.2633
11 7 4 0.1439 0.0481
11 7 5 0.7271 0.2643
11 7 6 -0.9337 -0.1028
11 7 7 -2.0249 0.5422
11 7 8 -0.7564 0.5526
11 7 9 -1.2443 0.0384
11 7 10 -1.9198 -0.0879
11 8 1 -0.4554 -0.2569
11 8 2 -0.4316 0.0812
11 8 3 2.1613 -0.0827
11 8 4 -1.1116 0.1021
11 8 5 -1.6287 -0.1907
11 8 6 -2.3218 0.0884
11 8 7 0.0006 -0.1828
11 8 8 3.4294 -0.0778
11 8 9 -0.4729 -0.1368
11 9 1 -1.3941 0.1074
11 9 2 1.6425 -0.4401
11 9 3 -0.9388 -0.3242
11 9 4 -1.5971 -0.2056
11 9 5 -1.0231 0.1878
11 9 6 1.5426 -0.2893
11 9 7 -1.2372 -0.2061
11 9 8 -1.1665 0.1544
11 10 1 1.0469 0.1052
11 10 2 1.4730 0.0823
11 10 3 -0.6972 -0.1293
11 10 4 0.6475 0.0571
11 10 5 -0.2098 -0.3233
11 10 6 -0.6763 -0.4966
11 10 7 0.6857 -0.2789
11 11 1 0.3583 -0.3692
11 11 2 -1.3553 -0.3777
11 11 3 -1.4297 -0.2771
11 11 4 0.9436 -0.3384
11 11 5 -1.7643 0.9400
11 12 1 -1.0852 -0.9317
11 12 2 0.6133 -0.0043
11 12 3 -0.1270 0.6703
12 0 0 1.3491 -0.4282
12 0 2 -3.1556 -0.3749
12 0 4 -2.7133 -0.0694
12 0 6 1.0632 -0.0384
12 0 8 -0.7585 0.1194
12 0 10 0.9426 0.0846
12 1 0 1.4795 -2.1938
12 1 1 -1.6775 0.0772
12 1 2 -1.9200 -0.6366
12 1 3 0.8734 0.2368
12 1 4 1.0099 -0.0812
12 1 5 -2.9756 0.2807
12 1 6 -0.6744 -0.0661
12 1 7 -0.8448 0.3253
12 1 8 1.1401 0.2806
12 1 9 0.0422 0.0055
12 1 10 -5.8298 -0.0975
12 1 11 1.3342 0.0028
12 2 0 -0.1858 -1.5958
12 2 1 -1.7688 -0.0769
12 2 2 -0.5716 -0.4208
12 2 3 -0.4992 -0.0557
12 2 4 1.4213 -0.0248
12 2 5 -0.6371 -0.0148
12 2 6 -0.6120 -0.0430
12 2 7 -3.7349 0.0813
12 2 8 -2.4671 -0.2367
12 2 9 1.3192 -0.0109
12 2 10 1.4493 -0.1249
12 2 11 -2.2389 0.0120
12 3 0 -0.1133 2.3598
12 3 1 0.8962 0.1810
12 3 2 -0.2207 0.9072
12 3 3 0.2443 0.2329
12 3 4 -1.7819 0.3718
12 3 5 0.0107 0.4394
12 3 6 -3.7346 0.3662
12 3 7 -1.1067 0.4304
12 3 8 -4.6111 -0.2270
12 3 9 -1.0524 -0.1683
12 3 10 -0.7393 0.4058
12 3 11 1.3148 0.0659
12 4 0 1.7064 -3.2655
12 4 1 0.7772 0.0622
12 4 2 -0.3386 -1.1280
12 4 3 -2.7747 0.0013
12 4 4 -0.0655 -0.0835
12 4 5 2.0695 0.0503
12 4 6 0.6021 0.1908
12 4 7 -0.4553 0.0642
12 4 8 0.3934 -0.1775
12 4 9 -5.5245 0.1525
12 4 10 1.3994 0.0864
12 4 11 3.1552 0.0855
12 5 0 0.9575 -2.2578
12 5 1 -1.3276 -0.0261
12 5 2 -1.0958 -1.0436
12 5 3 0.3251 0.3313
12 5 4 0.8092 -0.3451
12 5 5 -0.6901 0.1837
12 5 6 0.4921 -0.5192
12 5 7 -0.8147 0.3619
12 5 8 -1.2284 0.5501
12 5 9 2.1680 -0.0523
12 5 10 -2.3670 -0.2746
12 6 0 0.1552 -1.5552
12 6 1 2.6550 0.0494
12 6 2 0.5838 -0.4675
12 6 3 0.9024 -0.0005
12 6 4 0.4471 0.1228
12 6 5 0.5837 0.0652
12 6 6 0.4365 -0.0121
12 6 7 0.6250 -0.1281
12 6 8 0.2260 -0.9751
12 6 9 3.8922 0.0011
12 6 10 -0.5439 -0.3812
12 7 0 3.4902 2.1898
12 7 1 1.7197 -0.0386
12 7 2 1.8682 0.9176
12 7 3 -1.4651 0.3467
12 7 4 -0.1353 -0.0463
12 7 5 1.5398 0.0191
12 7 6 0.6812 0.6182
12 7 7 -1.0700 0.5201
12 7 8 -0.5992 -0.4660
12 7 9 1.0955 -0.0250
12 8 0 -0.5298 -2.9408
12 8 1 1.2656 -0.0169
12 8 2 -1.0681 -1.1151
12 8 3 2.7578 0.1217
12 8 4 -0.3220 -0.0176
12 8 5 -4.1708 0.1168
12 8 6 -3.4457 -0.1747
12 8 7 0.7543 0.2695
12 8 8 -2.7658 -0.3232
12 9 0 0.5590 -1.9811
12 9 1 -0.0134 0.0186
12 9 2 2.5662 -0.9606
12 9 3 2.4307 0.2938
12 9 4 0.8760 0.0335
12 9 5 -0.1907 0.1423
12 9 6 -0.5809 -0.3743
12 9 7 2.0573 -0.5038
12 10 0 -0.9340 -1.0984
12 10 1 3.8997 -0.0958
12 10 2 1.3214 -0.1710
12 10 3 -3.1744 0.2923
12 10 4 -1.8958 0.1875
12 10 5 1.8803 -0.0336
12 10 6 -3.0020 -0.3655
12 11 0 0.6274 1.5816
12 11 1 1.9329 0.2894
12 11 2 0.1595 -0.1775
12 11 3 -0.6471 -0.0285
13 0 1 4.6769 0.1339
13 0 3 -3.5550 0.1162
13 0 5 -0.6147 0.1392
13 0 7 -2.6674 0.0745
13 0 9 -0.6496 0.1473
13 1 1 1.1181 -0.0688
13 1 2 -2.8760 0.1907
13 1 3 -0.6323 0.1838
13 1 4 2.5344 0.1547
13 1 5 1.1854 -0.0177
13 1 6 -3.0258 0.1623
13 1 7 -1.1710 0.2703
13 1 8 -0.9902 -0.2773
13 1 9 1.2131 -0.2007
13 1 10 0.7794 -0.0648
13 2 1 -3.1791 0.1199
13 2 2 -1.8333 0.0279
13 2 3 -0.1659 -0.1405
13 2 4 -0.0132 0.0118
13 2 5 0.9699 -0.1371
13 2 6 2.5390 0.0146
13 2 7 0.5287 -0.4645
13 2 8 0.6379 -0.0179
13 2 9 -2.4814 0.0676
13 2 10 0.9883 -0.0677
13 3 1 0.3199 -0.0213
13 3 2 0.7886 0.1210
13 3 3 1.7798 -0.0863
13 3 4 -0.8514 0.1791
13 3 5 0.3870 -0.0484
13 3 6 -0.3538 -0.0279
13 3 7 -0.1135 -0.3334
13 3 8 0.9025 -0.4052
13 3 9 1.1698 -0.0248
13 3 10 -3.3808 -0.1873
13 4 1 2.7480 0.3048
13 4 2 3.6451 0.0673
13 4 3 -1.1744 0.5160
13 4 4 -6.1723 0.0909
13 4 5 1.2823 0.2359
13 4 6 0.5914 -0.0378
13 4 7 -1.4719 0.2393
13 4 8 2.7514 -0.0884
13 4 9 2.0638 -0.0222
13 4 10 -3.2555 0.0082
13 5 1 -0.8664 -0.3032
13 5 2 -0.0567 0.1855
13 5 3 -0.0717 0.0811
13 5 4 -0.6926 0.0175
13 5 5 -0.9907 -0.0079
13 5 6 -1.2534 0.0325
13 5 7 2.0375 0.2202
13 5 8 -4.1605 -0.1104
13 5 9 1.5530 0.3459
13 6 1 -0.6600 0.0826
13 6 2 -0.2500 0.0115
13 6 3 1.1833 0.0976
13 6 4 1.6182 0.0047
13 6 5 -0.2364 0.1372
13 6 6 0.3653 0.0903
13 6 7 0.0664 0.0547
13 6 8 2.4987 -0.1970
13 6 9 -0.4936 -1.3550
13 7 1 1.7162 0.0283
13 7 2 0.0646 0.3477
13 7 3 1.9489 -0.3356
13 7 4 -2.3120 0.0337
13 7 5 -0.0517 -0.0664
13 7 6 0.4968 -0.3588
13 7 7 0.3194 -0.1427
13 7 8 -0.0936 0.6546
13 8 1 -0.6264 0.0035
13 8 2 -1.1517 0.0272
13 8 3 -0.3143 1.0859
13 8 4 4.2183 -0.0440
13 8 5 1.1003 0.5968
13 8 6 -5.1093 0.1750
13 8 7 0.2284 -0.6135
13 9 1 -0.0194 -0.0134
13 9 2 0.1773 0.3419
13 9 3 -0.0694 0.0176
13 9 4 -1.8131 0.1749
13 9 5 2.4229 0.5094
13 10 1 0.3079 0.0442
13 10 2 3.6096 0.2136
13 10 3 3.2780 0.4218
14 0 0 -0.6543 0.3978
14 0 2 1.3406 0.3186
14 0 4 -0.0090 0.1854
14 0 6 1.5761 0.1468
14 0 8 1.2353 0.2038
14 1 0 2.4685 0.8816
14 1 1 1.3159 -0.1779
14 1 2 -3.0758 0.2385
14 1 3 -0.9146 -0.2939
14 1 4 1.4576 -0.1307
14 1 5 0.6503 -0.2454
14 1 6 0.1903 -0.1475
14 1 7 -1.1702 -0.3559
14 1 8 -1.8601 -0.0518
14 1 9 -1.6568 -0.2254
14 2 0 4.0887 -0.1165
14 2 1 0.9384 0.0896
14 2 2 0.7791 -0.1524
14 2 3 0.2586 -0.0419
14 2 4 -1.4404 -0.0698
14 2 5 -0.3134 0.0536
14 2 6 2.4063 -0.2132
14 2 7 0.3200 0.0490
14 2 8 1.8051 -0.0829
14 2 9 2.3505 0.0144
14 3 0 -3.7046 -1.0083
14 3 1 -2.1489 -0.0339
14 3 2 1.5658 -0.4392
14 3 3 1.3972 -0.3828
14 3 4 1.8355 -0.1289
14 3 5 -0.7103 -0.0807
14 3 6 0.1332 -0.1250
14 3 7 0.6667 0.1165
14 3 8 -1.4956 -0.3004
14 3 9 1.2972 -0.5383
14 4 0 -0.5134 4.6163
14 4 1 -1.4814 -0.0257
14 4 2 -0.6277 1.4720
14 4 3 6.7993 -0.0970
14 4 4 -0.2858 0.6167
14 4 5 0.0618 -0.1548
14 4 6 0.8483 0.3997
14 4 7 -2.0927 -0.1679
14 4 8 -3.1186 0.2420
14 5 0 1.6258 0.9401
14 5 1 -0.7655 -0.0618
14 5 2 -2.5661 0.3023
14 5 3 -0.3678 -0.0789
14 5 4 0.5737 0.2806
14 5 5 1.2919 -0.0487
14 5 6 -1.2842 -0.0451
14 5 7 0.1660 0.1652
14 5 8 1.8048 0.5443
14 6 0 -1.5427 0.1552
14 6 1 1.0857 0.0135
14 6 2 -1.5663 0.0140
14 6 3 -3.7492 0.0153
14 6 4 0.8677 0.0615
14 6 5 -0.7264 0.1370
14 6 6 0.8282 0.5642
14 6 7 -2.7677 -0.0829
14 7 0 -3.9639 -0.7306
14 7 1 1.2346 -0.2332
14 7 2 0.3558 -0.0999
14 7 3 1.5936 -0.1388
14 7 4 0.4643 -0.5836
14 7 5 0.5844 -0.5671
14 7 6 1.1338 0.1431
14 8 0 1.5259 3.6852
14 8 1 -1.5927 0.0108
14 8 2 2.5271 0.2776
14 8 3 -1.3614 -0.0791
14 8 4 -0.7697 1.6949
14 8 5 2.9663 -0.0167
14 9 0 -1.0663 0.8209
14 9 1 -1.5566 -0.3027
14 9 2 -0.8745 -0.1116
14 9 3 1.0146 0.3156
15 0 1 1.2889 0.1999
15 0 3 0.7345 0.0200
15 0 5 1.1828 0.1280
15 0 7 1.1801 0.2698
15 1 1 -0.3521 -0.0255
15 1 2 0.3764 0.0137
15 1 3 -0.2098 -0.0072
15 1 4 0.4125 0.1544
15 1 5 -0.8777 -0.1551
15 1 6 -1.1599 0.5290
15 1 7 2.2576 0.1796
15 1 8 1.1200 -0.5762
15 2 1 -0.7924 0.2035
15 2 2 -1.0976 0.0618
15 2 3 2.8246 -0.0215
15 2 4 0.2321 0.1048
15 2 5 2.0936 0.2183
15 2 6 0.5608 0.0512
15 2 7 -1.4770 -0.3217
15 2 8 0.1859 -0.0315
15 3 1 -2.3325 -0.4830
15 3 2 0.1438 -0.2255
15 3 3 -1.8753 -0.3145
15 3 4 -0.5069 0.1603
15 3 5 1.4699 -0.2889
15 3 6 0.8600 0.4407
15 3 7 -1.3307 -0.0491
15 4 1 1.1541 0.4832
15 4 2 -3.7757 0.1293
15 4 3 -0.3666 -0.2656
15 4 4 2.1215 0.0741
15 4 5 0.3513 -0.8431
15 4 6 5.4450 -0.1283
15 4 7 1.9126 0.5543
15 5 1 -0.2224 -0.1667
15 5 2 1.7113 -0.2735
15 5 3 0.9114 0.0110
15 5 4 -0.8962 -0.5083
15 5 5 -0.9972 0.1017
15 5 6 -0.3793 0.8036
15 6 1 -1.2592 -0.3716
15 6 2 4.1901 -0.0396
15 6 3 -0.1746 -0.6658
15 6 4 -1.4921 0.0509
15 6 5 0.2675 0.6776
15 7 1 -1.9663 -0.1762
15 7 2 0.5991 0.3383
15 7 3 2.3531 -0.1443
15 7 4 0.9936 -0.6042
15 8 1 1.4769 -1.5410
16 0 0 1.9129 -0.2139
16 0 2 0.2687 -0.1156
16 0 4 3.2388 -0.4658
16 0 6 1.1809 0.5653
16 1 0 2.8952 0.5692
16 1 1 0.4755 0.1579
16 1 2 -1.8231 0.3728
16 1 3 0.5908 -0.2279
16 1 4 -0.4935 0.1738
16 1 5 0.5322 0.8468
16 1 6 -0.1635 -0.2370
16 2 0 -1.8144 0.1022
16 2 1 0.0813 0.0832
16 2 2 0.2351 -0.0690
16 2 3 -1.7741 -0.1189
16 2 4 -1.9748 0.7042
16 2 5 -0.9609 -0.0215
16 2 6 4.0765 -0.5621
16 3 0 2.6127 -0.7949
16 3 1 -0.9101 0.2156
16 3 2 0.1375 -0.4360
16 3 3 1.7221 -0.4818
16 3 4 0.2906 -0.5319
16 3 5 -1.5149 0.6494
16 4 0 2.5980 -3.2926
16 4 1 0.5923 0.0574
16 4 2 -0.8332 0.5197
16 4 3 -3.2949 0.0537
16 4 4 1.1532 -1.1752
16 5 0 2.7575 0.7594
16 5 1 -0.3592 0.1105
16 5 2 -1.3103 -0.2184
16 5 3 3.3480 -0.2789
16 6 0 0.9444 -0.0096
16 6 1 -3.1065 0.0196
17 0 1 -2.8369 1.1552
17 0 3 1.4565 -0.6199
17 1 1 1.6209 0.0054
17 1 2 0.2317 -0.2538
17 1 3 0.9973 0.6555
17 2 1 -3.4947 0.0479
17 2 2 -0.2321 -0.2827
17 3 1 2.9333 0.2805
0 0 0 0.0 0.0
;
_shelx_fab_checksum                48427
_olex2_submission_special_instructions  'No special instructions were received'
