 
data_OAV660a
 
_audit_creation_method            'SHELXL-2019/3'
_shelx_SHELXL_version_number      '2019/3'
_chemical_name_systematic         ?
_chemical_name_common             ?
_chemical_melting_point           ?
_chemical_formula_moiety          ?
_chemical_formula_sum
 'C36 H63 Mn4 N23 O24' 
_chemical_formula_weight          1421.85

loop_
 _atom_type_symbol
 _atom_type_description
 _atom_type_scat_dispersion_real
 _atom_type_scat_dispersion_imag
 _atom_type_scat_source
 'C'  'C'   0.0033   0.0016
 'International Tables Vol C Tables 4.2.6.8 and 6.1.1.4'
 'H'  'H'   0.0000   0.0000
 'International Tables Vol C Tables 4.2.6.8 and 6.1.1.4'
 'N'  'N'   0.0061   0.0033
 'International Tables Vol C Tables 4.2.6.8 and 6.1.1.4'
 'O'  'O'   0.0106   0.0060
 'International Tables Vol C Tables 4.2.6.8 and 6.1.1.4'
 'Mn'  'Mn'   0.3368   0.7283
 'International Tables Vol C Tables 4.2.6.8 and 6.1.1.4'
 
_space_group_crystal_system       trigonal
_space_group_IT_number            161
_space_group_name_H-M_alt         'R 3 c :H'
_space_group_name_Hall            'R 3 -2"c'
 
_shelx_space_group_comment
;
The symmetry employed for this shelxl refinement is uniquely defined
by the following loop, which should always be used as a source of
symmetry information in preference to the above space-group names.
They are only intended as comments.
;
 
loop_
 _space_group_symop_operation_xyz
 'x, y, z'
 '-y, x-y, z'
 '-x+y, -x, z'
 '-y, -x, z+1/2'
 '-x+y, y, z+1/2'
 'x, x-y, z+1/2'
 'x+2/3, y+1/3, z+1/3'
 '-y+2/3, x-y+1/3, z+1/3'
 '-x+y+2/3, -x+1/3, z+1/3'
 '-y+2/3, -x+1/3, z+5/6'
 '-x+y+2/3, y+1/3, z+5/6'
 'x+2/3, x-y+1/3, z+5/6'
 'x+1/3, y+2/3, z+2/3'
 '-y+1/3, x-y+2/3, z+2/3'
 '-x+y+1/3, -x+2/3, z+2/3'
 '-y+1/3, -x+2/3, z+7/6'
 '-x+y+1/3, y+2/3, z+7/6'
 'x+1/3, x-y+2/3, z+7/6'
 
_cell_length_a                    14.059(2)
_cell_length_b                    14.059(2)
_cell_length_c                    54.430(11)
_cell_angle_alpha                 90
_cell_angle_beta                  90
_cell_angle_gamma                 120
_cell_volume                      9317(3)
_cell_formula_units_Z             6
_cell_measurement_temperature     150(2)
_cell_measurement_reflns_used     ?
_cell_measurement_theta_min       ?
_cell_measurement_theta_max       ?
 
_exptl_crystal_description        ?
_exptl_crystal_colour             ?
_exptl_crystal_density_meas       ?
_exptl_crystal_density_method     ?
_exptl_crystal_density_diffrn     1.520          
_exptl_crystal_F_000              4392
_exptl_transmission_factor_min    ?
_exptl_transmission_factor_max    ?
_exptl_crystal_size_max           ?
_exptl_crystal_size_mid           ?
_exptl_crystal_size_min           ?
_exptl_absorpt_coefficient_mu     0.886
_shelx_estimated_absorpt_T_min    ?
_shelx_estimated_absorpt_T_max    ?
_exptl_absorpt_correction_type    ?
_exptl_absorpt_correction_T_min   ?
_exptl_absorpt_correction_T_max   ?
_exptl_absorpt_process_details    ?
_exptl_absorpt_special_details    ?
_diffrn_ambient_temperature       150(2)
_diffrn_radiation_wavelength      0.71073
_diffrn_radiation_type            MoK\a
_diffrn_source                    ?
_diffrn_measurement_device_type   ?
_diffrn_measurement_method        ?
_diffrn_detector_area_resol_mean  ?
_diffrn_reflns_number             14343
_diffrn_reflns_av_unetI/netI      0.1712
_diffrn_reflns_av_R_equivalents   0.2439
_diffrn_reflns_limit_h_min        -15
_diffrn_reflns_limit_h_max        15
_diffrn_reflns_limit_k_min        -15
_diffrn_reflns_limit_k_max        14
_diffrn_reflns_limit_l_min        -60
_diffrn_reflns_limit_l_max        60
_diffrn_reflns_theta_min          1.832
_diffrn_reflns_theta_max          23.256
_diffrn_reflns_theta_full         23.256
_diffrn_measured_fraction_theta_max   0.999
_diffrn_measured_fraction_theta_full  0.999
_diffrn_reflns_Laue_measured_fraction_max    0.999
_diffrn_reflns_Laue_measured_fraction_full   0.999
_diffrn_reflns_point_group_measured_fraction_max   0.985
_diffrn_reflns_point_group_measured_fraction_full  0.985
_reflns_number_total              2935
_reflns_number_gt                 1626
_reflns_threshold_expression      'I > 2\s(I)'
_reflns_Friedel_coverage          0.967
_reflns_Friedel_fraction_max      0.971
_reflns_Friedel_fraction_full     0.971
 
_reflns_special_details
;
 Reflections were merged by SHELXL according to the crystal
 class for the calculation of statistics and refinement.
 
 Structure factors included contributions from the .fab file.
 
 _reflns_Friedel_fraction is defined as the number of unique
 Friedel pairs measured divided by the number that would be
 possible theoretically, ignoring centric projections and
 systematic absences. Completness statistics refer to single and
 composite reflections containing twin component 1 only.
;
 
_computing_data_collection        ?
_computing_cell_refinement        ?
_computing_data_reduction         ?
_computing_structure_solution     'SHELXT 2018/2 (Sheldrick, 2018)'
_computing_structure_refinement 'SHELXL-2019/2 (Sheldrick, 2019)'
_computing_molecular_graphics     ?
_computing_publication_material   ?
_refine_special_details
;
 Refined as a 2-component inversion twin.
;
_refine_ls_structure_factor_coef  Fsqd
_refine_ls_matrix_type            full
_refine_ls_weighting_scheme       calc
_refine_ls_weighting_details
'w=1/[\s^2^(Fo^2^)+(0.0272P)^2^] where P=(Fo^2^+2Fc^2^)/3'
_atom_sites_solution_primary      ?
_atom_sites_solution_secondary    ?
_atom_sites_solution_hydrogens    geom
_refine_ls_hydrogen_treatment     constr
_refine_ls_extinction_method      none
_refine_ls_extinction_coef        .
_refine_ls_abs_structure_details
;
 Refined as an inversion twin.
;
_refine_ls_abs_structure_Flack    0.37(7)
_chemical_absolute_configuration  ?
_refine_ls_number_reflns          2935
_refine_ls_number_parameters      149
_refine_ls_number_restraints      1
_refine_ls_R_factor_all           0.1186
_refine_ls_R_factor_gt            0.0569
_refine_ls_wR_factor_ref          0.1204
_refine_ls_wR_factor_gt           0.0985
_refine_ls_goodness_of_fit_ref    0.897
_refine_ls_restrained_S_all       0.897
_refine_ls_shift/su_max           0.003
_refine_ls_shift/su_mean          0.000
 
loop_
 _atom_site_label
 _atom_site_type_symbol
 _atom_site_fract_x
 _atom_site_fract_y
 _atom_site_fract_z
 _atom_site_U_iso_or_equiv
 _atom_site_adp_type
 _atom_site_occupancy
 _atom_site_site_symmetry_order  
 _atom_site_calc_flag
 _atom_site_refinement_flags_posn
 _atom_site_refinement_flags_adp
 _atom_site_refinement_flags_occupancy
 _atom_site_disorder_assembly
 _atom_site_disorder_group
Mn2 Mn 0.666667 0.333333 0.44502(5) 0.0361(9) Uani 1 3 d S T P . .
C6 C 0.8361(11) 0.8456(11) 0.5702(2) 0.037(3) Uani 1 1 d . . . . .
N3 N 0.7099(8) 0.4821(8) 0.46683(17) 0.041(3) Uani 1 1 d . . . . .
O5 O 0.9027(7) 0.8592(7) 0.58677(15) 0.054(3) Uani 1 1 d . . . . .
N2 N 0.6992(9) 0.5670(9) 0.4569(2) 0.049(3) Uani 1 1 d . . . . .
N5 N 0.8874(9) 0.7167(9) 0.55162(19) 0.046(3) Uani 1 1 d . . . . .
C5 C 0.8252(11) 0.7641(11) 0.5506(2) 0.045(4) Uani 1 1 d . . . . .
C3 C 0.7467(11) 0.5070(10) 0.4907(2) 0.051(4) Uani 1 1 d . . . . .
H3 H 0.761458 0.464314 0.501932 0.061 Uiso 1 1 calc R U . . .
Mn1 Mn 0.65163(17) 0.56784(16) 0.41988(4) 0.0480(6) Uani 1 1 d . . . . .
C2 C 0.7292(10) 0.6419(11) 0.4747(3) 0.043(4) Uani 1 1 d . . . . .
H2 H 0.730257 0.709740 0.473139 0.051 Uiso 1 1 calc R U . . .
C1 C 0.7569(12) 0.6094(12) 0.4945(2) 0.057(4) Uani 1 1 d . . . . .
N4 N 0.7969(9) 0.6670(8) 0.51860(19) 0.047(3) Uani 1 1 d . . . . .
O4 O 0.7744(7) 0.8835(8) 0.56799(15) 0.052(3) Uani 1 1 d . . . . .
N6 N 0.8679(9) 0.6537(9) 0.5320(2) 0.049(3) Uani 1 1 d . . . . .
C4 C 0.7699(12) 0.7358(11) 0.5283(2) 0.060(4) Uani 1 1 d . . . . .
H4 H 0.723481 0.760324 0.521681 0.072 Uiso 1 1 calc R U . . .
O3 O 0.5069(10) 0.5702(12) 0.4334(2) 0.129(5) Uani 1 1 d . . . . .
O7 O 0.7292(11) 0.7412(10) 0.4131(3) 0.145(6) Uani 1 1 d . . . . .
 
loop_
 _atom_site_aniso_label
 _atom_site_aniso_U_11
 _atom_site_aniso_U_22
 _atom_site_aniso_U_33
 _atom_site_aniso_U_23
 _atom_site_aniso_U_13
 _atom_site_aniso_U_12
Mn2 0.0384(13) 0.0384(13) 0.0315(19) 0.000 0.000 0.0192(6)
C6 0.037(9) 0.049(10) 0.016(7) -0.006(6) -0.003(6) 0.014(8)
N3 0.036(7) 0.037(7) 0.049(7) -0.004(6) -0.012(5) 0.016(6)
O5 0.067(7) 0.066(7) 0.029(5) -0.010(5) -0.016(6) 0.033(5)
N2 0.069(9) 0.037(7) 0.054(7) -0.015(6) -0.011(6) 0.036(7)
N5 0.063(8) 0.047(8) 0.041(8) -0.013(6) -0.013(6) 0.037(7)
C5 0.047(9) 0.052(10) 0.023(8) -0.002(7) -0.012(7) 0.014(8)
C3 0.091(12) 0.029(8) 0.019(7) -0.011(6) -0.013(7) 0.019(9)
Mn1 0.0620(16) 0.0554(15) 0.0366(10) -0.0047(12) -0.0076(11) 0.0368(14)
C2 0.047(9) 0.043(9) 0.053(9) -0.025(7) -0.029(8) 0.033(8)
C1 0.071(11) 0.060(11) 0.030(8) -0.013(8) -0.013(8) 0.026(10)
N4 0.053(8) 0.032(8) 0.054(8) -0.009(6) 0.003(7) 0.020(6)
O4 0.052(7) 0.055(7) 0.051(6) -0.020(5) -0.016(5) 0.028(6)
N6 0.065(8) 0.065(9) 0.040(8) -0.005(6) -0.015(7) 0.050(8)
C4 0.082(12) 0.044(10) 0.062(10) -0.007(8) -0.026(9) 0.038(9)
O3 0.132(11) 0.216(15) 0.104(10) -0.047(10) -0.016(8) 0.136(11)
O7 0.199(17) 0.070(8) 0.180(14) -0.014(9) -0.042(12) 0.079(10)
 
_geom_special_details
;
 All esds (except the esd in the dihedral angle between two l.s. planes)
 are estimated using the full covariance matrix.  The cell esds are taken
 into account individually in the estimation of esds in distances, angles
 and torsion angles; correlations between esds in cell parameters are only
 used when they are defined by crystal symmetry.  An approximate (isotropic)
 treatment of cell esds is used for estimating esds involving l.s. planes.
;
 
loop_
 _geom_bond_atom_site_label_1
 _geom_bond_atom_site_label_2
 _geom_bond_distance
 _geom_bond_site_symmetry_2
 _geom_bond_publ_flag
Mn2 N3 2.210(10) 3_665 ?
Mn2 N3 2.210(10) 2_655 ?
Mn2 N3 2.210(10) . ?
Mn2 O5 2.218(9) 11_544 ?
Mn2 O5 2.218(9) 10_664 ?
Mn2 O5 2.219(9) 12_454 ?
C6 O4 1.231(14) . ?
C6 O5 1.246(13) . ?
C6 C5 1.515(17) . ?
N3 C3 1.378(13) . ?
N3 N2 1.385(12) . ?
O5 Mn1 2.333(8) 18_554 ?
N2 C2 1.335(14) . ?
N2 Mn1 2.123(11) . ?
N5 N6 1.324(13) . ?
N5 C5 1.340(15) . ?
N5 Mn1 2.252(11) 18_554 ?
C5 C4 1.386(15) . ?
C3 C1 1.388(17) . ?
Mn1 O7 2.146(12) . ?
Mn1 O4 2.165(9) 10_664 ?
Mn1 O3 2.180(11) . ?
C2 C1 1.303(16) . ?
C1 N4 1.497(15) . ?
N4 C4 1.313(15) . ?
N4 N6 1.324(13) . ?
 
loop_
 _geom_angle_atom_site_label_1
 _geom_angle_atom_site_label_2
 _geom_angle_atom_site_label_3
 _geom_angle
 _geom_angle_site_symmetry_1
 _geom_angle_site_symmetry_3
 _geom_angle_publ_flag
N3 Mn2 N3 93.9(4) 3_665 2_655 ?
N3 Mn2 N3 93.9(4) 3_665 . ?
N3 Mn2 N3 93.9(4) 2_655 . ?
N3 Mn2 O5 90.4(4) 3_665 11_544 ?
N3 Mn2 O5 89.0(3) 2_655 11_544 ?
N3 Mn2 O5 174.7(4) . 11_544 ?
N3 Mn2 O5 89.0(3) 3_665 10_664 ?
N3 Mn2 O5 174.7(4) 2_655 10_664 ?
N3 Mn2 O5 90.4(4) . 10_664 ?
O5 Mn2 O5 86.5(3) 11_544 10_664 ?
N3 Mn2 O5 174.7(4) 3_665 12_454 ?
N3 Mn2 O5 90.4(4) 2_655 12_454 ?
N3 Mn2 O5 89.0(3) . 12_454 ?
O5 Mn2 O5 86.5(3) 11_544 12_454 ?
O5 Mn2 O5 86.5(3) 10_664 12_454 ?
O4 C6 O5 130.0(13) . . ?
O4 C6 C5 115.7(12) . . ?
O5 C6 C5 114.2(13) . . ?
C3 N3 N2 109.8(10) . . ?
C3 N3 Mn2 129.6(9) . . ?
N2 N3 Mn2 120.5(8) . . ?
C6 O5 Mn2 131.4(9) . 16_664 ?
C6 O5 Mn1 118.5(9) . 18_554 ?
Mn2 O5 Mn1 107.6(4) 16_664 18_554 ?
C2 N2 N3 105.5(11) . . ?
C2 N2 Mn1 131.3(9) . . ?
N3 N2 Mn1 123.1(8) . . ?
N6 N5 C5 109.3(11) . . ?
N6 N5 Mn1 136.2(9) . 18_554 ?
C5 N5 Mn1 114.2(8) . 18_554 ?
N5 C5 C4 107.8(12) . . ?
N5 C5 C6 120.2(12) . . ?
C4 C5 C6 131.4(14) . . ?
N3 C3 C1 103.5(11) . . ?
N2 Mn1 O7 100.7(5) . . ?
N2 Mn1 O4 99.3(4) . 10_664 ?
O7 Mn1 O4 91.2(4) . 10_664 ?
N2 Mn1 O3 88.8(4) . . ?
O7 Mn1 O3 89.4(6) . . ?
O4 Mn1 O3 171.6(4) 10_664 . ?
N2 Mn1 N5 158.3(4) . 12_454 ?
O7 Mn1 N5 99.8(5) . 12_454 ?
O4 Mn1 N5 87.2(4) 10_664 12_454 ?
O3 Mn1 N5 84.5(4) . 12_454 ?
N2 Mn1 O5 88.0(4) . 12_454 ?
O7 Mn1 O5 170.3(5) . 12_454 ?
O4 Mn1 O5 83.2(3) 10_664 12_454 ?
O3 Mn1 O5 95.0(4) . 12_454 ?
N5 Mn1 O5 72.1(4) 12_454 12_454 ?
C1 C2 N2 110.8(12) . . ?
C2 C1 C3 110.3(12) . . ?
C2 C1 N4 129.2(14) . . ?
C3 C1 N4 120.4(12) . . ?
C4 N4 N6 113.4(11) . . ?
C4 N4 C1 125.7(12) . . ?
N6 N4 C1 120.9(11) . . ?
C6 O4 Mn1 132.8(8) . 16_664 ?
N5 N6 N4 105.6(10) . . ?
N4 C4 C5 103.7(13) . . ?
 
_refine_diff_density_max    0.260
_refine_diff_density_min   -0.344
_refine_diff_density_rms    0.045

_shelx_res_file
;
TITL 2_a.res in R3c
    OAV660a.res
    created by SHELXL-2019/3 at 15:14:00 on 25-Apr-2024
REM [L3(H2O)6Mn4](NO3)2 * 6DMF
CELL  0.71073  14.0592  14.0592  54.4298   90.000   90.000  120.000
ZERR  6  0.0020   0.0020   0.0110    0.000    0.000    0.000
LATT -3
SYMM -Y, X-Y, Z
SYMM -X+Y, -X, Z
SYMM -Y, -X, 1/2+Z
SYMM -X+Y, Y, 1/2+Z
SYMM X, X-Y, 1/2+Z
SFAC C H N O MN
UNIT 216 378 138 144 24
OMIT -1 1 4
OMIT 0 1 -4
LIST 4
ACTA
TEMP -123
L.S. 5 0  115
BOND
TWIN
FMAP 2
PLAN 20
ABIN
WGHT    0.027200
BASF   0.36609
FVAR       0.16674
MN2   5    0.666667    0.333333    0.445021    10.33333    0.03843    0.03843 =
         0.03147    0.00000    0.00000    0.01921
C6    1    0.836087    0.845555    0.570165    11.00000    0.03681    0.04894 =
         0.01602   -0.00640   -0.00279    0.01440
N3    3    0.709871    0.482144    0.466832    11.00000    0.03567    0.03679 =
         0.04907   -0.00411   -0.01192    0.01626
O5    4    0.902736    0.859188    0.586767    11.00000    0.06653    0.06612 =
         0.02879   -0.00970   -0.01640    0.03258
N2    3    0.699201    0.566996    0.456867    11.00000    0.06891    0.03663 =
         0.05449   -0.01476   -0.01087    0.03606
N5    3    0.887434    0.716676    0.551617    11.00000    0.06254    0.04682 =
         0.04130   -0.01322   -0.01342    0.03681
C5    1    0.825200    0.764066    0.550600    11.00000    0.04706    0.05160 =
         0.02277   -0.00160   -0.01244    0.01372
C3    1    0.746654    0.507047    0.490709    11.00000    0.09074    0.02900 =
         0.01874   -0.01056   -0.01265    0.01884
AFIX  43
H3    2    0.761458    0.464314    0.501932    11.00000   -1.20000
AFIX   0
MN1   5    0.651627    0.567843    0.419885    11.00000    0.06195    0.05545 =
         0.03662   -0.00471   -0.00760    0.03679
C2    1    0.729233    0.641927    0.474682    11.00000    0.04664    0.04317 =
         0.05285   -0.02464   -0.02908    0.03339
AFIX  43
H2    2    0.730257    0.709740    0.473139    11.00000   -1.20000
AFIX   0
C1    1    0.756938    0.609441    0.494465    11.00000    0.07149    0.06008 =
         0.02998   -0.01299   -0.01311    0.02645
N4    3    0.796910    0.667035    0.518601    11.00000    0.05320    0.03232 =
         0.05382   -0.00929    0.00265    0.01959
O4    4    0.774362    0.883495    0.567986    11.00000    0.05182    0.05464 =
         0.05059   -0.02048   -0.01550    0.02775
N6    3    0.867883    0.653720    0.532033    11.00000    0.06511    0.06469 =
         0.04034   -0.00540   -0.01464    0.05017
C4    1    0.769941    0.735768    0.528335    11.00000    0.08153    0.04423 =
         0.06213   -0.00685   -0.02584    0.03829
AFIX  43
H4    2    0.723481    0.760324    0.521681    11.00000   -1.20000
AFIX   0
O3    4    0.506916    0.570186    0.433421    11.00000    0.13240    0.21609 =
         0.10357   -0.04743   -0.01566    0.13571
O7    4    0.729220    0.741179    0.413115    11.00000    0.19896    0.07000 =
         0.18031   -0.01367   -0.04159    0.07886
HKLF 4




REM  2_a.res in R3c
REM wR2 = 0.1204, GooF = S = 0.897, Restrained GooF = 0.897 for all data
REM R1 = 0.0569 for 1626 Fo > 4sig(Fo) and 0.1186 for all 2935 data
REM 149 parameters refined using 1 restraints

END

WGHT      0.0243      0.0000

REM Highest difference peak  0.260,  deepest hole -0.344,  1-sigma level  0.045
Q1    1   0.6489  0.5732  0.4388  11.00000  0.05    0.26
Q2    1   0.6666  0.5757  0.3997  11.00000  0.05    0.22
Q3    1   0.7493  0.7611  0.3920  11.00000  0.05    0.22
Q4    1   0.5294  0.6460  0.4477  11.00000  0.05    0.21
Q5    1   0.7322  0.8214  0.4197  11.00000  0.05    0.19
Q6    1   0.7150  0.8011  0.4079  11.00000  0.05    0.19
Q7    1   0.6440  0.5129  0.4987  11.00000  0.05    0.19
Q8    1   0.8263  0.7968  0.4238  11.00000  0.05    0.18
Q9    1   0.7393  0.3019  0.4281  11.00000  0.05    0.17
Q10   1   0.4892  0.5184  0.4334  11.00000  0.05    0.17
Q11   1   0.7509  0.6842  0.4532  11.00000  0.05    0.17
Q12   1   0.4351  0.5752  0.4390  11.00000  0.05    0.17
Q13   1   0.7846  0.7747  0.5904  11.00000  0.05    0.16
Q14   1   0.9818  0.7814  0.5458  11.00000  0.05    0.16
Q15   1   0.7082  0.6480  0.3945  11.00000  0.05    0.16
Q16   1   0.6424  0.6411  0.4192  11.00000  0.05    0.16
Q17   1   0.7045  0.6391  0.4222  11.00000  0.05    0.16
Q18   1   0.8197  0.8335  0.4081  11.00000  0.05    0.16
Q19   1   0.7850  0.9656  0.5593  11.00000  0.05    0.16
Q20   1   0.7507  0.7599  0.4371  11.00000  0.05    0.15
;
_shelx_res_checksum   98844

_shelx_hkl_file
;
  -2   1   0   27.50   18.40
   1   1   0   15.80   21.30
   1  -2   0   74.59   25.00
  -1   2   0   28.20   23.30
  -1  -1   0   13.60   21.60
   2  -1   0   21.20   19.20
   3   0   0 1209.08  126.09
  -3   3   0 1504.35  131.99
   0  -3   0 1445.26  134.39
   0  -3   0 1627.34  136.99
   3  -3   0 1633.34  135.49
  -3   0   0 1328.87  129.29
  -4   2   0  489.55   64.69
   2   2   0  480.15   69.19
   2  -4   0  532.95   75.59
  -2  -2   0  499.45   69.69
  -2   4   0  630.84   78.89
   4  -2   0  516.15   65.39
   1   4   0 1085.29  114.39
  -5   1   0 1032.50  104.49
   4  -5   0 1119.29  112.39
   5  -1   0  978.40  102.09
  -1  -4   0 1078.99  111.59
  -4   5   0 1100.49  112.19
   1  -5   0  993.80  112.39
   4   1   0  999.30  100.59
   1  -5   0  651.83  129.69
  -5   4   0 1096.69  103.99
  -4  -1   0  802.42   86.59
   3  -6   0    9.60   46.80
  -6   3   0  122.19   40.60
   3   3   0   29.30   45.50
  -3   6   0   88.69   49.10
   6  -3   0  124.49   41.30
  -3  -3   0   81.89   40.40
   0  -6   0  586.94   84.19
   0  -6   0  572.04   85.49
  -6   6   0  367.26   73.29
   6   0   0  501.75   77.09
   6  -6   0  497.45   84.99
  -6   0   0  488.45   74.59
  -7   2   0   33.90   40.50
   2   5   0  102.59   52.29
   5  -7   0    8.00   52.89
  -2  -5   0  102.89   54.89
  -5   7   0  -29.10   55.49
   7  -2   0   24.60   46.00
   5   2   0   22.90   49.00
  -7   5   0   23.20   45.50
   2  -7   0  114.79   58.49
   2  -7   0   32.20   53.69
   7  -5   0   57.59   63.49
  -5  -2   0   87.29   46.40
   7  -8   0  555.74  103.49
  -8   1   0  813.32   91.79
  -1  -7   0  703.93  102.39
  -1  -7   0  541.05   98.79
  -7   8   0  376.56  114.29
   8  -1   0  706.93   95.99
  -8   4   0 3683.53  295.17
   4   4   0 3386.26  302.07
   4  -8   0 3176.68  300.17
  -4   8   0 3034.10  310.67
  -4  -4   0 3467.15  298.17
   8  -4   0 3552.14  310.17
  -8   7   0  580.84   94.29
   7   1   0  636.34   91.69
   1  -8   0  624.84  100.39
   1  -8   0  633.84  102.49
  -7  -1   0  679.23   99.69
   8  -7   0  827.82  109.49
  -9   3   0  154.28   53.69
   3   6   0  176.88   69.69
   6  -9   0  167.28   66.39
  -3  -6   0   26.30   70.89
  -6   9   0  130.69   65.89
   9  -3   0  134.99   58.59
   3  -9   0  187.28   67.09
   6   3   0  281.67   69.29
   3  -9   0   89.69   60.99
  -9   6   0   45.00   52.29
   9  -6   0  297.17   67.59
  -6  -3   0  159.18   60.79
   0  -9   0  660.73  118.99
   0  -9   0  687.43  118.29
  -9   9   0  696.93  113.99
   9   0   0  836.42  109.79
   9  -9   0  662.53  118.39
  -9   0   0  708.43  105.99
   8 -10   0   80.99   72.39
 -10   2   0   56.59   56.69
  10  -2   0  251.47   68.29
  -8  10   0  113.49   72.29
  -2  -8   0   78.99   74.69
  -2  -8   0  252.27   83.89
 -10   5   0  -24.70   49.50
   5   5   0  -15.40   61.59
   5 -10   0  135.49   63.59
   5 -10   0  -13.80   59.79
  10  -5   0   33.00   57.59
  -5  -5   0 -106.99   86.19
   8   2   0   61.49   68.09
   2 -10   0   50.69   67.89
   2 -10   0  181.78   71.39
 -10   8   0   95.09   66.39
  10  -8   0  -39.30   74.79
  -8  -2   0  134.29   68.09
  10 -11   0  -12.80   79.89
 -11   1   0 -134.09   60.89
  -1 -10   0   47.40   80.89
  11  -1   0   14.60   66.49
 -10  11   0   35.50   81.49
  -1 -10   0    4.40   84.19
 -11   4   0  164.48   64.19
   7 -11   0  226.88   73.09
  -4  -7   0  230.78   90.69
  -4  -7   0   37.60   72.89
  11  -4   0  272.87   73.09
  -7  11   0  256.27   88.39
 -11   7   0  177.48   69.89
   4 -11   0   95.69   79.59
   4 -11   0  134.39   74.99
   7   4   0  266.17   79.29
  -7  -4   0  233.28   79.19
  11  -7   0  122.09   71.89
   1 -11   0    6.60   74.59
  10   1   0   93.39   74.99
   1 -11   0  -48.30   78.49
 -11  10   0  -79.29   69.59
  11 -10   0  -48.00   91.69
 -10  -1   0  121.89   76.59
   9 -12   0   95.89   83.79
 -12   3   0  151.18   69.39
  -9  12   0   25.30   79.59
  12  -3   0   81.59   72.19
  -3  -9   0   84.49  141.69
  -3  -9   0  150.98   79.99
   6 -12   0  130.09   90.49
   6 -12   0  -36.20   84.19
 -12   6   0  -47.80   80.99
   6   6   0 -105.59   73.29
  12  -6   0  -19.00   69.69
  -6  -6   0  152.18   82.19
 -12   9   0  -26.80   73.29
   9   3   0   82.89   78.99
   3 -12   0   -0.60   76.49
  -9  -3   0  156.58   98.09
  12  -9   0  231.48   98.79
  12   0   0  470.05   99.19
   0 -12   0  146.79   99.59
   0 -12   0  463.15  115.19
 -12  12   0  191.68  101.49
  12 -12   0  162.08  103.49
 -12   0   0  338.37   91.89
  11 -13   0   52.39  100.39
 -13   2   0   40.80   79.29
  -2 -11   0   40.00  106.29
 -11  13   0    5.60   91.39
  13  -2   0  158.78   79.09
  -2 -11   0   89.79   94.59
   8 -13   0  321.97  109.69
 -13   5   0  248.18   81.89
   8 -13   0   91.59   83.99
  13  -5   0  398.46   87.59
  -5  -8   0  193.08  126.09
  -5  -8   0  319.57  109.79
   5 -13   0  181.38   90.09
   5 -13   0  119.59  102.19
   8   5   0  306.17  101.69
 -13   8   0  243.48   85.79
  13  -8   0  382.16  101.09
  -8  -5   0  349.67  106.59
   2 -13   0  170.38   99.69
  11   2   0  212.08   85.79
   2 -13   0  132.29  106.09
 -13  11   0  140.19   95.59
  13 -11   0  277.37  120.29
 -11  -2   0  183.18   94.79
  13 -14   0  -12.50  115.19
 -14   1   0   62.69   77.59
  10 -14   0   82.59   93.29
 -14   4   0   20.80   71.29
  14  -4   0   76.49   76.39
  -4 -10   0  123.59  104.89
  -4 -10   0   36.30  111.59
 -14   7   0   63.19   79.79
   7 -14   0   80.69   84.69
   7 -14   0  -34.50  118.89
  14  -7   0   64.39   85.19
  -7  -7   0   48.40   99.59
 -14  10   0  273.77   98.69
   4 -14   0  166.18   96.09
  10   4   0  267.17  102.19
  14 -10   0   94.59  130.29
 -10  -4   0  274.07  118.89
 -13  -1   0   17.00   82.99
  14 -13   0  -51.89  118.89
   9 -15   0  -66.69   87.79
 -15   6   0  -38.50   67.69
  15  -6   0    2.50   82.19
  -6  -9   0  215.78  124.59
  -6  -9   0   60.99  118.59
   6 -15   0  129.69   94.89
 -15   9   0  175.88   93.49
   9   6   0  168.68  103.59
  -9  -6   0  120.79  121.39
  15  -9   0   17.80   96.69
   0  -1   1   -5.30    9.80
  -2  -1  -1 2539.35  230.58
   3  -2  -1 3012.60  231.98
   1  -3   1 3143.29  252.27
  -3   2   1 2819.62  247.68
   2   1   1 2875.61  247.88
   1  -3   1 3113.09  250.77
   0  -2  -1    9.80   28.00
   2   0  -1   21.80   22.20
   0  -2  -1   15.50   25.70
  -2   2  -1   15.10   25.00
   2  -2   1  -37.20   24.20
  -2   0   1    2.60   40.20
  -3  -2  -1 1006.30  105.39
   5  -3  -1 1058.49  102.79
   3   2   1  950.40  101.89
   2  -5   1 1068.79  107.29
  -5   3   1  949.31   99.69
   1   2  -1 2803.22  248.68
   2  -3  -1 3114.99  249.08
  -2   3   1 3336.37  260.07
   3  -1   1 2975.90  253.67
  -1  -2   1 2972.10  259.07
  -3   4  -1  157.08   45.50
   4  -1  -1  165.98   41.80
  -1  -3  -1  160.48   48.00
  -4   1   1  105.49   37.30
   1   3   1  112.89   46.20
   3  -4   1   94.39   46.90
   7  -4  -1  126.49   50.89
  -4  -3  -1   14.80   48.20
  -7   4   1  109.39   46.30
   3  -7   1   43.30   53.19
   4   3   1  126.89   51.89
   3  -7   1   92.59   54.49
  -4   0  -1   21.80   33.10
   4  -4  -1   -8.00   41.30
  -4   4   1   43.50   39.20
   0  -4   1   39.80   46.20
   0  -4   1   32.40   47.50
   4   0   1  -82.19   32.30
  -4   3  -1  156.88   39.00
   1  -4  -1  192.28   50.59
   3   1  -1   82.69   40.20
   4  -3   1  220.78   46.90
  -3  -1   1  150.08   40.30
  -1   4   1  136.39   52.99
   6  -2  -1  151.08   46.60
  -4   6  -1  180.98   52.79
  -2  -4  -1   66.79   47.00
   2   4   1   88.99   58.79
   4  -6   1  141.99   50.89
  -6   2   1  161.48   45.20
   9  -5  -1   63.59   51.99
  -5  -4  -1   -8.80   53.39
   4  -9   1  -38.90   57.19
   5   4   1   70.79   59.79
   4  -9   1  -65.89   56.89
  -9   5   1  -15.70   50.79
  -5  -1  -1  573.04   77.09
   1  -6   1  564.64   93.09
  -6   5   1  527.25   80.39
   1  -6   1  499.15   85.49
   5   1   1  512.45   75.29
  -5   2  -1 1077.99   96.49
   3  -5  -1  948.91  106.49
   2   3  -1  875.61  104.89
   5  -2   1 1077.29  100.79
  -2  -3   1  921.01  106.19
  -3   5   1 1146.39  113.79
   5   0  -1   24.00   38.50
   0  -5  -1  -48.00   47.20
   0  -5  -1  -36.20   46.70
  -5   5  -1  -19.10   43.40
   5  -5   1  -27.50   42.10
  -5   0   1   -1.90   38.20
  -3  -5  -1  292.47   66.19
   8  -3  -1  192.28   69.19
   3   5   1  231.58   66.89
   5  -8   1   54.89   65.79
  -8   3   1  421.96   62.99
  11  -6  -1  438.46   88.79
  -6  -5  -1  214.38   84.29
   5 -11   1   90.89   77.89
   5 -11   1  298.57   78.59
 -11   6   1  217.58   72.69
   6   5   1  277.67   87.59
   8  -6  -1  243.88   65.39
  -6  -2  -1  188.88   57.79
   6   2   1   46.20   60.19
   2  -8   1  117.59   62.09
  -8   6   1   91.89   52.19
   2  -8   1  180.78   65.49
   5  -6  -1  523.25   87.19
   1   5  -1  579.84   90.19
  -6   1  -1  631.24   74.49
  -1  -5   1  548.55   88.79
   6  -1   1  654.43   76.59
  -5   6   1  558.54   88.99
   2  -6  -1   45.30   49.40
  -6   4  -1   67.89   38.40
   4   2  -1   68.69   46.80
   6  -4   1  180.98   46.90
  -4  -2   1  140.69   46.10
  -2   6   1   88.99   53.49
   7  -1  -1  599.04   83.99
  -1  -6  -1  639.94   93.99
  -6   7  -1  500.65   92.29
  -1  -6  -1  632.14   99.49
   6  -7   1  579.04   95.39
  -7   1   1  717.83   84.89
  10  -4  -1   44.60   58.39
  -6  10  -1  -37.70   63.49
  -4  -6  -1  -53.89   51.89
   4   6   1  101.89   66.49
   6 -10   1   95.19   62.59
 -10   4   1  -68.59   52.19
  -7  -6  -1  -46.70   93.79
  13  -7  -1   54.19   81.59
 -13   7   1   38.00   69.59
   6 -13   1   52.09   81.69
   7   6   1   20.20   79.89
   6 -13   1 -107.39   89.39
  10  -7  -1  281.67   81.69
  -7  -3  -1  497.45   84.99
   3 -10   1  175.88   81.89
   3 -10   1  268.07   79.29
   7   3   1  360.66   77.19
   7  -7  -1   18.80   55.39
  -7   0  -1   10.00   41.00
   7   0   1  -61.49   40.80
   0  -7   1  -30.20   52.29
  -7   7   1 -100.99   47.90
  -7   3  -1   66.99   44.40
   4  -7  -1  -62.09   51.09
   3   4  -1   28.90   49.90
   7  -3   1   79.79   46.00
  -3  -4   1   60.39   45.90
  -4   7   1  -34.20   53.59
  -7   6  -1  557.84   82.29
   1  -7  -1  521.45   97.89
   6   1  -1  607.44   84.69
   1  -7  -1  539.75   94.59
  -6  -1   1  569.94   85.19
   7  -6   1  600.94   91.69
  -2  -7  -1  174.38   71.39
   9  -2  -1  318.07   64.79
  -2  -7  -1   66.89   62.39
  -7   9  -1  152.28   65.29
  -9   2   1  161.98   55.79
   7  -9   1  227.88   71.79
  -5  -7  -1  -82.09   85.09
  12  -5  -1   49.20   72.09
  -5  -7  -1   60.09   83.49
 -12   5   1   77.79   93.79
   7 -12   1   29.20   71.69
   7 -12   1   -3.30   82.49
  -8  -7  -1  -46.20  109.19
  -8  -7  -1  147.89  110.39
  15  -8  -1   83.59   93.09
 -15   8   1   -3.10   80.39
   7 -15   1  -48.00   87.99
  -8  -4  -1   67.69   87.89
  12  -8  -1  254.67   89.19
   4 -12   1   52.79   83.59
   8   4   1   57.09   77.19
   4 -12   1   17.40   75.19
 -12   8   1   31.50   69.49
  -8  -1  -1   32.40   60.89
   9  -8  -1  190.08   75.19
   8   1   1   69.49   62.09
   1  -9   1  124.89   70.49
  -9   8   1  -51.69   57.99
   1  -9   1  108.69   68.89
   6  -8  -1  118.49   59.39
  -8   2  -1  139.49   50.99
   2   6  -1   91.09   59.09
  -2  -6   1  124.89   59.59
  -6   8   1   68.29   92.49
   8  -2   1  183.48   55.79
  -8   5  -1  282.57   60.59
   3  -8  -1  432.06   76.79
   3  -8  -1  301.77   70.29
   5   3  -1  398.86   73.29
  -5  -3   1  308.87   71.89
   8  -5   1  467.85   78.49
   0  -8  -1  -34.10   59.59
   8   0  -1   37.70   50.39
  -8   8  -1   97.79   75.09
   0  -8  -1  -72.89   56.89
   8  -8   1  -57.39   63.79
  -8   0   1  -11.80   46.10
  -3  -8  -1  107.09   71.99
  -8  11  -1  149.39   77.19
  11  -3  -1  158.08   68.59
  -3  -8  -1  217.58   89.39
   8 -11   1   19.80   71.29
 -11   3   1  125.59   63.09
  -6  -8  -1  -13.80  112.09
  14  -6  -1    5.80   79.09
  -6  -8  -1  194.28  107.29
   8 -14   1  163.68  125.69
   8 -14   1    7.90   80.49
 -14   6   1   28.20   74.49
  -9  -5  -1  -14.30  104.09
  14  -9  -1  -59.49   89.89
 -14   9   1   32.60   80.59
   5 -14   1   96.89   86.79
   9   5   1  -21.40   87.09
  11  -9  -1  187.38   91.69
  -9  -2  -1   77.29   79.99
   2 -11   1   18.20   72.29
 -11   9   1   28.30   75.39
   2 -11   1  125.39   79.39
   9   2   1   70.29   72.39
   8  -9  -1  -28.00   70.89
  -9   1  -1  150.68   55.59
  -1  -8   1   -2.30   66.99
  -8   9   1 -116.59   62.59
   9  -1   1  -15.90   54.99
  -1  -8   1   -0.70   60.79
   5  -9  -1  -95.99   56.09
  -9   4  -1   69.09   50.59
   4   5  -1   71.39   63.69
   9  -4   1  -15.70   51.79
  -4  -5   1   38.80   57.19
  -5   9   1  -60.99   57.69
  -9   7  -1  108.19   60.89
   2  -9  -1   62.39   65.69
   7   2  -1  172.38   68.69
   2  -9  -1  206.98   69.79
   9  -7   1  323.47   78.39
  -7  -2   1  200.58   67.49
  -9  10  -1 -109.79   63.59
  -1  -9  -1  131.29   73.89
  10  -1  -1   -3.20   64.39
  -1  -9  -1  106.29   79.99
   9 -10   1   92.19   74.29
 -10   1   1   57.39   61.39
  13  -4  -1   -5.20   70.79
  -4  -9  -1 -130.29   77.39
  -4  -9  -1   75.69   95.59
   9 -13   1   95.89   89.39
 -13   4   1  -93.89   65.39
 -10  -3  -1  -24.50   97.59
  13 -10  -1 -105.99   94.89
 -13  10   1   38.20   83.79
  10   3   1   90.29   85.99
   3 -13   1   97.19   91.89
   3 -13   1 -123.69   76.79
 -10   0  -1    5.10   63.69
  10 -10  -1  -17.40   81.69
   0 -10   1  -96.99   80.19
 -10  10   1  -16.40   65.99
  10   0   1   23.80   63.79
   0 -10   1  -34.30   73.69
   7 -10  -1  249.28   75.69
 -10   3  -1  379.06   71.69
  -3  -7   1  223.88   73.39
  -7  10   1  312.07   81.89
  10  -3   1  445.46   75.99
   4 -10  -1   -5.50   58.69
   4 -10  -1   -8.70   63.39
   6   4  -1   -6.50   58.99
 -10   6  -1  -25.00   50.59
  -6  -4   1   -7.30   62.99
  10  -6   1   17.40   59.19
   1 -10  -1    9.20   71.49
   1 -10  -1   50.09   68.89
 -10   9  -1  -76.69   63.69
   9   1  -1   45.20   68.59
  -9  -1   1    2.50   63.19
  10  -9   1  -87.69   71.69
 -10  12  -1   -1.10   81.69
  12  -2  -1  146.99   76.59
  -2 -10  -1   61.89   88.99
  -2 -10  -1   28.10   89.19
 -12   2   1   35.30   83.59
  10 -12   1  106.29   90.79
  -5 -10  -1  114.09  123.69
  -5 -10  -1   49.90  109.89
  15  -5  -1    1.10   74.89
 -15   5   1  -29.00   76.19
  10 -15   1   95.99   98.39
  15 -11  -1   93.49  110.19
 -11  -4  -1  -49.00  110.09
 -15  11   1   23.30  162.68
  11   4   1   95.49   95.39
   4 -15   1  160.68  115.49
  12 -11  -1   82.69  111.29
 -11  -1  -1  171.78   98.69
   1 -12   1   92.09   87.79
   1 -12   1   29.00   90.59
 -12  11   1  -78.69   74.09
  11   1   1  148.59   84.79
 -11   2  -1  157.48   65.19
   9 -11  -1   38.00   78.09
  -9  11   1    9.90   72.99
  -2  -9   1  153.88   80.19
  -2  -9   1  135.39   84.39
  11  -2   1   53.59   63.19
   6 -11  -1  120.19   74.09
   5   6  -1  129.79   80.29
 -11   5  -1  213.98   64.79
  -5  -6   1  100.09   79.19
  11  -5   1  240.88   69.99
 -11   8  -1  132.99   70.39
   3 -11  -1   93.59   78.79
   8   3  -1  100.29   72.99
   3 -11  -1   26.80  128.89
  -8  -3   1   73.09   89.39
  11  -8   1  175.58   83.49
 -11  11  -1  -73.59   75.89
   0 -11  -1   71.19   86.99
  11   0  -1   18.50   70.39
   0 -11  -1 -143.19   78.09
  11 -11   1  119.89  104.69
  -3 -11  -1   75.09  103.29
  -3 -11  -1   99.29  111.59
  14  -3  -1   89.69   78.39
 -11  14  -1  -76.79  124.69
 -14   3   1   -2.10   72.39
  11 -14   1    2.70   93.89
 -12  -2  -1  144.19   95.59
  14 -12  -1 -159.98  106.59
  12   2   1  147.29   82.79
 -14  12   1  -32.60   98.19
   2 -14   1    2.80   95.79
  11 -12  -1  235.28  105.09
 -12   1  -1  152.18   77.79
  -1 -11   1   59.69   96.89
  12  -1   1  106.59   71.89
 -11  12   1  244.98   99.69
  -1 -11   1  120.99  102.59
 -12   4  -1  -13.20   61.09
   8 -12  -1   40.00   74.99
  -4  -8   1   12.60   78.79
  -8  12   1   38.20   81.29
  12  -4   1  113.59   66.79
  -4  -8   1 -122.09   88.89
   7   5  -1   93.59   86.09
   5 -12  -1  -46.50   76.99
 -12   7  -1  -15.70   66.69
   5 -12  -1  122.39   77.59
  -7  -5   1  101.99   79.89
  12  -7   1  -22.10   73.99
   2 -12  -1  172.98   91.69
   2 -12  -1  160.58   85.09
  10   2  -1  -15.50   73.89
 -12  10  -1  -35.90   70.69
 -10  -2   1    2.20   85.49
  12 -10   1   61.39  102.09
 -12  13  -1   35.70   97.99
  -1 -12  -1   51.59  105.99
  13  -1  -1  179.38   86.49
  -1 -12  -1   23.00  102.59
  12 -13   1  172.28  113.39
 -13   1   1  127.79   81.29
  13 -13  -1   15.90  118.79
 -13   0  -1  -50.29   73.39
  13   0   1   53.49   82.79
   0 -13   1   21.50  104.19
 -13  13   1   12.10   99.19
 -13   3  -1  -75.99   72.29
  10 -13  -1  -21.20   85.89
  -3 -10   1   10.80  134.99
 -10  13   1  -59.29   79.89
  -3 -10   1   -4.80   98.39
  13  -3   1   32.90   72.29
   6   7  -1  -66.39   86.89
   7 -13  -1  -42.10   74.69
   7 -13  -1    8.10   92.09
 -13   6  -1    6.80   64.09
  13  -6   1  -51.89   73.69
  -6  -7   1   31.20   94.49
   9   4  -1   75.29   84.79
 -13   9  -1   83.69   78.19
   4 -13  -1   53.49   82.69
   4 -13  -1   -8.10   98.49
  13  -9   1   35.40   90.29
  -9  -4   1   62.89   95.09
   1 -13  -1  109.09   92.19
 -13  12  -1  124.59  175.88
  12   1  -1  175.18   92.29
 -12  -1   1  220.68   93.79
  13 -12   1  115.59  120.29
  12 -14  -1   12.90  111.79
 -14   2  -1  185.28   73.49
  14  -2   1   40.30   74.69
  -2 -12   1  184.08  126.59
 -14   5  -1  -33.30   69.89
   9 -14  -1  -29.80  109.59
   9 -14  -1  -38.70   83.29
  -5  -9   1  -44.40  106.79
  14  -5   1  -90.59   68.39
  -5  -9   1  -20.50  177.18
   6 -14  -1  -14.30   79.69
 -14   8  -1   52.19   81.29
   8   6  -1  -25.90   91.79
  -8  -6   1  -53.39   92.89
  14  -8   1  189.88   88.79
   3 -14  -1   83.79   91.39
  11   3  -1  -69.59   81.09
 -14  11  -1  110.49   95.29
  14 -11   1   20.30  107.29
 -11  -3   1  -54.99   97.59
 -15   4  -1  -33.80   65.59
  11 -15  -1 -124.19   94.09
  -4 -11   1   16.90  114.59
  15  -4   1   19.10   72.79
   8 -15  -1  105.99   90.09
 -15   7  -1  -22.50   76.49
  -7  -8   1  -45.20  112.19
  -7  -8   1   79.09  132.59
  15  -7   1  -96.09   76.19
 -15  10  -1   82.99   88.09
  10   5  -1   61.29  170.18
   5 -15  -1   10.20   90.99
  15 -10   1   97.29  143.79
 -10  -5   1  -45.50  110.29
   0  -1  -2 6720.63  541.85
  -2   0  -2 1157.38  107.89
   2  -2  -2 1397.96  114.39
   0   2  -2 1406.46  117.19
   0  -2   2 1310.87  111.19
   2   0   2 1085.19  102.89
  -2   2   2 1365.56  109.59
   3  -1  -2  407.76   57.69
  -2   3  -2  391.66   63.89
  -1  -2  -2  436.16   56.49
   2  -3   2  345.77   60.69
  -3   1   2  332.97   54.99
   1   2   2  409.26   53.09
  -3  -1  -2  811.92   83.59
   4  -3  -2  806.82   89.79
   1  -4   2  794.92   94.79
   3   1   2  740.23   84.79
   1  -4   2  853.21   94.49
  -4   3   2  830.12   87.59
  -3   2  -2  349.47   49.10
   2   1  -2  341.67   57.09
   1  -3  -2  350.36   60.49
  -1   3   2  418.46   59.09
   3  -2   2  365.26   53.29
  -2  -1   2  399.66   52.59
   5  -2  -2  105.49   40.20
  -2  -3  -2   70.79   43.10
  -3   5  -2    2.70   43.00
  -5   2   2  118.79   39.00
   2   3   2   95.89   43.30
   3  -5   2   28.80   44.30
  -4  -2  -2   67.09   42.60
   6  -4  -2  250.17   52.29
   2  -6   2   83.29   49.90
   4   2   2  107.69   45.40
   2  -6   2  109.69   53.39
  -6   4   2  145.39   46.70
   3  -4  -2  885.01   93.79
   1   3  -2  823.92   95.69
  -4   1  -2  799.02   81.39
  -3   4   2  891.81   94.79
  -1  -3   2  764.72   93.89
   4  -1   2  810.62   82.59
   4   0  -2 2174.08  200.78
  -4   4  -2 2459.25  204.78
   0  -4  -2 2324.57  207.98
   0  -4  -2 2410.86  206.38
   4  -4   2 2370.86  195.78
  -4   0   2 2099.39  192.88
  -3  -4  -2  335.97   66.59
  -4   7  -2  491.65   87.59
   7  -3  -2  448.76   67.09
  -7   3   2  446.26   72.99
   4  -7   2  453.25   82.29
   3   4   2  450.35   80.79
   8  -5  -2 2225.78  198.98
  -5  -3  -2 2102.59  200.98
   3  -8   2 1956.00  197.58
   5   3   2 2257.97  196.58
  -8   5   2 2185.18  193.18
   3  -8   2 1905.81  203.08
   5  -5  -2 1214.28  139.09
  -5   0  -2 1296.57  119.69
   5   0   2 1410.76  131.59
   0  -5   2 1512.25  142.79
   0  -5   2 1513.35  142.39
  -5   5   2 1314.57  138.29
  -5   3  -2   92.99   36.80
   2  -5  -2   41.00   46.50
   3   2  -2   45.90   41.40
  -2   5   2   85.09   46.60
  -3  -2   2  100.19   41.60
   5  -3   2  128.89   39.60
   6  -1  -2  483.45   77.59
  -1  -5  -2  581.94   85.69
  -1  -5  -2  508.95   88.39
  -5   6  -2  553.94   86.99
  -6   1   2  592.84   78.69
   5  -6   2  572.24   86.69
  -4  -5  -2  499.35   93.99
   9  -4  -2  620.74   90.89
   5  -9   2  536.95   97.79
   4   5   2  527.95   99.29
  -9   4   2  688.33   92.29
  -6  -4  -2   63.99   64.89
  10  -6  -2   17.50   60.09
   6   4   2   -6.40   59.69
 -10   6   2    8.60   51.89
   4 -10   2  -67.19   52.29
   4 -10   2   81.29   63.29
   7  -6  -2  108.99   61.79
  -6  -1  -2  113.39   44.30
   1  -7   2   -5.90   53.19
   6   1   2   65.89   45.70
  -7   6   2  -45.20   46.10
   1  -7   2  -14.20   55.19
  -6   2  -2   98.59   40.30
   2   4  -2  166.18   53.99
   4  -6  -2   47.80   50.09
  -4   6   2   91.69   51.19
  -2  -4   2   78.09   46.30
   6  -2   2  113.09   40.60
   1  -6  -2  523.25   95.19
   5   1  -2  553.34   84.99
   1  -6  -2  669.33   91.09
  -6   5  -2  694.73   86.09
  -5  -1   2  528.85   80.39
   6  -5   2  619.54   84.39
  -6   8  -2  107.79   73.99
  -2  -6  -2   52.39   55.19
  -2  -6  -2  182.58   64.99
   8  -2  -2  126.29   86.89
  -8   2   2  151.68   53.59
   6  -8   2  121.89   58.49
  -5  -6  -2  -32.00   69.49
  11  -5  -2   75.09   66.99
   6 -11   2  106.79   84.19
 -11   5   2  -41.10   59.79
   6 -11   2   78.49   72.39
  12  -7  -2  182.48   82.79
  -7  -5  -2   17.70   84.39
   7   5   2   78.89   86.69
   5 -12   2    3.10   90.39
   5 -12   2  202.48   82.69
 -12   7   2  120.29   68.59
  -7  -2  -2  427.96   78.49
   9  -7  -2  381.46   85.39
  -9   7   2  191.98   67.09
   2  -9   2  292.77   79.59
   2  -9   2  263.47   76.39
   7   2   2  332.57   73.49
   6  -7  -2   44.70   57.19
  -7   1  -2   78.69   41.90
  -1  -6   2   11.20   50.19
   7  -1   2   36.20   44.70
  -6   7   2  -20.30   51.89
   4   3  -2  475.55   78.49
  -7   4  -2  454.25   72.29
   3  -7  -2  419.46   74.49
   7  -4   2  487.75   69.09
  -3   7   2  306.47   71.29
  -4  -3   2  416.66   70.79
   0  -7  -2  570.04   88.69
  -7   7  -2  565.34   89.09
   0  -7  -2  404.36   85.89
   7  -7   2  457.75   79.89
  -7   0   2  493.25   80.69
  10  -3  -2  142.19   59.79
  -3  -7  -2  -47.20   69.99
  -7  10  -2  -75.99   63.29
  -3  -7  -2 -105.19   56.09
   7 -10   2 -113.69   57.99
 -10   3   2   23.30   52.49
  -6  -7  -2   53.89   95.29
  -6  -7  -2  163.38   96.99
  13  -6  -2   53.69   76.29
   7 -13   2   77.79   98.29
 -13   6   2   56.09   72.29
   7 -13   2   33.50   84.79
  -8  -6  -2  285.07  109.09
  14  -8  -2  415.36  106.79
 -14   8   2  246.48   86.29
   6 -14   2  107.09   86.89
  -8  -3  -2  131.09   79.79
  11  -8  -2  154.08   82.29
   8   3   2   85.19   71.39
   3 -11   2  -78.19  109.59
 -11   8   2   18.30   64.59
   3 -11   2  -65.69   70.39
  -8   0  -2 1793.32  170.58
   8  -8  -2 1813.22  183.78
   0  -8   2 1613.94  174.88
  -8   8   2 1657.93  175.18
   0  -8   2 1816.42  178.78
   8   0   2 1807.72  170.38
  -8   3  -2 2115.49  191.78
   3   5  -2 2453.15  208.28
   5  -8  -2 1888.11  200.58
  -3  -5   2 1866.81  178.58
  -5   8   2 1500.05  197.18
   8  -3   2 1941.11  169.38
   2  -8  -2   31.30   56.89
   6   2  -2  101.59   56.69
   2  -8  -2   11.00   54.09
  -8   6  -2   17.90   50.69
  -6  -2   2   91.49   54.09
   8  -6   2  133.69   61.29
   9  -1  -2  578.34   96.69
  -1  -8  -2  612.54  101.99
  -1  -8  -2  382.16   90.09
  -8   9  -2  630.14  104.79
   8  -9   2  530.75   91.79
  -9   1   2  484.15   86.79
  12  -4  -2  340.27   88.39
  -4  -8  -2  495.35  108.09
  -4  -8  -2  380.66  110.29
   8 -12   2  292.17   91.69
   8 -12   2  289.97  100.19
 -12   4   2  519.75  122.79
  -7  -8  -2 -100.99  102.99
  15  -7  -2   23.10   87.79
  -7  -8  -2   34.00  114.59
 -15   7   2   -3.20   74.29
   8 -15   2  -72.89   85.89
  -9  -4  -2   22.30   93.39
  13  -9  -2   61.49   99.89
   4 -13   2  -60.09   84.99
   4 -13   2   53.69   83.79
 -13   9   2   26.90   76.99
   9   4   2  159.18   89.09
  -9  -1  -2   31.30   65.39
  10  -9  -2  134.19   81.39
   1 -10   2   89.59   72.09
   1 -10   2   77.29   78.99
 -10   9   2   -7.00   61.79
   9   1   2  -16.60   65.79
   7  -9  -2  270.37   79.89
  -9   2  -2  467.05   69.09
  -2  -7   2  191.28   68.29
   9  -2   2  433.76   67.49
  -7   9   2  192.28   72.29
  -2  -7   2  385.16   86.99
  -9   5  -2  642.64   86.59
   4  -9  -2  515.05   96.39
   5   4  -2  726.83  102.49
  -4   9   2  585.04  102.99
   9  -5   2  581.64   87.09
  -5  -4   2  638.14  101.59
   1  -9  -2  275.97   86.89
   8   1  -2  540.45   89.29
   1  -9  -2  675.73   99.39
  -9   8  -2  440.76   87.89
   9  -8   2  630.04  109.09
  -8  -1   2  746.73  107.59
  -2  -9  -2 -121.39   73.79
  11  -2  -2   10.80   67.89
  -9  11  -2  -33.10   72.99
  -2  -9  -2  -42.30   76.59
   9 -11   2  -22.20   75.19
 -11   2   2  -45.60   62.99
  -5  -9  -2  114.19  107.89
  -5  -9  -2  -16.50  108.89
  14  -5  -2  -35.70   75.69
 -14   5   2  -26.10   70.69
   9 -14   2  -71.79   81.89
   9 -14   2  152.48  114.69
  15 -10  -2  -40.50  100.89
 -10  -5  -2   79.99  108.39
  10   5   2   86.99   92.39
   5 -15   2  -26.00   85.59
 -15  10   2   -5.50   90.29
  12 -10  -2  -40.60   89.99
 -12  10   2  -33.70   75.09
  10   2   2  -86.29   72.29
   2 -12   2   -5.50   75.99
   2 -12   2   90.99   87.79
   9 -10  -2  -81.59   67.99
 -10   1  -2  108.39   59.99
  -1  -9   2  192.88   81.09
  -1  -9   2   13.30   66.69
  -9  10   2   14.70   71.99
  10  -1   2   98.69   63.19
 -10   4  -2  -33.90   46.60
   6 -10  -2  -71.39   54.09
   4   6  -2  -15.70   65.29
  -6  10   2   47.10   59.49
  -4  -6   2   -1.30   62.69
  10  -4   2   94.49   56.69
   3 -10  -2   31.60   66.69
   3 -10  -2 -170.78   54.79
 -10   7  -2  118.99   61.79
   7   3  -2  -13.50   55.89
  10  -7   2   20.80   62.09
  -7  -3   2  -36.40   60.59
  10   0  -2  357.76   85.29
   0 -10  -2  148.39   82.59
 -10  10  -2  156.48   84.29
   0 -10  -2  212.48   87.49
 -10   0   2  441.66   88.89
  10 -10   2  153.38   92.59
  13  -3  -2  -68.29   71.69
 -10  13  -2   72.79   94.99
  -3 -10  -2   59.09  112.19
  -3 -10  -2  -77.89   94.79
 -13   3   2  229.68   80.59
  10 -13   2  -21.80   85.79
 -11  -3  -2  -25.20   95.09
  14 -11  -2 -148.09  103.69
   3 -14   2 -115.99   78.59
 -14  11   2   96.39   91.19
  11   3   2  -14.50   83.19
  11 -11  -2  -42.00  138.79
 -11   0  -2  -38.50   63.39
   0 -11   2  141.79   93.59
   0 -11   2  -82.29  124.89
  11   0   2  -19.50   71.29
 -11  11   2  100.99   80.89
 -11   3  -2   19.90   60.89
   8 -11  -2  -90.59   67.39
  11  -3   2  -18.80   57.79
  -3  -8   2   54.99   65.39
  -8  11   2   31.40   71.09
  -3  -8   2  -22.20   79.59
   5 -11  -2   64.59   73.99
   5 -11  -2   35.20   66.39
 -11   6  -2   72.89   55.49
   6   5  -2  -13.90   71.29
  11  -6   2  137.59   62.49
  -6  -5   2  -79.09   69.19
 -11   9  -2  -73.89   70.79
   9   2  -2   79.89   78.69
   2 -11  -2  -33.70   77.89
   2 -11  -2  116.39   77.69
  -9  -2   2   29.70   82.59
  11  -9   2   49.70   90.09
 -11  12  -2  135.19   87.99
  -1 -11  -2  103.69   99.19
  -1 -11  -2  210.98  102.29
  12  -1  -2   93.99   77.49
  11 -12   2  -76.99   94.29
 -12   1   2    7.30   71.99
  -4 -11  -2  124.59  125.19
  15  -4  -2  106.69   80.59
  11 -15   2  176.98  109.49
 -15   4   2   35.10   76.09
  13 -12  -2  288.57  123.69
 -12  -1  -2   88.19   82.29
  12   1   2  322.97   89.29
 -13  12   2   20.30  101.49
   1 -13   2  152.38  100.39
 -12   2  -2  -47.50   61.29
  10 -12  -2   30.10   86.39
 -10  12   2   72.09   82.29
  12  -2   2  342.07   77.79
  -2 -10   2   93.09   84.19
  -2 -10   2  -63.49   90.59
   7 -12  -2   49.10   72.49
 -12   5  -2   84.09   63.69
   5   7  -2  206.88   86.09
  -7  12   2  102.69   78.09
  -5  -7   2   44.70   84.09
  12  -5   2  140.69   72.99
   8   4  -2  579.44  106.69
   4 -12  -2   75.69   93.99
   4 -12  -2  183.88   80.29
 -12   8  -2  258.17   82.49
  -8  -4   2  552.44  113.89
  12  -8   2  541.45  107.39
   1 -12  -2   50.09   84.79
   1 -12  -2  -58.49   82.19
  11   1  -2  106.29   81.59
 -12  11  -2   88.59   90.39
 -11  -1   2   -0.60   85.39
  12 -11   2  261.37  139.49
 -12  14  -2  215.18  196.28
  -2 -12  -2  181.68  114.89
  14  -2  -2   81.19   79.29
  12 -14   2 -120.19  102.49
 -14   2   2  -45.70   77.19
  12 -13  -2  156.48  111.59
 -13   1  -2  120.49  124.89
  13  -1   2  352.86   87.89
 -12  13   2  253.97  109.39
  -1 -12   2  194.58  163.28
  -1 -12   2  343.07  120.29
 -13   4  -2  130.79   67.39
   9 -13  -2  113.59   86.29
  -9  13   2  236.18   96.19
  13  -4   2   58.09   65.19
  -4  -9   2   -1.40  100.79
  -4  -9   2   41.50   88.79
   6 -13  -2    0.00   80.59
 -13   7  -2  114.39   74.29
   7   6  -2   32.00   88.39
   6 -13  -2   86.89   89.59
  -7  -6   2    0.60   85.59
  13  -7   2   29.20   77.69
   3 -13  -2   38.50   87.89
 -13  10  -2   17.70   78.49
   3 -13  -2  230.28   88.39
  10   3  -2   84.89   81.59
 -10  -3   2  -19.10  103.79
  13 -10   2   83.69   99.59
 -13  13  -2  -24.00   94.69
  13   0  -2  178.68   89.79
   0 -13  -2  -22.30   98.99
 -13   0   2  147.19   89.09
  13 -13   2  -12.70  109.99
  11 -14  -2  -87.79   95.29
  -3 -11   2  194.98  118.49
  -3 -11   2  124.19  108.79
  14  -3   2    3.00   68.89
   8 -14  -2  110.19   88.79
 -14   6  -2  181.98   78.99
   8 -14  -2   53.79  131.69
  -6  -8   2   72.89  101.59
  -6  -8   2  329.07  127.89
  14  -6   2  260.67   85.29
 -14   9  -2 -109.89   71.19
   5 -14  -2   38.40   83.79
   9   5  -2   79.89   99.29
  14  -9   2   46.40   91.39
  -9  -5   2   45.50  107.79
 -14  12  -2  -13.10  151.68
   2 -14  -2  120.99   97.39
  12   2  -2  -20.90   80.79
 -12  -2   2   82.99   98.09
  14 -12   2  -33.90  115.89
 -15   5  -2   41.90   67.99
  10 -15  -2   38.50   97.99
  -5 -10   2   14.40  109.19
  15  -5   2  -40.70   72.69
  -5 -10   2   18.00  115.09
   7 -15  -2   27.60   85.99
   8   7  -2  -73.19   87.49
 -15   8  -2   16.00   83.59
  -8  -7   2  119.99  121.19
  15  -8   2  -39.40   86.39
 -15  11  -2   -5.00   97.49
  11   4  -2   87.39  151.18
   4 -15  -2   88.69  106.89
 -11  -4   2  -10.80  118.49
  15 -11   2   78.29  109.19
   2  -1  -3 2334.47  185.88
  -1  -1  -3 2131.29  184.58
  -1  -1  -3 2106.69  183.78
  -1   2  -3 2392.26  187.18
  -2   1   3 2623.44  209.98
   1  -2   3 2442.66  211.28
   1  -2  -3 2552.54  197.38
   1   1  -3 2251.87  196.28
  -2   1  -3 2303.17  192.28
  -1   2   3 2383.56  199.18
   2  -1   3 2433.36  194.48
  -1  -1   3 2324.47  198.38
  -2  -2  -3  522.55   71.29
   4  -2  -3  551.54   69.89
   2  -4   3  519.15   80.69
   2  -4   3  613.04   80.69
  -4   2   3  622.14   74.09
   2   2   3  517.05   71.89
   3  -3  -3   38.20   41.30
   0   3  -3  -89.29   40.40
  -3   0  -3  -13.40   24.90
  -3   3   3  -81.79   35.30
   3   0   3  -33.20   25.60
   0  -3   3  -42.50   39.20
   3   0  -3  -10.00   34.60
   0  -3  -3    5.10   40.30
  -3   3  -3  -11.70   33.80
   0   3   3    7.50   41.40
   3  -3   3   39.00   37.10
  -3   0   3    6.70   35.70
  -3  -3  -3 1525.25  139.49
   6  -3  -3 1399.76  137.39
   3  -6   3 1527.75  150.78
   3   3   3 1353.56  145.09
   3  -6   3 1578.94  148.19
  -6   3   3 1545.05  140.99
   5  -4  -3  654.73   83.39
  -4  -1  -3  625.64   72.99
  -5   4   3  721.83   81.29
   1  -5   3  626.24  117.79
   4   1   3  597.54   76.69
   1  -5   3  596.64   88.09
  -4   2  -3  582.64   62.49
   2  -4  -3  516.05   77.39
   2   2  -3  466.95   76.89
  -2   4   3  629.84   81.29
   4  -2   3  597.54   65.99
  -2  -2   3  597.24   77.59
  -1  -4  -3  340.17   59.39
   5  -1  -3  300.87   49.99
  -1  -4  -3  177.48   55.09
  -4   5  -3  247.98   55.89
  -5   1   3  289.47   52.69
   4  -5   3  313.97   57.79
   8  -4  -3  -20.20   51.79
  -4  -4  -3   74.19   51.69
   4  -8   3  -40.60   56.49
  -8   4   3   61.69   54.59
   4  -8   3 -100.99   98.09
   4   4   3  109.99   59.49
  -5  -2  -3 1069.59  111.09
   7  -5  -3  993.90  116.99
   5   2   3  977.70  107.59
   2  -7   3  903.81  123.59
  -7   5   3 1118.89  110.59
   2  -7   3  831.92  115.99
  -5   1  -3  637.64   70.89
   1   4  -3  663.13   88.79
   4  -5  -3  662.63   88.79
  -4   5   3  705.03   86.39
   5  -1   3  649.34   73.69
  -1  -4   3  660.93   88.59
   1  -5  -3  284.87   66.59
   4   1  -3  227.28   49.40
  -5   4  -3  136.39   45.90
  -4  -1   3  182.88   47.50
   5  -4   3  292.27   52.79
  -1   5   3  318.57   61.29
  -5   7  -3 1011.00  118.59
  -2  -5  -3  998.90  118.89
   7  -2  -3  952.20  111.79
  -2  -5  -3 1029.10  118.19
   5  -7   3  978.20  111.99
  -7   2   3  971.30  107.29
  10  -5  -3  105.49   61.29
  -5  -5  -3   10.60   62.39
   5 -10   3   -3.30   61.69
   5   5   3   65.49   63.69
 -10   5   3   56.89   56.69
   5 -10   3  101.29   65.29
  -6  -3  -3  652.53   98.29
   9  -6  -3  590.24   96.59
   6   3   3  591.94   91.59
   3  -9   3  356.46   87.69
  -9   6   3  558.74   87.79
   3  -9   3  485.15   88.19
  -6   0  -3   37.30   37.20
   6  -6  -3   41.40   56.89
   6   0   3  -46.60   39.20
  -6   6   3   33.80   49.10
   0  -6   3   78.79   59.19
   0  -6   3  -48.80   48.20
  -6   3  -3 1499.15  137.49
   3  -6  -3 1649.44  148.39
   3   3  -3 1407.36  147.49
  -3   6   3 1434.16  150.98
  -3  -3   3 1543.05  149.09
   6  -3   3 1610.04  138.89
   0  -6  -3  -23.80   49.10
   6   0  -3   -1.10   46.90
   0  -6  -3   -3.70   53.49
  -6   6  -3   26.80   45.80
  -6   0   3   11.00   43.80
   6  -6   3  -43.50   47.70
  -6   9  -3  168.18   70.89
  -3  -6  -3   87.59   63.69
  -3  -6  -3  191.08   73.19
   9  -3  -3  182.08   63.79
   6  -9   3   92.19   64.29
  -9   3   3  283.87   63.99
  12  -6  -3  212.68   80.79
  -6  -6  -3  150.98   87.99
   6 -12   3   63.19   85.19
 -12   6   3  171.48   71.89
   6 -12   3   86.99   72.79
  -7  -4  -3   43.80   77.99
  11  -7  -3  -22.60   69.39
   7   4   3  -33.50   70.19
   4 -11   3  -20.30   70.69
   4 -11   3   -6.00   71.29
 -11   7   3  -36.40   53.19
  -7  -1  -3  -11.80   50.99
   8  -7  -3   -0.60   60.59
   7   1   3   21.00   50.49
  -8   7   3  -60.89   47.10
   1  -8   3    1.40   54.69
   1  -8   3 -109.09   55.99
  -7   2  -3  879.61   93.29
   5  -7  -3  740.03  106.49
   2   5  -3  931.91  113.49
  -5   7   3  962.40  115.69
   7  -2   3  968.70  104.19
  -2  -5   3 1020.50  114.29
   5   2  -3  990.90  110.89
  -7   5  -3 1054.69  109.69
   2  -7  -3  817.32  114.79
   7  -5   3 1076.29  110.19
  -5  -2   3  831.02  107.49
  -1  -7  -3   56.49   59.59
  -1  -7  -3   -2.80   59.89
   8  -1  -3  158.28   55.49
  -7   8  -3  -81.79   66.69
   7  -8   3   21.50   60.09
  -8   1   3  105.39   47.90
  -4  -7  -3  -49.90   77.79
  -4  -7  -3 -116.79   68.09
  11  -4  -3   22.50   65.19
   7 -11   3  -30.90   72.79
   7 -11   3   83.59   70.19
 -11   4   3    4.70   64.29
  -7  -7  -3  272.77  117.79
  -7  -7  -3  234.28  109.39
  14  -7  -3  141.79   95.49
   7 -14   3   -6.90   88.89
   7 -14   3  137.89  146.29
 -14   7   3   99.49   79.19
  13  -8  -3   98.49   86.89
  -8  -5  -3  -20.40   87.89
   8   5   3  -21.40   76.89
   5 -13   3   -2.60   80.69
   5 -13   3    1.20   92.79
 -13   8   3   -2.80   69.69
  -8  -2  -3   78.39   67.19
  10  -8  -3  310.67   85.99
   2 -10   3  152.08   74.99
   8   2   3  109.59   62.99
 -10   8   3  -33.50   63.29
   2 -10   3   13.80   65.69
  -8   1  -3   46.00   45.40
   7  -8  -3  -14.10   59.79
  -1  -7   3   -4.40   51.09
   8  -1   3  151.48   48.70
  -7   8   3   -0.10   57.89
  -1  -7   3   25.50   67.19
  -8   4  -3   33.70   44.20
   4   4  -3   16.80   54.99
   4  -8  -3  -15.40   55.79
  -4   8   3   20.90   56.59
  -4  -4   3   60.99   55.69
   8  -4   3   90.09   48.10
   7   1  -3  143.79   55.19
   1  -8  -3    5.70   57.49
  -8   7  -3   45.60   54.09
   1  -8  -3   57.79   58.79
  -7  -1   3   76.49   56.09
   8  -7   3  167.08   63.79
  -8  10  -3  -40.40   64.69
  10  -2  -3   -0.90   56.59
  -2  -8  -3   -3.70   64.29
  -2  -8  -3   72.99   71.99
 -10   2   3  118.69   59.89
   8 -10   3  -19.80   64.59
  -5  -8  -3   25.40   91.19
  13  -5  -3  304.67   82.59
  -5  -8  -3  118.99   98.89
 -13   5   3   25.10   74.39
   8 -13   3   61.09   84.39
   8 -13   3   70.09  100.19
  15  -9  -3   77.89  117.19
  -9  -6  -3   74.99  110.79
  -9  -6  -3  139.29  103.69
   6 -15   3  -15.20   88.19
 -15   9   3    0.90   89.59
  -9  -3  -3  230.88  145.29
  12  -9  -3   90.69   90.79
   3 -12   3  -39.20   78.29
   9   3   3  119.39   76.99
 -12   9   3  151.78   80.59
   3 -12   3   78.69  128.59
   9  -9  -3  -22.50   69.59
  -9   0  -3   49.80   52.79
   0  -9   3  -53.99   67.89
  -9   9   3    2.10   59.89
   9   0   3  -93.29   52.29
   0  -9   3   89.49   68.49
  -9   3  -3  612.74   86.69
   3   6  -3  665.63  108.49
   6  -9  -3  574.54  100.09
  -3  -6   3  567.84   95.69
  -6   9   3  402.96   88.89
   9  -3   3  764.32   88.89
   3  -9  -3  106.69   61.29
   3  -9  -3  183.48   67.29
   6   3  -3  292.97   69.89
  -9   6  -3   65.99   54.19
  -6  -3   3  106.19   60.89
   9  -6   3  381.66   71.39
   9   0  -3  -71.49   58.69
  -9   9  -3   68.09   67.29
   0  -9  -3 -120.29   64.19
   0  -9  -3   25.80   66.39
  -9   0   3  -38.30   51.59
   9  -9   3   58.59   68.09
  -9  12  -3  172.58   94.39
  -3  -9  -3  240.38  101.59
  -3  -9  -3  -23.50   78.39
  12  -3  -3  134.89   73.49
 -12   3   3  143.29   78.79
   9 -12   3   13.40   82.29
  -6  -9  -3   33.90  111.09
  15  -6  -3  -22.30   81.19
  -6  -9  -3  181.98  113.89
 -15   6   3    0.40   75.99
   9 -15   3  138.29   98.99
  14 -10  -3  -91.49   92.99
 -10  -4  -3  -38.00  108.39
  10   4   3  -11.80   83.39
   4 -14   3  149.79   91.99
 -14  10   3   98.99   88.79
 -10  -1  -3    8.40   70.59
  11 -10  -3   85.79   93.09
   1 -11   3   -3.80   78.49
  10   1   3  140.99   72.89
   1 -11   3    2.50   78.49
 -11  10   3  104.79   76.79
 -10   2  -3   91.59   54.09
   8 -10  -3   80.59   67.29
  -8  10   3    0.10   60.29
  -2  -8   3   -0.90   59.49
  -2  -8   3  112.59   77.09
  10  -2   3   77.49   71.09
   5 -10  -3   67.89   63.19
 -10   5  -3  124.99   53.49
   5   5  -3   99.09   61.89
  -5  10   3   43.20   63.29
  10  -5   3   66.79   55.89
  -5  -5   3   72.59   65.39
   2 -10  -3   55.09   68.29
   2 -10  -3 -141.49   62.19
   8   2  -3   38.50   66.69
 -10   8  -3   30.20   63.29
  10  -8   3   21.20   71.79
  -8  -2   3   32.90   69.19
  11  -1  -3   65.29   73.19
 -10  11  -3   50.09   80.99
  -1 -10  -3  -29.00  152.28
  -1 -10  -3   41.70   84.89
  10 -11   3   85.69   84.39
  -4 -10  -3  -72.69  102.59
  -4 -10  -3   -7.20   91.49
  14  -4  -3   52.29   81.69
  10 -14   3 -118.19   87.19
 -14   4   3  -24.90   75.69
  10 -14   3  -19.80  110.99
 -11  -2  -3   55.99   85.99
  13 -11  -3  145.09  116.09
   2 -13   3   74.19  155.58
   2 -13   3  111.39   90.69
  11   2   3  181.28   84.29
 -13  11   3  143.49   94.09
  10 -11  -3   16.90  128.99
 -11   1  -3   45.20   62.19
 -10  11   3    4.40   76.59
  11  -1   3  108.29   62.89
  -1 -10   3  111.29   83.09
  -1 -10   3  103.69   86.49
   4   7  -3  -77.99   67.69
 -11   4  -3  -20.30   52.59
   7 -11  -3    1.40   66.69
  -7  11   3   24.80   67.09
  11  -4   3  -22.90   55.99
  -4  -7   3  -86.69   68.79
   4 -11  -3   69.79   78.79
   7   4  -3  -15.10   64.59
 -11   7  -3   35.30   63.69
   4 -11  -3   -4.00   67.79
  -7  -4   3   71.59   73.49
  11  -7   3   72.89   71.49
  10   1  -3   60.39   77.39
   1 -11  -3   70.99   80.69
 -11  10  -3   17.40   76.39
   1 -11  -3   62.69   78.69
 -10  -1   3  107.69   83.39
  11 -10   3  309.37  100.09
  -2 -11  -3   95.39  105.69
 -11  13  -3   81.59  105.19
  -2 -11  -3  288.97  114.89
  13  -2  -3   97.79   81.59
 -13   2   3  208.08   86.89
  11 -13   3  -46.30   95.29
 -12   0  -3 -117.69   64.59
  12 -12  -3  -60.69  104.79
   0 -12   3   74.89  101.39
  12   0   3  106.79   76.69
 -12  12   3  174.68  167.08
   0 -12   3   65.89  100.99
   9 -12  -3  155.78   85.69
 -12   3  -3  148.79   68.59
  12  -3   3  249.97   72.09
  -3  -9   3  199.48  107.69
  -9  12   3  103.69   87.99
  -3  -9   3   50.29   76.49
 -12   6  -3   29.00   63.79
   6 -12  -3  142.49   75.99
   6 -12  -3   87.19   80.19
   6   6  -3  243.48   88.49
  -6  -6   3  111.19   88.79
  12  -6   3  134.29   69.89
   3 -12  -3   47.10   80.39
   9   3  -3  185.98   87.99
 -12   9  -3   32.10   75.49
  12  -9   3  -69.59   84.19
  -9  -3   3  105.19   91.79
 -12  12  -3  170.18   99.99
   0 -12  -3  -85.29   94.89
  12   0  -3    2.60   78.09
   0 -12  -3  -24.00   86.79
 -12   0   3   41.90   79.09
  12 -12   3  -37.20   97.39
 -13   2  -3   97.59   66.29
  11 -13  -3   78.39  100.79
 -11  13   3  -10.90   86.49
  13  -2   3  229.78   74.89
  -2 -11   3  287.97  114.59
  -2 -11   3    8.60   87.29
 -13   5  -3    6.10   62.39
   8 -13  -3  -24.30   75.19
  -8  13   3  -18.10   86.39
  -5  -8   3  -54.89   84.79
  13  -5   3 -130.09   62.39
   8   5  -3  149.09   89.79
   5 -13  -3   82.79   88.29
   5 -13  -3   59.09   86.19
 -13   8  -3  193.08   79.39
  13  -8   3  286.97   90.89
  -8  -5   3  124.49   99.29
  11   2  -3  207.88   95.59
   2 -13  -3   63.29  103.79
 -13  11  -3   63.89   93.99
   2 -13  -3  288.47  101.29
 -11  -2   3  205.88  103.39
 -14   4  -3   69.99   69.89
  10 -14  -3   23.00   90.79
  -4 -10   3  216.58  117.69
  14  -4   3  140.59   73.39
  -4 -10   3   34.80   97.49
 -14   7  -3   62.39   76.79
   7 -14  -3  108.09   80.99
   7   7  -3  350.06  108.19
  14  -7   3  146.19   86.49
  -7  -7   3  258.27  116.09
   4 -14  -3  -10.60   89.59
 -14  10  -3    3.50   86.19
  10   4  -3  -13.40   90.69
 -10  -4   3 -127.69  107.59
  14 -10   3  -16.00  100.59
   9 -15  -3  -44.10   90.09
 -15   6  -3   59.49   71.49
  -6  -9   3   -4.30  116.89
  -6  -9   3   39.10  115.29
  15  -6   3   82.79   77.39
   9   6  -3   14.30  105.89
   6 -15  -3   61.59   87.39
 -15   9  -3   84.39   85.79
  15  -9   3   44.50   97.59
  -9  -6   3   55.19  112.79
   0   1  -4 3095.29  254.07
   1  -1  -4 3127.39  254.17
  -1   1   4   10.30   14.70
   0  -1   4    6.40   14.10
   3  -2  -4 6134.09  510.35
  -1   3  -4 6394.86  513.55
  -3   2   4 6154.88  495.45
   1  -3   4 6412.56  498.15
   2   1   4 5696.33  492.65
  -2   2  -4 2618.44  223.48
   2   0  -4 2614.64  224.68
   0  -2  -4 2861.71  225.28
   0   2   4 2853.21  226.58
   2  -2   4 2534.85  224.18
  -2   0   4 2758.92  226.18
  -3  -2  -4  219.18   43.20
   5  -3  -4  242.88   49.70
   2  -5   4  157.28   51.09
   3   2   4  173.58   46.70
   2  -5   4  291.87   58.29
  -5   3   4  288.47   52.99
  -3   1  -4 6130.19  511.95
   2  -3  -4 6433.76  518.75
   1   2  -4 6510.95  519.35
  -2   3   4 6337.37  487.85
   3  -1   4 5605.44  480.45
  -1  -2   4 6004.40  487.05
  -3   4  -4  500.35   71.59
  -1  -3  -4  485.85   70.79
   4  -1  -4  502.85   71.39
  -1  -3  -4  438.56   70.19
  -4   1   4  391.26   64.99
   3  -4   4  427.66   69.79
   7  -4  -4 1037.20  110.39
  -4  -3  -4  885.11  110.19
   3  -7   4 1131.69  123.29
  -7   4   4  948.71  110.99
   4   3   4  972.70  114.29
   3  -7   4 1005.50  117.79
  -4   0  -4 2995.00  268.87
   0   4  -4 3565.74  281.77
   4  -4  -4 3377.86  278.27
   4   0   4 2985.10  264.87
   0  -4   4 3487.15  275.67
  -4   4   4 3250.47  271.77
   1  -4  -4  388.16   70.79
   3   1  -4  465.55   63.69
  -4   3  -4  454.35   63.69
  -3  -1   4  352.06   61.99
   4  -3   4  394.06   60.89
  -1   4   4  559.44   76.29
  -2  -4  -4   35.70   50.49
   6  -2  -4   45.20   45.70
  -4   6  -4   33.60   48.50
  -2  -4  -4   71.49   47.10
  -6   2   4   75.19   40.00
   4  -6   4  -20.90   44.20
  -5  -4  -4  691.73  109.99
   9  -5  -4  944.41  108.89
   4  -9   4  869.81  110.79
  -9   5   4  809.02  103.09
   4  -9   4  649.54  114.29
   5   4   4  725.53  111.99
   6  -5  -4  215.78   61.59
  -5  -1  -4  262.07   47.00
   1  -6   4  213.38   59.89
  -6   5   4  228.98   53.59
   5   1   4  260.17   50.39
   1  -6   4  207.18   59.59
  -5   2  -4  232.58   40.00
   2   3  -4  189.38   53.29
   3  -5  -4  246.58   52.69
  -3   5   4  242.28   54.29
   5  -2   4  340.27   45.80
  -2  -3   4  229.68   51.39
   0  -5  -4 3590.24  313.77
  -5   5  -4 3702.53  310.27
   0  -5  -4 3772.52  320.17
   5   0  -4 3536.25  307.77
   5  -5   4 4040.30  320.37
  -5   0   4 3551.94  318.77
   8  -3  -4  245.38   60.59
  -3  -5  -4  277.27   67.39
  -3  -5  -4   70.99   61.69
   5  -8   4  128.79   61.19
  -8   3   4  205.38   59.69
  -6  -5  -4   51.49   73.39
  11  -6  -4   27.00   67.29
   5 -11   4   -2.90   67.79
   5 -11   4   84.89   83.99
 -11   6   4  135.89   63.09
   6   5   4  -17.10   65.59
  -6  -2  -4  615.34   85.59
   8  -6  -4  586.74   96.79
   6   2   4  502.85   76.59
  -8   6   4  338.07   67.89
   2  -8   4  535.35   87.89
   2  -8   4  471.05   84.29
   1   5  -4  183.58   61.79
  -6   1  -4  298.27   45.70
   5  -6  -4  223.18   57.99
   6  -1   4  210.18   43.30
  -1  -5   4  292.57   62.79
  -5   6   4  118.79   53.39
   2  -6  -4  -30.80   45.10
  -6   4  -4   68.79   40.70
   4   2  -4   52.29   43.40
  -4  -2   4  -36.60   40.30
  -2   6   4  -56.39   44.50
   6  -4   4   -1.70   39.30
  -1  -6  -4  281.57   72.09
  -1  -6  -4  310.67   68.79
  -6   7  -4  269.47   69.89
  -7   1   4  285.97   57.99
   6  -7   4  257.97   65.49
  10  -4  -4  257.07   69.19
  -4  -6  -4  187.08   78.69
  -4  -6  -4  102.89   64.59
   6 -10   4  178.88   80.29
   6 -10   4  172.28   70.49
 -10   4   4  205.58   65.19
  -7  -6  -4  138.49   99.69
  13  -7  -4   -5.60   82.39
  -7  -6  -4   10.20   91.29
   6 -13   4  218.88  103.69
   6 -13   4  168.38   85.59
 -13   7   4  -96.69   67.89
  10  -7  -4   23.10   67.29
  -7  -3  -4   76.89   63.89
   3 -10   4   80.09   69.19
 -10   7   4   23.10   53.39
   3 -10   4  -16.30   63.59
   7   3   4   98.59   64.49
   7  -7  -4  317.97   75.39
  -7   0  -4  376.76   65.59
   7   0   4  263.67   54.49
   0  -7   4  516.85   88.09
  -7   7   4  265.27   66.69
   0  -7   4  338.17   75.29
   4  -7  -4 1046.60  118.79
   3   4  -4  803.72  114.89
  -7   3  -4 1070.09  100.79
   7  -3   4 1177.88  107.89
  -3  -4   4  964.40  122.29
  -4   7   4 1041.50  123.89
   1  -7  -4  230.58   71.89
  -7   6  -4  266.67   64.79
   1  -7  -4  214.98   65.69
   6   1  -4  243.78   62.69
  -6  -1   4  313.47   63.59
   7  -6   4  270.67   65.09
  -7   9  -4   18.20   57.79
  -2  -7  -4   58.09   66.89
  -2  -7  -4   90.89   64.79
   9  -2  -4   28.20   53.99
   7  -9   4  -16.00   55.99
  -9   2   4   40.70   50.19
  12  -5  -4   41.80   75.59
  -5  -7  -4  106.49   81.89
  -5  -7  -4   98.49   85.59
 -12   5   4   55.09   66.59
   7 -12   4  204.98   96.89
   7 -12   4  -50.39   73.99
  15  -8  -4    4.90  101.79
  -8  -7  -4  121.39  115.79
 -15   8   4  118.09   87.49
   7 -15   4  135.79  101.09
  -8  -4  -4  108.49   89.99
  12  -8  -4  195.18   86.59
   8   4   4   58.99   75.89
 -12   8   4   41.20   70.19
   4 -12   4  165.28   98.29
   4 -12   4   73.59   77.49
   9  -8  -4  810.22  131.29
  -8  -1  -4 1136.19  122.19
   1  -9   4  788.92  116.69
   1  -9   4  734.43  115.79
  -9   8   4  842.72  115.59
  -8   2  -4  455.55   69.69
   2   6  -4  370.26   80.79
   6  -8  -4  452.05   80.29
  -6   8   4  396.46   76.99
   8  -2   4  518.05   72.39
  -2  -6   4  225.58  105.89
   3  -8  -4  192.68   61.69
   5   3  -4  193.68   64.99
  -8   5  -4  231.08   53.89
   8  -5   4   96.19   58.79
  -5  -3   4  151.58   55.89
  -3   8   4  147.09   61.69
   0  -8  -4 1140.59  139.79
   0  -8  -4 1010.40  133.49
  -8   8  -4 1066.99  149.49
   8   0  -4 1141.99  131.09
   8  -8   4 1154.98  134.59
  -8   0   4 1113.79  128.69
  -3  -8  -4   59.29   76.29
  -3  -8  -4  -22.40   78.89
  11  -3  -4  183.88   70.49
   8 -11   4   -0.50   69.59
 -11   3   4   33.20   74.99
  -6  -8  -4   -5.60  102.39
  14  -6  -4   67.39   85.89
 -14   6   4   75.19   81.39
   8 -14   4  122.89   89.69
   8 -14   4  151.58  122.89
  14  -9  -4  158.88  114.99
  -9  -5  -4   58.59  102.19
   5 -14   4  115.49   92.79
 -14   9   4   -9.00   78.99
  -9  -2  -4   20.50   74.49
  11  -9  -4  -34.20   84.59
   9   2   4  -64.69   64.39
   2 -11   4    4.40   78.69
 -11   9   4 -112.59   67.29
   2 -11   4  -22.90   76.89
   8  -9  -4  793.92  119.39
  -9   1  -4  835.82   97.59
   9  -1   4 1098.49  111.59
  -1  -8   4  890.41  131.69
  -8   9   4  679.03  124.09
  -1  -8   4 1063.19  133.19
   5  -9  -4  674.03  109.19
  -9   4  -4  900.01   97.39
   4   5  -4  818.92  112.39
  -5   9   4  839.02  117.49
   9  -4   4  919.41  102.29
   7   2  -4  -34.50   50.69
   2  -9  -4    9.60   59.99
  -9   7  -4   82.99   56.49
   2  -9  -4   41.80   57.79
  -7  -2   4  -26.30   54.59
   9  -7   4   21.60   61.69
  -1  -9  -4  116.99   74.89
  -9  10  -4  -48.60   64.09
  10  -1  -4   30.60   69.49
  -1  -9  -4  136.19   79.79
 -10   1   4   48.40   63.59
   9 -10   4   71.19   74.99
  -4  -9  -4  202.18   97.69
  -4  -9  -4  263.87  126.29
  13  -4  -4  344.07   87.79
   9 -13   4  231.08   92.79
   9 -13   4  233.78  118.29
 -13   4   4   69.89   82.39
  13 -10  -4  -58.89  141.99
 -10  -3  -4  -51.59   92.89
   3 -13   4  -67.89   82.09
  10   3   4   30.10   76.69
   3 -13   4   13.40   88.89
 -13  10   4  124.89   84.39
  10 -10  -4   57.09   84.29
 -10   0  -4  -57.09   57.09
  10   0   4   35.80   59.19
 -10  10   4  -22.90   64.49
   0 -10   4  -78.29   62.79
   7 -10  -4  107.39   66.89
 -10   3  -4    2.70   49.70
   3   7  -4   14.00   64.09
  -7  10   4  -36.10   64.59
  -3  -7   4   19.40   54.59
  10  -3   4  139.29   66.09
   6   4  -4  194.48   71.39
   4 -10  -4   48.50   61.59
 -10   6  -4  138.79   59.59
  10  -6   4  317.97   67.29
  -6  -4   4  105.19   66.59
   1 -10  -4  113.19   79.29
 -10   9  -4   85.69   68.99
   9   1  -4   65.29   73.49
   1 -10  -4  -77.79   66.59
  -9  -1   4 -119.59   69.49
  10  -9   4  153.38   80.59
  -2 -10  -4   65.39   89.09
  -2 -10  -4   81.79   96.89
  12  -2  -4   62.19   71.79
 -10  12  -4   -7.10   85.69
  10 -12   4 -109.49   78.09
 -12   2   4   -3.70   72.69
  -5 -10  -4   -2.50  118.79
  -5 -10  -4  211.78  127.99
  15  -5  -4   47.00   79.79
 -15   5   4  -11.40   77.29
  10 -15   4  110.29  100.19
 -11  -4  -4  -83.69  106.59
  15 -11  -4  -52.89  113.69
 -15  11   4   56.29   95.19
   4 -15   4   -7.20  110.39
  12 -11  -4  -39.50  106.99
 -11  -1  -4  -50.59   70.29
  11   1   4   45.80   69.19
   1 -12   4   62.79   85.09
 -12  11   4  139.09   85.39
   1 -12   4   43.70   92.49
   9 -11  -4   20.10   84.19
 -11   2  -4  -18.90   56.79
  -2  -9   4  104.99   85.79
  -2  -9   4   88.39   70.79
  11  -2   4   91.39   62.89
  -9  11   4  -27.60   74.19
 -11   5  -4    1.40   51.09
   6 -11  -4    4.80   64.09
   5   6  -4  -72.49   72.69
  -5  -6   4   -4.70   67.49
  11  -5   4   89.29   59.09
  -6  11   4   11.40   63.79
 -11   8  -4    6.50   66.89
   8   3  -4  126.39   73.99
   3 -11  -4  263.07  145.69
   3 -11  -4    1.20   66.29
  11  -8   4   47.50   78.49
  -8  -3   4  -21.80   71.59
   0 -11  -4   92.79   90.59
 -11  11  -4  109.79   89.29
   0 -11  -4  175.68   91.49
  11   0  -4  112.29   77.79
  11 -11   4  167.88   99.19
 -11   0   4  235.28   88.89
  -3 -11  -4  130.59  102.09
  -3 -11  -4  113.09  113.09
  14  -3  -4   83.19   86.79
  11 -14   4  177.28  122.69
  11 -14   4    5.50  101.89
 -14   3   4  157.38   84.19
  14 -12  -4   21.60  119.99
 -12  -2  -4  -39.40   82.19
 -14  12   4  118.49   99.19
  12   2   4  108.89   79.59
   2 -14   4   27.10   95.39
  11 -12  -4   18.80   94.19
 -12   1  -4   33.40   63.79
  -1 -11   4  115.69   99.29
 -11  12   4  200.28  136.89
  12  -1   4   73.89   67.59
  -1 -11   4   39.60   82.59
 -12   4  -4  110.69   60.09
   4   8  -4   71.29   83.39
   8 -12  -4   97.49   77.39
  -4  -8   4  125.49   79.29
  -8  12   4   59.99   77.29
  12  -4   4  132.09   66.79
   7   5  -4  149.19   87.39
   5 -12  -4   -6.40   72.09
   5 -12  -4   86.09   86.69
 -12   7  -4  -71.79   77.79
  -7  -5   4    3.30   79.79
  12  -7   4   59.49   71.49
 -12  10  -4   66.29   82.69
   2 -12  -4  -36.30   84.59
  10   2  -4    3.70   79.09
   2 -12  -4   24.10   80.79
 -10  -2   4  -51.19   85.39
  12 -10   4   62.99   98.19
  13  -1  -4   77.49   81.89
  -1 -12  -4  117.09  103.49
  -1 -12  -4  160.48  109.59
 -12  13  -4  133.29  108.59
  12 -13   4  123.89  108.69
 -13   1   4   74.19   85.49
 -13   0  -4   65.19   97.19
  13 -13  -4   65.19  121.09
 -13  13   4  137.79  100.99
  13   0   4   86.39   69.99
   0 -13   4   32.80  107.59
 -13   3  -4 -117.29   55.59
  10 -13  -4   -7.80   85.59
 -10  13   4   17.80   82.29
  13  -3   4    7.40   63.09
  -3 -10   4  -93.59   75.09
  -3 -10   4  134.99   96.59
   6   7  -4  185.58  115.59
   7 -13  -4   86.59   81.69
 -13   6  -4  193.28   72.79
   7 -13  -4   82.39   82.59
  13  -6   4   90.49   77.29
  -6  -7   4  248.68   99.79
   4 -13  -4  258.37  106.39
   9   4  -4  351.36   98.59
   4 -13  -4  148.69   87.89
 -13   9  -4  115.69   79.49
  13  -9   4  254.27   96.29
  -9  -4   4  229.18  110.19
   1 -13  -4  179.98   94.69
 -13  12  -4  248.68  109.29
  12   1  -4  160.68   98.29
  13 -12   4   32.40  110.49
 -12  -1   4  340.27  104.79
 -14   2  -4  -62.39   63.29
  12 -14  -4  -40.50  103.49
  -2 -12   4   12.40  104.49
  14  -2   4  103.39   68.29
   9 -14  -4  128.89   89.09
 -14   5  -4   22.20   62.09
  -5  -9   4    7.90   94.09
  -5  -9   4 -104.69  104.79
  14  -5   4   35.80   65.89
 -14   8  -4  110.69   82.99
   6 -14  -4  -13.70   77.39
   8   6  -4  -22.20  106.79
  14  -8   4   57.19   81.39
  -8  -6   4  -42.70   95.99
  11   3  -4  135.99   90.39
   3 -14  -4  -11.30   91.39
 -14  11  -4   17.70   94.29
  14 -11   4   47.50  123.19
 -11  -3   4   20.70  106.49
 -15   4  -4   29.70   83.69
  11 -15  -4   14.00  102.79
  15  -4   4   74.59   70.09
  -4 -11   4 -115.39  116.39
   8 -15  -4    9.20   88.29
 -15   7  -4   91.79   79.69
  -7  -8   4  235.58  119.69
  15  -7   4   -7.30   77.89
   5 -15  -4    4.30   87.19
  10   5  -4  131.09  104.49
 -15  10  -4  -17.00   90.09
 -10  -5   4  237.08  128.49
  15 -10   4  -30.70   99.09
   1   0  -5   28.80   20.00
   0  -1  -5   36.00   18.30
  -1   1  -5   -3.60   14.80
  -1   0   5    0.20   19.40
   0   1   5    6.70   15.90
   2  -2  -5  -58.09   31.00
   0   2  -5  -29.60   30.70
  -2   0  -5    4.50    3.20
   0  -2   5   -4.50   31.50
  -2   2   5   40.30   31.30
   3  -1  -5 3430.36  272.07
  -1  -2  -5 3070.89  270.67
   2  -3   5 3441.06  289.67
   2  -3   5 3448.56  288.17
  -3   1   5 3468.15  287.67
  -1   4  -5 1271.47  122.29
  -3  -1  -5 1077.99  107.59
   4  -3  -5 1227.68  115.79
   1  -4   5 1196.88  111.39
  -4   3   5 1068.09  105.99
   3   1   5  931.51   98.39
  -3   2  -5 3226.28  282.67
   2   1  -5 3081.79  276.57
   1  -3  -5 3612.24  278.07
  -2  -1   5 3258.57  284.47
   3  -2   5 3385.46  280.57
  -1   3   5 3625.64  287.47
  -2  -3  -5  733.13   87.19
   5  -2  -5  702.93   85.59
  -2  -3  -5  774.82   88.69
   3  -5   5  704.33   94.99
  -5   2   5  812.62   89.89
   3  -5   5  914.61   98.49
  -4  -2  -5  391.46   59.49
   6  -4  -5  437.86   84.09
  -6   4   5  450.45   72.39
   2  -6   5  332.47   68.19
   2  -6   5  369.96   72.39
   4   2   5  400.16   61.09
  -4   1  -5 1080.39   98.49
   3  -4  -5 1096.79  113.89
   1   3  -5 1236.18  116.69
   4  -1   5 1104.09   99.99
  -1  -3   5 1135.29  112.19
  -3   4   5 1152.58  113.29
  -4   4  -5   -2.00   40.70
   0  -4  -5    4.90   41.50
   4   0  -5    4.80   38.60
  -4   0   5   -2.40   37.00
   4  -4   5  -13.60   38.00
   0   4   5    0.20   42.60
  -3  -4  -5   34.90   50.49
   7  -3  -5   27.90   52.89
  -3  -4  -5  176.08   87.09
   4  -7   5   55.09   51.49
  -7   3   5  -14.00   45.80
   4  -7   5  -27.90   53.29
   8  -5  -5  306.77   67.39
  -5  -3  -5  247.58   63.69
   3  -8   5  194.08   73.19
   5   3   5  244.98   75.59
   3  -8   5  238.88   71.09
  -8   5   5  232.28   59.29
   0   5  -5  -21.10   45.90
  -5   0  -5   -7.40   29.80
   5  -5  -5   76.59   50.59
   0  -5   5  -62.49   42.60
   5   0   5  -27.20   28.30
  -5   5   5   -2.70   37.10
   2  -5  -5  698.03   94.49
   3   2  -5  556.74   82.49
  -5   3  -5  702.43   74.59
  -3  -2   5  675.03   88.99
   5  -3   5  835.72   81.39
  -2   5   5  778.82   96.89
   6  -1  -5  489.75   78.79
  -1  -5  -5  473.45   83.79
  -5   6  -5  442.56   73.09
  -1  -5  -5  372.96   72.09
  -6   1   5  567.24   78.39
   5  -6   5  419.66   79.39
  -4  -5  -5  111.19   68.69
   9  -4  -5  149.99   59.39
  -4  -5  -5   -9.50   52.59
   5  -9   5  130.99   65.99
  -9   4   5   26.80   50.19
   5  -9   5  -31.80   54.39
  -6  -4  -5   48.70   62.09
  10  -6  -5   56.69   61.19
   4 -10   5    4.20   64.99
   4 -10   5   58.49   65.59
   6   4   5   53.59   63.29
 -10   6   5   80.09   71.19
  -6  -1  -5 1101.59  113.79
   7  -6  -5 1202.58  129.39
  -7   6   5 1013.70  117.79
   1  -7   5 1017.20  126.99
   1  -7   5 1223.48  130.79
   6   1   5 1160.18  113.59
   2   4  -5  373.06   68.89
  -6   2  -5  430.96   57.89
   4  -6  -5  359.76   68.39
  -2  -4   5  406.66   65.69
   6  -2   5  397.76   58.99
  -4   6   5  422.26   76.49
   1  -6  -5  509.65   87.09
   5   1  -5  483.75   80.49
  -6   5  -5  636.44   81.59
   6  -5   5  472.95   74.69
  -5  -1   5  404.66   67.29
  -1   6   5  469.55   78.79
   8  -2  -5  380.76   68.99
  -6   8  -5  230.88   73.69
  -2  -6  -5  223.48   68.29
  -2  -6  -5  330.37   75.59
   6  -8   5  222.58   65.89
  -8   2   5  412.16   69.49
  11  -5  -5  257.97   73.89
  -5  -6  -5  223.18   86.59
  -5  -6  -5  219.78   83.89
   6 -11   5   79.99   75.69
 -11   5   5  243.48   73.99
   6 -11   5  130.59   72.89
  -7  -5  -5  -33.30   81.19
  12  -7  -5  155.38   86.29
   5 -12   5  -66.99   73.79
 -12   7   5    6.20   70.19
   5 -12   5  124.89   86.29
   9  -7  -5  423.56   88.19
  -7  -2  -5  425.86   77.29
   2  -9   5  380.86   83.29
   7   2   5  258.07  113.09
  -9   7   5  223.18   62.59
   2  -9   5  119.69   69.09
  -7   1  -5 1177.08  108.59
   6  -7  -5  986.80  126.59
   1   6  -5 1146.29  131.09
  -1  -6   5 1053.29  126.59
   7  -1   5 1190.68  111.19
  -6   7   5 1014.30  123.69
   3  -7  -5   31.40   51.49
   4   3  -5    4.60   53.19
  -7   4  -5  -59.79   36.90
  -4  -3   5   64.79   46.00
   7  -4   5   -3.80   39.50
  -3   7   5   31.90   49.99
   0  -7  -5  -71.69   55.09
   7   0  -5  -60.49   49.40
   0  -7  -5    1.60   54.19
  -7   7  -5  -90.69   52.89
   7  -7   5    8.90   50.69
  -7   0   5  -12.60   45.40
  10  -3  -5  241.88   67.89
  -3  -7  -5  122.79   73.29
  -3  -7  -5  209.78   77.89
   7 -10   5   67.89   65.69
   7 -10   5  120.19   72.39
 -10   3   5  124.99   65.99
  -6  -7  -5   96.19  100.69
  13  -6  -5  173.78   83.89
  -6  -7  -5  317.97  105.09
   7 -13   5  178.08  108.59
   7 -13   5  100.79   87.79
 -13   6   5  184.68   81.19
  14  -8  -5  278.47  106.09
  -8  -6  -5   76.09   98.99
  -8  -6  -5  220.18  109.89
   6 -14   5  104.19   80.79
 -14   8   5  168.28   83.99
  11  -8  -5   40.30   77.29
  -8  -3  -5  240.78   78.89
   3 -11   5  174.48   79.39
   8   3   5  154.08   72.89
 -11   8   5   95.19   65.99
   3 -11   5   67.89   85.29
  -8   0  -5   38.20   45.00
   8  -8  -5  -19.90   66.09
   8   0   5   87.89   46.50
   0  -8   5   34.40   64.69
  -8   8   5  -72.49   54.69
   0  -8   5  -76.29   53.39
  -8   3  -5  318.67   55.39
   3   5  -5  209.08   67.99
   5  -8  -5  267.07   70.19
   8  -3   5  213.58   54.19
  -3  -5   5  296.37   66.39
  -5   8   5  176.18   63.59
   2  -8  -5  253.07   69.09
   6   2  -5  267.97   68.39
   2  -8  -5  253.07   67.79
  -8   6  -5  339.77   62.19
   8  -6   5  358.66   71.69
  -6  -2   5  317.37   73.49
  -1  -8  -5   40.10   63.39
   9  -1  -5   50.89   61.49
  -1  -8  -5  151.18   67.29
  -8   9  -5  -84.19   56.99
   8  -9   5   68.29   64.39
  -9   1   5  128.59   62.09
  -4  -8  -5  -70.89   71.29
  12  -4  -5    6.50   71.59
  -4  -8  -5   35.90   85.69
 -12   4   5  -56.29   65.79
   8 -12   5   -9.10   78.49
   8 -12   5  -95.99   93.09
  15  -7  -5  -40.50   94.09
  -7  -8  -5   27.90  106.29
  -7  -8  -5   93.99  113.59
   8 -15   5  235.78  102.99
 -15   7   5   -4.90   79.19
  -9  -4  -5  -11.10   91.79
  13  -9  -5   21.80   94.19
   4 -13   5   72.59   83.09
   4 -13   5  -39.30   93.59
 -13   9   5   -0.40   79.29
   9   4   5   98.19   80.29
  -9  -1  -5  111.79   60.89
  10  -9  -5   94.79   88.09
 -10   9   5   11.10   63.69
   1 -10   5  -45.30   72.39
   9   1   5  110.29   60.29
   1 -10   5  105.29   71.49
  -9   2  -5  404.36   64.59
   7  -9  -5  168.88   70.39
   2   7  -5  238.78   77.29
  -2  -7   5  101.99   61.49
  -7   9   5  258.57   72.79
   9  -2   5  424.06   70.39
   5   4  -5  -24.00   55.19
  -9   5  -5   94.19   50.99
   4  -9  -5   55.29   58.99
  -4   9   5   99.09   60.99
  -5  -4   5   73.59   58.99
  -9   8  -5   41.10   73.19
   1  -9  -5   56.79   69.49
   1  -9  -5   81.49   64.59
   8   1  -5  124.29   62.89
   9  -8   5   -6.40   67.29
  -8  -1   5   48.50   61.69
  -2  -9  -5  251.27   88.99
  -9  11  -5   94.19   88.79
  11  -2  -5  248.68   82.49
  -2  -9  -5  269.67   93.49
   9 -11   5  186.38   82.39
 -11   2   5  207.88   77.79
  -5  -9  -5   15.80  101.29
  14  -5  -5  -87.69   76.59
  -5  -9  -5  -43.00  100.39
   9 -14   5   68.89  111.99
   9 -14   5  119.49   88.29
 -14   5   5  -67.59   74.89
 -10  -5  -5   55.79   91.29
 -10  -5  -5  283.87  114.79
  15 -10  -5  125.39  116.49
 -15  10   5  -24.10  103.69
   5 -15   5   33.70   92.39
 -10  -2  -5   93.29   79.39
  12 -10  -5  317.67  117.69
   2 -12   5   57.19   86.09
  10   2   5   45.60   71.59
   2 -12   5   25.00   84.39
 -12  10   5   44.20   75.09
 -10   1  -5   82.79   54.89
   9 -10  -5   46.10   79.39
  -1  -9   5   56.79   65.69
  -1  -9   5  -19.50   77.19
  10  -1   5   67.09   62.49
  -9  10   5  -20.00   61.99
   4   6  -5   31.70   66.39
 -10   4  -5   11.80   48.20
   6 -10  -5   84.79   64.89
  10  -4   5  -20.60   61.79
  -4  -6   5   75.29   62.89
  -6  10   5   46.90   61.29
   3 -10  -5  119.39   69.79
   7   3  -5  118.19   73.09
 -10   7  -5  208.78   64.79
   3 -10  -5  221.88   73.39
  -7  -3   5   44.60   70.59
  10  -7   5  155.88   70.99
   0 -10  -5  -78.89   77.29
  10   0  -5  -49.80   72.19
   0 -10  -5   39.80   73.99
 -10  10  -5   20.70   76.59
  10 -10   5   24.80   78.39
 -10   0   5  125.39   75.89
  -3 -10  -5   29.40   90.19
  -3 -10  -5   -4.70   99.69
  13  -3  -5   67.39   84.09
  10 -13   5   81.49  109.69
  10 -13   5    1.40   88.29
 -13   3   5  -64.09   74.79
 -11  -3  -5   98.89   92.19
  14 -11  -5   70.59  112.89
 -14  11   5   -8.00  106.19
  11   3   5    0.10   78.59
   3 -14   5  -62.29   89.49
 -11   0  -5  122.89   62.79
  11 -11  -5   35.60   88.39
  11   0   5  -65.09   64.59
   0 -11   5    5.10  133.39
   0 -11   5  144.49   88.89
 -11  11   5   51.09   74.19
   3   8  -5  142.89   75.59
   8 -11  -5  151.38   79.49
 -11   3  -5  158.28   56.39
  -8  11   5  100.09   77.39
  11  -3   5  108.09   80.39
  -3  -8   5   94.09   71.99
 -11   6  -5  194.58   66.79
   6   5  -5  150.58   80.49
   5 -11  -5  307.77   83.79
  -5  11   5   90.99   75.49
  -6  -5   5  161.78   78.49
  11  -6   5  242.08   71.59
   2 -11  -5  246.68   94.49
   2 -11  -5  288.97   85.69
   9   2  -5  393.96   98.69
 -11   9  -5  206.28   83.29
  11  -9   5  476.85  105.19
  -9  -2   5  492.35  112.49
  -1 -11  -5  155.68  165.88
 -11  12  -5  -58.39   89.99
  -1 -11  -5   41.70   91.99
  12  -1  -5   23.60   74.69
 -12   1   5  -37.80   77.49
  11 -12   5   -8.00   91.29
  -4 -11  -5   62.69  124.49
  15  -4  -5    7.20   84.19
  -4 -11  -5 -226.68  107.49
 -15   4   5   43.90   87.89
  11 -15   5  101.59  106.39
 -12  -1  -5  -49.30   72.99
  13 -12  -5   82.99  115.49
  12   1   5  214.98   77.09
   1 -13   5   90.09   97.69
 -13  12   5  -37.30   88.19
  10 -12  -5   73.89   87.79
 -12   2  -5   79.79   58.99
  -2 -10   5   37.50   83.39
 -10  12   5  -22.40   85.79
  12  -2   5  191.38   69.89
  -2 -10   5  133.79   98.19
   7 -12  -5  -67.29   69.99
 -12   5  -5   52.99   55.19
   5   7  -5  150.68   84.69
  -5  -7   5   77.89   86.29
  -7  12   5  -30.80   72.19
  12  -5   5  159.78   67.89
   8   4  -5   54.09   77.99
 -12   8  -5    4.40   71.49
   4 -12  -5  -31.40   76.79
   4 -12  -5  -60.69   72.89
  -8  -4   5  109.19   87.59
  12  -8   5   74.59   79.09
   1 -12  -5 -123.09   83.49
 -12  11  -5  -65.99   82.79
   1 -12  -5   76.39   98.09
  11   1  -5   73.59   82.49
  12 -11   5   33.00   98.69
 -11  -1   5  -66.59   86.29
  -2 -12  -5   38.30  105.79
  14  -2  -5   98.19   87.09
  12 -14   5  109.29  111.69
 -14   2   5   85.19   90.79
  12 -14   5   17.50  121.29
 -13   1  -5  233.18   73.89
  12 -13  -5   94.99  108.89
 -12  13   5   61.49   95.89
  -1 -12   5  324.17  114.09
  13  -1   5  159.28   73.59
 -13   4  -5  -33.90   56.19
   9 -13  -5  141.89   89.69
  13  -4   5   22.30   65.39
  -4  -9   5  -25.60   94.99
  -9  13   5  -41.00   81.49
  -4  -9   5   -3.90  101.19
   7   6  -5    2.30   96.39
   6 -13  -5  107.69   89.89
   6 -13  -5  162.08   83.29
  13  -7   5  251.87   83.89
  -7  -6   5  117.19   97.09
  10   3  -5  104.19   90.09
 -13  10  -5  -16.20   85.29
   3 -13  -5   35.10   93.59
   3 -13  -5   78.69   83.49
  13 -10   5  137.39  100.19
 -10  -3   5  -49.80  100.99
 -13  13  -5   56.19  108.79
  13   0  -5   84.09   84.99
   0 -13  -5  114.69  106.59
 -13   0   5   97.09   91.39
  13 -13   5   25.70  108.89
 -14   3  -5   20.10   59.09
  11 -14  -5  153.28  109.99
  -3 -11   5  -44.60  103.09
  14  -3   5  113.09   68.19
   8 -14  -5   23.60   83.89
 -14   6  -5  149.49   79.99
   6   8  -5  172.58  102.69
  14  -6   5  119.09   71.69
  -6  -8   5   -2.10  155.78
 -14   9  -5   -8.90   79.49
   5 -14  -5  164.78   87.09
  -9  -5   5   79.59  106.19
  14  -9   5  -41.00   91.69
 -14  12  -5   17.50   99.99
   2 -14  -5   58.99   96.89
  12   2  -5    4.40   91.39
  14 -12   5  178.88  125.19
 -12  -2   5   18.80  103.09
  10 -15  -5   12.80   99.29
 -15   5  -5  -13.80   67.49
  15  -5   5  201.68   72.69
  -5 -10   5   49.10  125.39
   7 -15  -5   26.60   85.99
 -15   8  -5   52.29   79.29
   8   7  -5   55.09  111.69
  15  -8   5  -53.39   84.79
  -8  -7   5  -73.19  109.99
 -15  11  -5  178.98  102.09
   4 -15  -5   75.19  112.89
  11   4  -5   83.49   97.39
 -11  -4   5    6.20  121.49
  15 -11   5   32.30  112.69
   0   0  -6 9999.00  805.12
  -1  -1  -6  480.15   52.59
   2  -1  -6  534.35   60.89
  -1   2  -6  514.35   62.09
  -2   1   6  551.74   62.49
   1  -2   6  449.46   60.29
   1   1   6  521.05   53.99
   1  -2  -6  534.95   60.29
   1   1  -6  442.16   59.69
   2  -1   6  443.36   43.80
  -1  -1   6  437.46   56.29
  -1   2   6  465.05   56.19
  -2  -2  -6 1284.37  121.29
   4  -2  -6 1378.56  124.79
  -2  -2  -6 1275.57  122.39
   2  -4   6 1517.45  142.59
  -4   2   6 1519.15  139.99
   2  -4   6 1504.25  145.39
  -3   0  -6  833.62   81.99
   3  -3  -6 1115.69  101.09
   0   3  -6 1149.19  102.59
   0  -3   6 1150.18  108.29
   3   0   6  923.41   87.29
  -3   3   6 1103.89  104.49
   0  -3  -6 3281.57  259.17
   3   0  -6 2832.62  257.87
   0   3   6 3127.79  255.37
   3  -3   6 2936.71  251.87
  -3   0   6 2949.00  254.07
   6  -3  -6  139.19   46.60
  -3  -3  -6    5.30   41.10
  -3  -3  -6  149.19   47.60
   3  -6   6   93.69   51.09
   3  -6   6  -45.70   49.90
  -6   3   6   90.79   45.20
  -4  -1  -6 1494.75  132.69
   5  -4  -6 1459.25  143.59
  -1   5  -6 1513.75  145.59
   1  -5   6 1381.46  136.19
   4   1   6 1291.67  122.59
  -5   4   6 1413.96  131.89
   2  -4  -6 1486.75  133.89
   2   2  -6 1301.17  132.69
  -2   4   6 1556.24  140.49
  -2  -2   6 1517.65  137.29
   4  -2   6 1368.16  125.49
  -1  -4  -6 1589.44  157.38
   5  -1  -6 1617.44  153.88
  -4   5  -6 1732.53  155.88
  -1  -4  -6 1707.73  156.08
   4  -5   6 1741.63  161.68
  -5   1   6 1794.52  162.48
  -4  -4  -6 1425.26  137.19
   8  -4  -6 1400.36  137.79
  -4  -4  -6 1052.69  134.39
   4  -8   6 1368.26  176.98
   4  -8   6 1286.97  144.39
  -8   4   6 1451.65  141.89
   7  -5  -6  600.44   83.79
  -5  -2  -6  386.36   65.79
   5   2   6  417.66   65.09
  -7   5   6  305.97   65.89
   2  -7   6  459.65   77.99
   2  -7   6  339.57   73.29
  -5   1  -6 1490.95  134.59
   1   4  -6 1307.17  173.38
   4  -5  -6 1637.44  154.38
  -1  -4   6 1476.05  133.59
  -4   5   6 1371.66  132.69
   5  -1   6 1270.67  116.79
   1  -5  -6 1231.18  175.78
  -5   4  -6 1820.52  147.59
   4   1  -6 1515.35  149.09
  -1   5   6 1871.01  165.68
  -4  -1   6 1595.24  160.28
   5  -4   6 1804.92  157.58
  -2  -5  -6  214.28   64.19
   7  -2  -6  234.08   64.09
  -2  -5  -6  212.88   60.49
   5  -7   6  226.48   62.99
  -7   2   6  213.08   60.99
  -5  -5  -6  230.08   75.69
  -5  -5  -6  243.98   79.09
  10  -5  -6  459.35   78.89
   5 -10   6  319.27   75.69
 -10   5   6  217.58   82.09
   5 -10   6  242.58   78.49
  -6  -3  -6  547.45   86.19
   9  -6  -6  505.85   93.59
   3  -9   6  313.77   80.19
   3  -9   6  347.07   84.09
   6   3   6  325.17   72.89
  -9   6   6  369.06   73.39
   6  -6  -6 1579.44  158.98
  -6   0  -6 1573.64  140.89
   0   6  -6 1564.04  160.58
   6   0   6 1403.86  130.69
   0  -6   6 1522.25  147.39
  -6   6   6 1353.16  143.79
   3   3  -6   32.20   49.40
   3  -6  -6   92.79   49.90
  -6   3  -6   29.20   33.20
  -3   6   6   50.19   46.80
  -3  -3   6   54.69   48.10
   6  -3   6   62.69   32.30
   0  -6  -6 1379.86  146.99
   0  -6  -6 1391.36  152.28
   6   0  -6 1405.56  152.98
  -6   6  -6 1522.65  146.49
  -6   0   6 1414.36  146.69
   6  -6   6 1557.34  145.49
  -3  -6  -6  204.48   67.89
   9  -3  -6  145.59   64.19
  -3  -6  -6   84.09   57.09
   6  -9   6   17.40   64.49
  -9   3   6   40.00   56.29
   6  -9   6  130.29   68.19
  -6  -6  -6   56.69   79.49
  12  -6  -6  -18.20   73.69
  -6  -6  -6   49.80   84.79
   6 -12   6  135.59   91.89
 -12   6   6  -26.00   68.19
   6 -12   6  106.49   77.89
  -7  -4  -6  123.69   73.29
  11  -7  -6  173.88   76.39
   4 -11   6  119.29   85.39
 -11   7   6   59.39   66.69
   4 -11   6   24.90   92.89
   7   4   6   75.99   67.89
   8  -7  -6  689.73  108.09
  -7  -1  -6  707.13   91.59
   1  -8   6  629.04   98.99
   7   1   6  630.74   84.99
  -8   7   6  387.56  120.89
   1  -8   6  641.74   99.69
  -7   2  -6  523.45   58.89
   2   5  -6  237.58   66.39
   5  -7  -6  224.78   66.09
  -2  -5   6  286.27   66.89
  -5   7   6  348.57   70.79
   7  -2   6  361.96   58.99
  -7   5  -6  269.27   56.19
   2  -7  -6  258.37   66.19
   5   2  -6  252.07   63.29
  -2   7   6  201.98   62.79
  -5  -2   6  197.38   55.39
   7  -5   6  114.79   55.79
   8  -1  -6  416.76   75.99
  -1  -7  -6  415.86   80.39
  -7   8  -6  320.07   75.89
  -1  -7  -6  364.36  123.19
   7  -8   6  389.76   78.49
  -8   1   6  570.94   83.29
  11  -4  -6  121.49   68.59
  -4  -7  -6  119.69   78.49
  -4  -7  -6   23.20   67.89
   7 -11   6  168.18   76.69
 -11   4   6  -22.30   64.89
   7 -11   6  -44.70   80.59
  14  -7  -6 -126.49   86.29
  -7  -7  -6   -5.60   93.99
  -7  -7  -6   58.69  104.79
 -14   7   6  164.68   86.29
   7 -14   6   11.90  121.39
   7 -14   6  -35.50   80.89
  -8  -5  -6  239.58   97.19
  -8  -5  -6  149.88   92.09
  13  -8  -6   72.29   95.69
   5 -13   6   67.09   84.19
 -13   8   6   34.80   71.99
   5 -13   6   44.40   94.89
  10  -8  -6  234.78   80.09
  -8  -2  -6  218.38   73.39
 -10   8   6   78.09   59.99
   2 -10   6  228.18   80.39
   2 -10   6  154.18   74.89
   8   2   6  341.17   73.89
   1   7  -6  744.63  105.99
   7  -8  -6  767.42  106.29
  -8   1  -6  650.13   81.19
   8  -1   6  713.53   81.99
  -1  -7   6  512.25   91.29
  -7   8   6  676.83  100.99
   4   4  -6 1463.45  147.99
   4  -8  -6 1304.37  144.49
  -8   4  -6 1385.46  132.69
  -4  -4   6 1316.47  143.29
   8  -4   6 1482.75  128.79
  -4   8   6 1152.48  143.59
   7   1  -6  566.44   87.59
   1  -8  -6  382.06   80.29
  -8   7  -6  507.35   89.49
   8  -7   6  526.65   89.99
  -7  -1   6  519.15   85.09
  -8  10  -6   46.00   76.79
  -2  -8  -6  -17.20   69.09
  -2  -8  -6  -32.60   68.49
  10  -2  -6   46.00   61.19
   8 -10   6   54.19   64.99
 -10   2   6   80.69   61.49
  13  -5  -6  357.86   85.19
  -5  -8  -6   10.70   89.49
  -5  -8  -6   72.99   94.09
   8 -13   6   60.89  103.79
 -13   5   6  239.78   84.99
   8 -13   6   40.70   85.39
  15  -9  -6  195.98  110.79
  -9  -6  -6  220.88  101.69
  -9  -6  -6  -51.69  105.49
   6 -15   6   51.49   89.39
 -15   9   6   87.29   93.39
  12  -9  -6   19.50   91.39
  -9  -3  -6  375.66   93.99
 -12   9   6  -40.40   74.69
   9   3   6  194.08   80.09
   3 -12   6   31.50   79.89
   3 -12   6  180.88   96.09
   9  -9  -6  409.76   91.89
  -9   0  -6  499.65   73.09
   0  -9   6  657.43  109.59
   0  -9   6  400.46   97.89
  -9   9   6  289.67   82.19
   9   0   6  589.04   89.19
  -9   3  -6  381.06   65.39
   6  -9  -6  257.57   73.89
   3   6  -6  411.66   83.59
  -6   9   6  319.07   75.39
   9  -3   6  380.06   67.99
  -3  -6   6  313.77   74.79
   3  -9  -6   29.50   56.79
  -9   6  -6   85.09   52.59
   6   3  -6   78.59   61.39
   9  -6   6  118.89   60.69
  -3   9   6   18.50   63.19
  -6  -3   6  153.18   61.49
  -9   9  -6   89.99   68.09
   9   0  -6  158.48   69.79
   0  -9  -6   90.99   71.59
   0  -9  -6  267.17   77.49
  -9   0   6  141.49   67.69
   9  -9   6  161.98   72.09
  -3  -9  -6   81.19   95.69
  -3  -9  -6  120.29   98.19
  12  -3  -6  277.57   81.19
   9 -12   6  209.18  103.89
   9 -12   6   37.20   83.89
 -12   3   6  132.19   81.89
  15  -6  -6   19.10   86.59
  -6  -9  -6   48.70  109.29
   9 -15   6   88.39   92.99
 -15   6   6  102.29   86.39
 -10  -4  -6  -42.90  100.49
  14 -10  -6  -97.49   98.49
 -14  10   6   72.29   90.89
   4 -14   6   32.80   84.59
 -10  -1  -6  -33.10   60.69
  11 -10  -6  -31.50   87.49
 -11  10   6  -58.89   68.89
   1 -11   6   55.09   82.59
  10   1   6  -60.69   58.29
   1 -11   6  -92.59   73.49
   8 -10  -6  243.28   79.59
 -10   2  -6  285.17   57.19
   2   8  -6  194.18   74.09
  -2  -8   6   70.99   63.09
  -8  10   6  145.99   66.29
  10  -2   6  339.87   64.19
   5 -10  -6  178.98   68.69
   5   5  -6  301.97   81.19
 -10   5  -6  154.28   55.89
  10  -5   6  313.97   73.49
  -5  10   6  190.38   72.69
  -5  -5   6  314.07   77.09
   2 -10  -6   40.10   67.29
   8   2  -6   90.19   67.99
   2 -10  -6    3.80   63.39
 -10   8  -6   33.70  115.49
  10  -8   6  142.59   74.59
  -8  -2   6  -93.49   65.39
  11  -1  -6  226.48   83.49
  -1 -10  -6  109.19   88.69
  -1 -10  -6  104.59  155.88
 -10  11  -6  136.29   91.49
  10 -11   6  175.98   89.39
 -11   1   6   48.90   76.29
  -4 -10  -6  277.87  116.79
  -4 -10  -6  221.98  128.29
  14  -4  -6  303.57   91.99
  10 -14   6  161.18  101.69
  10 -14   6  -14.00  122.09
 -14   4   6  213.78   91.09
  13 -11  -6   10.70  110.99
 -11  -2  -6  -78.29   74.39
 -13  11   6   87.19  103.79
  11   2   6   78.79   70.89
   2 -13   6  -15.00   87.09
 -11   1  -6  116.69   57.09
  10 -11  -6  -57.49   90.69
  11  -1   6   -2.50   69.09
 -10  11   6   64.99   71.59
  -1 -10   6  103.49   73.79
  -1 -10   6   97.99   87.89
   7 -11  -6  159.88   80.29
   4   7  -6   38.60   75.09
 -11   4  -6   57.69   52.09
  -4  -7   6  -30.60   64.89
  -7  11   6   57.19   65.39
   4 -11  -6  117.19   94.79
 -11   7  -6   49.40   62.09
   7   4  -6  102.29   76.29
   4 -11  -6   30.60   69.79
  -7  -4   6  220.58   76.89
  11  -7   6  -23.00   64.09
   1 -11  -6   45.20   78.99
   1 -11  -6  143.39   92.59
  10   1  -6  154.78   82.89
 -11  10  -6  181.68   87.09
  11 -10   6  178.28   94.99
 -10  -1   6  131.19   86.79
  -2 -11  -6   -4.80  108.79
  -2 -11  -6   23.30   93.99
  13  -2  -6 -142.39   75.39
  11 -13   6   28.60  113.09
 -13   2   6  -43.70   79.79
  11 -13   6   97.19   99.69
  12 -12  -6  102.39  110.99
 -12   0  -6  134.09   65.69
   0 -12   6  141.09   99.99
 -12  12   6  108.49   96.59
  12   0   6  241.28   74.49
   0 -12   6  -28.30   86.29
   9 -12  -6  125.89   85.29
 -12   3  -6  154.88   59.99
  12  -3   6  130.29   70.19
  -3  -9   6   25.10   78.39
  -3  -9   6  193.48  101.99
  -9  12   6  -18.40   77.99
 -12   6  -6  101.19   64.79
   6 -12  -6   18.80   68.99
   6   6  -6  -14.50   75.19
  12  -6   6   46.70   63.29
  -6  -6   6   64.49   81.49
  -6  12   6  -47.80   70.69
   3 -12  -6   79.49   80.49
   9   3  -6  298.17  103.19
 -12   9  -6  255.77   92.69
  -9  -3   6  265.07  104.09
  12  -9   6  125.29   93.39
 -12  12  -6  119.09  102.29
   0 -12  -6  220.38  100.99
   0 -12  -6  145.69   96.79
  12   0  -6  251.27   95.49
  12 -12   6  118.89  109.19
 -12   0   6  129.69   90.29
 -13   2  -6    7.60   58.29
  11 -13  -6  242.78  108.19
  -2 -11   6  -18.30  104.89
  13  -2   6  -30.80   58.39
  -2 -11   6   14.40   84.89
 -11  13   6  160.28   99.09
 -13   5  -6  142.39   64.99
   8 -13  -6  104.29   86.29
   5   8  -6  155.68   93.19
  13  -5   6  198.28   71.89
  -8  13   6  125.29   89.49
  -5  -8   6  178.78   95.69
 -13   8  -6  132.39   77.59
   5 -13  -6    6.50   86.09
   5 -13  -6   47.20   76.49
   8   5  -6  142.59   96.49
  -8  -5   6  279.27  108.09
  13  -8   6  116.99   85.49
  11   2  -6   96.99   95.49
   2 -13  -6  129.29  104.59
   2 -13  -6   82.19   87.69
 -13  11  -6  -15.60   87.99
  13 -11   6  -51.69  106.99
 -11  -2   6   60.29   98.29
 -14   4  -6   53.39   56.49
  10 -14  -6 -112.79   88.19
  -4 -10   6  -64.19   92.79
  14  -4   6   61.59   64.49
  -4 -10   6 -124.89  112.99
   7   7  -6   37.10   99.69
   7 -14  -6 -158.68   74.39
 -14   7  -6   87.19  109.69
  14  -7   6  -16.80   76.49
  -7  -7   6  105.19  100.99
   4 -14  -6   27.90   88.59
  10   4  -6  345.57  176.88
 -14  10  -6  167.88   89.69
  14 -10   6  325.67  111.49
 -10  -4   6  291.27  131.99
 -15   6  -6   80.39   80.29
   9 -15  -6  110.49   90.49
  -6  -9   6  101.29  125.59
  15  -6   6   70.19   70.29
  -6  -9   6  161.28  117.79
 -15   9  -6   -8.40   90.59
   9   6  -6  167.58  107.89
   6 -15  -6  -45.10   80.99
  15  -9   6  -25.90   87.59
   0   1  -7   -3.90   23.50
   1  -1  -7  -28.70   24.10
  -1   0  -7  -12.90   14.50
  -1   1   7    9.70   22.80
   0  -1   7  -14.50   22.70
   1   0   7   15.30   15.50
  -2  -1  -7  774.32   72.79
  -1   3  -7  692.43   87.99
  -2  -1  -7  708.13   72.49
   3  -2  -7  718.53   84.99
  -3   2   7  951.80   96.69
   1  -3   7  803.42   96.09
   2   0  -7  -60.99   32.30
   0  -2  -7   63.39   32.30
  -2   2  -7   -6.50   29.60
   0   2   7    9.30   32.40
   2  -2   7  -38.90   27.30
  -2   0   7  -33.30   32.90
   5  -3  -7 2310.47  196.78
  -3  -2  -7 2074.69  193.18
  -3  -2  -7 2316.07  192.98
   2  -5   7 2444.46  224.98
  -5   3   7 2291.97  212.48
   2  -5   7 2579.24  216.78
   2  -3  -7  852.11   90.79
   1   2  -7  710.13   87.29
  -1  -2   7  913.51   99.39
  -2   3   7  966.50   99.69
   4  -1  -7 2089.59  184.28
  -1  -3  -7 2041.60  182.28
   3  -4   7 2080.89  182.38
   1   3   7 1881.51  179.28
   3  -4   7 2155.38  180.08
  -4   1   7 2011.80  180.08
   7  -4  -7    1.10   46.20
  -4  -3  -7   52.89   45.30
   3  -7   7   24.30   54.69
   3  -7   7  -70.99   50.59
  -7   4   7   20.80   50.29
   0   4  -7  -68.19   43.10
  -4   0  -7   37.10   22.70
   4  -4  -7 -112.79   42.10
   4   0   7  -45.60   23.60
   0  -4   7  -26.60   42.50
  -4   4   7  -18.10   38.40
   3   1  -7 1967.80  187.68
  -4   3  -7 2198.58  183.58
   1  -4  -7 2200.18  188.68
  -1   4   7 2013.70  186.78
   4  -3   7 2142.19  178.48
  -3  -1   7 2044.60  182.98
   6  -2  -7  453.25   80.69
  -2  -4  -7  473.05   78.89
  -2  -4  -7  430.26   77.79
   4  -6   7  499.35   79.89
   4  -6   7  403.86   74.89
  -6   2   7  540.15   75.59
   9  -5  -7  121.39   60.59
  -5  -4  -7   45.00   57.09
  -5  -4  -7   98.49   61.89
   4  -9   7  -48.20   58.79
  -9   5   7   54.19   52.49
   4  -9   7    2.10   59.49
  -5  -1  -7  970.20   93.69
   6  -5  -7  904.11  112.99
  -1   6  -7  919.51  110.19
  -6   5   7 1024.10  110.99
   5   1   7  870.11   97.69
   1  -6   7 1116.59  115.49
   2   3  -7 2510.15  195.08
   3  -5  -7 1436.96  209.78
  -5   2  -7 2186.18  182.18
  -3   5   7 2164.18  194.88
   5  -2   7 2103.29  178.48
  -2  -3   7 2200.48  192.18
   0  -5  -7   -1.20   54.59
   5   0  -7   25.80   42.00
  -5   5  -7  -34.20   41.00
  -5   0   7   39.50   39.80
   0   5   7  -38.50   45.00
   5  -5   7   48.50   43.00
  -3  -5  -7  517.15   84.29
  -3  -5  -7  378.96   77.79
   8  -3  -7  506.55   86.99
  -8   3   7  592.64   86.39
   5  -8   7  551.94   86.69
   5  -8   7  528.45  106.29
  -6  -5  -7  185.38   83.49
  -6  -5  -7  138.59   79.79
  11  -6  -7   60.89   71.69
   5 -11   7  211.78   83.89
 -11   6   7  190.38   71.29
   5 -11   7  119.79   74.09
  -6  -2  -7   24.10   42.90
   8  -6  -7  -10.40   54.29
  -8   6   7    3.40   48.10
   2  -8   7   13.90   56.29
   2  -8   7   24.30   53.69
   6   2   7   58.49   48.40
   5  -6  -7  889.81  112.29
   1   5  -7 1004.40  113.89
  -6   1  -7  949.11   89.69
   6  -1   7  949.40   92.49
  -1  -5   7 1025.30  111.39
  -5   6   7  923.01  110.29
  -6   4  -7  454.15   71.89
   4   2  -7  476.95   73.29
   2  -6  -7  543.15   81.29
  -4  -2   7  402.86   74.69
   6  -4   7  471.45   67.29
  -2   6   7  465.45   83.89
  -1  -6  -7 1046.40  133.79
  -6   7  -7 1311.37  130.79
  -1  -6  -7 1148.69  130.69
   7  -1  -7 1063.09  125.39
  -7   1   7 1106.99  125.19
   6  -7   7 1217.18  126.49
  10  -4  -7   16.00   61.49
  -4  -6  -7   -1.90   64.29
   6 -10   7 -100.29   58.69
   6 -10   7  -54.59   62.79
 -10   4   7   21.10   72.39
  13  -7  -7  247.88   97.49
  -7  -6  -7  182.88  105.19
  -7  -6  -7  445.26  105.89
   6 -13   7  216.68  109.09
 -13   7   7  159.58   82.69
   6 -13   7    8.20   82.89
  10  -7  -7  304.17   77.79
  -7  -3  -7  248.38   71.99
   7   3   7  249.08   68.79
   3 -10   7  337.27   82.29
   3 -10   7   50.09   76.19
 -10   7   7  242.68   66.69
   0   7  -7   -0.90   54.69
   7  -7  -7  -18.40   62.79
  -7   0  -7   -4.00   31.50
   7   0   7   24.00   39.80
   0  -7   7  -17.60   51.49
  -7   7   7   37.00   53.69
   4  -7  -7   38.30   53.49
  -7   3  -7   50.69   33.90
   3   4  -7   13.10   51.39
  -3  -4   7  -29.00   44.90
   7  -3   7   59.39   35.50
  -4   7   7    9.40   50.19
  -7   6  -7 1057.19  125.19
   6   1  -7 1164.08  126.39
   1  -7  -7 1153.38  127.39
   7  -6   7 1112.49  117.49
  -6  -1   7  979.00  119.29
  -2  -7  -7   88.59   62.29
   9  -2  -7  257.47   67.29
  -2  -7  -7  174.08   75.89
   7  -9   7  183.78   75.29
   7  -9   7   51.49   60.89
  -9   2   7   70.09   55.49
  -5  -7  -7   24.50   77.09
  12  -5  -7   -4.50   75.89
  -5  -7  -7    7.50   82.19
   7 -12   7  -54.69   71.19
   7 -12   7   56.99   96.19
 -12   5   7   34.40   73.09
  15  -8  -7  119.19  100.59
  -8  -7  -7  -22.90  105.39
  -8  -7  -7  -11.20   92.99
   7 -15   7  131.49   98.49
 -15   8   7  -46.60   84.09
  -8  -4  -7   41.90   84.19
  12  -8  -7   -9.80   86.29
 -12   8   7  -14.90   62.89
   4 -12   7 -141.89   72.29
   4 -12   7   62.49  106.79
   9  -8  -7  510.05   93.99
  -8  -1  -7  476.65   77.79
   8   1   7  400.16   68.59
   1  -9   7  375.26   84.59
  -9   8   7  268.07   73.29
   1  -9   7  315.07   77.49
  -8   2  -7   41.60   37.60
   2   6  -7   75.39   56.89
   6  -8  -7   22.10   53.99
   8  -2   7   24.30   37.30
  -2  -6   7  -25.00   48.40
  -6   8   7   60.79   51.39
   5   3  -7  512.85   91.59
   3  -8  -7  472.35   80.29
  -8   5  -7  432.66   69.49
  -5  -3   7  465.95   85.29
  -3   8   7  409.66   79.29
   8  -5   7  502.05   77.39
   0  -8  -7   10.00   62.19
   0  -8  -7   38.20   61.29
  -8   8  -7   -9.90   57.09
   8   0  -7   72.79   60.69
  -8   0   7  -16.00   53.79
   8  -8   7  -72.69   56.79
  11  -3  -7  148.19   73.79
  -3  -8  -7   59.99   79.59
  -3  -8  -7  183.98   85.49
   8 -11   7   52.49   90.79
   8 -11   7   67.59   72.49
 -11   3   7  -27.90   64.99
  14  -6  -7   -2.40   91.79
  -6  -8  -7  -75.59  102.19
  -6  -8  -7   97.89  104.39
 -14   6   7  154.28   87.89
   8 -14   7  149.19   92.09
   8 -14   7   87.09  112.59
  -9  -5  -7   21.90   83.99
  14  -9  -7 -119.39   96.29
  -9  -5  -7 -128.89   90.49
 -14   9   7   -6.90   74.29
   5 -14   7 -118.99   75.79
  11  -9  -7  169.38   87.19
  -9  -2  -7   46.30   73.79
   2 -11   7  133.69   82.69
   2 -11   7   91.79   82.29
 -11   9   7   28.30   69.49
   9   2   7  204.68   70.09
   8  -9  -7  292.07   90.49
  -9   1  -7  386.66   60.69
   1   8  -7  475.15   86.59
  -1  -8   7  384.06   84.09
   9  -1   7  454.95   74.49
  -8   9   7  305.17   75.79
  -9   4  -7  -14.30   42.20
   4   5  -7  -61.39   53.39
   5  -9  -7   -9.00   55.79
  -5   9   7  111.49   62.99
   9  -4   7   -0.10   45.20
  -4  -5   7  -17.80   52.99
   2  -9  -7  153.18   64.29
   2  -9  -7   78.49   62.69
   7   2  -7  216.58   70.79
  -9   7  -7  219.78   66.59
   9  -7   7  297.67   72.49
  -7  -2   7   93.89   62.49
  -1  -9  -7   43.00   75.59
  -1  -9  -7  172.28   80.19
  -9  10  -7   74.89   73.49
  10  -1  -7   60.89   67.79
 -10   1   7  255.97   78.09
   9 -10   7   57.19   73.59
  -4  -9  -7 -110.99   78.39
  -4  -9  -7   44.20  144.69
  13  -4  -7  -25.90   76.19
   9 -13   7   20.30  112.69
   9 -13   7    2.60   82.89
 -13   4   7  -93.49   74.69
 -10  -3  -7  101.49   99.49
  13 -10  -7  199.38  111.49
   3 -13   7  137.19   85.89
   3 -13   7   37.10   93.99
  10   3   7  139.79   74.79
 -13  10   7    7.60   85.49
 -10   0  -7  -55.19   52.69
  10 -10  -7  -14.80   76.69
   0 -10   7   28.10   71.49
   0 -10   7 -104.69   76.59
  10   0   7   -1.30   61.39
 -10  10   7   -5.50   65.59
   7 -10  -7  229.38   74.39
   3   7  -7  356.96   86.09
 -10   3  -7  305.97   55.99
  -3  -7   7  312.67   78.19
  -7  10   7  117.29   65.39
  10  -3   7  279.27   56.99
   6   4  -7  -53.79   59.39
 -10   6  -7  -24.20   52.09
   4 -10  -7   54.09   63.29
  10  -6   7   17.10   53.69
  -4  10   7   27.60   61.89
  -6  -4   7   46.70   58.69
   1 -10  -7   55.99   77.69
 -10   9  -7   60.29   71.79
   1 -10  -7  222.68   76.69
   9   1  -7   63.09   68.99
  10  -9   7   24.80   74.49
  -9  -1   7  134.89   73.29
  12  -2  -7  151.78   84.59
  -2 -10  -7  233.28   95.29
  -2 -10  -7   48.80   91.09
  10 -12   7  126.59  110.09
 -12   2   7  -68.49   74.09
  10 -12   7   19.40   84.39
  15  -5  -7  -16.40   84.89
  -5 -10  -7  -10.50  122.39
  -5 -10  -7  -72.79  105.69
 -15   5   7  -75.09   78.89
  10 -15   7   86.29   98.99
 -11  -1  -7    4.80   63.09
  12 -11  -7 -139.89   90.49
   1 -12   7 -120.79   82.19
   1 -12   7  -24.10   83.99
 -12  11   7  -95.79   76.29
  11   1   7  -72.19   60.79
   9 -11  -7  169.58  109.89
 -11   2  -7  131.09   55.39
  11  -2   7  252.17   64.79
  -9  11   7  -38.10   61.29
  -2  -9   7  155.78   75.89
   6 -11  -7   80.59   77.49
 -11   5  -7  139.49   58.19
   5   6  -7  180.68   80.89
  11  -5   7  114.59   63.39
  -6  11   7  235.08   74.69
  -5  -6   7  115.39   75.79
   3 -11  -7  -58.49   67.09
   3 -11  -7   13.70  111.39
   8   3  -7  113.09   85.39
  11  -8   7  107.39   81.19
  -8  -3   7   98.79   77.49
   0 -11  -7   82.29   84.59
   0 -11  -7   58.59   90.59
 -11  11  -7   -8.90   84.79
  11   0  -7  147.59   86.39
  11 -11   7   46.40   80.49
 -11   0   7  -88.59   74.99
  -3 -11  -7  205.38  112.49
  14  -3  -7  116.99   88.19
  -3 -11  -7  157.18  112.59
 -14   3   7   65.09   91.79
  11 -14   7   57.19  123.79
  11 -14   7   21.30   97.39
 -12  -2  -7   51.59  124.39
  14 -12  -7  174.78  118.49
   2 -14   7   -5.90   95.99
 -14  12   7 -101.89   92.49
  12   2   7  206.38   75.49
  11 -12  -7   58.29   98.89
 -12   1  -7   70.69   59.59
 -11  12   7   29.20   78.49
  -1 -11   7    7.70   78.49
  12  -1   7   77.09   69.59
  -1 -11   7  -83.99   84.89
   4   8  -7   26.70  127.49
 -12   4  -7   83.09   53.09
   8 -12  -7  -43.70   68.49
  -4  -8   7   72.09   78.99
  -8  12   7   78.09   75.79
  12  -4   7   70.49   71.39
   5 -12  -7   68.39   72.59
   7   5  -7  172.08   82.59
   5 -12  -7   -1.60   73.49
 -12   7  -7   50.09   69.09
  12  -7   7  110.09   70.69
  -7  -5   7   24.90   82.79
   2 -12  -7  161.08   87.09
  10   2  -7   58.09   85.69
 -12  10  -7  132.89   84.99
   2 -12  -7   39.10   93.89
  12 -10   7   90.89  100.19
 -10  -2   7   85.69   97.29
  13  -1  -7   57.29   87.49
  -1 -12  -7  236.88  109.59
  -1 -12  -7   92.19  101.59
  12 -13   7   84.89  104.99
 -13   1   7  -93.39   80.49
  12 -13   7  241.48  124.99
 -13   0  -7   96.39   61.69
  13 -13  -7  -32.30  115.09
   0 -13   7   44.30  106.59
  13   0   7   70.79   64.69
  10 -13  -7   -6.20   91.79
 -13   3  -7   54.39   54.59
  13  -3   7   61.49   65.59
  -3 -10   7 -185.88   94.59
 -10  13   7   51.69   86.59
  -3 -10   7   -6.70   89.09
   6   7  -7  119.69   99.29
 -13   6  -7  160.48   71.19
   7 -13  -7   -6.50   77.29
  13  -6   7  242.08   72.59
  -6  -7   7   92.19   95.29
  -7  13   7  -15.20   78.99
 -13   9  -7  276.97   88.79
   9   4  -7   34.90   86.39
   4 -13  -7    1.10   78.79
   4 -13  -7   32.60   83.19
  13  -9   7   31.90   88.19
  -9  -4   7  -94.19   91.69
 -13  12  -7   51.79   95.09
   1 -13  -7  -43.60   94.69
  12   1  -7  200.28   91.19
 -12  -1   7  229.18  102.69
  13 -12   7  101.49  106.99
 -14   2  -7   82.19   55.99
  -2 -12   7  -40.80  103.39
  14  -2   7  110.09   67.49
   9 -14  -7  -90.89   74.99
 -14   5  -7   11.90   58.59
  14  -5   7  -23.30   60.59
  -5  -9   7  169.88  100.89
   8   6  -7  191.68  100.49
   6 -14  -7  162.78   88.19
 -14   8  -7   -7.00   73.79
  -8  -6   7  -10.50  100.29
  14  -8   7  -97.09   74.19
 -14  11  -7   28.20   91.09
   3 -14  -7  -25.30   87.59
  11   3  -7  233.78  164.98
 -11  -3   7  -22.40  108.79
  14 -11   7   71.29  122.59
   7   8  -7   31.20  106.99
   8 -15  -7  199.08   97.19
 -15   7  -7   41.00  100.99
  15  -7   7   50.29   72.69
  -7  -8   7  147.99  119.09
 -15  10  -7   59.69   91.59
  10   5  -7   -8.60  103.39
   5 -15  -7   -0.30   82.59
 -10  -5   7  -54.79  179.38
  15 -10   7  -74.39   92.19
   1   0  -8 1274.87  109.59
  -1   1  -8 1107.89  105.39
   0  -1  -8 1255.97  106.29
   1  -1   8 1101.19  113.99
  -1   0   8 1408.66  116.99
   0   1   8 1422.76  114.69
   2  -2  -8 2000.90  177.68
   0   2  -8 2085.09  177.28
  -2   2   8 2121.59  178.98
   0  -2   8 1988.80  179.48
   3  -1  -8 4484.05  375.56
  -2   3  -8 4602.24  376.66
  -1  -2  -8 4526.75  372.76
  -3   1   8 4924.31  386.96
   1   2   8 4569.54  384.16
   2  -3   8 4534.45  386.16
  -3  -1  -8   38.20   52.49
  -3  -1  -8   77.39   30.90
   4  -3  -8  158.18   47.30
  -1   4  -8  155.88   50.89
  -4   3   8  168.88   47.00
   1  -4   8  126.49   47.10
   2   1  -8 4723.33  399.46
   1  -3  -8 4948.80  399.96
   3  -2   8 4448.25  369.96
   3  -2   8 4341.37  356.66
  -2  -1   8 4345.37  361.46
  -1   3   8 4358.16  361.96
   5  -2  -8  230.08   48.60
  -2  -3  -8  120.09   44.40
  -2  -3  -8   90.09   43.90
   3  -5   8   89.69   50.89
   3  -5   8   79.29   47.70
  -5   2   8  100.69   44.10
  -4  -2  -8  466.95   65.49
   6  -4  -8  419.96   75.39
  -6   4   8  468.95   82.39
   2  -6   8  504.15   83.69
   2  -6   8  553.34   87.29
   3  -4  -8  140.99   48.00
   1   3  -8   62.09   44.80
  -3   4   8    4.10   38.20
  -1  -3   8  101.99   43.40
   4   0  -8 2921.71  255.37
   0  -4  -8 3044.00  256.07
   4  -4   8 2888.71  265.17
  -4   0   8 3302.27  267.17
   4  -4   8 3217.38  264.57
   0   4   8 3095.59  267.77
  -3  -4  -8   24.50   49.60
   7  -3  -8   63.39   51.39
  -3  -4  -8   94.89   53.79
  -7   3   8   55.09   48.50
   4  -7   8  127.09   62.09
   4  -7   8   62.19   54.69
  -5  -3  -8  312.07   64.69
   8  -5  -8  361.76   73.59
  -8   5   8  311.67   67.19
   3  -8   8  374.06   77.49
   3  -8   8  346.67   76.59
   5  -5  -8  668.63   98.59
  -5   0  -8  803.92   93.99
   0   5  -8  999.70  104.59
  -5   5   8  631.94   90.19
   5   0   8  722.53   72.89
   0  -5   8  870.61   98.99
   3   2  -8   29.20   46.30
  -5   3  -8  193.58   39.50
   2  -5  -8  165.88   79.79
   5  -3   8   97.79   36.00
  -3  -2   8  169.08   45.30
  -2   5   8   63.79   46.30
  -1  -5  -8  968.60  119.99
   6  -1  -8 1161.78  116.49
  -1  -5  -8  976.20  115.59
   5  -6   8 1102.09  121.89
   5  -6   8 1206.38  127.09
  -6   1   8 1193.68  123.59
  -4  -5  -8  574.54   93.49
   9  -4  -8  597.04   96.89
  -4  -5  -8  613.94  100.59
   5  -9   8  503.65   90.79
   5  -9   8  636.14  111.39
  -9   4   8  524.85   91.79
  -6  -4  -8   12.40   61.99
  -6  -4  -8  113.09   62.19
  10  -6  -8  -65.79   60.49
 -10   6   8  -19.70   54.59
   4 -10   8   -5.70   67.19
   4 -10   8  -26.50   64.39
  -6  -1  -8  417.36   63.59
   7  -6  -8  333.67   77.49
  -7   6   8  314.17   62.79
   6   1   8  330.07   55.79
   2   4  -8  577.54   83.09
   4  -6  -8  503.85   83.29
  -6   2  -8  391.56   54.59
   6  -2   8  474.35   55.99
  -2  -4   8  466.45   75.89
  -4   6   8  337.77   69.99
   5   1  -8 1194.98  123.99
   1  -6  -8 1055.39  124.29
  -6   5  -8 1155.68  118.49
  -5  -1   8 1051.69  114.89
  -1   6   8  915.21  119.29
   6  -5   8 1157.88  111.49
  -2  -6  -8   77.29   60.59
  -2  -6  -8  329.77   72.59
   8  -2  -8  255.27   63.29
   6  -8   8  135.49   64.09
  -8   2   8  203.48   60.29
   6  -8   8  160.88   67.19
  -5  -6  -8  226.18   80.59
  11  -5  -8  419.36   89.39
  -5  -6  -8  332.37   92.29
   6 -11   8  112.09   74.39
 -11   5   8  136.89   73.79
   6 -11   8   19.50   90.29
  12  -7  -8   66.09   83.89
  -7  -5  -8  105.19   93.69
  -7  -5  -8   79.89   79.39
 -12   7   8  -24.00   70.49
   5 -12   8   89.79   85.69
   5 -12   8  -25.10   72.69
   9  -7  -8 1026.10  132.79
  -7  -2  -8 1153.18  123.69
   7   2   8 1098.29  121.09
  -9   7   8 1134.39  127.19
   2  -9   8 1023.10  130.69
   2  -9   8  899.01  131.99
   1   6  -8  274.87   71.79
  -7   1  -8  272.57   44.20
   6  -7  -8  421.66   74.79
  -6   7   8  327.47   62.69
  -1  -6   8  127.19   58.09
   7  -1   8  312.27   47.70
   3  -7  -8  -38.40   52.89
   4   3  -8    6.10   52.09
  -7   4  -8  -12.20   36.80
  -3   7   8   77.09   54.99
   7  -4   8   85.69   42.80
  -4  -3   8  -30.50   45.70
   0  -7  -8 1011.90  120.29
  -7   7  -8  955.30  114.59
   7   0  -8  945.61  115.89
   0  -7  -8  769.62  114.89
  -7   0   8  911.31  114.39
   7  -7   8 1030.50  113.89
  -3  -7  -8  160.48   76.39
  10  -3  -8  136.89   67.59
  -3  -7  -8   44.90   67.29
   7 -10   8  198.88   71.39
 -10   3   8  339.37  111.59
   7 -10   8  167.68   82.89
  -6  -7  -8  145.49   91.79
  13  -6  -8   74.99   84.09
  -6  -7  -8   24.50   90.59
   7 -13   8   24.90   97.69
 -13   6   8   98.99   83.09
   7 -13   8   16.00   80.99
  -8  -6  -8   14.90   91.29
  -8  -6  -8  206.28  102.79
  14  -8  -8  205.68  165.58
   6 -14   8  -25.20   83.19
 -14   8   8  116.99   86.29
  11  -8  -8   49.30   85.39
  -8  -3  -8  135.49   73.89
   3 -11   8   73.59   77.69
 -11   8   8    3.40   58.29
   3 -11   8  -71.09   71.29
  -8   0  -8 1001.50  101.99
   8  -8  -8  883.81  126.49
   0  -8   8 1091.69  129.29
   8   0   8  878.11  101.99
  -8   8   8  906.01  117.49
   3   5  -8  345.97   73.09
  -8   3  -8  361.16   58.39
   5  -8  -8  403.76   77.09
  -5   8   8  217.78   64.49
   8  -3   8  390.36   60.79
  -3  -5   8  301.17   81.29
   2  -8  -8  191.38   63.09
  -8   6  -8  237.88   60.49
   6   2  -8  210.98   66.09
  -2   8   8  161.78   66.59
  -6  -2   8  309.37   66.59
   8  -6   8  252.17   63.49
  -1  -8  -8  191.88   77.39
   9  -1  -8  334.27   77.79
  -1  -8  -8  195.28   72.39
  -9   1   8  216.78   72.39
   8  -9   8  233.38   69.89
  -4  -8  -8  613.04  118.39
  12  -4  -8  599.54   98.99
  -4  -8  -8  189.98   95.59
   8 -12   8  278.57   92.89
   8 -12   8   98.99   98.69
 -12   4   8  404.36   87.89
  -7  -8  -8  -51.59  132.39
  -7  -8  -8   68.89  107.69
  15  -7  -8  -49.80   92.29
   8 -15   8   38.30   97.59
 -15   7   8   25.50   87.29
  -9  -4  -8  318.47  136.59
  -9  -4  -8  279.47   91.29
   4 -13   8   72.99   85.79
   4 -13   8  194.38  108.19
 -13   9   8  193.68   81.29
  -9  -1  -8   78.79   57.19
  10  -9  -8   13.50   79.09
 -10   9   8   -1.00   66.09
   1 -10   8   20.10   80.99
   9   1   8   34.20   56.09
   1 -10   8   67.59   70.29
  -9   2  -8 1093.59  106.59
   2   7  -8  921.51  132.79
   7  -9  -8 1071.79  132.09
   9  -2   8 1133.09  108.19
  -7   9   8  804.62  124.69
  -2  -7   8 1015.20  123.99
   4  -9  -8  505.75   86.49
  -9   5  -8  517.85   83.19
   5   4  -8  537.05   98.09
  -4   9   8  363.86   83.69
  -5  -4   8  537.75   92.09
   9  -5   8  678.83   78.39
   1  -9  -8   95.49   70.39
  -9   8  -8  185.18   67.39
   8   1  -8  264.37   75.79
   1  -9  -8  108.29   69.29
  -8  -1   8  354.66  132.09
   9  -8   8  317.97   77.59
  -2  -9  -8  119.59   88.19
  -2  -9  -8  233.58   85.39
  11  -2  -8   69.79   79.39
   9 -11   8  273.27   97.19
   9 -11   8  106.09   77.59
 -11   2   8  176.78   75.99
  14  -5  -8   17.90   85.49
  -5  -9  -8  131.59  108.39
  -5  -9  -8   45.20  103.79
   9 -14   8  -34.00  113.99
   9 -14   8    3.10   90.39
 -14   5   8  205.18   89.79
  15 -10  -8 -148.89  110.69
 -10  -5  -8   17.80   83.79
 -10  -5  -8  -19.40   96.69
   5 -15   8   36.50   93.49
 -15  10   8   60.89   98.89
  12 -10  -8   83.29   98.89
 -10  -2  -8  104.39   72.09
   2 -12   8  -62.29   82.19
  10   2   8   64.69   70.19
   2 -12   8  142.79   93.49
 -12  10   8 -100.69   77.59
   9 -10  -8  -30.10   82.09
 -10   1  -8   84.79   48.70
  -9  10   8  -20.70   60.29
  10  -1   8  131.99   51.89
  -1  -9   8   38.50   65.29
  -1  -9   8  113.39   80.69
 -10   4  -8   -8.90   41.90
   6 -10  -8  -12.60   60.89
   4   6  -8   62.09   61.79
  -6  10   8   46.90   65.09
  -4  -6   8   41.40   59.09
  10  -4   8   51.89   49.60
   3 -10  -8  144.89   74.49
 -10   7  -8  153.18   68.39
   7   3  -8  169.48   76.29
  -7  -3   8  263.27   85.19
  10  -7   8  222.58   78.09
 -10  10  -8   81.59   81.89
   0 -10  -8   48.20   87.49
   0 -10  -8  230.68   84.49
  10   0  -8   91.69   77.39
  10 -10   8  118.59   81.29
 -10   0   8  308.77   92.69
  13  -3  -8  187.88   86.89
  -3 -10  -8  126.29  103.59
  -3 -10  -8   72.09   98.59
  10 -13   8  144.19  130.19
  10 -13   8  178.58   93.09
 -13   3   8  189.78   88.69
 -11  -3  -8   38.40  119.49
  14 -11  -8  144.59  117.09
 -14  11   8   86.49   94.99
   3 -14   8   -5.20   89.79
  11 -11  -8   45.80   98.49
 -11   0  -8  -21.90   53.89
   0 -11   8  -57.29   73.49
   0 -11   8  -57.69   81.89
 -11  11   8  -36.30   75.59
   8 -11  -8   69.59  144.89
 -11   3  -8   29.60   46.00
   3   8  -8    7.10   72.59
  -8  11   8  133.99   76.19
  11  -3   8   75.49   56.19
  -3  -8   8  175.28   78.89
 -11   6  -8  235.18   66.39
   6   5  -8  297.77   85.69
   5 -11  -8  327.77   94.29
  11  -6   8  326.27   69.69
  -6  -5   8  259.07   82.09
  -5  11   8  196.18   78.69
 -11   9  -8  233.18   80.59
   9   2  -8  159.88   84.19
   2 -11  -8   31.50   78.59
   2 -11  -8  172.58   79.49
  11  -9   8  331.47   97.49
  -9  -2   8  203.78   97.19
  12  -1  -8  114.19   80.39
  -1 -11  -8   46.60   87.69
  11 -12   8  101.59   93.69
 -12   1   8   19.90   80.79
  11 -12   8   84.49  103.79
 -12  -1  -8   66.09   64.89
  13 -12  -8  100.79  110.69
  12   1   8   67.49   67.99
   1 -13   8  132.19   99.19
 -13  12   8  136.69   93.49
 -12   2  -8   54.29   55.29
  10 -12  -8  189.38   97.39
 -10  12   8   -3.10  121.79
  -2 -10   8   19.40   97.19
  12  -2   8  148.79   66.39
  -2 -10   8  221.48  104.09
 -12   5  -8   53.59   58.39
   7 -12  -8  127.19   76.09
   5   7  -8  -16.40   83.29
  12  -5   8   14.10   62.09
  -7  12   8  -83.89   71.09
  -5  -7   8   61.59   77.09
   4 -12  -8  277.97  125.89
 -12   8  -8  592.54  158.98
   4 -12  -8  142.69   85.89
   8   4  -8  474.35  104.99
  12  -8   8  406.76   93.69
  -8  -4   8  475.65  118.99
  11   1  -8   -7.30   81.39
   1 -12  -8  219.48  101.49
   1 -12  -8   76.49   88.19
 -12  11  -8   -4.10   88.59
  12 -11   8 -138.09   95.29
 -11  -1   8   84.99   92.99
  14  -2  -8  104.09   87.29
  -2 -12  -8 -110.99  102.19
  12 -14   8  -49.50  104.59
  12 -14   8   81.89  133.79
 -14   2   8   56.79   89.89
 -13   1  -8   27.60   53.49
  12 -13  -8    6.60  108.79
  13  -1   8  -23.40   62.79
 -12  13   8   35.50   95.69
  -1 -12   8   58.49   99.19
   9 -13  -8  159.18   89.19
 -13   4  -8  195.58   60.39
   4   9  -8   -6.20   87.89
  -9  13   8  267.27  100.99
  13  -4   8  204.78   80.79
  -4  -9   8   17.10  106.89
   6 -13  -8  -62.79   76.49
   7   6  -8    6.50  171.68
 -13   7  -8   20.00   70.19
  -7  -6   8  240.78   91.69
  13  -7   8  -13.30   67.99
   3 -13  -8   44.50   96.69
   3 -13  -8  103.79   86.79
  10   3  -8  225.18   99.09
 -13  10  -8   25.00   85.39
  13 -10   8  278.17  110.69
 -10  -3   8   64.89  110.29
   0 -13  -8  141.09  106.59
  13   0  -8  287.77  106.39
  13 -13   8  193.58  125.79
 -13   0   8  155.58  100.29
  13 -13   8  184.48  118.79
  11 -14  -8  -33.70   97.99
 -14   3  -8    2.40   49.99
  -3 -11   8   28.20  109.39
  14  -3   8   62.59   69.99
   8 -14  -8  141.69   86.49
 -14   6  -8  130.79   66.69
   6   8  -8  173.98  113.39
  -6  -8   8  214.48  107.09
  14  -6   8   20.00   66.29
   5 -14  -8   21.50   83.59
 -14   9  -8  114.49   83.69
   9   5  -8   38.90   96.79
  -9  -5   8   -1.50  105.29
  14  -9   8   97.49   86.99
  12   2  -8   13.40  100.39
 -14  12  -8  -72.59   97.19
   2 -14  -8   74.59  102.39
 -12  -2   8  -40.40  104.69
  14 -12   8  138.39  117.19
  10 -15  -8   73.89  100.89
 -15   5  -8    1.70   58.79
  15  -5   8   34.90   64.69
  -5 -10   8   45.40  121.19
   8   7  -8   91.69  113.59
 -15   8  -8  123.79   82.39
   7 -15  -8   64.39   82.49
  -8  -7   8  -17.60  109.39
  15  -8   8  -22.20   75.59
   0   0  -9  -13.20   25.80
   0   0   9   63.19   25.00
  -1  -1  -9 2504.65  211.38
   2  -1  -9 2718.53  217.28
  -1   2  -9 2427.66  216.38
  -2   1   9 2546.35  203.38
   1  -2   9 2317.97  201.18
   1   1   9 2246.68  206.88
  -2   1  -9 1888.61  188.68
   1   1  -9 2631.64  197.88
   1  -2  -9 2551.04  196.48
  -1  -1   9 2369.56  188.28
   2  -1   9 1884.01  180.48
  -1   2   9 2482.05  188.38
   4  -2  -9 1069.49  105.89
  -2  -2  -9  892.11   97.09
  -2   4  -9 1029.20  108.29
  -4   2   9 1084.69  107.19
   2  -4   9 1016.90  109.89
   3  -3  -9    8.90   45.40
   0   3  -9  -32.50   39.60
  -3   3   9   58.99   41.20
   0  -3   9  -68.19   35.60
   0  -3  -9  -68.79   35.20
   3   0  -9  -22.60   40.80
  -3   0   9   15.50   40.10
   3  -3   9  -20.10   34.60
   3  -3   9   34.90   36.10
   0   3   9   88.29   42.00
  -3  -3  -9 3120.09  255.87
  -3  -3  -9 2904.41  254.87
   6  -3  -9 2855.01  257.77
   3  -6   9 3294.47  280.67
  -6   3   9 3160.78  276.67
   3  -6   9 3129.49  276.47
   5  -4  -9  447.26   73.19
  -1   5  -9  288.27   63.49
  -4  -1  -9  355.86   51.09
  -4  -1  -9  302.37   48.80
  -5   4   9  372.86   61.29
   1  -5   9  278.77   59.59
   2   2  -9 1129.49  117.59
   2  -4  -9 1148.99  117.59
   4  -2   9  962.50   89.79
  -2   4   9 1035.70  105.19
  -2  -2   9 1010.60  104.79
   5  -1  -9  576.04   84.49
  -1  -4  -9  655.43   83.09
   1   4   9  712.43   83.99
   4  -5   9  577.94   79.49
  -5   1   9  526.25   85.09
   4  -5   9  594.84   82.79
  -4  -4  -9  -68.49   84.89
   8  -4  -9   21.30   53.09
  -4  -4  -9   93.09   52.79
   4  -8   9   70.09   58.89
  -8   4   9   50.09   52.79
   4  -8   9  -14.00   54.39
   7  -5  -9  652.03   97.39
  -5  -2  -9  762.82   88.69
   2  -7   9  855.91  102.99
  -7   5   9  678.73   96.19
   2  -7   9  594.84   98.39
   4  -5  -9  301.27   64.19
   1   4  -9  297.27   59.99
  -1  -4   9  292.27   55.49
  -4   5   9  282.67   56.49
   1  -5  -9  513.95   94.59
   4   1  -9  571.34   81.69
  -4  -1   9  488.45   75.39
   5  -4   9  505.05   69.29
  -1   5   9  585.34   82.39
  -2  -5  -9 1197.78  126.79
   7  -2  -9 1070.29  125.89
  -2  -5  -9 1115.39  127.09
   5  -7   9 1049.99  125.59
   5  -7   9  991.50  117.59
  -7   2   9 1010.80  115.39
  -5  -5  -9  194.98   73.89
  10  -5  -9  223.88   71.09
  -5  -5  -9   89.19   64.09
   5 -10   9  184.78   79.79
 -10   5   9  161.58   70.49
   5 -10   9  284.17   76.69
  -6  -3  -9  628.44   95.49
   9  -6  -9  582.94  101.49
  -6  -3  -9  638.74   92.99
  -9   6   9  499.85   91.49
   3  -9   9  570.04   97.29
   3  -9   9  521.45   92.59
  -6   0  -9  -32.40   29.10
   0   6  -9  -37.60   49.60
   6  -6  -9  -25.60   54.19
   6   0   9   30.20   32.20
   0  -6   9  -20.10   51.09
  -6   6   9   81.69   46.50
  -6   3  -9 3082.39  253.27
   3   3  -9 3237.18  265.47
   3  -6  -9 2745.53  263.17
  -3   6   9 2742.63  255.47
  -3  -3   9 2996.10  254.37
   6  -3   9 2911.41  241.48
   6   0  -9  -51.39   52.29
   0  -6  -9  -87.39   50.89
   0   6   9  -69.39   50.89
   6  -6   9   16.30   47.70
  -6   0   9  -49.70   44.10
  -3  -6  -9  202.08   72.79
   9  -3  -9  336.07   71.89
  -3  -6  -9  155.58   66.09
   6  -9   9  104.29   63.39
  -9   3   9  155.18   59.99
   6  -9   9  171.48   68.39
  12  -6  -9  -21.90   75.29
  -6  -6  -9   26.70   80.39
  -6  -6  -9   12.10   78.49
   6 -12   9   50.59   77.69
 -12   6   9    2.50   72.79
   6 -12   9   45.80   91.49
  -7  -4  -9  -46.40   69.39
  -7  -4  -9  -86.79   65.79
  11  -7  -9  -21.40   72.59
   4 -11   9   82.29   76.09
 -11   7   9    0.40   63.89
  -7  -1  -9  345.37   58.09
   8  -7  -9  279.57   81.39
  -8   7   9  134.19   55.89
   1  -8   9  193.78   64.79
   1  -8   9  386.86   80.69
   7   1   9  278.87   53.89
   2   5  -9  584.14   94.29
  -7   2  -9  662.43   66.69
   5  -7  -9  507.95   94.49
   7  -2   9  648.14   72.79
  -2  -5   9  704.23   97.49
  -5   7   9  721.33   96.79
   2  -7  -9  912.01  114.39
  -7   5  -9  889.01  106.29
   5   2  -9 1039.20  117.19
   7  -5   9 1264.57  116.89
  -2   7   9  974.00  126.89
  -5  -2   9 1029.20  122.69
   8  -1  -9  131.69   61.89
  -1  -7  -9  183.98   64.69
  -8   1   9   30.60   55.69
   7  -8   9  128.09   59.99
   7  -8   9  141.69   62.79
  -4  -7  -9   -1.80   72.39
  11  -4  -9  127.09   74.09
  -4  -7  -9  -98.39   69.29
   7 -11   9   13.80   71.59
 -11   4   9   55.59   64.79
   7 -11   9  -33.80   80.09
  -7  -7  -9   77.69  104.59
  -7  -7  -9   89.89   97.39
  14  -7  -9  -41.90  106.99
   7 -14   9  150.08   94.39
   7 -14   9  -23.40  131.79
 -14   7   9  108.19   88.39
  -8  -5  -9   94.39   83.49
  13  -8  -9   93.49   97.49
  -8  -5  -9   60.09   92.99
   5 -13   9   42.00   93.79
 -13   8   9   90.39   77.69
   5 -13   9    3.50   80.39
  -8  -2  -9  -29.10   56.79
  10  -8  -9  166.78   77.39
 -10   8   9   -5.60   53.39
   8   2   9   97.89   61.59
   2 -10   9   55.99   70.89
   2 -10   9   86.79   66.69
   1   7  -9  213.18   70.79
   7  -8  -9  409.06   81.69
  -8   1  -9  235.28   46.70
  -7   8   9  146.89   64.59
   8  -1   9  236.68   46.20
  -1  -7   9  215.88   62.69
   4  -8  -9    8.80   50.79
  -8   4  -9   63.59   39.10
   4   4  -9    8.30   50.69
   8  -4   9   67.89   37.90
  -4  -4   9   55.69   53.49
  -4   8   9   11.90   48.60
   1  -8  -9  204.68   65.49
  -8   7  -9  122.29   57.19
   7   1  -9  140.99   64.59
   1  -8  -9  103.79   56.79
  -7  -1   9   86.99   63.19
   8  -7   9  143.29   63.09
  -2  -8  -9   44.20   67.79
  10  -2  -9  -72.09   57.19
  -2  -8  -9   21.80   73.39
 -10   2   9   -5.80   61.59
   8 -10   9   10.70   69.19
   8 -10   9    7.80   81.49
  -5  -8  -9   59.09   93.19
  13  -5  -9  188.68   83.79
  -5  -8  -9  108.39   88.19
   8 -13   9  149.88  111.49
 -13   5   9  149.39   90.99
   8 -13   9  116.99   87.69
  -9  -6  -9  -22.30  100.39
  -9  -6  -9   13.40   86.89
  15  -9  -9  -46.50  101.19
   6 -15   9   55.59   94.69
  12  -9  -9  210.88  110.49
  -9  -3  -9  373.56   90.79
 -12   9   9  140.29   75.49
   3 -12   9  196.08   92.39
   3 -12   9  376.26  106.89
  -9   0  -9  -53.99   43.00
   9  -9  -9  -31.30   70.79
  -9   9   9  -55.79   59.19
   0  -9   9   34.70   59.19
   0  -9   9   16.20   71.59
   9   0   9   51.19   47.30
   6  -9  -9  579.14  100.19
  -9   3  -9  489.45   70.09
   3   6  -9  644.24  101.79
  -3  -6   9  605.14   99.79
  -6   9   9  547.25   96.59
   9  -3   9  493.05   71.89
   6   3  -9  189.78   64.99
   3  -9  -9   95.29   61.79
  -9   6  -9  143.99   59.69
  -3   9   9  107.49   61.69
  -6  -3   9  144.39   65.29
   9  -6   9  163.98   64.79
   0  -9  -9   -9.40   66.99
   9   0  -9    7.80   61.49
  -9   9  -9  -78.99   67.29
   0  -9  -9  -75.99   60.29
   9  -9   9   66.19   68.19
  -9   0   9   32.80   58.39
  12  -3  -9   46.50   76.39
  -3  -9  -9 -167.58   84.99
  -3  -9  -9  -16.50   84.29
 -12   3   9  146.99   84.19
   9 -12   9  177.88   87.09
   9 -12   9  117.19  103.49
  -6  -9  -9   -2.80  119.39
  -6  -9  -9  -44.80   97.19
  15  -6  -9   39.70   89.09
 -15   6   9   -2.40   86.59
   9 -15   9   58.89   96.69
 -10  -4  -9   43.60   75.29
  14 -10  -9  -11.00  109.19
 -10  -4  -9   57.19   96.49
   4 -14   9   70.49   85.39
 -14  10   9 -133.09  149.19
 -10  -1  -9    4.90   61.69
   1 -11   9  -80.29   92.49
 -11  10   9   78.79   69.79
   1 -11   9  176.38   89.59
  10   1   9   66.59  120.79
   2   8  -9  -22.40   64.49
   8 -10  -9  -71.39   68.69
 -10   2  -9   51.99   41.50
  -8  10   9   62.59   63.49
  -2  -8   9 -106.39   51.99
  10  -2   9  -41.50   45.20
 -10   5  -9   73.49   50.79
   5 -10  -9   87.09   65.39
   5   5  -9  207.98   73.69
  -5  10   9   10.40   54.79
  -5  -5   9   96.59   69.99
  10  -5   9  278.97   56.59
   2 -10  -9   -3.30   68.09
 -10   8  -9 -105.09   61.09
   8   2  -9   77.69   70.09
   2 -10  -9  -25.10   64.09
  10  -8   9  -66.39   67.89
  -8  -2   9  -53.59   66.49
  11  -1  -9  244.98   85.39
  -1 -10  -9  109.29  103.89
  -1 -10  -9  218.28   97.79
  10 -11   9  157.98   97.39
 -11   1   9  103.49   80.69
  10 -11   9  164.58   86.69
  -4 -10  -9  -28.40  100.69
  14  -4  -9   43.80   84.69
  10 -14   9  213.98  126.49
 -14   4   9  113.49   85.99
  10 -14   9  143.39   97.19
 -11  -2  -9   -0.60   68.79
  13 -11  -9 -179.98   99.99
   2 -13   9  -26.80   85.69
 -13  11   9   65.09   85.89
  10 -11  -9  -75.09   78.99
 -11   1  -9   28.10   49.70
  11  -1   9   48.70   56.69
  -1 -10   9   51.39   74.59
 -10  11   9  -56.19   72.29
  -1 -10   9  162.18   94.19
 -11   4  -9   -6.90   48.90
   4   7  -9   84.59   75.79
  -4  -7   9 -107.99   61.29
  -7  11   9  111.69   70.09
  11  -4   9  -84.19   48.40
 -11   7  -9   35.20   60.99
   7   4  -9 -113.79   71.09
  -7  -4   9   33.30   73.19
  -4  11   9  -30.20   68.29
  11  -7   9    1.90   60.29
   1 -11  -9  266.07   94.99
   1 -11  -9   12.40   89.69
 -11  10  -9  296.27   93.69
  10   1  -9  245.98   90.79
 -10  -1   9  140.39   88.79
  11 -10   9  259.97   92.89
  -2 -11  -9  100.79  104.19
  13  -2  -9  -78.49   80.99
  -2 -11  -9  -38.70   97.69
  11 -13   9   50.79   94.59
 -13   2   9  107.59   89.79
  11 -13   9  436.26  162.58
  12 -12  -9  -40.80  108.59
 -12   0  -9   -7.30   54.69
 -12  12   9   10.80   86.09
  12   0   9   32.00   99.19
   0 -12   9  -93.89   87.49
   0 -12   9   48.20   94.39
   3   9  -9   56.79   90.09
   9 -12  -9  409.56   99.99
 -12   3  -9  232.78   56.39
  -9  12   9  194.68  174.28
  12  -3   9  365.96   68.29
  -3  -9   9  161.38   89.59
   6   6  -9  -19.20   74.89
 -12   6  -9  -29.10   58.79
   6 -12  -9  -22.00   72.69
  -6  12   9   49.90   75.49
  12  -6   9  -20.90   61.99
  -6  -6   9  -50.89   72.79
 -12   9  -9   64.69   80.79
   3 -12  -9  -65.89  112.79
   3 -12  -9  277.27   91.49
   9   3  -9   73.19   88.49
  12  -9   9  203.18   94.89
  -9  -3   9  -16.80   97.09
   0 -12  -9   68.09  102.09
  12   0  -9   91.39   90.19
   0 -12  -9  -74.89   89.89
 -12   0   9 -120.19   84.29
  12 -12   9  -58.79   96.19
  12 -12   9  -24.90   95.89
  11 -13  -9  244.38  106.29
 -13   2  -9   32.70   47.00
 -11  13   9   57.69   85.89
  -2 -11   9   43.90  105.49
  -2 -11   9   15.80   89.69
  13  -2   9  199.28   66.79
   5   8  -9   41.80   91.99
   8 -13  -9  -29.00   76.89
 -13   5  -9   36.50   55.79
  -8  13   9  101.39   86.89
  13  -5   9   97.69   67.89
  -5  -8   9   59.79   92.99
   5 -13  -9   46.50   78.39
   5 -13  -9  100.89   89.49
   8   5  -9  312.57  145.19
 -13   8  -9  -69.29  130.39
  13  -8   9  -38.60   75.79
  -8  -5   9  140.89  100.19
   2 -13  -9  -89.19  104.79
   2 -13  -9  -59.39   84.89
 -13  11  -9   77.29   97.49
  11   2  -9  -67.39   87.19
  13 -11   9   10.10  105.99
 -11  -2   9  -57.59   97.39
  10 -14  -9 -102.59   86.29
 -14   4  -9  -16.10   50.69
  -4 -10   9   16.70  112.39
  -4 -10   9 -122.99   86.89
 -14   7  -9   87.99   70.99
   7 -14  -9  188.28   90.59
   7   7  -9  211.78  112.49
  -7  -7   9  -26.90  183.38
  14  -7   9  216.08   76.29
   4 -14  -9   63.19   85.59
 -14  10  -9   57.89   89.59
  10   4  -9   78.19  100.39
 -10  -4   9   31.50  122.99
  14 -10   9  125.09  100.19
   9 -15  -9   30.80   94.19
 -15   6  -9   -8.10   65.39
   6   9  -9   51.19  102.19
  15  -6   9   23.10   62.09
  -6  -9   9   64.69  156.88
   9   6  -9   48.00   99.59
   6 -15  -9  125.19   91.09
 -15   9  -9   85.29   85.29
  -9  -6   9   41.50  122.19
  15  -9   9   59.49   85.89
   1  -1 -10 1283.97  105.99
  -1   0 -10  979.70   99.09
   0   1 -10 1135.69  104.49
   1   0  10  990.70   92.79
   0  -1  10 1056.89   97.79
  -1   1  10 1111.39  100.29
  -1   3 -10 2029.50  180.98
  -2  -1 -10 2091.89  170.18
   3  -2 -10 1920.41  178.48
   2   1  10 1860.41  170.28
   1  -3  10 2059.39  176.68
  -3   2  10 2084.79  177.28
  -2   2 -10  372.76   59.89
   0  -2 -10  460.85   63.59
   2   0 -10  370.76   67.59
   0   2  10  400.96   59.99
   2  -2  10  301.57   52.29
  -2   0  10  462.75   67.29
  -2   5 -10   63.09   55.19
  -3  -2 -10   80.89   38.40
  -3  -2 -10   94.69   36.60
   5  -3 -10  140.79   82.79
   2  -5  10  109.19   47.40
  -5   3  10  -27.10   44.80
   2  -3 -10 2330.87  193.38
   1   2 -10 2041.20  191.88
  -2   3  10 1936.41  183.18
  -1  -2  10 2238.38  184.58
  -1  -3 -10 1724.53  157.68
   4  -1 -10 1776.02  162.48
   1   3  10 2054.69  174.48
  -4   1  10 1767.22  175.68
   3  -4  10 1962.80  172.98
   3  -4  10 2004.30  174.88
  -4  -3 -10  782.82   97.79
  -4  -3 -10  837.92   99.19
   7  -4 -10  868.71  104.79
  -7   4  10  881.61  101.19
   3  -7  10  788.72  103.49
   3  -7  10  715.33  108.19
   4  -4 -10 1395.76  154.88
   0  -4  10 1696.13  149.59
  -4   4  10 1461.05  147.89
   3   1 -10 1878.11  166.58
   1  -4 -10 1735.73  165.48
   4  -3  10 1862.71  164.08
  -1   4  10 1824.92  171.58
  -3  -1  10 2089.79  171.38
   4  -3  10 1799.72  165.78
  -2  -4 -10  498.75   77.79
  -2  -4 -10  436.96   78.79
   6  -2 -10  448.16   75.39
   4  -6  10  550.84   81.79
  -6   2  10  544.55   80.39
   4  -6  10  579.94   90.79
  -5  -4 -10  271.77   69.79
  -5  -4 -10  430.36   77.09
   9  -5 -10  394.06   80.29
  -9   5  10  390.76   97.19
   4  -9  10  437.56   80.79
   4  -9  10  302.47   77.99
  -1   6 -10  167.38   61.49
   6  -5 -10  201.58   61.59
  -5  -1 -10  262.27   41.10
   1  -6  10  305.57   64.49
  -6   5  10  177.48   57.69
   3  -5 -10   14.80   48.40
   2   3 -10   30.20   43.60
  -3   5  10  112.79   44.10
   5  -2  10   37.20   23.40
  -2  -3  10  132.49   47.40
   5   0 -10 4206.08  360.26
   0  -5 -10 4334.77  363.56
  -5   0  10 4301.37  365.36
   0   5  10 4217.98  365.86
   5  -5  10 4479.25  362.76
   5  -5  10 4272.17  365.26
   8  -3 -10  249.78   65.39
  -3  -5 -10   35.10   55.29
  -3  -5 -10  195.48   61.99
  -8   3  10  193.48   59.59
   5  -8  10  204.68   68.99
   5  -8  10  312.77  124.49
  -6  -5 -10   26.70   68.29
  -6  -5 -10   23.80   70.89
  11  -6 -10   15.30   68.89
 -11   6  10   54.99   65.09
   5 -11  10  -38.50   76.29
   5 -11  10   55.99   75.09
   8  -6 -10  361.96   78.39
  -6  -2 -10  335.17   61.89
   2  -8  10  289.67   76.19
   2  -8  10  207.78   64.69
   5  -6 -10  232.88   65.99
   1   5 -10  260.17   60.49
   6  -1  10  269.87   38.30
  -1  -5  10  234.78   55.29
  -5   6  10  201.48   56.59
   2  -6 -10  400.56   71.59
  -6   4 -10  483.35   68.09
   4   2 -10  489.85   82.49
  -2   6  10  366.26   68.79
  -4  -2  10  537.15   75.69
   6  -4  10  334.97   58.29
   7  -1 -10  391.26   73.79
  -1  -6 -10  339.27   71.19
  -1  -6 -10  223.88   66.29
   6  -7  10  474.25   80.69
  -7   1  10  448.96   74.49
   6  -7  10  289.07   73.89
  -4  -6 -10  502.45   95.59
  10  -4 -10  567.54   91.69
  -4  -6 -10  378.66   92.29
 -10   4  10  539.95   92.29
   6 -10  10  365.56   86.79
   6 -10  10  363.16   96.19
  -7  -6 -10  -81.49   78.89
  -7  -6 -10   74.09   90.29
  13  -7 -10   15.20   86.09
   6 -13  10  -82.19   78.89
 -13   7  10   46.40   79.19
   6 -13  10    2.70   91.89
  -7  -3 -10  489.55   80.89
  10  -7 -10  221.48   82.99
  -7  -3 -10  339.57  115.09
   3 -10  10  448.46   92.39
 -10   7  10  360.06   78.99
   3 -10  10  301.37   83.99
   7  -7 -10   44.80   59.99
  -7   0 -10   71.89   32.60
   0   7 -10   51.39   59.89
   7   0  10   75.89   36.00
   0  -7  10   17.80   48.70
  -7   7  10    8.80   44.90
  -7   3 -10  798.92   83.49
   4  -7 -10  816.62  104.29
   3   4 -10  729.43  105.89
  -3  -4  10  835.32  107.79
   7  -3  10  848.52   81.99
  -4   7  10  823.42  107.49
   6   1 -10  467.15   78.59
   1  -7 -10  280.07   71.49
  -7   6 -10  409.56   71.59
  -1   7  10  180.98   67.79
  -6  -1  10  488.75   75.79
   7  -6  10  605.24   99.79
   9  -2 -10   91.59   66.09
  -2  -7 -10  155.18   68.49
  -2  -7 -10   58.79   69.19
  -9   2  10   59.29   69.49
   7  -9  10  176.08   74.39
   7  -9  10  266.67   72.79
  -5  -7 -10  192.98   90.29
  12  -5 -10  292.17   94.29
  -5  -7 -10  373.56   98.69
 -12   5  10  180.38   88.09
   7 -12  10  154.08   84.79
   7 -12  10  236.78  102.19
  -8  -7 -10  -20.70  103.19
  15  -8 -10  161.78  109.29
  -8  -7 -10  110.89   95.39
   7 -15  10  -15.80   88.39
 -15   8  10  110.79  106.69
  12  -8 -10  267.97   93.39
  -8  -4 -10  331.87   92.19
  -8  -4 -10  300.47   84.59
   4 -12  10   16.80   82.99
 -12   8  10  201.98   80.59
  -8  -1 -10  684.03   86.49
   9  -8 -10  568.84  104.79
   8   1  10  631.24   81.59
  -9   8  10  413.36   83.79
   1  -9  10  586.24  104.29
   1  -9  10  318.17   88.89
   2   6 -10  349.27   78.39
   6  -8 -10  385.66   79.69
  -8   2 -10  312.57   50.49
  -2  -6  10  354.16   73.39
  -6   8  10  241.98   65.39
   8  -2  10  321.57   48.70
   3  -8 -10   92.59   59.49
   5   3 -10  298.37   69.29
  -8   5 -10  253.67   55.09
  -3   8  10  170.28   63.09
  -5  -3  10  141.09   61.49
   8  -5  10  344.17   57.49
   0  -8 -10  919.71  142.69
   8   0 -10 1303.17  140.79
   0  -8 -10 1226.98  140.29
  -8   0  10 1141.09  146.49
   8  -8  10 1431.96  141.39
  -3  -8 -10  109.69   80.79
  11  -3 -10  118.59   74.09
  -3  -8 -10   94.09   81.39
 -11   3  10  156.78   71.69
   8 -11  10   66.09   88.39
   8 -11  10   37.90   77.59
  14  -6 -10   14.40  101.89
  -6  -8 -10   21.90  105.39
  -6  -8 -10  140.49  102.59
   8 -14  10   26.00  112.39
   8 -14  10  -25.00   87.59
 -14   6  10  -34.30   79.89
  14  -9 -10   54.09  101.19
  -9  -5 -10  -21.90   75.89
  -9  -5 -10  -69.89   90.49
   5 -14  10  111.89   88.99
 -14   9  10  -70.89   79.39
  11  -9 -10  256.17   95.79
  -9  -2 -10  167.58   74.39
   2 -11  10   56.09   79.09
 -11   9  10  126.39   71.19
   2 -11  10  164.38   85.19
  -9   1 -10  520.35   68.59
   1   8 -10  736.23  111.79
   8  -9 -10  471.45   95.39
  -1  -8  10  448.66   89.89
   9  -1  10  774.52   78.59
  -8   9  10  354.86   88.49
   4   5 -10  391.76   80.09
  -9   4 -10  428.46   68.39
   5  -9 -10  320.87   77.19
   9  -4  10  552.44   65.39
  -5   9  10  258.57   74.49
  -4  -5  10  314.47   73.79
   2  -9 -10   36.40   65.49
  -9   7 -10   43.00   55.19
   7   2 -10   64.59   62.99
   9  -7  10   95.49   61.29
  -7  -2  10  168.28   67.39
  -2   9  10   66.19   59.59
  -1  -9 -10  236.18   92.29
  10  -1 -10  152.18   79.49
  -1  -9 -10  323.17   86.89
   9 -10  10  -15.30   71.09
   9 -10  10    5.70   83.99
 -10   1  10  209.58   73.29
  -4  -9 -10   47.50   93.59
  13  -4 -10   23.60   79.89
  -4  -9 -10   11.30   95.29
   9 -13  10  125.19  119.49
 -13   4  10   72.69   88.49
   9 -13  10   69.19   90.79
 -10  -3 -10    0.30   68.59
  13 -10 -10   16.40   96.59
 -10  -3 -10 -118.79   80.59
   3 -13  10 -110.79   97.89
   3 -13  10  147.49   88.99
 -13  10  10  101.09   82.59
  10 -10 -10   47.40   88.39
 -10   0 -10  -43.40   43.90
   0 -10  10 -106.59   75.19
   0 -10  10  -15.90   62.79
 -10  10  10   25.40   69.49
  10   0  10  -52.89   49.00
 -10   3 -10  374.16   62.69
   3   7 -10  375.86   82.39
   7 -10 -10  230.28   75.39
  -3  -7  10  304.97   76.09
  10  -3  10  442.06   65.09
  -7  10  10   76.29   63.09
   4 -10 -10  469.55   88.69
   6   4 -10  549.95  103.29
 -10   6 -10  470.45   80.69
  -6  -4  10  335.87   85.59
  10  -6  10  415.96   76.69
  -4  10  10  281.57   77.99
   9   1 -10   74.69   73.89
 -10   9 -10  204.08   80.29
   1 -10 -10  -29.60   65.29
   1 -10 -10   26.60   73.59
  -9  -1  10   79.29   73.19
  10  -9  10  174.98   76.19
  -2 -10 -10   72.59   91.89
  12  -2 -10    9.40   76.69
  -2 -10 -10   13.60   98.29
  10 -12  10   46.60   85.69
  10 -12  10   89.19  105.79
 -12   2  10   89.69   83.79
  15  -5 -10  198.18   95.99
  -5 -10 -10  150.28  113.59
  -5 -10 -10  236.38  126.59
 -15   5  10    9.40   91.09
  10 -15  10   94.09  103.49
 -11  -1 -10 -139.99   50.29
  12 -11 -10   11.20   96.89
   1 -12  10  163.48   89.09
   1 -12  10  -92.29   78.29
   9 -11 -10   82.09   87.19
 -11   2 -10  138.49   46.70
   2   9 -10  188.78   86.99
  -2  -9  10  123.39   75.49
  11  -2  10  251.57   55.59
  -9  11  10   13.20   67.89
   5   6 -10   -8.50   69.09
 -11   5 -10   51.29   51.99
  -5  -6  10   73.39   76.99
  11  -5  10  130.89   55.19
  -6  11  10  104.29   70.79
   8   3 -10  205.48   85.49
 -11   8 -10    5.90   67.19
   3 -11 -10  141.29   83.39
   3 -11 -10   -6.50   80.69
  -8  -3  10   74.79   79.79
  11  -8  10  161.38   85.39
   0 -11 -10  -89.19   85.79
   0 -11 -10   72.59   88.59
  11   0 -10  178.68   89.29
  11 -11  10  116.99   94.29
 -11   0  10   31.20   86.49
  11 -11  10   70.19  102.99
  -3 -11 -10   88.09  108.79
  -3 -11 -10   88.69  114.09
  14  -3 -10  175.68  116.29
 -14   3  10  110.19   95.79
  11 -14  10   51.49  103.49
  11 -14  10  255.87  133.49
 -12  -2 -10    7.10   63.89
 -12  -2 -10   62.29   63.59
  14 -12 -10  -43.90  117.39
 -14  12  10  -70.89  108.39
   2 -14  10    6.00   97.49
  11 -12 -10  -22.00   95.99
 -12   1 -10  -53.99   44.80
 -11  12  10  -89.89   72.59
  12  -1  10  -40.00   50.99
  -1 -11  10  -84.09   75.49
  -1 -11  10   91.59   99.39
   8 -12 -10  251.67   87.29
   4   8 -10  140.89   95.69
 -12   4 -10  236.68   57.09
  -4  -8  10  337.57   93.99
  -8  12  10  111.39  130.79
  12  -4  10  322.97   65.49
 -12   7 -10   92.59   71.09
   5 -12 -10  146.89   83.09
   7   5 -10  172.78   85.39
  -5  12  10  174.28   93.99
  12  -7  10  222.18   72.69
  -7  -5  10  174.38   89.99
  10   2 -10  248.38   98.49
   2 -12 -10   64.39   95.79
   2 -12 -10   37.80   83.89
 -12  10 -10  129.79   93.09
  12 -10  10  261.97  100.99
 -10  -2  10  172.28   96.29
  13  -1 -10  176.08   94.59
  -1 -12 -10   88.49  110.49
  -1 -12 -10  128.09  105.59
  12 -13  10  141.89  153.98
  12 -13  10   79.69  104.69
 -13   1  10   48.00   92.19
  13 -13 -10   39.50  111.59
 -13   0 -10   41.10   52.29
   0 -13  10   47.60  107.59
  10 -13 -10 -102.79   86.19
 -13   3 -10  -22.80   44.70
  -3 -10  10    9.10   87.59
  -3 -10  10   78.79  104.99
  13  -3  10   56.09   51.09
 -10  13  10   92.99   86.59
 -13   6 -10   12.10   59.59
   6   7 -10   19.50   85.29
   7 -13 -10   69.59   82.09
  13  -6  10  -40.40   62.79
  -7  13  10   24.80   74.59
  -6  -7  10  131.89   92.29
   4 -13 -10   55.19   79.09
 -13   9 -10   50.29   81.59
   9   4 -10  205.08  152.38
   4 -13 -10   68.69   92.79
  13  -9  10  149.49   83.89
  -9  -4  10  160.98  103.79
   1 -13 -10  189.58  110.09
  13 -12  10  125.69  113.49
  13 -12  10  111.39  106.19
 -12  -1  10  -38.30  102.79
  12 -14 -10  162.58  109.99
 -14   2 -10   29.40   44.60
  -2 -12  10  117.89  113.49
  14  -2  10   53.89   55.89
   9 -14 -10   92.89   92.69
   5   9 -10   91.59  102.79
 -14   5 -10   49.99   56.19
  -5  -9  10  -13.10  100.79
  14  -5  10   89.79   79.89
   8   6 -10   76.09  105.89
   6 -14 -10  105.79   80.49
 -14   8 -10   10.10  135.59
  14  -8  10   76.49   79.79
  -8  -6  10  360.16  147.39
   3 -14 -10  112.19   93.99
  11   3 -10   18.40  104.39
 -11  -3  10  -58.49  106.89
  14 -11  10   62.59  105.09
   7   8 -10  447.26  131.79
 -15   7 -10  125.09   73.39
   8 -15 -10  170.88   99.59
  -7  -8  10  -17.70  108.29
  15  -7  10   29.80   65.29
   5 -15 -10    1.40   87.89
 -15  10 -10   81.69   92.29
  10   5 -10  308.27  118.39
  15 -10  10   60.29   91.99
 -10  -5  10  114.59  138.99
   0  -1 -11   26.90   34.30
   1   0 -11    9.80   37.80
  -1   1 -11  -15.20   29.20
   1  -1  11   76.19   30.70
   0   1  11   28.20   34.70
  -1   0  11   34.60   36.20
  -2   0 -11   41.70   22.90
   2  -2 -11   -1.80   39.60
   0   2 -11   59.59   38.30
   2   0  11   12.90   21.40
   0  -2  11    1.80   39.30
  -2   2  11    8.90   41.80
  -2   3 -11   91.39   42.60
  -1  -2 -11   95.99   40.00
   3  -1 -11  174.88   47.50
  -3   1  11   82.09   41.30
   1   2  11  115.19   39.20
   2  -3  11    8.50   39.20
  -3  -1 -11    1.50   47.20
  -1   4 -11  145.29   47.30
  -3  -1 -11   91.49   26.10
   4  -3 -11  -26.90   41.90
  -4   3  11  100.49   44.10
   1  -4  11   56.59   43.10
   2   1 -11   46.60   43.30
   1  -3 -11   44.00   44.80
  -3   2 -11   48.00   33.30
  -1   3  11   85.99   40.60
  -2  -1  11   92.29   43.60
   3  -2  11  100.59   32.70
  -2  -3 -11 2044.80  181.38
   3  -5  11 2050.39  191.58
  -5   2  11 2133.89  188.98
  -4  -2 -11  641.04   70.49
  -4  -2 -11  363.56   70.39
  -2   6 -11  505.75   88.99
   6  -4 -11  512.25   81.59
  -6   4  11  554.24   85.39
   2  -6  11  510.85   90.39
   3  -4 -11  106.49   50.39
   1   3 -11  -19.40   39.40
  -3   4  11   23.10   39.50
  -1  -3  11   47.50   43.70
   0  -4 -11   32.30   40.30
   4   0 -11  -33.70   42.90
   4  -4  11    0.20   36.80
  -4   0  11    8.00   40.10
   0   4  11  -22.40   41.40
   4  -4  11   -7.60   36.80
  -3  -4 -11  493.25   89.19
  -3  -4 -11  530.15   87.39
   7  -3 -11  685.53   92.39
   4  -7  11  698.23  101.09
   4  -7  11  537.45   89.99
  -7   3  11  591.64   89.09
   8  -5 -11  850.31  113.19
  -5  -3 -11  872.21  107.89
  -5  -3 -11 1012.70  104.89
  -8   5  11  939.51  117.79
   3  -8  11  889.31  118.99
   3  -8  11 1048.50  121.19
   0   5 -11  -11.80   45.60
   5  -5 -11 -114.19   46.50
  -5   5  11  -23.90   43.60
   0  -5  11  -33.50   37.90
   2  -5 -11 1937.11  192.68
   3   2 -11 2321.67  193.98
  -2   5  11 1982.10  189.48
  -3  -2  11 2191.28  186.48
   5  -3  11 2040.90  179.48
   5  -3  11 2082.29  177.08
  -1  -5 -11  492.35   79.19
   6  -1 -11  507.95   79.39
   5  -6  11  488.15   80.39
   5  -6  11  447.76   79.59
  -6   1  11  576.14   86.29
   9  -4 -11  -11.20   56.19
  -4  -5 -11   38.90   59.89
  -4  -5 -11  -72.59   54.99
   5  -9  11   52.69   70.99
   5  -9  11   83.09   61.49
  -9   4  11  -78.19   86.39
  -6  -4 -11   37.70   61.89
  10  -6 -11   75.39   68.29
  -6  -4 -11  152.78   68.89
 -10   6  11  -28.60   58.79
   4 -10  11   36.00   64.49
   4 -10  11   46.10   68.39
   7  -6 -11  613.84   96.09
  -1   7 -11  526.15  100.09
  -6  -1 -11  688.93   74.09
   1  -7  11  620.64  100.49
  -7   6  11  630.94   91.69
   2   4 -11  534.75   83.39
   4  -6 -11  583.34   87.49
  -2  -4  11  546.95   83.89
   6  -2  11  615.24   55.09
  -4   6  11  301.17   70.79
   1  -6 -11  366.66   73.99
   5   1 -11  525.95   79.79
  -5  -1  11  483.85   82.49
  -1   6  11  514.45   87.39
   6  -5  11  430.76   72.29
   6  -5  11  421.06   71.29
   8  -2 -11  -33.00   50.29
  -2  -6 -11   26.30   55.59
  -2  -6 -11   16.10   60.09
  -8   2  11   39.50   52.59
   6  -8  11  -90.09   51.69
   6  -8  11  104.59   62.29
  -5  -6 -11  225.48   82.49
  11  -5 -11  152.18   77.69
  -5  -6 -11  227.08   95.69
 -11   5  11  101.89   75.29
   6 -11  11  180.68   92.19
   6 -11  11   40.20   75.89
  12  -7 -11   66.59   83.79
  -7  -5 -11   32.00   71.49
  -7  -5 -11  139.89   92.69
   5 -12  11   50.59   88.59
 -12   7  11   37.20   73.49
   5 -12  11  -37.50   74.79
   9  -7 -11  128.69   71.39
  -7  -2 -11  265.97   59.89
  -7  -2 -11  266.67   60.79
   2  -9  11  262.57   76.09
  -9   7  11  242.08   65.49
   2  -9  11  177.18   75.19
   6  -7 -11  656.63  102.09
   1   6 -11  603.34   98.59
  -7   1 -11  666.53   67.09
  -6   7  11  351.16   85.99
   7  -1  11  574.74   57.79
  -1  -6  11  517.15   86.49
   4   3 -11  571.64   93.59
   3  -7 -11  682.13   96.49
  -7   4 -11  649.43   78.29
   7  -4  11  608.84   72.49
  -4  -3  11  523.45   88.29
  -3   7  11  485.35   91.79
   7   0 -11   20.10   52.09
   0  -7 -11   -5.80   49.90
   0  -7 -11   22.60   55.59
   7  -7  11   14.30   49.50
   7  -7  11   23.30   53.79
  -7   0  11   12.10   46.40
  -3  -7 -11  -22.70   68.29
  -3  -7 -11   97.39   72.49
  10  -3 -11   92.09   63.19
   7 -10  11   87.89   84.59
   7 -10  11  130.19   71.39
 -10   3  11   72.99   68.19
  -6  -7 -11  106.59  103.49
  -6  -7 -11  239.68   96.69
  13  -6 -11  141.39   90.19
   7 -13  11  139.59   90.19
 -13   6  11  159.68   83.19
   7 -13  11  156.68  103.69
  -8  -6 -11  119.29   98.39
  -8  -6 -11  143.89   92.39
  14  -8 -11   86.99   97.09
 -14   8  11   70.09   84.09
   6 -14  11  102.39   92.69
  11  -8 -11  270.37   93.09
  -8  -3 -11  147.89   70.59
  -8  -3 -11  181.88   75.49
 -11   8  11  116.49   69.69
   3 -11  11   -5.10   80.99
   3 -11  11  178.78   85.89
   8  -8 -11   53.99   66.09
  -8   0 -11   28.40   33.90
   0   8 -11  -47.20   54.59
  -8   8  11  -74.09   50.49
   0  -8  11  -31.40   48.50
   8   0  11  -72.49   37.70
  -8   3 -11  973.60   94.69
   5  -8 -11  817.42  119.19
   3   5 -11 1075.49  119.99
   8  -3  11  939.81   88.59
  -3  -5  11  832.02  112.39
  -5   8  11  740.53  111.79
   6   2 -11   -5.30   54.29
   2  -8 -11  111.59   59.39
  -8   6 -11   42.50   49.10
   8  -6  11   13.50   84.99
  -6  -2  11  -41.60   49.99
  -2   8  11   34.20   52.59
   9  -1 -11   98.89   65.49
  -1  -8 -11   51.99   72.19
  -1  -8 -11   16.70   65.49
   8  -9  11  128.09   67.89
   8  -9  11  -90.39   61.29
  -9   1  11   -4.30   59.19
  -4  -8 -11  117.89   88.49
  -4  -8 -11 -110.69   76.09
  12  -4 -11   -3.70   73.99
   8 -12  11   10.90   99.79
   8 -12  11  -36.70   74.79
 -12   4  11   93.49   79.09
  15  -7 -11   58.19   99.79
  -7  -8 -11 -152.18   99.49
  -7  -8 -11  -78.69   99.39
   8 -15  11   11.50   95.19
 -15   7  11   46.00   99.99
  -9  -4 -11   46.60   85.29
  13  -9 -11 -144.29   92.19
  -9  -4 -11   -3.70   70.89
   4 -13  11 -108.09   80.29
   4 -13  11   -2.00   96.89
 -13   9  11   81.39   74.49
  -9  -1 -11   28.50   49.90
  10  -9 -11  -38.70   77.89
   1 -10  11   53.39   72.89
 -10   9  11   19.50   63.39
   1 -10  11   -5.60  126.59
   7  -9 -11  371.76   85.19
  -9   2 -11  305.77   50.59
   2   7 -11  307.77   73.59
   9  -2  11  345.97   48.50
  -2  -7  11  118.59   66.69
  -7   9  11  234.48   69.59
   5   4 -11  -73.69   59.09
   4  -9 -11  103.59   63.99
  -9   5 -11   30.10   47.30
  -4   9  11  -26.70   52.99
   9  -5  11   45.90   44.00
  -5  -4  11   53.59   59.19
   1  -9 -11   14.20   62.79
   8   1 -11  159.58   69.09
   1  -9 -11  -21.00   65.79
   9  -8  11  104.49   64.99
  -8  -1  11   34.60   63.69
  11  -2 -11  257.77   83.59
  -2  -9 -11  133.49   89.29
  -2  -9 -11  146.39   84.99
   9 -11  11  170.68   81.69
 -11   2  11  267.87   85.89
   9 -11  11  169.88  101.09
  14  -5 -11 -101.99  138.89
  -5  -9 -11    4.80   96.79
  -5  -9 -11 -117.29  102.19
   9 -14  11 -172.98   87.79
   9 -14  11   82.19  115.69
 -14   5  11  -75.39   86.39
 -10  -5 -11  -18.80   76.79
 -10  -5 -11   -7.10   94.79
  15 -10 -11 -264.77  102.59
 -15  10  11   82.49   96.79
   5 -15  11   45.30  117.29
 -10  -2 -11  148.59   99.59
  12 -10 -11  -85.49   89.79
 -10  -2 -11  112.19   65.19
   2 -12  11  130.59   94.59
   2 -12  11  113.69   94.99
 -12  10  11   69.69   78.19
 -10   1 -11  -19.10   38.30
   1   9 -11   47.90   79.39
   9 -10 -11   77.39   79.69
  10  -1  11   75.59   44.00
  -9  10  11   43.10   61.29
  -1  -9  11   11.80   57.49
   4   6 -11    6.30   61.19
   6 -10 -11  -10.50   59.69
 -10   4 -11   38.10   40.20
  10  -4  11   37.20   43.60
  -6  10  11  102.59   62.59
  -4  -6  11   72.89   63.99
   3 -10 -11  135.59   66.49
 -10   7 -11   98.59   61.39
   7   3 -11  102.59   72.99
  -7  -3  11  120.09   69.49
  -3  10  11   62.69   71.19
  10  -7  11   86.39   68.29
   0 -10 -11  -87.09   75.89
   0 -10 -11 -169.78   74.59
  10   0 -11   63.79   79.19
 -10   0  11  197.88   84.99
  10 -10  11  -29.90   86.29
  10 -10  11  100.29   79.99
  -3 -10 -11   62.89   89.49
  13  -3 -11  134.39   86.69
  -3 -10 -11   40.50  100.49
  10 -13  11   16.00  145.69
 -13   3  11   18.50   83.79
  10 -13  11   35.50   86.99
 -11  -3 -11  118.79   68.99
  14 -11 -11  108.19  121.09
 -11  -3 -11    4.70   71.09
   3 -14  11  115.19   96.59
 -14  11  11  141.19  103.19
 -11   0 -11   10.40   45.50
  11 -11 -11 -118.69   89.49
  11   0  11  -61.09   48.80
   0 -11  11   -2.40   69.59
 -11  11  11  -52.69   74.39
   0 -11  11   -2.80   87.09
   3   8 -11   48.20  101.39
 -11   3 -11   75.69   42.10
   8 -11 -11  146.69   84.29
  11  -3  11  131.99   48.90
  -8  11  11  -47.40   63.19
  -3  -8  11   14.90   72.79
   5 -11 -11    6.60  126.09
 -11   6 -11   80.39   61.69
   6   5 -11  151.48   81.89
  -5  11  11  100.79   71.29
  11  -6  11  205.38   72.89
  -6  -5  11  111.39   75.49
 -11   9 -11  142.99   84.29
   9   2 -11  268.87   93.49
   2 -11 -11  123.49   82.79
   2 -11 -11  167.88   88.99
  11  -9  11  287.47   91.79
  -9  -2  11   86.49   92.09
  -1 -11 -11   88.79   94.29
  -1 -11 -11   90.29  208.48
  12  -1 -11   60.99   86.39
  11 -12  11  -31.10   95.09
 -12   1  11  203.18   97.69
  11 -12  11  202.48  113.49
 -12  -1 -11   35.90   54.19
  13 -12 -11   34.30  111.79
 -13  12  11  140.59  100.19
   1 -13  11  173.28   99.69
 -12   2 -11  178.58   45.30
  10 -12 -11  159.48   95.89
  -2 -10  11   18.40   77.09
 -10  12  11   61.39   76.39
  -2 -10  11    4.00   94.99
  12  -2  11  160.68   51.99
   5   7 -11   -5.10  101.69
 -12   5 -11   71.89   54.19
   7 -12 -11  213.58   81.89
  -5  -7  11  -25.80   75.99
  -7  12  11   32.50  107.79
  12  -5  11   71.19   57.69
   8   4 -11  -57.99   81.09
   4 -12 -11  -20.50   67.29
 -12   8 -11   33.90   68.79
  12  -8  11   16.40   74.19
  -8  -4  11   12.40   79.79
  11   1 -11  130.89   85.59
   1 -12 -11   56.69   91.29
   1 -12 -11   12.00   93.49
  12 -11  11  112.49  102.09
  12 -11  11   55.29   97.49
 -11  -1  11   66.99   94.19
  -2 -12 -11  171.58  220.28
  14  -2 -11 -142.79   80.89
  -2 -12 -11  -13.00  104.39
  12 -14  11   70.49  133.59
 -14   2  11  -14.00   92.79
  12 -14  11    3.50  103.59
  12 -13 -11   37.20  105.69
 -13   1 -11  103.79   45.00
  -1 -12  11   53.49   99.89
 -13   4 -11   13.00   48.30
   9 -13 -11   77.69   85.09
   4   9 -11  166.48   99.49
  13  -4  11   21.20   49.50
  -4  -9  11   -4.80   84.19
  -9  13  11 -123.09   72.49
   6 -13 -11  -26.90   79.19
   7   6 -11  324.77  100.99
 -13   7 -11  220.28   74.19
  -6  13  11  115.99   81.69
  13  -7  11  109.59   70.09
  -7  -6  11  217.18   99.29
   3 -13 -11   99.89   92.09
  10   3 -11  131.19  174.98
   3 -13 -11  -61.09   84.79
 -10  -3  11  145.79  113.19
  13 -10  11   20.90   92.99
   0 -13 -11  -12.50  101.09
  13   0 -11    9.00   89.69
 -13   0  11    7.50   94.39
  13 -13  11   90.19  111.09
  13 -13  11  -16.10  145.79
  11 -14 -11   33.00  100.09
 -14   3 -11   47.90   42.70
  14  -3  11   90.29   50.09
  -3 -11  11  169.48  118.99
   8 -14 -11  -17.20   83.69
 -14   6 -11  -38.60   60.29
   6   8 -11   -9.30   96.49
  -6  -8  11   82.09   99.19
  14  -6  11  121.09   66.39
 -14   9 -11   63.89   78.49
   5 -14 -11   -0.20   85.09
   9   5 -11  -12.60   96.59
  14  -9  11   66.59   85.89
  -9  -5  11  -19.10  117.09
   2 -14 -11  -49.80   94.29
  12   2 -11   95.79   98.59
  14 -12  11  -38.30  111.79
  14 -12  11  -80.69  108.09
 -12  -2  11    4.80  115.39
  10 -15 -11  100.99  104.29
 -15   5 -11   -5.70   51.09
  15  -5  11   96.89   71.29
   8   7 -11   -2.00  102.59
 -15   8 -11   40.50  101.69
   7 -15 -11   91.29   89.59
  15  -8  11 -184.48   69.99
  -8  -7  11 -103.19  108.99
   0   0 -12 7631.74  620.14
   0   0  12 7436.06  604.14
   2  -1 -12  569.44   76.49
  -1  -1 -12  565.94   62.29
  -1   2 -12  358.46   68.39
   1  -2  12  561.34   73.79
  -2   1  12  622.64   78.39
   1   1  12  565.14   65.29
   1   1 -12  609.64   74.39
   1  -2 -12  561.24   71.39
  -2   1 -12  392.86   57.59
   2  -1  12  400.96   73.59
  -1  -1  12  578.84   74.29
  -1   2  12  533.25   71.09
  -2   4 -12 2264.27  203.48
  -2  -2 -12 2298.57  194.78
   4  -2 -12 2271.67  202.28
   2   2  12 2197.78  191.88
   2  -4  12 2180.48  199.08
  -4   2  12 2318.47  197.68
   0   3 -12 1390.46  138.99
   3  -3 -12 1479.15  137.79
  -3   3  12 1482.55  141.59
   0  -3  12 1509.45  142.39
   3   0 -12  881.11   94.29
  -3   3 -12  752.12   86.49
   0  -3 -12  696.73   88.39
  -3   0  12  807.82   90.79
   0   3  12  762.32   87.39
   3  -3  12  715.53   84.39
  -3  -3 -12  343.97   61.19
   6  -3 -12  399.56   69.99
  -3  -3 -12  414.06   69.59
   3  -6  12  482.15   73.89
   3  -6  12  349.07   69.89
  -6   3  12  405.56   69.79
   5  -4 -12  474.55   76.19
  -4  -1 -12  399.36   51.89
  -1   5 -12  424.06   72.29
  -4  -1 -12  429.96   76.89
   1  -5  12  560.04   80.79
  -5   4  12  467.95   75.49
   2  -4 -12 2409.16  221.08
   2   2 -12 2615.84  220.58
  -2   4  12 2248.58  177.08
   4  -2  12 1619.04  164.28
  -2  -2  12 2230.78  177.98
   4  -2  12 2002.70  164.88
  -1  -4 -12  973.20  104.29
   5  -1 -12  901.21  107.49
  -5   1  12  916.21  108.99
   4  -5  12 1025.50  105.69
   4  -5  12  913.91  105.29
   1   4  12  990.50  107.59
  -4  -4 -12  804.12  114.19
  -4  -4 -12  950.90  110.59
   8  -4 -12  940.11  115.09
   4  -8  12  902.11  114.49
  -8   4  12  951.90  116.19
   4  -8  12  874.91  121.79
  -2   7 -12 1067.79  126.49
  -5  -2 -12 1304.77  113.79
  -5  -2 -12 1084.39  111.09
   7  -5 -12  838.62  120.39
   2  -7  12 1053.79  137.69
  -7   5  12  969.10  115.99
   4  -5 -12  409.16   72.19
   1   4 -12  463.85   82.39
  -1  -4  12  409.36   74.39
  -4   5  12  352.26   61.99
   1  -5 -12  736.03   96.19
   4   1 -12  812.82   98.49
  -4  -1  12  863.71  103.79
   5  -4  12  937.21   99.79
   5  -4  12  898.21   96.89
  -1   5  12 1009.70  108.29
   7  -2 -12  112.29   55.89
  -2  -5 -12  -29.90   49.10
  -2  -5 -12  -65.09   48.50
   5  -7  12   35.00   54.59
   5  -7  12   58.29   57.49
  -7   2  12  103.99   53.39
  -5  -5 -12   67.69   62.39
  -5  -5 -12  109.09   69.29
  10  -5 -12  125.29   68.59
   5 -10  12  176.78   75.19
   5 -10  12  182.78   74.69
 -10   5  12   16.90   60.39
  -6  -3 -12   79.99   58.29
  -6  -3 -12  124.49   59.99
   9  -6 -12  187.98   70.19
   3  -9  12  145.79   66.89
   3  -9  12  241.98   71.49
  -9   6  12  155.18   67.29
   0   6 -12  583.04   93.09
   6  -6 -12  534.45   94.39
   0  -6  12  558.34   87.89
  -6   6  12  520.35   84.29
   3  -6 -12  400.46   74.29
   3   3 -12  511.65   81.99
  -3   6  12  435.06   71.39
   6  -3  12  336.27   52.89
  -3  -3  12  437.46   77.29
   6   0 -12 1742.03  164.98
   0  -6 -12 1586.04  164.78
   6  -6  12 1568.24  165.78
   6  -6  12 1749.62  165.58
  -6   0  12 1800.92  167.08
   0   6  12 1737.13  170.18
   9  -3 -12  578.84   99.69
  -3  -6 -12  542.15   91.09
  -3  -6 -12  428.86   89.49
   6  -9  12  460.25   95.79
  -9   3  12  615.14   96.29
   6  -9  12  599.24   98.69
  12  -6 -12 -107.09   73.99
  -6  -6 -12  -69.59   84.49
  -6  -6 -12   41.50   76.29
   6 -12  12 -106.99   84.49
 -12   6  12  -87.39   66.99
   6 -12  12  -64.49   74.59
  -7  -4 -12  -89.39   60.69
  11  -7 -12   14.00   75.79
  -7  -4 -12   19.30   70.19
   4 -11  12   36.50   78.69
 -11   7  12   -2.70   69.39
   4 -11  12   26.20   89.79
  -7  -1 -12   73.59   39.60
   8  -7 -12   27.00   60.39
  -1   8 -12   31.80   53.99
  -7  -1 -12   74.69   41.70
  -8   7  12  -22.60   47.00
   1  -8  12   62.89   59.19
   5  -7 -12  917.41  118.99
   2   5 -12 1044.80  118.59
  -2  -5  12 1033.80  120.59
   2  -7 -12   65.09   56.19
   5   2 -12   25.60   55.89
  -2   7  12  -21.50   49.90
  -5  -2  12   -2.50   49.10
   7  -5  12   41.90   46.50
   8  -1 -12  118.89   61.49
  -1  -7 -12  156.38   66.89
  -1  -7 -12   40.30  106.69
  -8   1  12  134.39   62.49
   7  -8  12  266.27   65.09
   7  -8  12  143.09   66.29
  -4  -7 -12  156.98   86.59
  -4  -7 -12  153.28   81.29
  11  -4 -12  130.99   76.29
   7 -11  12  184.58   94.39
   7 -11  12  163.38   82.29
 -11   4  12  320.07   87.69
  -7  -7 -12   71.39   85.89
  -7  -7 -12   24.10   99.39
  14  -7 -12   87.79   96.99
 -14   7  12   92.69   87.89
   7 -14  12   81.59   98.29
  -8  -5 -12   51.39  134.19
  13  -8 -12 -169.38   92.69
  -8  -5 -12  118.99   80.29
   5 -13  12  160.38  105.79
   5 -13  12  231.68   93.99
 -13   8  12   98.39   87.19
  10  -8 -12  633.24  116.09
  -8  -2 -12  741.83   96.59
  -8  -2 -12  749.23  100.49
 -10   8  12  445.96   90.39
   2 -10  12  528.85  104.39
   2 -10  12  923.21  119.19
   1   7 -12    8.60   57.79
   7  -8 -12  -14.40   62.39
   8  -1  12   22.20   29.40
  -7   8  12   32.40   53.09
  -1  -7  12  -27.80   44.40
  -8   4 -12 1020.40  103.59
   4  -8 -12 1022.20  121.99
   4   4 -12 1033.50  127.19
  -4   8  12  836.02  115.19
   8  -4  12  951.20   92.79
  -4  -4  12 1009.50  122.59
   1  -8 -12  146.49   67.29
   7   1 -12  311.67   72.79
  -7  -1  12  192.08  115.89
  -1   8  12   32.80   63.29
   8  -7  12  102.19   61.99
   8  -7  12  229.38   59.49
  -2  -8 -12    7.90   75.89
  10  -2 -12  100.19   70.99
  -2  -8 -12  -47.80   68.79
 -10   2  12   67.29   67.89
   8 -10  12  -12.40   65.19
   8 -10  12  -76.89   73.89
  -5  -8 -12   50.09   98.79
  13  -5 -12   93.29   84.09
  -5  -8 -12   58.89   89.19
 -13   5  12  -87.39   80.39
   8 -13  12   13.70   86.19
   8 -13  12   39.70  105.09
  15  -9 -12   39.70  109.89
  -9  -6 -12  207.78   90.89
  -9  -6 -12  212.58  104.49
   6 -15  12  256.37  101.59
 -15   9  12  105.99   96.39
  -9  -3 -12  328.17   89.09
  -9  -3 -12  499.55   84.79
  12  -9 -12  271.07  111.39
   3 -12  12  345.07  102.09
 -12   9  12  102.49   75.79
   3 -12  12  195.88   90.99
   0   9 -12   64.59   65.09
  -9   0 -12  147.09   40.20
   9  -9 -12  178.38   80.29
   0  -9  12  151.38   63.09
  -9   9  12   97.99   63.99
   6  -9 -12  287.27   74.89
  -9   3 -12   74.59   38.30
   3   6 -12  190.18   67.69
   9  -3  12  147.09   39.80
  -3  -6  12  243.18   67.99
  -6   9  12   88.89   57.19
  -9   6 -12  606.94   86.89
   3  -9 -12  393.46   81.09
   6   3 -12  480.85   94.69
  -6  -3  12  658.73   96.19
   9  -6  12  565.24  104.69
  -3   9  12  314.07   82.39
   9   0 -12  311.47   84.89
   0  -9 -12  234.68   80.29
   0  -9 -12   78.79   70.29
   9  -9  12  247.68   76.59
   9  -9  12  123.59   80.59
  -9   0  12  198.58   71.19
  -3  -9 -12  110.29  100.39
  -3  -9 -12   52.59   85.49
  12  -3 -12  -17.40   76.19
   9 -12  12   70.79   85.89
 -12   3  12   98.89   80.59
   9 -12  12 -150.88  101.49
  -6  -9 -12  245.08  109.69
  15  -6 -12  117.19   91.59
  -6  -9 -12   53.99  113.19
   9 -15  12  119.89  104.89
 -15   6  12  117.39  113.29
 -10  -4 -12  -51.69   92.59
 -10  -4 -12   33.10   70.59
  14 -10 -12  148.59  110.69
 -14  10  12   79.19   92.49
   4 -14  12   76.29   94.79
  11 -10 -12  -50.49   84.89
 -10  -1 -12   71.99   51.59
 -11  10  12   13.40   71.69
   1 -11  12  114.49   85.99
   1 -11  12  -36.40   92.39
   8 -10 -12  750.92  120.99
   2   8 -12  640.44  117.49
 -10   2 -12  734.13   76.29
  -2  -8  12  409.46   89.19
  -8  10  12  324.07   80.99
   5 -10 -12   48.10   63.29
 -10   5 -12   44.50   48.00
   5   5 -12   85.29   69.19
  -5  -5  12   45.70   60.29
  -5  10  12   61.99   65.09
  10  -5  12  166.88   49.40
   2 -10 -12  224.08   77.19
   2 -10 -12   44.20   68.89
   8   2 -12  232.78   72.39
  -8  -2  12   30.50   78.69
  10  -8  12   11.60   68.49
  11  -1 -12  310.97   95.19
  -1 -10 -12  111.69   95.39
  -1 -10 -12  128.19  101.09
  10 -11  12  347.67  114.59
 -11   1  12  209.78   91.09
  10 -11  12  168.78   87.69
  14  -4 -12    9.60   88.39
  -4 -10 -12  114.89  100.89
  -4 -10 -12    8.50  134.49
  10 -14  12   20.80  122.19
 -14   4  12  334.87  103.99
  10 -14  12  135.99  100.89
 -11  -2 -12   81.69  112.39
 -11  -2 -12  -53.79   62.29
  13 -11 -12   53.29  109.59
   2 -13  12  129.89   89.29
 -13  11  12  130.29   92.69
  10 -11 -12   67.79   88.69
 -11   1 -12   18.50   36.30
  11  -1  12   45.60   44.50
 -10  11  12  -88.49   69.19
  -1 -10  12   29.00   85.19
  -1 -10  12  115.29  140.59
 -11   4 -12   19.60   43.70
   4   7 -12    1.40   70.79
   7 -11 -12  -71.19   68.39
  11  -4  12   18.90   43.70
  -4  -7  12  -42.90   62.99
  -7  11  12  -29.70   58.39
 -11   7 -12  266.47   72.89
   4 -11 -12  270.77   96.59
   7   4 -12  293.57   92.19
  -4  11  12   51.49   69.59
  -7  -4  12  200.98   85.59
  11  -7  12  315.77   73.29
   1 -11 -12  193.48   94.29
  10   1 -12  235.18   94.39
   1 -11 -12  294.07  110.19
  11 -10  12  270.87   98.09
 -10  -1  12  213.68   92.99
  11 -10  12  121.29   96.69
  13  -2 -12  256.97  100.39
  -2 -11 -12   59.69   98.49
  -2 -11 -12   24.50  109.19
  11 -13  12  122.19  100.99
  11 -13  12   76.69  200.38
 -13   2  12  195.38   96.29
 -12   0 -12   76.69   44.40
  12 -12 -12  -77.99   93.39
   0 -12  12  -26.60   90.89
 -12  12  12   19.90   84.59
   3   9 -12  348.17  102.09
 -12   3 -12  238.78   48.20
   9 -12 -12  178.48   95.59
  -3  -9  12  312.97  146.19
  12  -3  12  342.77   55.29
  -9  12  12  108.89   82.09
   6 -12 -12   65.69   81.59
   6   6 -12   11.30  101.79
 -12   6 -12  -43.40   60.69
  -6  -6  12  141.49   80.09
  -6  12  12  -44.40  109.69
   3 -12 -12  132.39   82.29
   3 -12 -12 -111.59   82.69
   9   3 -12   13.60   83.29
  -9  -3  12  -98.99   91.49
  12  -9  12  -28.10   84.09
  12   0 -12   14.60  104.59
   0 -12 -12  217.58  114.29
   0 -12 -12  101.39   97.49
  12 -12  12   17.70  113.99
 -12   0  12  122.39   98.39
  12 -12  12    3.00  102.39
  11 -13 -12    9.00   99.49
 -11  13  12   51.29  100.09
  -2 -11  12  104.99  104.19
  13  -2  12   43.80   43.60
 -13   5 -12   24.80   52.59
   5   8 -12  209.98  103.99
   8 -13 -12  120.19   84.19
  -5  -8  12  119.19  107.99
  13  -5  12   52.29   52.09
  -8  13  12    1.70   73.69
   8   5 -12  -26.20   85.09
 -13   8 -12   48.00   72.29
   5 -13 -12   19.80   80.59
  13  -8  12  -94.19   66.79
  -8  -5  12  134.99   96.99
   2 -13 -12   -8.10  126.79
   2 -13 -12  135.49   97.69
  11   2 -12  135.99   93.89
  13 -11  12   89.39  109.89
 -11  -2  12   39.70  103.29
  13 -11  12  184.58  109.79
  10 -14 -12  138.39   99.89
 -14   4 -12   54.59   43.50
   4  10 -12  -31.00   95.89
  14  -4  12   67.49   46.20
   7 -14 -12  113.09   81.99
   7   7 -12  215.48  111.59
 -14   7 -12   87.49   67.49
  14  -7  12   -4.60   64.39
  -7  -7  12  144.39  100.19
  10   4 -12  351.36  114.89
   4 -14 -12   59.09   88.39
  14 -10  12  209.38   99.29
 -10  -4  12  247.18  161.78
 -15   6 -12  137.79   61.69
   6   9 -12  296.77  119.49
   9 -15 -12  291.27  105.39
  15  -6  12  211.98   85.09
   6 -15 -12  109.19   88.79
   9   6 -12   90.59  106.79
  15  -9  12  -35.50   79.99
  -9  -6  12  176.38  124.39
  -1   0 -13   48.00   35.30
   0   1 -13   11.60   38.00
   1  -1 -13  -46.50   40.90
   1   0  13   -6.80   31.50
   0  -1  13   41.80   39.00
  -1   1  13  -23.00   38.50
   3  -2 -13 1227.18  129.99
  -1   3 -13 1422.66  133.09
  -2  -1 -13 1387.66  119.59
   2   1  13 1228.18  116.49
   1  -3  13 1326.67  127.99
  -3   2  13 1406.96  127.89
   2   0 -13   43.00   41.00
   0  -2 -13   10.20   39.20
  -2   2 -13   -3.70   36.70
   0   2  13   17.80   35.50
  -2   0  13  -32.00   41.00
   2  -2  13  -33.30   31.70
  -3  -2 -13 1287.27  120.79
   5  -3 -13 1250.27  131.69
  -3  -2 -13 1318.87  122.69
  -2   5 -13 1396.76  136.79
   2  -5  13 1546.05  145.89
  -5   3  13 1337.97  141.29
  -3   1 -13  964.10   95.99
   1   2 -13 1453.45  115.99
   3  -1  13  807.12   83.29
  -2   3  13 1245.28  101.29
  -3   4 -13  122.09   47.50
  -1  -3 -13   88.19   42.20
   4  -1 -13  145.59   52.69
   1   3  13   23.10   39.30
  -4   1  13  220.68   51.09
   3  -4  13   15.30   39.10
   7  -4 -13   54.69   52.19
  -4  -3 -13   -1.40   42.10
  -4  -3 -13  -17.70   43.20
   3  -7  13  -49.90   54.39
  -7   4  13  -28.80   45.80
   3  -7  13   -2.40   53.59
   4  -4 -13   17.00   45.20
   0   4 -13  -47.70   41.40
  -4   4  13   37.60   42.30
   0  -4  13   77.49   44.50
   3   1 -13  105.29   59.69
   1  -4 -13  101.49   48.50
  -1   4  13  183.38   45.90
  -3  -1  13   73.09   43.30
   4  -3  13   72.79   34.80
   4  -3  13  139.99   36.90
   6  -2 -13  136.69   55.59
  -2  -4 -13  117.89   51.39
   4  -6  13  166.38   60.19
  -6   2  13  168.98   55.79
   4  -6  13   95.09   56.09
  -5  -4 -13  262.17   66.29
   9  -5 -13  268.27   80.29
  -5  -4 -13  350.96  101.89
  -9   5  13  342.07   75.09
   4  -9  13  295.37   83.59
   4  -9  13  423.06   84.49
  -5  -1 -13  403.16   56.29
  -1   6 -13  492.65   87.69
  -5  -1 -13  419.06   59.79
   6  -5 -13  525.25   82.39
   1  -6  13  653.33   92.49
  -6   5  13  511.75   86.49
   3  -5 -13 1399.16  144.29
   2   3 -13 1467.65  141.29
  -3   5  13 1255.07  128.49
  -2  -3  13 1337.57  132.69
   0  -5 -13   -1.80   45.30
   5   0 -13  -40.10   45.20
   0   5  13  -21.40   47.40
   5  -5  13   26.50   42.60
  -5   0  13   88.39   46.30
   5  -5  13   -8.50   42.90
  -3  -5 -13  954.30  111.69
  -3  -5 -13  834.52  115.89
   8  -3 -13  891.21  115.29
   5  -8  13  944.31  117.39
  -8   3  13  867.01  114.29
  -6  -5 -13   93.79   70.89
  11  -6 -13  217.88   83.39
  -6  -5 -13   92.29   74.99
   5 -11  13   47.40  103.59
   5 -11  13   53.99   84.39
 -11   6  13   52.99   73.99
  -6  -2 -13  119.89   45.90
   8  -6 -13  -22.90   56.39
  -6  -2 -13   -0.40   42.30
   2  -8  13   -9.00   55.79
  -8   6  13   87.69   54.29
   1   5 -13  589.74   85.59
   5  -6 -13  454.15   83.09
  -1  -5  13  455.05   76.29
  -5   6  13  326.77   64.29
   2  -6 -13   62.59   54.79
   4   2 -13   77.99   52.39
  -4  -2  13  179.58   55.59
   6  -4  13  188.78   48.10
  -2   6  13  177.08   58.49
   6  -4  13  138.19   44.70
   7  -1 -13  719.63   96.59
  -1  -6 -13  709.23   96.09
  -1  -6 -13  368.56   83.19
  -7   1  13  526.65   92.79
   6  -7  13  572.54   87.89
   6  -7  13  601.14   94.09
  -4  -6 -13   -8.70   64.19
  10  -4 -13   69.89   70.79
  -4  -6 -13  139.39   75.49
   6 -10  13   52.19   69.09
   6 -10  13   -1.60   72.19
 -10   4  13  158.48   69.09
  13  -7 -13  181.28  165.38
  -7  -6 -13  275.47   93.59
  -7  -6 -13  166.88   97.19
   6 -13  13   83.99  104.89
   6 -13  13   81.19   92.19
 -13   7  13   36.30   82.19
  -7  -3 -13   16.80   61.29
  10  -7 -13   30.40   69.49
  -7  -3 -13   69.59   57.49
   3 -10  13  -18.70   68.99
 -10   7  13   81.19   66.39
   3 -10  13   73.89   72.69
   0   7 -13 -159.48   49.40
   7  -7 -13  -56.09   55.59
   0  -7  13   -0.10   47.60
  -7   7  13   20.40   46.10
   3   4 -13   73.89   52.89
   4  -7 -13  -63.19   50.99
  -3  -4  13  -13.40   47.50
  -4   7  13   14.00   58.29
   7  -3  13   -9.60   24.00
   6   1 -13  789.22  101.39
   1  -7 -13  558.84   91.09
   7  -6  13  561.64   94.59
  -6  -1  13  573.34   93.19
  -1   7  13  572.74   99.59
   7  -6  13  926.21  131.29
  -2  -7 -13  197.58   69.19
  -2  -7 -13   36.90   70.79
   9  -2 -13  225.38   74.09
   7  -9  13  346.17   81.99
  -9   2  13  453.75   82.79
   7  -9  13  259.87   87.99
  12  -5 -13   79.79   81.59
  -5  -7 -13   59.29   79.29
  -5  -7 -13   46.50   77.69
 -12   5  13  -71.29   76.59
   7 -12  13  119.29   83.29
   7 -12  13   -0.50   92.89
  15  -8 -13  -86.19  102.69
  -8  -7 -13  -13.20   81.39
  -8  -7 -13   17.60  101.79
 -15   8  13   81.79   98.29
   7 -15  13   83.69  103.29
  -8  -4 -13  -31.80   66.19
  -8  -4 -13  -48.60   71.59
  12  -8 -13 -123.69   86.99
   4 -12  13 -149.19   82.29
   4 -12  13  -20.20   83.49
 -12   8  13    9.60   75.69
   9  -8 -13   97.29   68.49
  -8  -1 -13  126.79   41.40
  -8  -1 -13   95.39   41.80
   1  -9  13  -19.60   59.19
  -9   8  13  -19.60   50.49
   6  -8 -13  169.48   68.49
   2   6 -13   62.29   58.19
  -6   8  13  123.59   57.49
  -2  -6  13  119.49   58.79
   5   3 -13  977.90  121.29
   3  -8 -13  945.51  119.69
   8  -5  13  868.71   96.09
  -5  -3  13  880.71  112.29
  -3   8  13  687.43  109.29
   0  -8 -13   17.00   58.39
   8   0 -13   24.60   61.19
   0  -8 -13   26.70   63.99
   8  -8  13  -64.79   58.49
  -8   0  13    2.20   52.39
   8  -8  13   43.40   55.89
  11  -3 -13   41.00   73.89
  -3  -8 -13   54.59   79.49
  -3  -8 -13   32.40   74.89
 -11   3  13  -40.70   67.49
   8 -11  13   13.60   74.19
   8 -11  13  -62.89   88.69
  -6  -8 -13 -126.19   95.99
  -6  -8 -13   85.59   90.29
  14  -6 -13 -168.58   84.09
 -14   6  13  -14.60   84.79
   8 -14  13  -48.80   90.59
   8 -14  13   96.89  118.19
  -9  -5 -13  -38.20   70.59
  14  -9 -13   53.19  111.09
  -9  -5 -13  -20.30   85.79
   5 -14  13  149.59   97.79
 -14   9  13 -103.19   88.09
  11  -9 -13  166.98  112.49
  -9  -2 -13  239.08   70.69
  -9  -2 -13  253.87   64.09
 -11   9  13   45.70   66.49
   2 -11  13   27.90   84.09
   2 -11  13  182.38   89.09
   8  -9 -13   70.69   72.99
   1   8 -13   23.90   64.99
  -1  -8  13   22.10   52.99
  -8   9  13    5.90   53.89
   4   5 -13  362.46   77.19
   5  -9 -13  277.67   74.59
  -9   4 -13  346.67   60.79
  -4  -5  13  339.27   80.29
   9  -4  13  493.35   60.19
  -5   9  13  277.97   75.09
   2  -9 -13  234.48   73.79
   7   2 -13  306.67   78.49
  -2   9  13  136.59   70.69
  -7  -2  13  266.07   79.39
   9  -7  13  273.37   71.09
  10  -1 -13  142.89   79.39
  -1  -9 -13  173.28   81.89
  -1  -9 -13  123.39   90.49
 -10   1  13  189.08   81.29
   9 -10  13  111.69   88.39
   9 -10  13  224.58   79.39
  -4  -9 -13   85.59   92.19
  13  -4 -13  -88.59   79.59
  -4  -9 -13   94.29  103.49
 -13   4  13  -22.50   83.59
   9 -13  13   -3.90  118.19
   9 -13  13  138.69   92.99
 -10  -3 -13    4.00   73.29
  13 -10 -13  -48.50   99.49
 -10  -3 -13   47.20   60.69
   3 -13  13   93.19   93.59
 -13  10  13 -100.89   77.29
 -10   0 -13  -37.50   36.70
  10 -10 -13  145.09   97.69
 -10  10  13   -8.60   64.49
   0 -10  13   38.10   81.49
   0 -10  13   64.79   76.29
   3   7 -13   28.20   64.09
 -10   3 -13   80.89   35.40
   7 -10 -13  -25.50   67.09
  -3  -7  13   91.59   68.69
  -7  10  13   54.69   62.29
  10  -3  13   71.89   35.40
   4 -10 -13  116.59   65.69
 -10   6 -13   32.20   55.09
   6   4 -13   40.50   75.79
  -4  10  13   30.50   61.59
  -6  -4  13   13.30   63.79
  10  -6  13  203.88   64.59
   1 -10 -13  102.19   83.09
   1 -10 -13  202.38   83.79
   9   1 -13  209.48   83.79
  10  -9  13   52.29   71.29
  -9  -1  13  244.78   80.09
  10  -9  13   81.39   82.89
  -2 -10 -13    5.60   93.89
  -2 -10 -13  124.29  103.39
  12  -2 -13   81.19   84.59
  10 -12  13   38.10  112.69
  10 -12  13  110.19   89.79
 -12   2  13    1.80   79.19
  12 -11 -13 -114.29   93.69
 -11  -1 -13   -2.80   48.20
 -11  -1 -13  -12.30   45.30
   1 -12  13  186.98   90.59
 -12  11  13   71.99   88.39
   1 -12  13   43.20   92.39
   9 -11 -13  197.58   93.29
   2   9 -13  350.46   95.29
  -9  11  13  154.28   77.19
  -2  -9  13  396.06   95.49
   6 -11 -13   22.90   72.09
 -11   5 -13  126.59   51.29
   5   6 -13  131.79   80.49
  11  -5  13  118.19   50.19
  -5  -6  13   62.09   74.39
  -6  11  13   -3.80   66.49
   8   3 -13  -37.00   74.49
   3 -11 -13  -14.30   70.09
  -3  11  13  -36.90   73.69
  -8  -3  13  -85.99   76.09
  11  -8  13   50.49   76.39
   0 -11 -13  -34.90   84.99
  11   0 -13  101.79   86.89
   0 -11 -13  210.28  103.89
  11 -11  13   27.60   89.49
  11 -11  13  116.59  105.09
 -11   0  13  -15.30   80.39
  14  -3 -13   13.70   91.49
  -3 -11 -13  114.79  123.69
  -3 -11 -13  -45.60   96.59
 -14   3  13  100.49  103.49
  11 -14  13    8.50  100.49
  11 -14  13  -40.00  119.39
  14 -12 -13   88.09  127.19
 -12  -2 -13  -27.10   81.59
 -12  -2 -13   25.50   53.69
   2 -14  13   85.39  118.19
  11 -12 -13  -69.49   94.89
  -1 -11  13   30.40   83.19
  -1 -11  13 -122.49   94.79
 -11  12  13  -42.20   75.09
   8 -12 -13  -22.10   76.69
   4   8 -13 -165.78   73.89
 -12   4 -13    4.10   41.60
  12  -4  13  -70.59   42.40
  -4  -8  13  -31.60   73.69
  -8  12  13   33.70   80.49
   5 -12 -13   42.70   76.69
   7   5 -13   -0.50   85.19
 -12   7 -13   -3.00   65.09
  12  -7  13  142.79   65.59
  -7  -5  13    5.90   81.29
  10   2 -13  192.18   97.79
   2 -12 -13  108.79   86.79
   2 -12 -13   -0.90   82.39
 -10  -2  13   51.69   91.19
  12 -10  13   88.49   89.79
  12 -10  13   33.30   97.19
  -1 -12 -13  -27.90  101.49
  13  -1 -13  265.97  102.79
  -1 -12 -13  161.58  116.59
 -13   1  13   98.59   99.09
  12 -13  13   60.69   99.39
  12 -13  13  325.97  219.38
  13 -13 -13  -17.00  114.29
   0 -13  13   75.79  106.29
   3  10 -13   62.39   93.59
  10 -13 -13 -127.89   88.99
 -10  13  13   66.59   81.99
  -3 -10  13   -8.70   83.59
 -13   6 -13  152.68   62.69
   7 -13 -13   86.89   81.39
   6   7 -13  218.18  101.39
  -7  13  13   12.10   80.49
  13  -6  13  324.17   86.99
  -6  -7  13  279.27  137.29
   9   4 -13   35.70  104.89
   4 -13 -13   40.70   89.29
   4 -13 -13  320.07   94.59
  -9  -4  13   30.10  100.99
  13  -9  13   96.69   82.09
   1 -13 -13   57.59   97.89
  12   1 -13   -6.10   93.89
  13 -12  13  154.78  122.99
 -12  -1  13  135.89  114.59
  13 -12  13   73.69  108.69
  12 -14 -13    7.00  105.99
  -2 -12  13  -83.39  105.19
   9 -14 -13 -204.78   82.29
   5   9 -13  -81.09   94.39
  14  -5  13  -41.10   46.80
  -5  -9  13   70.89   99.59
   6 -14 -13   42.60   84.89
   8   6 -13   11.60   98.69
  14  -8  13  199.28   76.39
  -8  -6  13   77.19  110.59
  11   3 -13  148.19  115.69
   3 -14 -13   69.39   94.09
  14 -11  13   94.59  113.49
 -11  -3  13 -150.48  162.58
  14 -11  13   21.50  100.39
   7   8 -13  103.99  113.99
   8 -15 -13  171.08   97.99
  15  -7  13   -8.80   62.59
   1   0 -14  302.47   52.79
  -1   1 -14  235.28   46.20
   0  -1 -14  276.87   48.00
   1  -1  14  222.28   43.80
  -1   0  14  260.07   49.60
   0   1  14  250.37   45.60
   0   2 -14 1485.65  134.09
   2  -2 -14 1551.64  132.89
  -2   0 -14 1237.68  121.89
  -2   2  14 1690.13  148.19
   0  -2  14 1500.05  146.69
   3  -1 -14 1501.75  145.09
  -1  -2 -14 1569.04  137.49
  -2   3 -14 1435.36  141.69
   1   2  14 1503.65  136.69
  -3   1  14 1630.14  145.79
   2  -3  14 1446.46  140.49
   4  -3 -14  475.85   72.89
  -1   4 -14  556.84  115.09
  -3  -1 -14  403.46   51.39
  -4   3  14  407.96   66.99
   1  -4  14  417.06   67.29
  -3   2 -14 1403.56  132.89
   2   1 -14 1625.14  143.99
   1  -3 -14 1481.65  140.59
   3  -2  14 1218.38  124.39
  -1   3  14 1585.54  132.39
  -2  -1  14 1486.35  133.49
  -2  -3 -14 1313.27  128.39
   5  -2 -14 1387.16  136.19
   2   3  14 1103.69  111.89
  -5   2  14 1025.30  116.89
   3  -5  14 1161.18  120.79
  -4  -2 -14  352.46   60.59
   6  -4 -14  416.26   74.39
  -4  -2 -14  462.75   64.49
  -2   6 -14  484.35   79.39
  -6   4  14  367.66   69.69
   2  -6  14  392.96   73.39
   3  -4 -14  468.95   81.79
   1   3 -14  454.45   72.79
  -1  -3  14  433.06   71.49
  -3   4  14  341.67   61.89
   0  -4 -14 1163.28  124.19
   4   0 -14 1314.87  128.29
  -4   0  14 1391.76  135.49
   0   4  14 1277.67  134.39
   4  -4  14 1339.57  129.09
   4  -4  14 1427.66  129.39
  -3  -4 -14  161.08   53.09
   7  -3 -14   33.20   54.69
  -3  -4 -14   74.99   51.89
  -7   3  14   87.29   50.89
   4  -7  14   97.89   57.29
   4  -7  14   54.69   55.09
   8  -5 -14  690.53  101.99
  -5  -3 -14  618.44   90.79
  -5  -3 -14  784.92   90.59
   3  -8  14  571.74  100.29
  -8   5  14  662.93   99.19
   3  -8  14  646.04  104.09
   5  -5 -14  216.08   60.39
   0   5 -14  262.47   62.99
  -5   5  14  101.99   49.90
   0  -5  14  154.58   53.29
   2  -5 -14  975.10  115.79
   3   2 -14 1160.18  118.69
   5  -3  14 1136.09  104.49
  -2   5  14  919.81  116.19
   5  -3  14 1083.49  104.99
  -3  -2  14 1300.17  118.99
   6  -1 -14  824.62  109.49
  -1  -5 -14 1010.20  112.69
   5  -6  14  879.21  106.59
  -6   1  14  973.90  111.69
   5  -6  14  874.81  104.49
   1   5  14  855.51  109.09
  -4  -5 -14  106.69   59.59
   9  -4 -14  194.18   70.29
  -4  -5 -14   14.70   62.79
  -9   4  14   86.69   65.09
   5  -9  14  228.88   71.19
   5  -9  14  127.29   72.19
  -6  -4 -14  186.68   66.39
  10  -6 -14  123.59   75.49
  -6  -4 -14  174.98   70.49
   4 -10  14  147.19   79.69
 -10   6  14  116.79   65.39
   4 -10  14  252.27   76.59
   7  -6 -14  532.75   88.69
  -1   7 -14  630.14   99.69
  -6  -1 -14  567.04   64.89
  -6  -1 -14  541.15   64.79
  -7   6  14  356.86   74.19
   1  -7  14  523.35   87.09
   2   4 -14  459.95   81.49
   4  -6 -14  520.25   84.59
  -2  -4  14  474.35   75.79
  -4   6  14  442.76   76.49
   1  -6 -14  714.33  104.79
   5   1 -14  953.30  109.49
  -1   6  14  844.92  108.69
  -5  -1  14  909.01  108.39
   6  -5  14  827.52  101.39
   6  -5  14  845.72   98.49
  -2  -6 -14   57.59   58.39
   8  -2 -14   56.79   57.89
  -2  -6 -14  116.49   61.09
   6  -8  14   86.99   58.29
  -8   2  14  -67.99   90.79
   6  -8  14   78.19   68.99
  -5  -6 -14  134.49  129.79
  11  -5 -14  245.48   81.69
  -5  -6 -14  -10.30   69.39
   6 -11  14  -12.10   84.89
   6 -11  14  110.19   77.79
 -11   5  14  -11.00   73.59
  -7  -5 -14   93.19   82.09
  12  -7 -14  -48.70   82.49
  -7  -5 -14  -11.50   66.59
 -12   7  14  -31.60   73.49
   5 -12  14   15.50  137.09
   5 -12  14  -44.40   79.49
   9  -7 -14  301.07   79.69
  -7  -2 -14  300.97   61.29
  -7  -2 -14  342.67   60.79
   2  -9  14  365.96   88.69
  -9   7  14  271.67   77.69
   2  -9  14  414.46   84.19
   1   6 -14  522.75   92.69
   6  -7 -14  543.55   94.79
  -6   7  14  515.45   83.69
  -1  -6  14  495.95   90.29
   4   3 -14  128.19   57.59
   3  -7 -14  190.48   61.49
  -4  -3  14  151.48   51.89
  -3   7  14   44.10   61.39
   7  -4  14   82.19   40.10
   7  -4  14   77.89   42.50
   7   0 -14  357.56   73.19
   0  -7 -14  184.48   66.49
   7  -7  14  237.98   61.39
   0   7  14  117.99   77.09
   7  -7  14  230.18   69.59
  -7   0  14  210.78   88.19
  10  -3 -14  429.16   90.49
  -3  -7 -14  456.15   95.19
  -3  -7 -14  602.24  100.29
   7 -10  14  424.06   92.39
   7 -10  14  421.66  111.49
 -10   3  14  430.16   88.59
  -6  -7 -14  -31.40   90.39
  -6  -7 -14   34.90   80.79
   7 -13  14   40.30  104.29
 -13   6  14  -51.09   75.69
   7 -13  14   -8.90   87.29
  -8  -6 -14  144.19   85.29
  14  -8 -14  147.29  107.79
  -8  -6 -14   78.39   96.19
 -14   8  14  108.59  136.89
   6 -14  14  325.17  104.99
  11  -8 -14  446.96  101.49
  -8  -3 -14  452.35   86.69
  -8  -3 -14  423.06   86.89
 -11   8  14  327.87   84.09
   3 -11  14  467.45   99.19
   3 -11  14  241.98   90.29
   8  -8 -14  310.67   80.99
   0   8 -14  124.49   70.49
   0  -8  14  186.38   64.39
  -8   8  14   44.70   53.89
   5  -8 -14  540.75  101.09
   3   5 -14  742.43  104.69
  -5   8  14  512.25   92.39
   8  -3  14  583.04   60.79
  -3  -5  14  651.03   96.79
   2  -8 -14    1.00   54.89
   6   2 -14  -36.00   56.89
  -6  -2  14   50.19   56.69
   8  -6  14   12.30   54.09
   8  -6  14   31.60   51.29
  -2   8  14   95.69   59.19
  -1  -8 -14  -50.59   59.69
   9  -1 -14   -6.00   60.79
  -1  -8 -14   23.00   63.59
   8  -9  14   11.10   60.39
  -9   1  14  -18.10   59.19
   8  -9  14   26.00   76.49
  -4  -8 -14  158.08   88.89
  -4  -8 -14  245.08   96.49
  12  -4 -14  209.68   84.19
 -12   4  14   63.89   85.99
   8 -12  14  112.09   98.49
   8 -12  14   30.50   82.39
  -7  -8 -14   33.50   89.89
  -7  -8 -14   78.89  107.39
  15  -7 -14 -122.69  101.59
   8 -15  14   77.79  100.19
 -15   7  14  127.09  105.19
  -9  -4 -14  -39.30   65.19
  13  -9 -14   40.10   95.19
  -9  -4 -14  167.58   83.89
   4 -13  14   47.00  103.69
 -13   9  14  -21.40   84.69
   4 -13  14   70.39   86.49
  -9  -1 -14  129.59   45.70
  10  -9 -14   37.10   80.59
  -9  -1 -14   44.40   42.30
 -10   9  14  118.19   66.69
   1 -10  14  133.99   85.89
   1 -10  14  153.98   71.19
   2   7 -14  304.07   78.89
   7  -9 -14  202.08   81.49
  -2  -7  14  379.26   80.89
  -7   9  14  176.58   73.29
   4  -9 -14   11.20   61.49
   5   4 -14  188.78   74.59
  -5  -4  14  295.07   67.59
  -4   9  14   39.30   55.69
   9  -5  14  137.69   47.60
   1  -9 -14  147.29   69.59
   8   1 -14   64.29   66.69
   9  -8  14   42.40   61.09
  -1   9  14   26.90   69.99
   9  -8  14  -40.80   65.89
  -8  -1  14   36.80   65.09
  11  -2 -14  201.58   80.39
  -2  -9 -14  -25.60   85.49
  -2  -9 -14  137.49   83.39
 -11   2  14  103.49   82.49
   9 -11  14   60.89   80.59
   9 -11  14   -2.60   88.09
  -5  -9 -14  242.78  111.99
  14  -5 -14   68.49   91.19
  -5  -9 -14  -20.30  134.79
 -14   5  14  108.59   94.79
   9 -14  14   23.00   92.59
   9 -14  14   90.29  117.39
  12 -10 -14  150.28  105.69
 -10  -2 -14  200.48   61.89
 -10  -2 -14   94.89   59.29
   2 -12  14  -18.20   90.19
 -12  10  14  214.48  113.49
   2 -12  14  279.27   98.49
   1   9 -14   85.79   74.09
  -9  10  14   27.40   68.29
  -1  -9  14   88.09   67.89
   4   6 -14  130.79   71.29
   6 -10 -14  127.49   72.09
  10  -4  14   69.89   39.90
  -4  -6  14  185.88   69.99
  -6  10  14   98.09   62.59
   3 -10 -14  380.06   89.49
   7   3 -14  608.14  103.29
  10  -7  14  563.14   94.69
  -3  10  14  321.17   83.39
  -7  -3  14  396.46   93.59
   0 -10 -14  297.77   96.69
  10   0 -14  536.75  109.89
   0 -10 -14  354.46  112.89
 -10   0  14  542.85  116.69
  10 -10  14  687.93  115.79
  10 -10  14  502.55  119.59
  -3 -10 -14  161.08   99.49
  -3 -10 -14  225.98  116.29
  10 -13  14  142.79   96.29
  10 -13  14  107.59  149.69
 -13   3  14  -76.79   83.79
  14 -11 -14   55.09  120.29
 -11  -3 -14  -67.29   63.99
 -11  -3 -14   67.89   60.79
 -14  11  14   30.30   89.79
   3 -14  14  -27.70   95.59
  11 -11 -14  170.68   96.59
   0 -11  14    2.80   75.79
   0 -11  14  203.38   96.99
 -11  11  14   46.70   86.09
   8 -11 -14  203.08   95.29
   3   8 -14  577.24  109.69
  -3  -8  14  207.88   80.19
  -8  11  14  165.78   74.49
   6   5 -14  182.08   84.19
   5 -11 -14  146.39   79.69
  11  -6  14  165.08   56.69
  -5  11  14   17.30   66.09
  -6  -5  14   97.89   75.19
   9   2 -14   28.70   77.39
   2 -11 -14  173.08   87.49
   2 -11 -14  111.49   84.09
  11  -9  14  192.88   93.79
  11  -9  14   97.59   81.29
  -9  -2  14   31.00   86.69
  -1 -11 -14  269.17  104.99
  12  -1 -14  205.88  101.29
 -12   1  14   52.59   95.29
  11 -12  14   70.59  109.29
  11 -12  14   65.99  109.39
 -12  -1 -14   31.40   43.10
  13 -12 -14  -87.29  111.49
 -12  -1 -14   67.79   43.40
   1 -13  14 -135.59   88.69
   2  10 -14   86.49   92.29
  10 -12 -14   85.19   96.09
 -10  12  14  120.29   82.19
  -2 -10  14  -37.90   78.39
   5   7 -14   -8.80   79.59
   7 -12 -14  131.69   82.39
  -7  12  14  -37.40   80.49
  -5  -7  14   -3.70   81.19
  12  -5  14   -1.00   47.20
   4 -12 -14  134.89   80.99
   8   4 -14  218.48  116.69
  -4  12  14   47.50   97.19
  12  -8  14  125.59   74.09
  -8  -4  14   56.19   80.69
   1 -12 -14   92.09   92.59
   1 -12 -14  116.59  101.49
  11   1 -14  158.98  164.38
 -11  -1  14   28.80   94.99
  12 -11  14  170.98  110.99
  12 -11  14   10.50   92.19
  -2 -12 -14  215.28  117.69
  -2 -12 -14   80.79  176.78
  14  -2 -14  269.17  110.09
  12 -14  14   31.60  123.19
 -14   2  14   68.49  136.79
  12 -14  14   23.50  107.49
  12 -13 -14 -203.28   96.99
  -1 -12  14  -49.70  102.89
   9 -13 -14   12.00   93.09
   4   9 -14  -38.90   86.59
  -4  -9  14  -55.69   81.19
  -9  13  14    2.50   77.19
   6 -13 -14  -61.49   76.49
   7   6 -14  112.39   89.39
  -6  13  14  -60.89   70.19
  -7  -6  14   64.29   91.69
  13  -7  14   27.50   62.29
   3 -13 -14   47.30   86.49
   3 -13 -14   82.59   97.29
  10   3 -14  390.36  112.49
  13 -10  14   -7.30  101.19
 -10  -3  14    2.80  108.79
  13 -10  14  191.48   96.69
   0 -13 -14  -48.20  106.79
  13   0 -14  101.49  100.49
 -13   0  14   -7.60  142.29
  13 -13  14  -24.40   96.19
  11 -14 -14  132.49  109.49
  -3 -11  14 -116.79  103.29
   6   8 -14  252.87  116.59
   8 -14 -14   71.49   89.49
  14  -6  14  201.68   61.69
  -6  -8  14  234.28  114.39
   9   5 -14   77.49  103.79
   5 -14 -14 -143.39   78.49
  -9  -5  14   28.60  106.99
  14  -9  14  -59.99   72.99
  12   2 -14   76.89  106.99
   2 -14 -14   33.10  101.09
  14 -12  14  120.09  127.39
  14 -12  14  128.89  120.59
 -12  -2  14  -30.30  114.89
   8   7 -14   83.19  108.39
   7 -15 -14   26.80   89.29
  -8  -7  14  141.39  167.48
  15  -8  14   96.19   70.69
   0   0 -15   38.10   41.90
   0   0  15   13.30   37.20
   2  -1 -15 1198.68  124.59
  -1  -1 -15 1268.77  117.39
  -1   2 -15 1301.07  122.49
  -2   1  15 1380.06  129.49
   1  -2  15 1260.37  125.89
   1   1  15 1362.56  121.89
  -2   1 -15 1123.39  120.29
   1   1 -15 1536.15  130.59
   1  -2 -15 1465.75  128.89
  -1  -1  15 1530.95  131.39
  -1   2  15 1375.66  129.39
   2  -1  15 1241.78  122.79
  -2  -2 -15   12.60   36.90
  -2   4 -15   29.90   44.00
   4  -2 -15   88.49   45.70
   2   2  15  121.29   40.10
  -4   2  15  -19.10   42.70
   2  -4  15   41.70   38.90
  -3   0 -15   32.60   21.70
   3  -3 -15   33.40   51.39
   0   3 -15  -42.80   37.40
  -3   3  15   53.19   42.00
   3   0  15   11.10   21.70
   0  -3  15   35.50   39.40
   0  -3 -15   17.00   43.40
  -3   3 -15  -28.50   36.60
   3   0 -15  -80.39   45.30
  -3   0  15    1.80   38.80
   0   3  15   12.80   35.40
   3  -3  15  -55.49   32.00
   6  -3 -15 1462.25  145.29
  -3  -3 -15 1477.25  138.49
  -3   6 -15 1404.76  149.88
  -3  -3 -15 1339.87  134.19
   3  -6  15 1418.86  142.59
  -6   3  15 1240.98  137.59
  -1   5 -15  573.14   85.89
  -4  -1 -15  699.53   85.59
  -4  -1 -15  546.85   60.99
   5  -4 -15  504.15   85.39
   1  -5  15  507.95   75.89
  -5   4  15  355.46   71.29
   2   2 -15   16.60   45.70
   4  -2  15  179.58   48.00
  -2  -2  15   68.69   40.80
  -2   4  15   -2.40   40.50
  -1  -4 -15    9.80   45.30
   5  -1 -15    0.70   49.10
   4  -5  15   67.79   44.60
   1   4  15   32.70   44.30
  -5   1  15   37.10   47.20
   8  -4 -15  -24.10   53.39
  -4  -4 -15   23.20   50.89
  -4  -4 -15  -84.29   46.20
   4  -8  15  -33.40   55.09
  -8   4  15   45.10   54.99
   4  -8  15   77.99   62.49
   7  -5 -15  655.93   96.79
  -5  -2 -15  654.03   76.99
  -5  -2 -15  592.14   75.69
  -2   7 -15  639.14  103.39
   2  -7  15  734.93  104.29
  -7   5  15  534.25  122.69
   4  -5 -15  577.24   90.79
   1   4 -15  606.84   86.39
  -1  -4  15  491.65   82.49
  -4   5  15  458.85   79.49
   1  -5 -15   21.90   50.39
   4   1 -15   22.30   47.90
   5  -4  15   76.99   41.60
  -4  -1  15   35.80   46.00
   5  -4  15   96.39   43.00
  -1   5  15  -44.10   46.60
  -2  -5 -15  372.26   76.09
  -2  -5 -15  386.56   75.09
   7  -2 -15  652.43   92.59
  -7   2  15  387.06   75.59
   5  -7  15  449.56   81.49
   5  -7  15  537.15   84.59
  -5  -5 -15  226.08   68.99
  -5  -5 -15   16.50   59.49
  10  -5 -15    3.50   65.49
   5 -10  15   14.70   72.79
   5 -10  15  -26.00   66.09
 -10   5  15   55.79   64.59
  -6  -3 -15  261.17   63.39
   9  -6 -15  431.26   83.89
  -6  -3 -15  357.66   67.19
  -9   6  15  398.36   79.59
   3  -9  15  251.17   81.89
   3  -9  15  428.76   86.19
   6  -6 -15    0.00   55.49
   0   6 -15  -13.20   50.69
   0  -6  15 -108.09   48.60
   3   3 -15 1359.76  131.69
   3  -6 -15 1071.09  133.19
  -3   6  15 1264.27  130.39
   6  -3  15 1192.78  119.19
  -3  -3  15 1289.47  130.79
   6  -3  15 1227.38  111.19
   6   0 -15   55.49   52.49
   0  -6 -15  -46.30   48.50
   6  -6  15 -113.39   42.00
   0   6  15   70.99   57.19
  -6   0  15  -38.50   42.70
   6  -6  15  -40.80   43.70
  -3  -6 -15  754.62  107.79
   9  -3 -15  384.26   93.99
  -3  -6 -15  545.55   92.09
   6  -9  15  508.55   95.79
   6  -9  15  464.15   92.59
  -9   3  15  515.75   90.89
  -6  -6 -15   17.70   83.89
  12  -6 -15  -56.59   76.59
  -6  -6 -15  -36.50   70.79
   6 -12  15 -113.69   72.89
 -12   6  15  -18.60   76.79
   6 -12  15  -43.40   93.79
  -7  -4 -15 -111.59   66.79
  11  -7 -15   82.59   82.39
  -7  -4 -15   65.09   62.39
   4 -11  15   10.20   73.19
   4 -11  15   -2.80   75.79
 -11   7  15  -13.20   66.49
  -1   8 -15   47.50   59.79
   8  -7 -15  -17.80   60.09
  -7  -1 -15   28.30   31.10
  -7  -1 -15   87.09   35.70
   1  -8  15  -15.60   54.09
  -8   7  15   25.80   52.59
   2   5 -15  648.04   95.79
   5  -7 -15  550.94   99.29
  -2  -5  15  589.04   90.09
  -5   7  15  436.66   81.99
   2  -7 -15  341.57   74.79
   5   2 -15  482.55   77.99
   7  -5  15  422.06   62.49
   7  -5  15  443.76   75.39
  -2   7  15  232.38   81.09
  -5  -2  15  382.86   71.99
  -1  -7 -15  243.68   72.09
  -1  -7 -15   94.39   78.49
   8  -1 -15  249.68   70.89
   7  -8  15  154.38   73.39
   7  -8  15  423.36   74.69
  -8   1  15  281.07   73.79
  -4  -7 -15  -49.60   69.19
  11  -4 -15   27.50   72.39
  -4  -7 -15   39.10   81.69
 -11   4  15   63.49   74.69
   7 -11  15 -105.59   71.89
   7 -11  15   71.39   92.89
  -7  -7 -15  228.98  106.19
  14  -7 -15  -52.09   93.69
  -7  -7 -15  149.09   86.79
   7 -14  15  101.69   97.59
 -14   7  15  178.68  115.69
  -8  -5 -15  109.09   87.99
  -8  -5 -15   50.69   69.79
  13  -8 -15  -43.10   88.19
   5 -13  15  100.99  107.39
   5 -13  15   37.30   87.89
 -13   8  15  145.99   83.49
  -8  -2 -15   70.09   43.90
  10  -8 -15  -35.20   70.79
  -8  -2 -15  -21.80   48.60
   2 -10  15   40.40   66.29
 -10   8  15  -13.30   59.99
   2 -10  15   85.79  125.49
   7  -8 -15   74.89   68.99
   1   7 -15   60.69   57.79
  -7   8  15  -44.50   45.50
  -1  -7  15   58.69   55.59
   4  -8 -15   10.20   57.69
   4   4 -15  -67.59   50.49
   8  -4  15  -16.80   37.00
  -4  -4  15  -12.90   49.50
   8  -4  15  -46.90   30.80
  -4   8  15   62.49   52.79
   7   1 -15  334.97   79.59
   1  -8 -15  204.38   70.69
  -1   8  15  318.37   77.19
   8  -7  15  320.97   76.69
  -7  -1  15  410.26   80.19
   8  -7  15  160.68   64.89
  10  -2 -15  285.17   83.49
  -2  -8 -15   31.60   82.09
  -2  -8 -15   32.50   68.49
   8 -10  15  119.59   75.59
   8 -10  15  147.19   86.69
 -10   2  15  151.98   77.99
  13  -5 -15   85.69  119.59
  -5  -8 -15   25.20   83.59
  -5  -8 -15   20.20   91.39
   8 -13  15   30.30   93.19
   8 -13  15   42.20  106.89
 -13   5  15  -43.40   86.09
  -9  -6 -15   -9.30   74.09
  -9  -6 -15   64.29   91.99
  15  -9 -15   72.19  116.79
 -15   9  15   57.09   92.99
   6 -15  15  -31.30  105.49
  -9  -3 -15  244.58   74.79
  12  -9 -15   15.70   96.69
  -9  -3 -15  117.59   70.29
   3 -12  15   44.00   90.49
   3 -12  15   57.09   86.89
 -12   9  15   92.69   75.99
   9  -9 -15  -91.19   75.79
   0   9 -15   41.30   67.99
  -9   9  15  -80.39   56.39
   0  -9  15   83.79   65.59
   3   6 -15  390.06   80.59
   6  -9 -15  290.17   82.09
  -3  -6  15  327.37   74.39
  -6   9  15  133.59   63.69
   6   3 -15  675.43  105.69
   3  -9 -15  437.86   90.89
  -6  -3  15  674.63  102.49
   9  -6  15  696.93   95.09
  -3   9  15  250.97   82.79
   9  -6  15  525.15   88.09
   9   0 -15  -86.19   65.49
   0  -9 -15  104.19   76.19
   0  -9 -15   82.89   71.19
   9  -9  15  -37.20   60.39
  -9   0  15   58.69   63.19
   9  -9  15   37.70   78.99
  -3  -9 -15   16.80   93.69
  -3  -9 -15    3.10   79.29
  12  -3 -15 -143.99   70.29
 -12   3  15  102.59   82.69
   9 -12  15   74.49   84.49
   9 -12  15   -8.40   99.99
  -6  -9 -15   75.49   91.09
  -6  -9 -15 -150.18  104.19
  15  -6 -15  -35.00   89.49
 -15   6  15  -56.49   95.99
   9 -15  15   -2.30   99.19
 -10  -4 -15  -17.30   57.99
  14 -10 -15  -79.39  104.89
 -10  -4 -15   30.90   83.99
   4 -14  15  -30.40   92.89
 -14  10  15  115.09   94.89
 -10  -1 -15  108.29   43.20
 -10  -1 -15  108.69   42.60
  11 -10 -15   61.29   95.59
   1 -11  15   72.09   92.59
   1 -11  15  137.49   87.19
 -11  10  15   75.59   75.49
   8 -10 -15  -36.10   82.69
   2   8 -15    9.20   69.39
  -2  -8  15  -32.70   61.69
  -8  10  15   -5.20   62.69
   5 -10 -15  -44.30   65.29
   5   5 -15  -23.60   67.09
  -5  10  15   13.80   55.99
  10  -5  15   35.10   40.30
  -5  -5  15 -101.49   59.29
   8   2 -15   52.89   75.39
   2 -10 -15  148.49   77.19
  10  -8  15  109.89   80.19
  10  -8  15   67.99   69.89
  -2  10  15    1.10   69.89
  -8  -2  15  185.08   85.49
  -1 -10 -15  -39.10  114.29
  -1 -10 -15  138.39  101.19
  11  -1 -15  212.28   84.69
  10 -11  15  348.77   89.19
 -11   1  15   16.00   81.89
  10 -11  15   28.70  100.69
  -4 -10 -15  143.09  101.89
  14  -4 -15   32.30   85.29
  -4 -10 -15   78.69  126.79
 -14   4  15  122.49  102.29
  10 -14  15   94.09  124.39
  10 -14  15   33.60  103.99
  13 -11 -15  131.89  111.89
 -11  -2 -15  171.18   50.59
 -11  -2 -15  -10.80   49.70
   2 -13  15  200.48  101.59
 -13  11  15  -40.80   82.09
   1  10 -15  292.57   96.59
  10 -11 -15  155.98  100.29
 -10  11  15   45.30  142.79
  -1 -10  15  101.89   80.79
   7 -11 -15   58.39   74.89
  -7  11  15  -17.10   64.49
  -4  -7  15   -1.10   69.39
   4 -11 -15  112.29   73.79
   7   4 -15   -5.10   77.19
  11  -7  15   34.70   70.79
  11  -7  15    4.60   62.59
  -7  -4  15   92.99   82.09
  -4  11  15  151.18   76.79
  10   1 -15   69.19   84.49
   1 -11 -15   21.50   82.49
   1 -11 -15   97.59   88.89
  11 -10  15  117.29   99.19
  11 -10  15  133.09   87.39
 -10  -1  15  113.59   88.99
  -2 -11 -15   58.49  112.39
  13  -2 -15   34.70   85.69
  -2 -11 -15   -3.70   96.69
 -13   2  15  -19.20   92.39
  11 -13  15   48.10   95.09
  11 -13  15  135.59  200.48
  12 -12 -15  -26.10  101.99
 -12  12  15   51.49   93.49
   0 -12  15  -93.89   90.59
   3   9 -15    9.10   87.39
   9 -12 -15   49.90   90.39
  -9  12  15  -21.80   73.59
  -3  -9  15  200.78   86.19
   6 -12 -15  -26.10   72.59
   6   6 -15  -57.59   74.69
  -6  -6  15  -96.09   74.19
  -6  12  15  -17.50   77.49
  12  -6  15   23.10   52.89
   3 -12 -15   40.70   78.99
   3 -12 -15   40.80   85.09
  12  -9  15   39.20  118.59
  12  -9  15   40.30   86.09
  -9  -3  15  -61.39   96.09
   0 -12 -15  210.88  113.99
   0 -12 -15  129.39   98.19
  12   0 -15  -22.30   89.79
 -12   0  15 -147.59   91.69
  12 -12  15  224.58  132.99
  12 -12  15  -45.40  113.49
  11 -13 -15   45.80  101.69
  -2 -11  15  144.09  107.39
   5   8 -15   85.79   93.99
   8 -13 -15    8.00   79.89
  -8  13  15  -45.30   78.79
  -5  -8  15   90.89   92.29
  13  -5  15   52.19   43.40
   5 -13 -15   63.29   82.09
   8   5 -15   15.30   94.89
  -5  13  15  -93.39   75.69
  13  -8  15  126.99   69.79
  -8  -5  15   49.70   92.69
  13  -8  15   -6.80   77.49
   2 -13 -15  164.28  196.38
  11   2 -15   79.29   99.29
   2 -13 -15    8.10   91.89
 -11  -2  15  162.38  115.09
  13 -11  15  138.39  112.99
  13 -11  15   71.09   98.79
   4  10 -15  113.79  100.79
  10 -14 -15  -31.00   91.39
   7 -14 -15  172.18   91.89
   7   7 -15  107.49  106.39
  14  -7  15   96.09   85.19
  -7  -7  15   91.49  103.99
  10   4 -15  -19.20   98.89
   4 -14 -15  117.09   93.19
  14 -10  15   25.90  101.69
 -10  -4  15  -59.99  120.09
  14 -10  15    8.50   88.29
   6   9 -15   41.40  112.19
   9 -15 -15    9.40  143.69
   9   6 -15   36.80   98.19
   6 -15 -15  -67.39  102.59
  15  -9  15   18.30   76.49
  15  -9  15  126.39  131.39
  -9  -6  15  -57.99  137.99
   0   1 -16 1054.29  105.59
   1  -1 -16 1081.69  108.99
  -1   0 -16  960.40  102.39
  -1   1  16 1095.69  109.19
   0  -1  16 1067.19  108.29
   1   0  16 1013.90  102.99
  -2  -1 -16  395.56   57.19
   3  -2 -16  528.85   79.39
  -1   3 -16  436.06   70.49
   2   1  16  368.66   53.29
  -3   2  16  382.56   69.39
   1  -3  16  384.76   67.59
   2   0 -16 3680.83  302.37
  -2   2 -16 3323.77  297.87
   0  -2 -16 3727.83  299.67
   0   2  16 3669.53  297.27
  -2   0  16 3662.23  300.37
   2  -2  16 3320.97  295.27
  -3  -2 -16 1250.57  107.39
   5  -3 -16  894.61  119.29
  -2   5 -16 1077.69  122.19
  -5   3  16 1173.08  122.89
   2  -5  16 1309.97  123.79
   3   2  16 1051.09  109.79
  -3   1 -16  314.77   49.90
   2  -3 -16  420.96   69.29
   1   2 -16  490.45   70.19
  -2   3  16  425.16   72.89
  -1  -2  16  441.16   69.99
  -1  -3 -16  196.98   51.99
   4  -1 -16  281.27   60.59
  -3   4 -16  236.08   54.29
   1   3  16  178.78   50.09
   3  -4  16  188.38   49.40
  -4   1  16  306.17   57.99
   7  -4 -16  372.36   72.29
  -3   7 -16  200.98   68.09
  -4  -3 -16  212.68   54.49
  -4  -3 -16  336.97   55.99
   3  -7  16  269.77   71.19
  -7   4  16  216.08   70.89
   4  -4 -16 1460.15  148.59
   0   4 -16 1568.14  150.28
  -4   4  16 1618.14  155.28
   0  -4  16 1588.94  155.58
  -4   3 -16  163.38   44.90
   1  -4 -16  117.99   60.29
   3   1 -16  181.58   54.69
   4  -3  16  237.18   42.20
  -1   4  16  135.39   48.10
  -3  -1  16  327.87   55.49
  -2  -4 -16  676.43   90.19
   6  -2 -16  601.54   97.69
   4  -6  16  566.24   97.79
   4  -6  16  700.23   94.29
  -6   2  16  588.04   93.29
   2   4  16  679.43   90.79
  -5  -4 -16   77.59   60.69
  -5  -4 -16  197.18   75.89
   9  -5 -16  140.59   67.09
   4  -9  16  148.99   70.99
   4  -9  16   39.80   66.09
  -9   5  16  -48.40   54.09
  -5  -1 -16  879.91   78.79
  -5  -1 -16  781.92   86.89
   6  -5 -16  839.02  106.39
  -1   6 -16  812.92  108.39
  -6   5  16  752.62   97.89
   1  -6  16  598.64   96.49
   3  -5 -16 1116.29  130.09
   2   3 -16 1299.57  126.89
  -3   5  16  930.71  115.99
  -2  -3  16 1289.77  121.29
   5   0 -16  529.45   85.49
   0  -5 -16  456.65   78.59
   5  -5  16  459.75   72.49
   0   5  16  628.04   87.49
   5  -5  16  402.06   72.19
  -5   0  16  464.45   80.79
   8  -3 -16  142.99   64.89
  -3  -5 -16  154.28   56.69
  -3  -5 -16  -69.79   59.79
   5  -8  16  131.69   67.49
   5  -8  16  106.69   63.49
  -8   3  16   73.69   56.89
  -6  -5 -16  160.18   71.99
  11  -6 -16  121.59   79.29
  -6  -5 -16  136.89   69.39
 -11   6  16  156.08   83.99
   5 -11  16  -43.90   81.69
   5 -11  16  298.67  124.69
  -2   8 -16  347.47   77.69
  -6  -2 -16  252.97   52.09
   8  -6 -16  406.86   77.89
  -6  -2 -16  171.98   48.00
  -8   6  16  117.89   58.69
   2  -8  16  178.78   64.69
   1   5 -16  741.33   99.69
   5  -6 -16  605.04   98.49
  -5   6  16  711.43  100.59
  -1  -5  16  846.92  106.29
   2  -6 -16  661.33   95.99
   4   2 -16  606.54   96.59
  -2   6  16  543.25   90.49
   6  -4  16  619.44   76.29
   6  -4  16  553.64   75.99
  -4  -2  16  553.84   88.29
   7  -1 -16  605.64   98.89
  -1  -6 -16  555.94   87.09
   6  -7  16  488.75   87.59
   1   6  16  513.25   93.59
   6  -7  16  545.75   90.79
  -4  -6 -16  743.43  112.19
  -4  -6 -16  667.13  120.59
  10  -4 -16  753.82  120.49
   6 -10  16  701.33  127.39
   6 -10  16  644.44  118.59
 -10   4  16  722.33  119.89
  -7  -6 -16   49.40   79.19
  -7  -6 -16  105.09   90.89
  13  -7 -16   54.49   92.59
   6 -13  16  144.99  106.29
   6 -13  16   -8.30   86.39
 -13   7  16   57.29   85.09
  -7  -3 -16  507.65   83.19
  -7  -3 -16  485.45   83.99
  10  -7 -16  475.45  101.79
   3 -10  16  253.17   93.19
 -10   7  16  368.96   82.99
   3 -10  16  348.87   92.59
   7  -7 -16   14.50   58.89
   0   7 -16   31.30   57.49
   0  -7  16   51.19   50.49
  -7   7  16   52.79   51.79
   3   4 -16  175.88   60.59
   4  -7 -16  284.27   73.59
  -4   7  16  235.08   62.39
  -3  -4  16  296.27   70.29
   6   1 -16  759.42  101.49
   1  -7 -16  486.75   87.79
   7  -6  16  678.33  118.59
   7  -6  16  717.03   96.49
  -6  -1  16  795.02  119.39
  -1   7  16  385.76  121.19
  -2  -7 -16  442.16   86.69
   9  -2 -16  416.46   86.49
  -2  -7 -16  240.38   88.19
  -9   2  16  472.85   85.49
   7  -9  16  155.88   78.19
   7  -9  16  388.76   77.19
  -5  -7 -16  -68.79   77.59
  -5  -7 -16  158.58   88.29
  12  -5 -16  -20.70   82.49
   7 -12  16    4.90   80.09
 -12   5  16   -9.40   72.79
   7 -12  16  -99.29   92.29
  -8  -7 -16  124.19  103.09
  15  -8 -16   64.79  108.79
  -8  -7 -16   51.39   83.79
   7 -15  16  -69.69   91.79
 -15   8  16  117.79  102.89
  -8  -4 -16   72.59   60.89
  12  -8 -16   20.70   89.99
  -8  -4 -16  128.59   78.49
 -12   8  16   64.29   78.09
   4 -12  16  207.18   96.29
   4 -12  16  185.88   97.89
   9  -8 -16   -7.10   70.09
  -8  -1 -16   73.49   36.90
  -1   9 -16   12.90   60.79
  -8  -1 -16   58.69   32.40
   1  -9  16    4.80   55.39
  -9   8  16   52.89   61.09
   2   6 -16  233.78   69.09
   6  -8 -16  116.59   67.19
  -2  -6  16  264.77   69.49
  -6   8  16  130.69   61.29
   3  -8 -16  126.09   62.49
   5   3 -16  249.08   65.99
  -3   8  16  139.89   60.29
   8  -5  16  127.09   47.60
   8  -5  16  205.88   52.09
  -5  -3  16   84.09   60.19
   8   0 -16  200.48   74.09
   0  -8 -16  177.38   68.69
   8  -8  16  282.47   70.09
   0   8  16  165.68   75.99
  -8   0  16  189.78   67.29
   8  -8  16   67.19   68.89
  11  -3 -16 -150.88   66.89
  -3  -8 -16   -8.20   74.29
  -3  -8 -16  -34.80   84.49
   8 -11  16   29.60   79.79
 -11   3  16   24.10   69.69
   8 -11  16   -4.70   91.39
  -6  -8 -16   66.49   99.99
  14  -6 -16  -55.79   85.89
  -6  -8 -16   39.10   86.59
 -14   6  16    5.90  116.69
   8 -14  16    3.40  139.59
   8 -14  16 -111.39   94.59
  14  -9 -16   50.59  105.19
  -9  -5 -16   67.89   68.49
  -9  -5 -16   51.69  100.39
   5 -14  16   51.69   91.79
 -14   9  16   58.29   91.79
  11  -9 -16  521.65  119.79
  -9  -2 -16  526.75   81.69
  -9  -2 -16  641.74   85.99
   2 -11  16  824.02  125.09
 -11   9  16  374.66   97.19
   1   8 -16   49.60   65.09
   8  -9 -16   43.80   71.89
  -1  -8  16  110.79   68.79
  -8   9  16  118.59   61.99
   4   5 -16  138.99   67.59
   5  -9 -16  160.58   69.99
   9  -4  16  173.68   35.00
   9  -4  16   77.39   38.50
  -5   9  16   78.89   61.49
  -4  -5  16   85.29   59.49
   7   2 -16  235.68   82.59
   2  -9 -16  297.67   78.69
  -7  -2  16  466.45   88.59
   9  -7  16  286.47   71.99
   9  -7  16  346.57   80.89
  -2   9  16  200.38   75.99
  -1  -9 -16  109.89   86.79
  10  -1 -16  169.68   81.29
  -1  -9 -16    8.30   76.19
   9 -10  16   44.80   87.49
 -10   1  16  201.08   81.89
   9 -10  16   86.59   75.59
  -4  -9 -16   55.29   89.89
  -4  -9 -16  141.19  102.19
  13  -4 -16    7.00   84.19
   9 -13  16   29.50  114.89
   9 -13  16  131.59   95.09
 -13   4  16  176.68   97.09
 -10  -3 -16  -18.20   58.79
 -10  -3 -16   71.79   65.69
  13 -10 -16 -176.38   98.09
 -13  10  16   20.40   80.39
   3 -13  16   23.70   94.49
  10 -10 -16  222.28   95.29
   0  10 -16  229.08   85.39
   0 -10  16   82.09   76.29
 -10  10  16   86.49   73.39
   3   7 -16  594.34  103.49
   7 -10 -16  414.86  101.29
  -3  -7  16  759.32  123.89
   6   4 -16  723.33  119.69
   4 -10 -16  633.24  107.99
  -4  10  16  408.56   97.49
  10  -6  16  631.04   97.49
  -6  -4  16  692.63  113.79
  10  -6  16  623.54   88.59
   9   1 -16   25.80   72.29
   1 -10 -16  125.99   81.69
   1 -10 -16  120.39   86.69
  10  -9  16   75.09   76.99
  -9  -1  16  -28.70   69.99
  10  -9  16  189.98   92.99
  -2 -10 -16    8.50   98.29
  12  -2 -16  107.19  140.59
  -2 -10 -16   -4.70   97.69
 -12   2  16   58.09   85.79
  10 -12  16   43.70   96.89
  10 -12  16  146.99  112.79
  12 -11 -16  -94.59   95.89
   1 -12  16  -40.80   87.59
 -12  11  16  -45.00   79.39
   2   9 -16  617.14  119.99
   9 -11 -16  569.14  118.49
  -2  -9  16  312.27   97.49
  -9  11  16  368.96   96.69
   6 -11 -16  -44.50   71.09
   5   6 -16   90.69   77.29
  11  -5  16   17.80   48.60
  -5  -6  16   77.59   73.89
  11  -5  16  189.28   48.80
  -6  11  16  111.29   70.29
   8   3 -16   64.09   78.09
   3 -11 -16 -117.99   68.09
  11  -8  16    3.30   74.19
  11  -8  16   76.69   79.59
  -8  -3  16   61.79   83.59
  -3  11  16   42.00   74.79
  11   0 -16  985.10  190.48
   0 -11 -16  635.94  124.19
   0 -11 -16  465.05  127.89
 -11   0  16 1006.20  152.18
  11 -11  16  777.52  132.99
  11 -11  16  726.03  148.19
  -3 -11 -16   60.49  109.99
  14  -3 -16  102.19   95.09
  -3 -11 -16  -11.40  119.89
 -14   3  16  229.18  155.08
  11 -14  16   81.89  123.79
  11 -14  16   95.89  105.39
  11 -12 -16 -105.49   92.09
 -11  12  16  -72.59   79.99
  -1 -11  16   -1.10   97.49
  -1 -11  16   82.79  101.09
   8 -12 -16   97.19   89.19
   4   8 -16   55.89   83.79
  -8  12  16   -2.10   66.29
   5 -12 -16  -44.10   72.59
   7   5 -16   69.09   83.39
  -7  -5  16   14.30   77.69
  -5  12  16    7.80   76.09
  12  -7  16  116.39   62.69
  12  -7  16  -40.70   69.39
  10   2 -16   20.30   94.09
   2 -12 -16  -10.50   87.19
   2 -12 -16 -117.09   83.89
  12 -10  16    6.50   89.29
  12 -10  16  130.49  106.09
 -10  -2  16   -5.30   91.19
  13  -1 -16  -32.40   86.29
  -1 -12 -16   66.59  119.79
  -1 -12 -16   41.40  103.29
  12 -13  16   32.90   97.09
 -13   1  16 -101.59  122.49
  12 -13  16   48.40  205.48
  13 -13 -16  105.39  117.69
   0 -13  16  -92.99  104.49
   3  10 -16   58.09   94.89
  10 -13 -16  -26.90   84.59
  -3 -10  16  163.28  108.09
   6   7 -16  145.89   98.49
   7 -13 -16   65.39   85.69
  -6  -7  16  -21.00   83.79
  13  -6  16  187.48   52.09
  -7  13  16   91.49   83.89
   9   4 -16   34.20   98.19
   4 -13 -16  -23.70   85.09
  -9  -4  16 -138.29  106.39
  13  -9  16  112.29  124.59
  13  -9  16   14.70   81.99
  12   1 -16  172.48  102.39
   1 -13 -16 -160.38   88.69
 -12  -1  16 -121.89  128.99
  13 -12  16   70.49  114.99
   9 -14 -16  -26.30   92.49
   5   9 -16    8.60  105.79
   6 -14 -16   -2.30   88.69
   8   6 -16  220.48  100.79
  -8  -6  16  -36.10  106.19
  14  -8  16  134.69   67.09
  14  -8  16   63.19   78.69
   3 -14 -16  135.69  104.39
  11   3 -16  236.38  109.69
 -11  -3  16   82.89  117.79
  14 -11  16  173.18  109.69
  14 -11  16  159.48  115.49
   8 -15 -16  -96.59  130.39
   7   8 -16  246.38  114.89
  15  -7  16   61.79   60.09
  15  -7  16  132.09   61.59
   1   0 -17  -31.60   41.60
   0  -1 -17   43.10   37.30
  -1   1 -17  -27.30   33.90
   1  -1  17   15.30   39.30
  -1   0  17  -25.70   38.50
   0   1  17  -53.69   37.30
   0   2 -17  -10.40   39.50
   2  -2 -17   36.70   43.00
  -2   0 -17   48.20   32.70
  -2   2  17   29.10   40.10
   0  -2  17    4.60   37.40
   2   0  17  -35.50   28.30
   3  -1 -17  128.39   89.39
  -2   3 -17  126.39   50.29
  -1  -2 -17  224.28   46.70
   1   2  17  153.48   39.80
  -3   1  17   95.49   45.40
   2  -3  17  157.98   45.30
  -3  -1 -17  213.38   36.80
   4  -3 -17  252.37   56.39
  -1   4 -17  257.07   59.79
  -4   3  17  264.37   57.59
   3   1  17  173.98   38.40
   1  -4  17  138.09   47.70
   2   1 -17   -9.10   77.89
  -3   2 -17  149.59   39.60
   1  -3 -17   89.29   48.10
  -1   3  17  204.38   45.50
  -2  -1  17  151.88   46.00
   3  -2  17   97.09   32.30
  -2  -3 -17  469.25   76.29
  -3   5 -17  558.24   88.19
   5  -2 -17  589.24   87.09
   2   3  17  647.54   78.19
  -5   2  17  564.54   86.99
   3  -5  17  432.06   81.09
  -4  -2 -17  122.89   40.20
  -4  -2 -17  148.09   40.60
   6  -4 -17  132.89   56.49
  -2   6 -17  100.69   59.19
  -6   4  17   31.20   48.60
   2  -6  17  123.09   53.69
   1   3 -17  213.38   52.79
   3  -4 -17  110.89   53.19
  -1  -3  17  238.68   55.89
  -3   4  17  285.37   56.29
   4   0 -17  -23.60   48.10
  -4   4 -17  -51.99   41.50
   0  -4 -17   -8.90   46.60
   4  -4  17    6.90   36.40
   0   4  17  -51.59   39.60
  -4   0  17   -6.90   41.10
   7  -3 -17  128.99   60.89
  -3  -4 -17   60.49   52.39
  -3  -4 -17  192.18   52.69
   4  -7  17  206.98   66.89
   4  -7  17  142.99   61.29
  -7   3  17   61.89   89.99
  -3   8 -17   93.19   62.59
  -5  -3 -17  191.28   50.89
   8  -5 -17  284.77   71.09
  -5  -3 -17  129.69   53.19
  -8   5  17  145.89   64.59
   3  -8  17  148.89   64.49
   0   5 -17  -71.79   47.60
   5  -5 -17   28.80   55.19
  -5   5  17  -24.00   45.40
   0  -5  17   29.20   47.10
   3   2 -17  575.14   87.99
   2  -5 -17  579.44   91.99
   5  -3  17  447.76   66.69
   5  -3  17  552.84   65.39
  -2   5  17  465.85   76.99
  -3  -2  17  670.93   86.29
  -1  -5 -17  456.55   77.49
   6  -1 -17  535.95   87.89
   5  -6  17  436.16   80.59
   5  -6  17  475.65   85.09
  -6   1  17  540.75   83.79
   1   5  17  486.15   88.69
   9  -4 -17   69.59   66.69
  -4  -5 -17  218.68   63.19
  -4  -5 -17  119.29   62.69
   5  -9  17   82.49   73.89
   5  -9  17  130.19   71.29
  -9   4  17  245.78   68.29
  -6  -4 -17  -38.40   85.89
  10  -6 -17   94.59   75.99
  -6  -4 -17   99.59   66.19
   4 -10  17  173.48   80.59
   4 -10  17  119.29   78.49
 -10   6  17   55.29   66.19
   7  -6 -17  275.17   73.59
  -1   7 -17  378.56   78.29
   1  -7  17  315.77   65.39
  -7   6  17  186.18   65.89
   4  -6 -17   85.79   57.29
   2   4 -17   15.20   51.99
  -4   6  17  113.99   48.60
  -2  -4  17   43.70   50.69
   5   1 -17  584.64   94.59
   1  -6 -17  530.15   86.59
   6  -5  17  439.96   79.29
   6  -5  17  441.86   77.19
  -1   6  17  474.25   87.79
  -5  -1  17  615.84   89.89
  -2  -6 -17  200.08   63.39
  -2  -6 -17  146.49   71.29
   8  -2 -17  188.88   70.09
  -8   2  17  249.58   73.19
   6  -8  17  265.77   97.49
   6  -8  17  243.68   72.19
  11  -5 -17  -21.70   73.89
  -5  -6 -17   76.79   68.79
  -5  -6 -17   17.70   81.69
   6 -11  17   26.50   83.09
   6 -11  17   29.00   85.09
 -11   5  17   33.30   73.59
  -7  -5 -17  -21.30   65.09
  -7  -5 -17   51.89   78.79
  12  -7 -17   45.90   92.59
 -12   7  17  -68.59   72.19
   5 -12  17   51.49   85.79
   5 -12  17  180.78  157.38
  -7  -2 -17  164.28   47.80
  -7  -2 -17   68.39   39.20
   9  -7 -17  121.09   69.09
  -2   9 -17  108.39   63.39
   2  -9  17   11.10   56.99
  -9   7  17   38.40   54.99
   1   6 -17  380.56   72.99
   6  -7 -17  310.57   78.59
  -1  -6  17  325.37   67.89
  -6   7  17  297.07   66.29
   4   3 -17  171.88   59.49
   3  -7 -17  124.59   61.39
   7  -4  17  192.68   42.80
  -3   7  17   22.90   53.79
  -4  -3  17  176.58   58.99
   7  -4  17   85.59   38.50
   0  -7 -17   59.89   60.49
   7   0 -17 -106.29   52.49
   7  -7  17   -8.50   51.09
   0   7  17  -48.40  109.09
  -7   0  17   49.40   55.89
   7  -7  17   -6.50   53.29
  -3  -7 -17   59.99   72.99
  10  -3 -17  158.18   70.89
  -3  -7 -17   94.19   80.19
 -10   3  17   44.50   67.09
   7 -10  17   64.69   71.99
   7 -10  17  125.99   81.89
  13  -6 -17  117.99   96.99
  -6  -7 -17  123.29   83.69
  -6  -7 -17   47.10   88.29
   7 -13  17  -22.70  105.79
 -13   6  17  -55.69   89.49
   7 -13  17  -49.50   87.89
  -8  -6 -17  -14.80   69.49
  14  -8 -17  -68.99   97.89
  -8  -6 -17  -46.80   87.69
 -14   8  17   -1.60   93.99
   6 -14  17   11.90   96.39
  -8  -3 -17    7.20   52.09
  -8  -3 -17    5.60   59.29
 -11   8  17   14.90   67.69
   3 -11  17  118.99   82.59
   3 -11  17  120.79   85.79
   0   8 -17  -38.80   57.59
   8  -8 -17   66.99   67.79
  -8   8  17  -20.90   49.60
   0  -8  17  -37.90   52.69
   3   5 -17  265.67   71.49
   5  -8 -17  251.17   73.59
  -5   8  17   15.10   51.89
  -3  -5  17   92.29   58.39
   2  -8 -17  301.97   74.79
   6   2 -17  342.97   79.59
  -6  -2  17  159.28   66.89
   8  -6  17  101.69   62.49
   8  -6  17  279.17   61.19
  -2   8  17  269.57   67.29
  -1  -8 -17  443.86   89.59
  -1  -8 -17  517.95  101.69
   9  -1 -17  423.46   89.19
   8  -9  17  608.74  100.69
   8  -9  17  551.04  104.49
  -9   1  17  620.94  107.89
  -4  -8 -17   34.20   80.89
  -4  -8 -17  177.88   97.99
  12  -4 -17   10.80   80.09
 -12   4  17  -65.19   78.99
   8 -12  17  191.68  109.99
   8 -12  17  -50.99   80.89
  -9  -4 -17   52.49   73.89
  13  -9 -17 -120.59   97.59
  -9  -4 -17  -43.50   57.09
   4 -13  17  203.48   93.29
 -13   9  17   39.20   86.39
   4 -13  17    8.20  149.99
  -1  10 -17   34.70   65.99
  10  -9 -17  164.58  145.49
   1 -10  17   64.79   67.59
 -10   9  17   34.50   66.69
   7  -9 -17  165.08   76.79
   2   7 -17  141.19   66.99
  -7   9  17   43.50   56.89
  -2  -7  17  112.29   63.49
   5   4 -17  109.49   65.99
   4  -9 -17  151.38   71.49
  -5  -4  17  115.69   62.69
   9  -5  17  127.69   50.09
  -4   9  17   68.59   57.49
   9  -5  17   66.29   46.00
   8   1 -17  432.76   94.79
   1  -9 -17  372.36   86.29
   9  -8  17  628.64  109.39
   9  -8  17  531.55   87.69
  -8  -1  17  376.36   90.09
  -1   9  17  350.16   95.79
  -2  -9 -17  200.78  101.49
  -2  -9 -17  -39.50   78.89
  11  -2 -17   22.40   75.19
   9 -11  17   86.89  100.69
 -11   2  17  135.49   83.79
   9 -11  17    6.70   74.49
  -5  -9 -17   57.79  110.29
  -5  -9 -17 -140.29   98.19
  14  -5 -17   -6.60   93.19
 -14   5  17 -107.09  128.59
   9 -14  17  -70.79   94.09
   9 -14  17  369.36  147.59
 -10  -2 -17   64.39   46.30
 -10  -2 -17  116.29   43.90
  12 -10 -17  -52.69   91.59
 -12  10  17   22.30   74.09
   2 -12  17   77.99   82.89
   2 -12  17   87.29   91.19
   9 -10 -17   26.10   85.89
   1   9 -17  125.69   85.19
  -9  10  17   91.09   66.79
  -1  -9  17  133.49   79.29
   6 -10 -17  115.79   83.19
   4   6 -17   98.09   69.79
  -4  -6  17  -70.39   61.29
  -6  10  17   39.40   66.39
   3 -10 -17  152.28   78.29
   7   3 -17   97.89   72.79
  -3  10  17   74.79   72.29
  -7  -3  17  -27.90   67.29
  10  -7  17  111.29   69.59
  10  -7  17   22.80   63.69
   0 -10 -17    4.20   90.79
   0 -10 -17   29.00   83.89
  10   0 -17   42.70   80.59
  10 -10  17 -129.09   84.19
  10 -10  17  -13.40   71.99
 -10   0  17   36.70   82.19
  -3 -10 -17   81.49   95.89
  13  -3 -17   99.59   87.49
  -3 -10 -17  145.79  108.99
 -13   3  17  163.68   99.69
  10 -13  17   96.19   96.99
  10 -13  17   52.59  138.39
 -11  -3 -17  100.89   52.69
 -11  -3 -17   41.50   57.89
  14 -11 -17    2.00  120.19
   3 -14  17  -14.30   93.59
  11 -11 -17   15.30   98.59
   0 -11  17  -60.49   89.39
 -11  11  17   13.90   78.19
   0 -11  17  -80.39   75.49
   8 -11 -17   54.99   80.29
   3   8 -17  154.38   75.99
  -8  11  17   -8.60   73.39
  -3  -8  17   65.69   74.29
   5 -11 -17   65.99   76.79
   6   5 -17   -3.10   78.09
  -5  11  17   39.20   70.29
  11  -6  17   13.10   49.20
  11  -6  17   89.69   59.09
  -6  -5  17  150.48   79.69
   2 -11 -17   56.29   81.49
   9   2 -17   65.69   86.09
  11  -9  17  256.27  144.19
  -9  -2  17  126.39   91.49
  11  -9  17  -47.50   72.79
  -1 -11 -17   26.50   88.49
  12  -1 -17   30.00   86.19
  11 -12  17   11.20  116.69
 -12   1  17   -1.50   99.69
  11 -12  17  118.79  108.59
  13 -12 -17  129.49  112.49
   1 -13  17   21.10  100.59
   2  10 -17    7.30   84.49
  10 -12 -17  151.18   97.29
 -10  12  17   66.89   81.49
  -2 -10  17  181.38   94.49
   7 -12 -17   76.49   84.79
   5   7 -17  -52.29   75.29
  -5  -7  17  159.98   79.29
  -7  12  17   73.09   74.29
   8   4 -17  142.09   92.99
   4 -12 -17  -15.60   77.29
  -8  -4  17  -56.59   87.59
  -4  12  17   -3.30   81.09
  12  -8  17  -26.30   78.89
  12  -8  17 -114.89   69.29
  11   1 -17   54.89   98.39
   1 -12 -17   48.30   94.79
   1 -12 -17    0.90   88.69
  12 -11  17    7.00   88.09
 -11  -1  17   45.20   96.39
  12 -11  17  -75.29  101.49
  12 -13 -17  -66.29  102.19
  -1 -12  17  -33.30  103.59
   4   9 -17  131.59   99.99
   9 -13 -17  159.18   96.59
  -4  -9  17   43.50   83.99
   7   6 -17   88.39   88.19
   6 -13 -17   49.60   82.19
  13  -7  17  -17.20   76.49
  -6  13  17   83.49   80.19
  13  -7  17   40.50   69.39
  -7  -6  17  167.28  107.69
  10   3 -17 -124.99   88.89
   3 -13 -17  132.69  128.29
   3 -13 -17   -4.80   88.19
  13 -10  17   -9.20  100.09
  13 -10  17  -32.70   93.79
 -10  -3  17  282.27  202.08
   3  11 -17  223.18  107.59
  11 -14 -17   27.00  104.59
   6   8 -17  228.18  102.59
   8 -14 -17  -42.40   91.69
  -6  -8  17   34.80  111.59
   9   5 -17  125.99  110.29
   5 -14 -17   26.30   86.79
  -9  -5  17  128.59  117.49
  14  -9  17   21.20   72.19
  14  -9  17   33.70   89.69
   0   0 -18 2381.56  207.18
   0   0  18 2480.95  215.08
  -1  -1 -18 1621.34  147.29
   2  -1 -18 1731.33  154.18
  -1   2 -18 1545.35  149.79
   1   1  18 1470.75  136.19
   1  -2  18 1593.44  139.49
  -2   1  18 1418.46  142.79
   1  -2 -18 1487.65  137.39
  -2   1 -18 1334.17  130.39
   1   1 -18 1525.25  138.39
  -1  -1  18 1509.05  144.69
  -1   2  18 1505.55  142.29
   2  -1  18 1498.35  137.09
  -2  -2 -18 2161.48  191.28
   4  -2 -18 2198.58  198.58
  -2   4 -18 2235.68  230.28
   2  -4  18 2280.67  193.08
   2   2  18 2023.40  183.78
  -4   2  18 2040.00  191.78
  -3   0 -18  310.57   48.20
   3  -3 -18  418.06   71.29
   0   3 -18  369.06   62.09
   3   0  18  422.46   63.69
   0  -3  18  508.75   74.99
  -3   3  18  402.46   75.79
  -3   3 -18  194.88   48.60
   3   0 -18  189.08   55.19
   0  -3 -18  242.28   53.29
  -3   0  18  130.89   48.30
   0   3  18  233.88   49.00
   3  -3  18  123.79   40.80
  -3  -3 -18 2068.89  179.58
  -3   6 -18 2111.19  196.28
   6  -3 -18 1821.12  187.78
  -6   3  18 1931.41  183.38
   3  -6  18 1806.92  184.58
   3   3  18 2023.30  176.68
   5  -4 -18  162.78   59.49
  -1   5 -18   47.00   52.59
  -4  -1 -18   74.39   28.60
  -5   4  18   43.80   43.90
   1  -5  18   18.30   52.09
   2   2 -18 2331.67  186.98
   2  -4 -18 2096.29  184.98
  -4   2 -18 1736.03  171.58
  -2   4  18 1849.81  163.58
  -2  -2  18 1968.60  165.48
   4  -2  18 1570.34  151.38
  -4   5 -18   23.90   64.09
   5  -1 -18   70.59   55.19
  -1  -4 -18  160.48   54.19
  -5   1  18  110.39   54.69
   1   4  18   86.89   47.50
   4  -5  18   46.70   43.60
  -4  -4 -18  517.35   81.09
   8  -4 -18  432.86   86.69
  -4  -4 -18  584.54   90.59
   4  -8  18  666.53  106.59
  -8   4  18  586.64  101.89
   4  -8  18  633.84  108.69
   7  -5 -18  361.16   86.59
  -5  -2 -18  561.44   74.29
  -2   7 -18  646.94   99.29
  -5  -2 -18  577.54   67.89
  -7   5  18  353.46   76.49
   2  -7  18  667.73   91.99
   1   4 -18   90.09   51.99
   4  -5 -18   85.39   56.09
  -1  -4  18   12.70   45.20
  -4   5  18  112.29   51.59
   1  -5 -18  162.08   63.19
   4   1 -18  167.58   57.69
  -4  -1  18   81.89   51.69
   5  -4  18  249.88   48.30
  -1   5  18  117.59   51.29
   5  -4  18  124.69   42.90
   7  -2 -18  342.87   72.09
  -2  -5 -18  257.37   65.89
  -7   2  18  358.56   74.89
   5  -7  18  426.36   75.69
   5  -7  18  334.07   76.29
   2   5  18  328.77   68.19
  10  -5 -18  126.69   77.49
  -5  -5 -18  102.79   65.19
  -5  -5 -18  223.48   73.99
 -10   5  18    8.90   60.89
   5 -10  18   67.19   78.29
   5 -10  18  273.77   81.49
   9  -6 -18  218.58   72.29
  -6  -3 -18  237.78   54.79
  -6  -3 -18  248.58   64.19
   3  -9  18  287.07   78.59
  -9   6  18  134.89   70.89
   3  -9  18  364.76   83.69
   0   6 -18 1167.18  135.29
   6  -6 -18 1235.68  134.59
   0  -6  18  993.80  118.19
  -6   6  18  903.61  112.29
   3  -6 -18 1975.90  196.58
   3   3 -18 2140.39  195.78
   6  -3  18 1991.40  167.68
  -3   6  18 1638.64  172.98
   6  -3  18 1779.72  156.18
  -3  -3  18 1836.82  173.38
   0  -6 -18  957.20  117.19
   6   0 -18  941.41  115.89
   6  -6  18 1101.49  113.69
   6  -6  18  915.01  115.99
   0   6  18  944.61  122.29
  -6   0  18  979.20  172.68
  -3  -6 -18  554.64   97.29
  -3  -6 -18  337.37   90.39
   9  -3 -18  547.45   93.39
  -9   3  18  423.86   88.69
   6  -9  18  525.75   97.59
   6  -9  18  549.95   98.29
  12  -6 -18  121.19  105.19
  -6  -6 -18  168.18   77.29
   6 -12  18  182.38   94.69
 -12   6  18  167.38   93.29
   6 -12  18   61.69  108.89
  -7  -4 -18  157.68   73.29
  11  -7 -18  114.59   88.69
  -7  -4 -18  159.08   97.49
   4 -11  18   70.59   81.89
 -11   7  18   84.29   78.79
   4 -11  18  114.49   86.39
  -1   8 -18  -11.70   60.69
   8  -7 -18  -13.50   57.29
  -8   7  18  -18.40   53.09
   1  -8  18   42.10   52.39
   2   5 -18  515.35   92.99
   5  -7 -18  470.75   86.79
  -2  -5  18  523.35   90.89
  -5   7  18  484.55   82.09
   2  -7 -18  274.57   74.09
   5   2 -18  281.07   70.29
   7  -5  18  379.76   57.69
   7  -5  18  285.17   56.49
  -5  -2  18  133.49   60.79
  -2   7  18  144.29   61.89
   8  -1 -18  161.08   69.19
  -1  -7 -18   87.09   63.09
   7  -8  18   63.49   57.89
  -8   1  18   90.19   61.59
   7  -8  18   56.19   66.09
   1   7  18   65.39   81.29
  -4  -7 -18   73.09   81.59
  -4  -7 -18  160.78   78.39
  11  -4 -18   39.70   74.29
 -11   4  18  -38.20   74.59
   7 -11  18  130.39   85.79
   7 -11  18   69.99   92.59
  -7  -7 -18   35.70   80.99
  14  -7 -18  182.78  105.59
  -7  -7 -18  190.48  101.29
 -14   7  18   49.10   95.09
   7 -14  18   36.90  103.49
  13  -8 -18   35.20   94.79
  -8  -5 -18  -19.00   83.79
  -8  -5 -18   91.59   66.89
   5 -13  18   16.40   91.39
   5 -13  18  -84.99   96.89
 -13   8  18  173.48  123.49
  -8  -2 -18  401.86   73.19
  10  -8 -18  312.37   94.89
  -8  -2 -18  472.25   64.09
   2 -10  18  344.27   95.59
 -10   8  18  219.88   78.49
   2 -10  18  234.88   78.79
   1   7 -18  -70.59   53.29
   7  -8 -18  175.68   73.09
  -1  -7  18  -12.60   52.99
  -7   8  18  -26.60   47.60
   4  -8 -18  495.75   92.79
   4   4 -18  690.43  101.49
   8  -4  18  505.55   62.39
  -4   8  18  467.45   87.09
   8  -4  18  582.54   67.19
  -4  -4  18  587.44   87.69
   1  -8 -18  172.88   70.89
   7   1 -18   67.89   65.39
  -7  -1  18  120.49   65.79
   8  -7  18  115.29   59.89
  -1   8  18   35.70   59.69
   8  -7  18  158.58   62.39
  -2  -8 -18  147.29   77.29
  -2  -8 -18  -71.29   80.49
  10  -2 -18  170.08   74.89
 -10   2  18  168.48   79.89
   8 -10  18   41.00   89.59
   8 -10  18  128.99   75.09
  13  -5 -18   -1.80   86.49
  -5  -8 -18   20.30   80.19
  -5  -8 -18   -5.90   96.39
   8 -13  18   41.60   91.09
 -13   5  18   35.70   84.79
   8 -13  18  -22.10  106.79
  -9  -3 -18  157.08   67.39
  -9  -3 -18  108.39   52.99
  12  -9 -18  217.18  103.99
   3 -12  18  200.48   97.99
 -12   9  18   95.09  126.89
   3 -12  18   56.19   86.59
   9  -9 -18  176.88   81.29
   0   9 -18   66.99  109.49
   0  -9  18  -34.50   61.69
  -9   9  18  -72.69   50.89
   3   6 -18  168.08   67.49
   6  -9 -18   55.49   71.49
  -6   9  18   79.99   59.49
  -3  -6  18  282.97   71.79
   6   3 -18  556.64  100.09
   3  -9 -18  422.36   90.09
  -3   9  18  268.37   74.99
   9  -6  18  529.05   77.39
  -6  -3  18  499.75   88.79
   9  -6  18  359.16   75.99
   0  -9 -18  167.68   84.59
   9   0 -18  130.09   79.39
   0  -9 -18   39.50   72.99
  -9   0  18  148.29   70.49
   9  -9  18  173.88   82.89
   9  -9  18  -28.90   66.29
  -3  -9 -18  149.69  103.09
  12  -3 -18   95.59   97.89
  -3  -9 -18   -1.80   83.79
   9 -12  18  -42.00  103.79
   9 -12  18  112.49   90.49
 -12   3  18  137.59   91.29
  14 -10 -18  -27.60  112.69
 -10  -4 -18  128.99   66.79
 -10  -4 -18  -18.10   77.89
   4 -14  18  -34.60   92.09
 -14  10  18   30.60  107.39
  11 -10 -18  278.67  102.39
   1 -11  18  164.18   86.39
 -11  10  18  303.27  151.98
   1 -11  18  365.16  105.99
   8 -10 -18  281.17   94.09
   2   8 -18  354.46   95.89
  -8  10  18  285.07   83.39
  -2  -8  18  324.17   81.59
   5 -10 -18  148.29   73.99
   5   5 -18  230.38   79.89
  10  -5  18  180.58   47.30
  -5  10  18   46.20   63.69
  -5  -5  18  200.88   72.29
  10  -5  18  125.39   40.00
   2 -10 -18  243.08   85.89
   8   2 -18  141.39   81.99
  -8  -2  18   96.19   78.69
  10  -8  18   92.99   79.29
  -2  10  18  122.79   71.89
  10  -8  18   79.69   70.19
  -1 -10 -18  552.14  165.58
  -1 -10 -18  348.27  123.09
  11  -1 -18  605.74  153.88
 -11   1  18  587.14  113.89
  10 -11  18  491.45  112.19
  10 -11  18  583.04  127.39
  -4 -10 -18  209.48  105.99
  -4 -10 -18   58.79  124.29
  14  -4 -18  195.68   94.79
  10 -14  18  216.68  111.99
  10 -14  18  267.87  133.29
 -14   4  18  210.78  113.49
  13 -11 -18  -35.40  106.99
 -13  11  18   79.99  110.69
   2 -13  18  -18.00   89.19
   1  10 -18  461.35  107.49
  10 -11 -18  191.08  101.79
 -10  11  18   99.29   77.79
  -1 -10  18  282.27   96.49
   4   7 -18  228.28   86.39
   7 -11 -18   71.39   84.29
  -4  -7  18  222.98   79.29
  -7  11  18  107.19   67.59
   7   4 -18   50.09   85.09
   4 -11 -18   91.29   80.49
  -4  11  18   57.59   75.99
  -7  -4  18   91.09   75.89
  11  -7  18  238.68   72.39
  11  -7  18   85.69   79.89
  10   1 -18  577.34  194.78
   1 -11 -18  480.55  110.79
   1 -11 -18  434.96  122.09
 -10  -1  18  495.15  113.79
  11 -10  18  521.45  119.69
  11 -10  18  664.23  110.29
  -2 -11 -18   28.10  120.69
  13  -2 -18  -42.50   87.29
  -2 -11 -18   24.40   92.39
 -13   2  18  137.59  157.38
  11 -13  18  -44.60   90.19
  11 -13  18  -64.29  193.68
  12 -12 -18  117.49  108.69
   0 -12  18   28.20   99.59
   9 -12 -18  124.99   92.49
   3   9 -18  105.99   92.49
  -9  12  18   18.90   76.09
  -3  -9  18   53.39   82.89
   6   6 -18  154.98   92.29
   6 -12 -18   53.19   79.39
  12  -6  18  134.49   55.39
  12  -6  18  157.48   51.39
  -6  12  18   -4.10   70.69
  -6  -6  18  123.09   83.39
   3 -12 -18   85.69   89.69
   9   3 -18    0.50   84.29
  12  -9  18 -119.29   95.39
  -9  -3  18   22.60   97.29
  -3  12  18  202.98   96.99
  12  -9  18 -128.59   78.19
   0 -12 -18  109.29   98.89
   0 -12 -18  -92.79  105.29
  12   0 -18  143.89   97.19
  12 -12  18  105.59  113.49
 -12   0  18   77.89  158.28
   2  11 -18  -51.79   83.19
  11 -13 -18  -53.79   98.39
   8 -13 -18  -28.60   87.29
   5   8 -18 -124.89   78.09
  -5  -8  18   50.29   84.09
  -8  13  18   81.19  103.79
   5 -13 -18  -55.69   81.19
   8   5 -18   11.20   88.79
  -8  -5  18  -92.99   87.69
  13  -8  18  169.28   79.19
  -5  13  18  -63.49   80.29
  13  -8  18  118.69   65.19
  11   2 -18  113.59  101.19
   2 -13 -18   71.29   97.89
  13 -11  18  146.49  106.39
 -11  -2  18   38.50  110.49
  13 -11  18   -5.80   91.29
   4  10 -18   48.10  103.29
  10 -14 -18  111.19  105.09
   7   7 -18  414.16  124.19
   7 -14 -18  201.08  101.59
  -7  -7  18  160.58  111.99
  14  -7  18  233.28   57.79
  14  -7  18  143.49   59.19
   4 -14 -18  150.48   99.89
  10   4 -18  496.25  136.69
 -10  -4  18  158.28  128.19
  14 -10  18  131.69   91.69
  14 -10  18  167.48   95.59
   1  -1 -19    5.40   42.80
   0   1 -19  -94.39   36.30
  -1   0 -19   -5.80   36.50
  -1   1  19  -48.30   38.50
   1   0  19   15.50   37.00
   0  -1  19  -31.30   40.50
  -1   3 -19 1422.76  141.89
   3  -2 -19 1492.05  145.19
  -2  -1 -19 1490.05  133.39
   1  -3  19 1611.34  142.89
  -3   2  19 1515.75  143.99
   2   1  19 1345.87  130.89
  -2   2 -19   40.50   37.90
   0  -2 -19   77.89   42.80
   2   0 -19 -107.19   75.09
   0   2  19   -7.20   35.90
   2  -2  19  -10.30   35.30
  -2   0  19  -24.10   37.50
  -3  -2 -19  422.26   65.09
   5  -3 -19  455.05   82.99
  -2   5 -19  477.65   75.99
   2  -5  19  433.76   69.69
   3   2  19  329.57   57.09
  -5   3  19  367.56   70.19
   1   2 -19 1563.04  142.49
   2  -3 -19 1482.85  145.89
  -3   1 -19 1339.97  128.39
  -1  -2  19 1644.04  142.99
  -2   3  19 1482.95  141.69
   3  -1  19 1373.26  131.19
   4  -1 -19  136.99   55.89
  -1  -3 -19   98.89   45.80
  -3   4 -19   52.39   49.10
  -4   1  19  163.58   54.49
   3  -4  19   29.80   45.40
   1   3  19  150.78   44.70
  -4  -3 -19   49.10   43.20
  -3   7 -19  -40.70   59.89
   7  -4 -19   11.80   52.89
  -4  -3 -19   78.39   48.00
  -7   4  19   41.20   54.69
   3  -7  19  -12.90   52.39
  -4   0 -19   35.60   21.30
   0   4 -19   46.60   48.40
   4  -4 -19  -68.59   48.30
   4   0  19  -19.70   23.80
  -4   4  19  -27.70   43.60
   0  -4  19   -5.00   44.00
  -4   3 -19   44.40   42.90
   1  -4 -19  112.09   53.19
   3   1 -19  109.59   52.19
  -3  -1  19   91.99   49.10
   4  -3  19  139.69   37.60
  -1   4  19   41.30   41.80
  -2  -4 -19   99.39   52.59
  -4   6 -19  116.99   62.69
   6  -2 -19  102.39   62.59
   4  -6  19   41.00   50.89
   2   4  19   -0.80   51.59
  -6   2  19   35.80   52.69
   9  -5 -19  -31.20   60.59
  -5  -4 -19   28.90   52.19
  -5  -4 -19   35.50   58.39
  -9   5  19   -0.30   58.19
   4  -9  19   13.30   68.79
   4  -9  19   49.00   69.39
  -1   6 -19  154.48   59.99
  -5  -1 -19  197.88   30.50
   6  -5 -19  193.18   63.89
  -6   5  19  251.67   67.09
   1  -6  19  114.39  104.29
   2   3 -19  439.86   78.39
   3  -5 -19  562.94   84.29
  -3   5  19  339.67   62.59
   5  -2  19  242.58   42.60
   5  -2  19  353.76   43.20
  -2  -3  19  322.97   63.09
   0  -5 -19  -33.50   55.39
   5   0 -19   -6.60   50.69
  -5   0  19  -74.29   40.70
   0   5  19  -75.99   44.90
   5  -5  19  -33.40   47.30
   5  -5  19   16.90   42.80
  -3  -5 -19  166.18   69.59
  -3  -5 -19  334.97   70.09
   8  -3 -19  461.25   83.59
   5  -8  19  394.36   81.79
  -8   3  19  341.97   77.39
   5  -8  19  278.17   77.79
  -6  -5 -19  -20.30   59.59
  11  -6 -19   -5.50   78.39
  -6  -5 -19   28.70   69.69
   5 -11  19   21.80   84.09
   5 -11  19  112.59   89.19
 -11   6  19  144.59   80.99
   8  -6 -19  -11.30   60.59
  -6  -2 -19  -19.80   39.20
  -6  -2 -19   73.89   36.40
  -2   8 -19   16.50   62.79
  -8   6  19  -22.70   52.69
   2  -8  19  117.89   60.99
   1   5 -19  206.78   65.19
   5  -6 -19  225.98   65.29
  -1  -5  19   88.49   53.59
  -5   6  19  130.49   53.69
   4   2 -19  230.58   64.89
   2  -6 -19  125.29   64.59
   6  -4  19  150.48   43.70
  -4  -2  19  175.68   58.49
   6  -4  19  152.68   42.80
  -2   6  19   53.09   49.40
  -1  -6 -19  949.40  121.39
   7  -1 -19 1044.30  124.89
   6  -7  19  995.70  117.29
  -7   1  19  974.20  118.69
   1   6  19  704.33  116.39
   6  -7  19 1019.90  115.19
  -4  -6 -19  -11.10   63.69
  -4  -6 -19  199.28   78.69
  10  -4 -19   -2.20   69.79
   6 -10  19  156.18   79.49
 -10   4  19  -27.40   61.09
   6 -10  19  -57.79   70.79
  -7  -6 -19   65.59   71.69
  13  -7 -19  -32.60   90.49
  -7  -6 -19  -28.20  110.89
   6 -13  19  111.99   93.69
   6 -13  19  141.99  113.39
  -7  -3 -19  222.48   56.89
  -7  -3 -19  346.77   68.09
  10  -7 -19   87.69   79.69
 -10   7  19  164.98   76.29
   3 -10  19  202.48   76.69
   3 -10  19  263.57  112.09
   0   7 -19    0.30   52.99
   7  -7 -19    3.10   60.89
  -7   7  19   21.20   48.60
   0  -7  19  -95.39   50.39
   3   4 -19  109.79   56.29
   4  -7 -19  -14.20   60.79
  -3  -4  19   80.69   51.79
  -4   7  19    1.70   44.10
   1  -7 -19  803.92  117.29
   6   1 -19 1048.80  122.79
  -6  -1  19 1184.28  123.39
  -1   7  19  817.32  121.79
   7  -6  19  928.61  115.09
  -2  -7 -19  245.88   81.99
   9  -2 -19  301.77   83.39
  -2  -7 -19  336.07   81.09
   7  -9  19  266.67   91.09
  -9   2  19  319.67   82.39
   7  -9  19  257.87   77.49
  -5  -7 -19   -8.90   90.79
  -5  -7 -19  -24.70   76.09
  12  -5 -19   82.99   85.89
 -12   5  19   20.00   79.79
   7 -12  19  -84.49  102.79
   7 -12  19  105.39   91.99
  -8  -4 -19  -47.90   96.49
  12  -8 -19  -45.00   95.39
  -8  -4 -19    4.40   71.09
 -12   8  19   66.39   77.49
   4 -12  19  -42.90   82.49
   4 -12  19  -28.80   84.69
   9  -8 -19    6.70   74.89
  -1   9 -19   11.30   71.39
  -9   8  19  -53.59   58.39
   1  -9  19   45.40   55.79
   6  -8 -19    7.70   63.89
   2   6 -19  147.39   66.39
  -6   8  19    4.20   50.59
  -2  -6  19   72.79   56.89
   5   3 -19  398.46   80.39
   3  -8 -19  165.98   70.09
   8  -5  19  381.96   59.79
  -5  -3  19  315.17   74.09
  -3   8  19  129.79   63.09
   8  -5  19  356.46   57.69
   0  -8 -19   78.79   67.49
   8   0 -19  -41.20   60.09
   8  -8  19  -16.30   62.59
   8  -8  19   68.99   59.59
  -8   0  19    4.40   57.89
   0   8  19  -21.60   63.29
  -3  -8 -19  -37.40   75.29
  -3  -8 -19  -58.79   79.49
  11  -3 -19   85.49   81.49
 -11   3  19  115.59   77.59
   8 -11  19  -73.89   87.19
   8 -11  19  -83.69   76.99
  14  -6 -19    5.10   96.79
  -6  -8 -19   -4.00   99.29
  -6  -8 -19   -7.20   84.59
   8 -14  19  -65.39   92.59
 -14   6  19 -149.69   93.19
  -9  -5 -19  -17.50   61.49
  -9  -5 -19    1.70   76.59
  14  -9 -19 -143.19  102.49
 -14   9  19   -8.50   89.39
   5 -14  19 -121.29   93.99
  11  -9 -19  137.79   92.69
  -9  -2 -19  217.88   47.40
  -9  -2 -19  154.28   42.40
 -11   9  19  -25.20   70.29
   2 -11  19  286.97   97.29
   2 -11  19  159.08   85.59
   1   8 -19   18.20   60.09
   8  -9 -19  -15.00   74.19
  -8   9  19   22.90   58.09
  -1  -8  19   18.50   61.19
   5  -9 -19   62.59   70.69
   4   5 -19   30.40   60.79
  -4  -5  19  -57.19   53.49
  -5   9  19   19.50   54.59
   7   2 -19  348.87   88.49
   2  -9 -19  301.67   85.89
  -2   9  19  339.77   83.89
  -7  -2  19  281.87   81.19
   9  -7  19  219.98   74.09
   9  -7  19  296.17   72.69
  10  -1 -19  121.39   82.99
  -1  -9 -19  151.38   79.29
  -1  -9 -19  -40.00   83.69
   9 -10  19 -114.59   83.09
 -10   1  19  248.98   88.99
   9 -10  19  254.07   80.99
  -4  -9 -19  128.29  103.39
  -4  -9 -19  -71.39   86.39
  13  -4 -19  135.39   90.29
 -13   4  19  -78.99   90.69
   9 -13  19  -48.90   95.99
   9 -13  19   78.89  115.59
 -10  -3 -19   83.39   46.10
  13 -10 -19  -27.00  109.09
 -10  -3 -19    4.60   52.69
   3 -13  19  105.29   92.59
 -13  10  19   56.09   82.99
  10 -10 -19 -110.89   82.39
   0  10 -19   36.10   77.09
   0 -10  19   34.80   99.89
 -10  10  19  -37.00   64.69
   7 -10 -19  154.08  127.29
   3   7 -19  133.59   86.59
  -3  -7  19  182.48   76.59
  -7  10  19  143.09   66.09
   4 -10 -19   25.60   72.59
   6   4 -19   61.39   68.59
  -6  -4  19  -10.50   67.89
  10  -6  19   77.79   56.79
  10  -6  19 -108.29   53.09
  -4  10  19   -7.70   61.69
   1 -10 -19  -78.99   74.79
   9   1 -19  129.99   80.99
  10  -9  19  130.19   73.09
  10  -9  19   87.19   97.39
  -1  10  19  -40.80   77.89
  -9  -1  19   57.89   74.99
  12  -2 -19   60.09   91.39
  -2 -10 -19  181.98  105.99
  -2 -10 -19   67.09  104.49
  10 -12  19  108.59  108.29
  10 -12  19  141.59  103.49
 -12   2  19  208.58   96.79
  12 -11 -19   53.99  100.49
 -12  11  19   39.70   78.89
   1 -12  19   16.60   92.59
   9 -11 -19  136.59   95.89
   2   9 -19  335.27   96.89
  -9  11  19   27.80   81.09
  -2  -9  19   55.59   85.59
   5   6 -19  153.58   85.29
   6 -11 -19   31.10   83.19
  -5  -6  19  119.29   73.19
  -6  11  19   36.50   65.29
   3 -11 -19   39.40   80.69
  11  -8  19   27.70   74.19
  11  -8  19  -29.60   69.79
  -3  11  19  131.29   77.59
  -8  -3  19  -68.19   76.89
   0 -11 -19   63.19  111.59
  11   0 -19  161.48   91.09
   0 -11 -19 -143.69   76.99
  11 -11  19   71.79   85.69
 -11   0  19 -155.58   77.99
  11 -11  19  -18.70   99.39
  -3 -11 -19  -33.90   96.39
  14  -3 -19   63.69   99.19
  -3 -11 -19   22.50  123.79
  11 -14  19   36.70  102.09
  11 -14  19   25.10  119.19
 -14   3  19   65.89  107.39
  11 -12 -19   62.29   93.49
   1  11 -19  -31.80   80.89
 -11  12  19  -54.19   89.39
   8 -12 -19   -1.10   88.39
   4   8 -19   17.90   83.19
  -8  12  19   73.39   70.89
  -4  -8  19  115.89   82.89
   7   5 -19  124.79   95.59
   5 -12 -19    9.50   79.19
  -5  12  19   89.09   85.19
  -7  -5  19   38.00   86.29
  12  -7  19   41.20   63.79
  12  -7  19   76.39   62.19
   2 -12 -19  164.88  100.29
  10   2 -19  181.68  100.99
   2 -12 -19  189.08   98.79
  12 -10  19   39.10   99.99
 -10  -2  19  120.29   96.89
  12 -10  19  115.89   88.89
  -1 -12 -19  -39.40  115.39
  -1 -12 -19   69.69  103.39
  13  -1 -19  246.68  109.49
  12 -13  19   92.49  171.78
  12 -13  19   69.49   96.29
 -13   1  19   50.09  108.29
  10 -13 -19   77.29   93.29
   3  10 -19   29.40   97.89
   6   7 -19   74.39   90.79
   7 -13 -19   -1.00   88.19
  -7  13  19   28.70  101.19
  -6  -7  19 -148.89   81.29
   9   4 -19   73.49  101.89
   4 -13 -19  -22.70   82.19
  -9  -4  19  -42.30  105.99
  -4  13  19  120.79  100.79
  13  -9  19  168.08   85.19
  13  -9  19   31.10   78.49
   1 -13 -19   68.19  108.49
  12   1 -19  110.39   99.59
  13 -12  19  131.89  110.59
 -12  -1  19  187.48  116.29
  13 -12  19  105.39  127.49
   5   9 -19   40.50   98.59
   9 -14 -19 -104.49   90.69
   6 -14 -19   33.70   91.59
   8   6 -19  -37.60   97.29
  -8  -6  19  172.18  107.49
  14  -8  19  -61.89   75.79
  14  -8  19  114.89   68.29
   3 -14 -19  167.28  107.09
  11   3 -19  146.79  111.59
  14 -11  19   54.09   96.29
 -11  -3  19   76.79  121.49
  14 -11  19   33.80  101.49
  -1   1 -20  248.08   47.80
   0  -1 -20  258.87   50.99
   1   0 -20  178.78   52.69
   0   1  20  284.37   51.29
  -1   0  20  272.67   55.29
   1  -1  20  202.98   50.69
   2  -2 -20  712.03  119.49
  -2   0 -20  543.25   70.69
   0   2 -20  605.84   87.79
   2   0  20  582.04   68.39
   0  -2  20  547.05   78.79
  -2   2  20  520.15   79.09
  -2   3 -20 1659.03  153.38
   3  -1 -20 1701.23  160.28
  -1  -2 -20 1549.94  148.89
   1   2  20 1434.26  139.59
   2  -3  20 1551.74  145.69
  -3   1  20 1596.84  149.49
  -3  -1 -20  282.27   51.39
  -1   4 -20  301.67   64.59
   4  -3 -20  270.77   64.19
   3   1  20  199.38   42.20
  -4   3  20  261.27   58.69
   1  -4  20  284.37   57.59
   1  -3 -20 1426.06  146.89
  -3   2 -20 1355.76  131.29
   2   1 -20 1462.15  140.49
   3  -2  20 1248.28  134.29
  -2  -1  20 1664.43  147.29
  -1   3  20 1567.04  141.09
   5  -2 -20 1960.60  186.78
  -2  -3 -20 1890.91  178.08
  -3   5 -20 2046.60  187.88
   2   3  20 1960.30  177.18
  -5   2  20 1801.12  181.08
   3  -5  20 1977.70  182.38
  -4  -2 -20 2058.09  178.28
  -2   6 -20 2115.59  197.28
   6  -4 -20 1964.50  195.28
  -6   4  20 1537.25  201.48
   2  -6  20 1958.80  178.58
  -4   1 -20  230.58   36.60
   3  -4 -20  259.17   61.79
   1   3 -20  223.48   59.39
   4  -1  20  196.38   41.50
  -3   4  20  202.48   57.59
  -1  -3  20  205.98   56.49
   0  -4 -20   91.59   60.59
   4   0 -20  185.28   62.99
  -4   4 -20  217.28   57.79
   4  -4  20  251.57   55.49
  -4   0  20  299.57   60.49
   0   4  20  200.58   54.89
  -3  -4 -20  123.59   52.89
  -4   7 -20  245.98   71.99
   7  -3 -20  112.89   58.69
   4  -7  20  115.69   61.99
  -7   3  20  133.69   57.29
  -5  -3 -20   63.39   47.50
   8  -5 -20   10.30   59.09
  -3   8 -20   82.89   66.59
  -5  -3 -20   18.90   43.90
   3  -8  20    3.80   57.09
  -8   5  20   34.40   51.29
   5  -5 -20  153.38   62.69
   0   5 -20  208.78   62.59
   0  -5  20  288.97   65.29
  -5   5  20  338.17   77.69
   2  -5 -20 1858.01  186.48
   3   2 -20 2060.09  187.28
  -2   5  20 1616.24  154.58
  -3  -2  20 1786.82  157.28
   5  -3  20 1463.85  144.39
   6  -1 -20  183.18   65.39
  -1  -5 -20  130.39   58.09
  -6   1  20  154.88   63.19
   1   5  20  137.79   55.09
   5  -6  20  171.48   61.69
   5  -6  20   55.29   52.09
  -4  -5 -20  101.89   60.39
  -4  -5 -20  -60.29   58.99
   9  -4 -20   96.19   65.39
  -9   4  20   43.40   61.49
   5  -9  20  115.49   74.79
   5  -9  20   98.09   76.79
  -6  -4 -20  329.47   74.29
  10  -6 -20  455.45   94.79
  -6  -4 -20  285.57   76.59
   4 -10  20  457.35  101.09
   4 -10  20  591.04  110.79
 -10   6  20  397.66   95.29
  -1   7 -20  349.67   79.19
   7  -6 -20  292.37   74.29
   1  -7  20  327.67   74.29
  -7   6  20  233.28   62.19
   4  -6 -20 1672.93  174.18
   2   4 -20 1808.72  171.68
  -2  -4  20 2036.80  197.18
   1  -6 -20  205.38   67.89
   5   1 -20  177.48   62.59
   6  -5  20  117.59   48.40
   6  -5  20  193.68   50.69
  -1   6  20  126.49   54.89
  -5  -1  20  142.59   57.09
  -2  -6 -20  339.87   78.19
   8  -2 -20  381.26   77.49
  -8   2  20  393.26   82.89
   6  -8  20  486.35   86.29
   6  -8  20  375.76   99.29
  11  -5 -20  111.79   81.19
  -5  -6 -20  187.38   86.69
  -5  -6 -20   65.79   65.79
 -11   5  20  270.87   84.89
   6 -11  20  154.28   98.59
   6 -11  20   -3.20  145.59
  -7  -5 -20  143.59   77.69
  -7  -5 -20    0.90   62.89
  12  -7 -20  285.67  101.39
 -12   7  20   88.09   82.39
   5 -12  20   78.39   91.49
   5 -12  20    1.10   92.49
   9  -7 -20  147.09   75.59
  -7  -2 -20  301.47   50.29
  -7  -2 -20  330.17   52.49
  -2   9 -20  297.47   86.29
   2  -9  20  208.68   77.19
  -9   7  20  208.38   71.89
   1   6 -20  350.16   77.09
   6  -7 -20  422.56   81.49
  -6   7  20  197.58   61.49
  -1  -6  20  411.16   72.39
   4   3 -20   27.00   57.59
   3  -7 -20  128.49   67.99
   7  -4  20  131.39   40.30
   7  -4  20  125.89   39.50
  -4  -3  20  191.68   59.19
  -3   7  20   18.70   48.00
   7   0 -20  585.24  103.89
   0  -7 -20  615.44  103.79
  -7   0  20  585.44   98.59
   0   7  20  629.84  103.69
   7  -7  20  557.54   96.99
   7  -7  20  501.25   93.09
  -3  -7 -20  332.67   83.89
  10  -3 -20  244.88   78.59
  -3  -7 -20   71.59   83.99
   7 -10  20  143.89   93.59
 -10   3  20   89.59   72.69
   7 -10  20  210.48   85.09
  -6  -7 -20  222.78   95.19
  -6  -7 -20  167.08   84.59
  13  -6 -20   74.79   98.79
   7 -13  20  143.19  120.09
   7 -13  20  236.08  106.29
  -8  -6 -20  165.58  103.99
  -8  -6 -20  124.69   74.99
  14  -8 -20  113.89  112.39
   6 -14  20  193.28  100.99
 -14   8  20   -8.90   87.89
  -8  -3 -20  -35.90   56.39
  11  -8 -20   49.90   84.39
  -8  -3 -20   -6.30   47.90
 -11   8  20  -19.90   71.69
   3 -11  20   -3.80  111.59
   3 -11  20   75.99   88.79
   0   8 -20  371.06   83.19
   8  -8 -20  227.18   79.39
  -8   8  20  102.79   60.49
   0  -8  20  230.38   69.79
   5  -8 -20  144.99   69.59
   3   5 -20   38.60   60.49
  -5   8  20    9.60   50.89
  -3  -5  20  -42.30   46.60
   6   2 -20  432.76   83.29
   2  -8 -20  267.07   80.59
   8  -6  20  282.67   66.59
   8  -6  20  296.27   65.39
  -2   8  20  108.19   62.29
  -6  -2  20  391.86   80.79
  -1  -8 -20  240.48   84.69
   9  -1 -20  300.37   79.99
  -1  -8 -20  166.88   84.19
   8  -9  20  327.07   81.09
   8  -9  20  341.27   85.99
  -9   1  20  268.97   78.69
  -4  -8 -20   15.40   95.39
  -4  -8 -20   90.29   81.59
  12  -4 -20  -20.90   78.29
 -12   4  20  -14.80   82.09
   8 -12  20   70.79   86.29
   8 -12  20  185.58  110.89
  -9  -4 -20  -82.59   76.89
  -9  -4 -20   64.39   68.89
  13  -9 -20 -178.68   93.69
   4 -13  20  -65.39   89.89
 -13   9  20   33.30   86.29
  10  -9 -20   57.59   87.39
  -1  10 -20  287.47   91.49
 -10   9  20   59.09   68.19
   1 -10  20   94.39   80.59
   2   7 -20  442.06   90.49
   7  -9 -20  438.36   94.69
  -7   9  20  124.69   61.29
  -2  -7  20  233.18   73.49
   4  -9 -20   42.60   69.89
   5   4 -20  135.29   66.49
  -5  -4  20   46.70   63.29
   9  -5  20  100.09   43.20
   9  -5  20    7.90   45.00
  -4   9  20   -1.00   55.99
   8   1 -20  348.67   89.69
   1  -9 -20  288.17   84.99
  -8  -1  20  417.76   88.69
   9  -8  20  191.88   71.39
  -1   9  20  102.89   75.49
   9  -8  20  316.37   83.09
  -2  -9 -20   -4.20   92.99
  -2  -9 -20  174.28   89.99
   9 -11  20  196.08   88.39
 -11   2  20  160.68   89.09
   9 -11  20  137.39   99.89
  -5  -9 -20  171.88  107.69
  14  -5 -20  263.77  108.09
  -5  -9 -20  119.69   98.99
   9 -14  20   58.99  153.78
   9 -14  20 -117.59   96.39
 -14   5  20   -1.70   93.39
  12 -10 -20   27.80   95.19
 -12  10  20   44.40   77.79
   2 -12  20  -16.70   89.79
   2 -12  20  133.09   95.19
   1   9 -20   90.79   78.39
   9 -10 -20  -15.00   78.09
  -9  10  20  102.09   68.19
  -1  -9  20  151.18   83.49
   4   6 -20  405.96   98.39
  -6  10  20  266.17   79.49
  -4  -6  20  527.05   96.39
   3 -10 -20  176.98   83.59
   7   3 -20  131.39   81.99
  10  -7  20  193.68   68.59
  10  -7  20  104.39   71.59
  -3  10  20   86.69   73.79
  -7  -3  20  370.56   89.89
   0 -10 -20  444.86  118.99
   0 -10 -20  196.58  107.89
  10   0 -20  672.13  199.68
  10 -10  20  417.96  115.89
 -10   0  20  485.85  117.29
  10 -10  20  784.72  113.39
  -3 -10 -20   43.70   89.99
  13  -3 -20   43.20   90.89
  -3 -10 -20   63.89  113.99
  10 -13  20  -68.99   90.19
 -13   3  20   35.20  117.49
  10 -13  20   94.49  122.79
  14 -11 -20   34.30  125.59
  11 -11 -20  284.87  105.89
   0  11 -20  229.48   90.89
   0 -11  20  312.17  105.39
 -11  11  20   53.59   81.79
   3   8 -20  -18.70   74.79
   8 -11 -20  -14.30   82.19
  -8  11  20  109.19  114.89
  -3  -8  20   45.70   83.59
   5 -11 -20   51.89   86.29
   6   5 -20   32.10   84.99
  11  -6  20  121.19   52.99
  -6  -5  20  164.18   81.69
  11  -6  20  155.18   48.10
  -5  11  20   27.60   64.39
   9   2 -20  252.67   95.79
   2 -11 -20   -2.60   81.89
  11  -9  20  247.38   85.89
  -9  -2  20   80.89   86.19
  -2  11  20   93.39   90.09
  11  -9  20  159.48  116.99
  -1 -11 -20   58.19  132.59
  -1 -11 -20   96.79  104.39
  12  -1 -20  206.78   99.39
  11 -12  20  122.59  119.19
 -12   1  20   74.09  151.68
  11 -12  20  199.18  116.89
  13 -12 -20   64.89  114.59
   1 -13  20  -24.40   94.79
  10 -12 -20  105.19   95.79
   2  10 -20   58.79   90.79
  -2 -10  20  189.08   99.49
 -10  12  20   90.89   81.39
   7 -12 -20  -13.50   86.09
   5   7 -20   87.09   76.99
  -7  12  20   27.10   65.19
  -5  -7  20   -2.70   76.39
   4 -12 -20  -61.79   77.59
   8   4 -20 -191.88   77.99
  12  -8  20  -27.60   68.09
  12  -8  20  -88.79   71.19
  -8  -4  20   17.40   89.89
  -4  12  20  -30.00   74.79
   1 -12 -20  119.19  105.29
   1 -12 -20   63.79   97.19
  11   1 -20  198.08  104.39
  12 -11  20  278.17  106.39
 -11  -1  20   99.59  149.79
  12 -11  20   41.20   89.49
  12 -13 -20  -26.10  104.89
  -1 -12  20   55.59  114.49
   4   9 -20   11.30   88.19
   9 -13 -20  -52.99   89.59
  -4  -9  20   50.99  108.69
   6 -13 -20   10.60   89.59
   7   6 -20  191.88  102.89
  -6  13  20   50.29  110.89
  -7  -6  20  285.67  108.89
  13  -7  20  222.38   59.39
  13  -7  20  105.69   52.59
   3 -13 -20  -19.10   84.89
  10   3 -20  -22.50   94.19
  13 -10  20  -78.19   90.39
  13 -10  20   78.79   90.19
 -10  -3  20  104.59  101.89
  11 -14 -20   49.50  125.39
   8 -14 -20   54.39   96.89
   6   8 -20   26.90   95.09
   9   5 -20   91.89  107.09
   5 -14 -20  -39.80   90.89
  -9  -5  20  -32.00  119.39
  14  -9  20  -12.20   68.19
  14  -9  20   96.49   77.29
   0   0 -21    0.10   38.80
   0   0  21   76.69   41.10
   2  -1 -21 1940.21  180.28
  -1  -1 -21 1941.21  174.08
  -1   2 -21 1943.61  176.38
  -2   1  21 2077.29  181.68
   1   1  21 1895.01  174.58
   1  -2  21 1983.70  179.68
   1  -2 -21 1764.82  166.38
  -2   1 -21 1749.22  160.38
   1   1 -21 1876.81  168.38
   2  -1  21 1948.91  167.88
  -1   2  21 1745.13  170.88
  -1  -1  21 1896.51  172.28
  -2   4 -21   88.39   52.29
  -2  -2 -21   73.99   42.00
   4  -2 -21  105.49   53.19
  -4   2  21   22.90   48.70
   2   2  21   34.80   35.80
   2  -4  21    9.10   48.30
   0   3 -21   60.69   46.30
   3  -3 -21   14.30   48.80
  -3   0 -21    8.40   31.40
  -3   3  21   39.70   49.70
   0  -3  21    1.00   43.90
   3   0  21   38.40   30.40
   3   0 -21  -22.90   48.50
   0  -3 -21    4.90   41.90
  -3   3 -21    1.50   44.80
   3  -3  21  -41.10   38.70
   0   3  21    4.10   39.30
  -3   0  21  -20.00   42.50
  -3  -3 -21  473.15   74.69
   6  -3 -21  482.65   87.29
  -3   6 -21  419.56   80.89
   3   3  21  360.16   69.49
  -6   3  21  498.25   84.29
   3  -6  21  491.55   84.09
  -4  -1 -21   63.89   32.70
  -1   5 -21   82.99   55.89
   5  -4 -21   49.90   54.79
  -5   4  21   67.99   50.79
   1  -5  21   40.20   49.90
   4   1  21   87.59   34.50
  -4   2 -21   49.20   37.50
   2   2 -21  -28.40   47.60
   2  -4 -21  -15.80   48.30
  -2  -2  21   28.20   47.90
   4  -2  21  -88.99   33.40
  -2   4  21  118.19   46.70
   5  -1 -21  181.28   58.89
  -4   5 -21  138.69   61.19
  -1  -4 -21   39.40   86.49
   4  -5  21   60.39   48.60
  -5   1  21  230.38   59.89
   1   4  21   -1.20   47.80
  -4   8 -21    3.50   59.49
   8  -4 -21   24.80   57.09
  -4  -4 -21   36.80   56.49
  -4  -4 -21   28.00   50.39
  -8   4  21  155.88   66.99
   4  -8  21  190.18   67.59
  -2   7 -21  280.77   73.69
  -5  -2 -21  316.87   55.09
  -5  -2 -21  364.46   59.99
   7  -5 -21  357.26   75.09
  -7   5  21  200.98   61.69
   2  -7  21  189.78   65.09
   1   4 -21   66.49   51.59
   4  -5 -21   77.19   55.69
  -4   5  21  -71.49   45.00
  -1  -4  21   88.79   50.39
   4   1 -21   67.99   54.09
   1  -5 -21   84.29   58.09
   5  -4  21   71.79   42.60
  -4  -1  21  179.28   55.49
  -1   5  21   64.39   50.99
  -2  -5 -21  576.94   93.09
   7  -2 -21  585.34   96.39
   5  -7  21  772.12  102.99
  -7   2  21  541.65   99.09
   2   5  21  605.64  101.29
   5  -7  21  684.73  103.59
  10  -5 -21  126.59   76.99
  -5  -5 -21  182.38   67.89
  -5  -5 -21  165.28   72.19
   5 -10  21  196.18   95.59
 -10   5  21  201.88   78.29
   5 -10  21  221.18   86.69
   9  -6 -21  179.18   81.69
  -3   9 -21   31.70   70.69
  -6  -3 -21  211.48   53.29
  -6  -3 -21  325.67   61.19
   3  -9  21   58.59   71.79
  -9   6  21  244.38   75.99
   0   6 -21   69.59   56.79
   6  -6 -21 -143.89   52.09
  -6   6  21   -2.10   46.30
   0  -6  21   38.80   50.59
   3   3 -21  457.65   86.49
   3  -6 -21  603.54   96.39
  -3  -3  21  352.86   71.19
   6  -3  21  294.37   53.29
   6  -3  21  378.36   51.49
  -3   6  21  376.66   75.99
   0  -6 -21   -1.70   56.19
   6   0 -21    2.70   53.59
   0   6  21   31.60   51.89
   6  -6  21  -23.90   50.39
  -6   0  21  -56.29   43.60
   6  -6  21  -37.80   47.50
   9  -3 -21  353.56   82.59
  -3  -6 -21  309.77   74.59
  -3  -6 -21  113.39   76.29
   6  -9  21  254.17   84.29
  -9   3  21  386.76   87.09
   6  -9  21  406.76   94.09
  -6  -6 -21   -7.40   67.39
  -6  -6 -21    1.40   82.29
  12  -6 -21    0.80   86.49
 -12   6  21  -88.49   78.79
   6 -12  21  147.89   93.49
   6 -12  21   58.19  192.48
  -7  -4 -21   16.00   61.79
  -7  -4 -21    0.30   67.69
  11  -7 -21  -89.49   80.49
   4 -11  21    6.00   74.89
 -11   7  21  -71.19   79.79
   4 -11  21   80.39   89.39
  -1   8 -21   83.59   66.99
   8  -7 -21   30.30   69.29
   1  -8  21   38.30   58.59
  -8   7  21   57.59   60.89
   5  -7 -21  262.67   73.79
   2   5 -21  249.88   69.89
  -5   7  21  152.18   56.09
  -2  -5  21  278.47   68.99
   5   2 -21  653.13  103.09
   2  -7 -21  598.74  100.69
   7  -5  21  626.74   84.09
  -5  -2  21  679.03   98.19
   7  -5  21  585.44   82.59
  -2   7  21  543.55   97.39
  -1  -7 -21   66.49   68.49
   8  -1 -21  -24.10   56.29
   1   7  21   47.30   63.79
  -8   1  21  -23.80   52.89
   7  -8  21   71.49   68.89
   7  -8  21    5.70   61.79
  -4  -7 -21   95.09   87.69
  -4  -7 -21  -63.39   66.59
  11  -4 -21 -168.28   90.09
   7 -11  21  -38.00   90.39
   7 -11  21  142.19   90.39
 -11   4  21   -3.20   72.19
  -7  -7 -21  112.39   79.59
  14  -7 -21  133.29  107.79
  -7  -7 -21  139.49   95.59
   7 -14  21   52.69  105.89
 -14   7  21  -14.30   94.99
  13  -8 -21  166.08  110.09
  -8  -5 -21  155.08   67.29
  -8  -5 -21  169.88   82.49
   5 -13  21  182.98   99.79
 -13   8  21   41.20   86.89
   5 -13  21  104.49  113.19
  10  -8 -21   -7.50   82.79
  -2  10 -21   23.10   71.29
   2 -10  21  -25.20   68.89
 -10   8  21    0.00   66.99
   7  -8 -21   79.59   68.99
   1   7 -21  100.79   61.39
  -1  -7  21   -9.20   58.39
  -7   8  21   -4.20   49.80
   4   4 -21   67.49   60.39
   4  -8 -21   81.29   68.09
  -4   8  21   82.29   59.49
   8  -4  21   49.40   48.40
   8  -4  21   45.30   32.90
  -4  -4  21  113.19   55.99
   7   1 -21   59.69   65.09
   1  -8 -21  -22.00   60.19
   8  -7  21  152.48   64.19
  -7  -1  21   75.19   61.99
   8  -7  21  -51.39   55.99
  -1   8  21   89.69   64.39
  -2  -8 -21   64.49   83.09
  -2  -8 -21  128.89   83.59
  10  -2 -21  131.29   80.79
 -10   2  21   97.29   79.09
   8 -10  21   -1.80   82.69
   8 -10  21  -11.80   70.99
  -5  -8 -21  -91.59   79.09
  13  -5 -21  -53.69   84.89
  -5  -8 -21  -71.99   96.59
   8 -13  21  -91.29   90.49
   8 -13  21   -1.80  112.79
 -13   5  21  -52.49   93.29
  -9  -3 -21   45.50   56.19
  -9  -3 -21   96.99   45.30
  12  -9 -21   41.50   93.99
   3 -12  21   52.19   92.99
 -12   9  21   62.59   77.29
   3 -12  21   28.80   88.19
   0   9 -21   41.80   73.69
   9  -9 -21  -86.69   73.69
   0  -9  21   -5.20   65.89
  -9   9  21   42.20   64.09
   3   6 -21  233.48   74.99
   6  -9 -21  126.09   76.39
  -6   9  21  109.29   59.59
  -3  -6  21  189.88   65.79
   3  -9 -21  316.97   87.79
   6   3 -21  398.46   88.59
   9  -6  21  394.26   67.29
  -6  -3  21  327.27   79.19
  -3   9  21  152.68   66.59
   9  -6  21  370.46   69.59
   9   0 -21  -93.39   73.19
   0  -9 -21  -11.50   74.49
   9  -9  21   -6.20   69.19
   0   9  21  132.09   83.29
   9  -9  21  -48.50   80.69
  -9   0  21   68.59   77.59
  -3  -9 -21  357.16   99.19
  -3  -9 -21  241.28  113.89
  12  -3 -21  156.08   90.39
   9 -12  21  186.18  118.79
 -12   3  21  532.15  112.89
   9 -12  21  403.76  111.99
 -10  -4 -21  -45.40   63.29
  14 -10 -21  -55.89  112.69
 -10  -4 -21  146.59   55.99
   4 -14  21  -42.30   98.49
  -1  11 -21  221.88   91.09
  11 -10 -21  114.69  102.49
 -11  10  21   62.89   70.19
   1 -11  21  183.28   92.39
   8 -10 -21  -59.69   79.39
   2   8 -21   41.50   85.59
  -2  -8  21   67.59   70.59
  -8  10  21  -92.69   60.19
   5 -10 -21  -40.40  134.09
   5   5 -21  282.37   84.59
  10  -5  21  159.98   43.80
  -5  10  21  -57.99   56.09
  -5  -5  21   93.29   69.39
  10  -5  21  115.39   36.00
   2 -10 -21  108.29   82.89
   8   2 -21   -5.10   76.39
  -2  10  21   72.09   79.79
  10  -8  21   78.79   69.99
  -8  -2  21  -43.80   76.69
  10  -8  21   97.59   76.49
  11  -1 -21  192.78   93.79
  -1 -10 -21   49.20   95.39
  -1 -10 -21  -68.19  139.29
  10 -11  21   57.09  100.09
  10 -11  21   18.50   82.69
 -11   1  21   46.70   85.79
  14  -4 -21   61.79   94.89
  -4 -10 -21  134.39   97.99
  -4 -10 -21   36.00  118.69
 -14   4  21  103.19  113.19
  10 -14  21  336.17  122.69
  10 -14  21  120.19  136.39
  13 -11 -21  100.69  110.19
   2 -13  21   61.49   98.69
  10 -11 -21   13.50   90.59
   1  10 -21   94.59   85.49
  -1 -10  21  199.58   87.39
 -10  11  21   73.19   75.49
   7 -11 -21  -53.39   79.09
   4   7 -21  -29.80   69.19
  -4  -7  21   78.39   71.99
  -7  11  21   29.60  132.99
   7   4 -21  -34.40   75.59
   4 -11 -21  184.08   86.39
  -7  -4  21    8.70   77.29
  -4  11  21  -62.19   68.59
  11  -7  21   57.79   60.79
  11  -7  21  -21.30   74.49
   1 -11 -21   77.29   95.09
  10   1 -21   73.29   89.59
   1 -11 -21  265.87  108.49
  11 -10  21  140.99   85.69
  11 -10  21  222.98   96.89
 -10  -1  21  149.79   90.59
  -2 -11 -21   56.09  119.09
  13  -2 -21  -43.20   93.69
  -2 -11 -21  184.98  106.79
 -13   2  21   45.70  100.89
  11 -13  21  172.08  186.98
  11 -13  21  150.98   96.19
  12 -12 -21  -37.10  102.49
   0 -12  21  -80.79   93.69
   3   9 -21   44.80   83.19
   9 -12 -21   78.99   93.89
  -3  -9  21   90.69   86.39
  -9  12  21  -10.40   72.29
   6   6 -21   95.09   86.99
   6 -12 -21   21.30   90.09
  -6  12  21  108.79   78.89
  -6  -6  21  -21.70   91.69
   3 -12 -21   78.89   93.09
   9   3 -21   66.09   94.29
  12  -9  21  242.78   87.39
  -3  12  21  143.59   96.69
  -9  -3  21  184.98  189.08
  12  -9  21  174.38   90.39
   0 -12 -21  124.39  117.49
   0 -12 -21  -95.49   95.19
  12   0 -21   17.70   88.99
 -12   0  21   42.30  105.39
  12 -12  21   56.59  126.79
  12 -12  21   59.09  108.29
   2  11 -21   51.59   91.19
  11 -13 -21  138.59  107.49
   8 -13 -21  204.98   96.09
   5   8 -21   76.89   89.29
  -5  -8  21  270.77  101.09
   8   5 -21   48.70  100.09
   5 -13 -21  -47.00   82.99
  13  -8  21   14.40   64.29
  -8  -5  21   56.39   96.49
  13  -8  21   27.30   66.39
  11   2 -21  164.48  105.79
   2 -13 -21   73.69  100.69
  13 -11  21  -54.79   88.09
  13 -11  21   58.49  102.29
 -11  -2  21  -63.39  106.79
   4  10 -21   97.89  103.39
  10 -14 -21   25.90   95.99
   7 -14 -21  105.19   99.99
   7   7 -21  126.99  101.79
   4 -14 -21    7.90   97.29
  10   4 -21   86.49  106.19
  14 -10  21  -42.80   82.19
  14 -10  21   74.69   93.49
   0   1 -22  557.84   79.89
  -1   0 -22  650.83   79.39
   1  -1 -22  572.54   86.09
   0  -1  22  700.83   87.09
  -1   1  22  585.54   87.09
   1   0  22  644.74   81.09
  -2  -1 -22  333.17   59.39
   3  -2 -22  224.28   61.09
  -1   3 -22  287.27   58.29
   2   1  22  240.38   46.50
  -3   2  22  175.18   57.59
   1  -3  22  154.88   48.70
   0  -2 -22 1212.58  118.99
   2   0 -22 1179.78  123.59
  -2   2 -22 1081.09  116.29
   2  -2  22  983.00  101.29
   0   2  22  874.61   99.99
  -2   0  22  956.50  108.19
  -2   5 -22 1061.69  123.49
  -3  -2 -22  997.30  105.79
   5  -3 -22 1144.29  124.99
   2  -5  22 1221.08  125.99
  -5   3  22 1060.59  122.19
   3   2  22 1029.80  112.39
   1   2 -22  154.98   58.39
   2  -3 -22  178.58   57.19
  -3   1 -22  192.08   44.00
   3  -1  22  234.68   45.50
  -1  -2  22  143.39   52.19
  -2   3  22  236.98   55.89
  -1  -3 -22  434.56   72.49
  -3   4 -22  493.35   88.49
   4  -1 -22  481.05   86.09
   1   3  22  310.27   61.59
   3  -4  22  455.95   77.89
  -4   1  22  597.54   83.09
  -4  -3 -22  112.49   49.50
  -3   7 -22   35.30   65.69
  -4  -3 -22  166.38   51.49
   7  -4 -22   44.20   56.29
  -7   4  22   98.99   62.19
   3  -7  22   64.49   57.99
  -4   0 -22 1352.66  125.79
   0   4 -22 1711.53  151.38
   4  -4 -22 1423.66  148.09
   0  -4  22 1477.65  142.79
   4   0  22 1191.58  131.09
  -4   4  22 1494.85  141.99
   3   1 -22  488.85   87.89
  -4   3 -22  516.45   78.39
   1  -4 -22  515.45   80.29
  -3  -1  22  531.85   83.39
  -1   4  22  389.26   67.69
   4  -3  22  416.86   67.19
  -4   6 -22  925.21  126.69
   6  -2 -22  939.81  122.09
  -2  -4 -22 1317.67  152.08
   2   4  22  900.71  109.49
  -6   2  22  822.22  112.09
   4  -6  22  874.71  111.09
  -5  -4 -22  122.19   61.89
   9  -5 -22   81.39   69.39
  -5  -4 -22  179.38   58.39
   4  -9  22  265.07   79.89
  -9   5  22   65.89   62.89
   4  -9  22   65.09   65.49
   6  -5 -22 1003.00  123.49
  -1   6 -22  992.70  124.99
  -5  -1 -22 1059.09   92.89
   1  -6  22 1222.38  127.49
  -6   5  22  904.11  122.99
   3  -5 -22 1090.49  125.19
   2   3 -22 1058.99  123.79
  -2  -3  22 1001.30  114.99
  -3   5  22 1009.90  112.09
   5  -2  22  906.21  108.39
   0  -5 -22  582.24   92.09
   5   0 -22  501.55   87.49
  -5   5 -22  531.35   85.59
   0   5  22  437.46   77.99
  -5   0  22  536.85   91.69
   5  -5  22  441.26   79.89
   8  -3 -22   32.70   61.29
  -3  -5 -22   71.19   56.99
   5  -8  22  -86.99   56.19
   5  -8  22   82.69   66.69
  -8   3  22   -0.20   55.89
  -6  -5 -22  210.38   71.09
  11  -6 -22   85.39   84.09
  -6  -5 -22   58.19   71.89
 -11   6  22   71.69   84.99
   5 -11  22  251.47   97.89
   5 -11  22  181.28   94.89
  -6  -2 -22  102.49   36.10
  -2   8 -22   74.39   68.69
  -6  -2 -22   75.89   41.00
   8  -6 -22   64.39   62.69
  -8   6  22   38.40   58.39
   2  -8  22   18.70   59.59
   1   5 -22 1329.47  136.49
   5  -6 -22  947.51  127.69
  -5   6  22  744.83  108.39
  -1  -5  22 1159.28  119.19
   4   2 -22 1056.09  125.89
   2  -6 -22 1011.50  125.59
   6  -4  22  748.53   93.89
   6  -4  22  796.92   93.99
  -2   6  22  803.02  106.29
  -4  -2  22 1077.09  111.39
  -1  -6 -22  803.42  116.39
   7  -1 -22  875.91  118.09
   6  -7  22  785.32  109.69
   1   6  22  838.82  117.39
   6  -7  22  898.91  115.59
  -7   1  22  889.01  115.79
  -4  -6 -22  170.88   79.29
  10  -4 -22   42.40   76.49
  -4  -6 -22   49.40   69.79
   6 -10  22  -30.70   82.39
   6 -10  22  230.88   95.19
 -10   4  22  155.48   74.29
  -7  -6 -22  112.99   72.09
  -7  -6 -22  -25.60  108.59
  13  -7 -22   74.79   99.79
   6 -13  22   47.80  100.79
   6 -13  22  160.28  110.89
 -13   7  22   21.40   86.69
  10  -7 -22   66.59  142.69
  -7  -3 -22  122.29   58.09
  -7  -3 -22  161.98   49.70
 -10   7  22  182.68   78.09
   3 -10  22   63.99   74.69
   0   7 -22  -97.59   50.89
   7  -7 -22   63.29   61.19
  -7   7  22  123.39   56.29
   0  -7  22  116.79   59.49
   3   4 -22   83.29   55.29
   4  -7 -22   29.90   61.49
  -4   7  22   21.80   43.40
  -3  -4  22    2.40   49.40
   6   1 -22  749.73  116.39
   1  -7 -22  851.61  116.99
  -6  -1  22  841.62  114.49
  -1   7  22  799.52  115.39
   7  -6  22  940.51  122.69
   7  -6  22  806.62  106.79
   9  -2 -22   -6.70   64.19
  -2  -7 -22  102.79   72.99
  -2  -7 -22  -19.00   76.19
  -9   2  22   19.30   66.79
   7  -9  22  104.49   69.99
   7  -9  22   -1.50   72.39
  -5  -7 -22  102.59   80.29
  12  -5 -22  171.58   91.79
  -5  -7 -22  226.18   97.89
   7 -12  22   58.99   96.69
 -12   5  22  153.38   88.19
   7 -12  22  225.08  120.79
  12  -8 -22   34.70   90.29
  -8  -4 -22   49.99   54.19
  -8  -4 -22   55.29   66.99
 -12   8  22   -4.70   77.89
   4 -12  22   11.50   94.09
   4 -12  22 -105.09   87.19
   9  -8 -22 -105.59   83.99
  -1   9 -22 -112.39  140.59
  -9   8  22   70.49   63.29
   1  -9  22  123.79   75.79
   2   6 -22  294.17   73.59
   6  -8 -22   53.59   68.79
  -2  -6  22   54.09   62.89
  -6   8  22  101.39   51.89
   3  -8 -22   44.80   66.79
   5   3 -22  -41.40   54.59
  -5  -3  22   73.09   56.79
   8  -5  22   15.60   45.00
  -3   8  22  -36.30   50.89
   8  -5  22   14.70   41.10
   8   0 -22  341.67   88.09
   0  -8 -22  271.97   82.49
  -8   0  22  212.08   74.09
   0   8  22  157.28   75.19
   8  -8  22  326.57   82.59
   8  -8  22  386.76   79.09
  -3  -8 -22   90.79   95.59
  11  -3 -22   62.39   81.59
  -3  -8 -22    9.00   80.69
 -11   3  22   12.50   79.79
   8 -11  22   31.40   82.19
   8 -11  22 -210.48   89.79
  14  -6 -22  151.78  100.29
  -6  -8 -22  126.09  102.99
  -6  -8 -22   42.70   83.79
   8 -14  22  153.58  113.59
 -14   6  22   41.70  104.89
  -9  -5 -22  111.39   61.79
  -9  -5 -22   50.19   74.29
  14  -9 -22  143.79  110.59
   5 -14  22   30.00  104.49
  11  -9 -22  -11.40   88.59
   2 -11  22   78.19   92.79
   2 -11  22  101.39   80.09
 -11   9  22   16.20   92.09
   8  -9 -22  161.38  155.68
   1   8 -22   17.00   92.89
  -8   9  22    3.90   53.89
  -1  -8  22    6.60   62.39
   5  -9 -22    4.30   68.79
   4   5 -22  225.98   74.59
  -5   9  22  152.08   65.59
  -4  -5  22   58.49   63.99
   7   2 -22    9.50   67.59
   2  -9 -22  197.58   79.89
   9  -7  22   70.49   63.29
  -2   9  22  112.89   74.49
   9  -7  22  140.99   59.59
  -7  -2  22   -4.30   66.29
  10  -1 -22   40.60  165.78
  -1  -9 -22   41.70   95.39
  -1  -9 -22  167.18   86.49
   9 -10  22  143.39   74.19
   9 -10  22   77.79   92.09
 -10   1  22   46.60   72.89
  -4  -9 -22   73.69   88.39
  -4  -9 -22 -117.79  100.79
  13  -4 -22   57.09   91.89
   9 -13  22  107.19  119.09
 -13   4  22    3.60   94.59
   9 -13  22 -112.99   88.29
  13 -10 -22  124.19  114.19
   3 -13  22    2.20   96.29
  10 -10 -22  248.48  103.79
   0  10 -22  361.86  100.69
   0 -10  22  730.73  122.99
 -10  10  22  304.27   98.79
   7 -10 -22   64.29   81.69
   3   7 -22  145.59   74.89
  -3  -7  22  168.18   75.29
  -7  10  22  114.09   69.59
   6   4 -22  229.98   81.29
   4 -10 -22   32.50  115.29
  -4  10  22  -27.70   63.99
  10  -6  22   47.00   55.59
  10  -6  22  131.49   53.79
  -6  -4  22  164.58   73.09
   9   1 -22  103.19  121.79
   1 -10 -22   18.40   94.29
  10  -9  22    6.00   69.99
  10  -9  22   70.79  103.49
  -9  -1  22  207.88   80.39
  -1  10  22   59.39   81.49
  -2 -10 -22  173.08  109.39
  12  -2 -22  204.68   96.69
  -2 -10 -22   76.49  110.19
 -12   2  22   34.50  153.48
  10 -12  22 -174.98   98.19
  10 -12  22   42.30   87.89
  12 -11 -22  -97.49   97.29
   1 -12  22   53.79   97.09
   9 -11 -22  153.58   96.89
   2   9 -22   60.79   83.09
  -9  11  22  -57.89   66.89
  -2  -9  22  143.69   79.19
   6 -11 -22  124.99   85.49
   5   6 -22  244.48   92.79
  -5  -6  22  348.37   87.29
  -6  11  22   76.99   82.79
   3 -11 -22   44.90   87.39
   8   3 -22   52.69   77.49
  -8  -3  22   43.10   83.19
  11  -8  22   79.79   73.19
  11  -8  22   17.40   74.59
  -3  11  22   22.40   78.39
  11   0 -22  313.67  102.39
   0 -11 -22   53.29   97.39
  11 -11  22   84.79   86.69
  11 -11  22  157.88  100.99
  11 -12 -22   58.69  102.79
   1  11 -22   81.69   90.09
   4   8 -22  -22.60   78.69
   8 -12 -22  -74.69   80.09
  -8  12  22  -75.69   66.49
  -4  -8  22    1.20   79.19
   7   5 -22   89.99   96.99
   5 -12 -22  162.98   89.79
  -7  -5  22  253.47   97.29
  -5  12  22  121.69   82.99
  12  -7  22  -21.20   49.20
  12  -7  22  119.79   59.09
   2 -12 -22  -38.00   89.29
  10   2 -22  166.38   97.19
  12 -10  22  131.69   99.59
 -10  -2  22  245.18  103.99
  12 -10  22   30.80   82.69
  13  -1 -22   40.90   96.19
  -1 -12 -22 -113.89   98.99
  -1 -12 -22  138.19  139.89
  12 -13  22  188.18  164.68
 -13   1  22  -62.39  102.59
  12 -13  22   41.70   95.29
   3  10 -22  127.39   95.19
  10 -13 -22  -74.29   90.79
   7 -13 -22  131.59   95.89
   6   7 -22   22.60   94.49
  -6  -7  22  168.78   99.59
   4 -13 -22 -114.39   87.59
   9   4 -22  210.68  103.39
  13  -9  22   78.79   76.29
  13  -9  22 -156.38   69.59
  -9  -4  22   84.49  105.79
  12   1 -22    6.10   98.39
   1 -13 -22  -11.20  103.39
  13 -12  22   75.49  109.19
  13 -12  22  154.38  108.69
 -12  -1  22  -27.70  116.99
   5   9 -22  100.09   98.19
   9 -14 -22   -1.40   96.29
   8   6 -22  264.67  115.29
   6 -14 -22  198.88  106.39
  14  -8  22  142.19   61.79
  14  -8  22   31.50   62.29
   1   0 -23  -12.40   44.70
   0  -1 -23  -10.20   41.60
  -1   1 -23  -28.70   40.50
   0   1  23   32.10   41.80
  -1   0  23   43.40   44.20
   1  -1  23  -37.40   40.80
  -2   0 -23  -18.90   36.00
   2  -2 -23   -7.10   48.90
   0   2 -23  -18.50   43.20
  -2   2  23   13.90   45.50
   0  -2  23  -21.10   40.50
   2   0  23  -13.50   37.30
  -1  -2 -23 1153.48  128.89
   3  -1 -23 1361.76  140.49
  -2   3 -23 1512.55  136.99
   2  -3  23 1262.77  123.69
   1   2  23 1128.59  118.89
  -3   1  23 1198.98  126.89
  -3  -1 -23  121.79   40.90
   4  -3 -23   98.89   55.99
  -1   4 -23   82.59   54.29
   3   1  23  163.48   39.50
   1  -4  23  112.99   52.59
  -4   3  23  127.09   53.79
   1  -3 -23 1333.67  132.19
   2   1 -23 1204.88  133.39
  -3   2 -23 1296.87  125.69
   3  -2  23 1283.57  123.39
  -2  -1  23 1226.38  132.39
  -1   3  23 1186.28  128.39
  -3   5 -23  778.82  108.29
  -2  -3 -23  790.02   95.69
   5  -2 -23  826.62  108.99
   2   3  23  913.71   98.49
   3  -5  23  693.03  104.39
  -5   2  23  727.13  128.69
  -2   6 -23  210.28   69.29
   6  -4 -23  151.08   68.59
  -4  -2 -23  275.27   47.40
   2  -6  23  245.98  110.99
   4   2  23  332.47   60.69
  -6   4  23  316.47   73.59
   3  -4 -23  234.98   62.69
  -4   1 -23   30.00   37.60
   1   3 -23   81.39   55.59
  -1  -3  23   73.69   50.49
   4  -1  23  106.29   33.20
  -3   4  23   56.29   51.69
  -4   4 -23  -44.30   48.40
   4   0 -23   28.20   52.49
   0  -4 -23   14.50   51.19
  -4   0  23    1.20   45.20
   4  -4  23   17.70   44.40
   0   4  23   44.90   44.30
  -4   7 -23   -2.40   63.39
  -3  -4 -23   87.39   66.59
   7  -3 -23  105.09   64.09
  -7   3  23   -4.80   54.19
   4  -7  23   34.50   83.19
   3   4  23  -17.20   52.99
  -5  -3 -23  124.99   50.69
   8  -5 -23   55.19   63.39
  -5  -3 -23  166.88   49.50
  -3   8 -23   95.99   71.89
  -8   5  23  -11.80   54.29
   3  -8  23   99.59   60.19
   0   5 -23   25.20   52.39
   5  -5 -23   28.60   53.89
   0  -5  23  -25.80   47.80
  -5   5  23   86.89   53.59
   3   2 -23  795.72  107.69
   2  -5 -23  635.34  103.89
  -5   3 -23  805.92   90.29
  -2   5  23  732.73   90.09
  -3  -2  23  782.62  123.29
   5  -3  23  501.15   75.29
  -1  -5 -23  -19.70   56.59
  -5   6 -23   12.40   58.89
   6  -1 -23   15.00   57.29
  -6   1  23   32.40   52.39
   5  -6  23   56.49   47.30
   1   5  23  -27.40   51.39
  -4  -5 -23  161.98   63.59
   9  -4 -23  224.68   79.69
  -4  -5 -23   25.20   67.19
   5  -9  23  134.39   72.99
  -9   4  23  101.69   64.29
   5  -9  23  170.08   79.99
  10  -6 -23   75.79   81.49
  -6  -4 -23  -42.00   60.59
  -6  -4 -23   41.20   56.29
   4 -10  23   88.59   82.09
   4 -10  23   50.79   96.49
 -10   6  23  -15.30   68.39
  -1   7 -23  339.87   77.69
   7  -6 -23  348.77   78.79
  -7   6  23  251.87   69.39
   1  -7  23  257.17   73.69
   2   4 -23  122.09   60.69
   4  -6 -23  302.57   70.99
  -2  -4  23  243.58   60.89
  -4   6  23  228.68   58.69
   1  -6 -23   68.59   62.49
   5   1 -23   58.69   54.39
  -1   6  23   26.00   53.19
   6  -5  23  101.29   51.69
  -5  -1  23  128.19   57.39
   6  -5  23   85.59   50.79
   8  -2 -23  585.94   98.89
  -2  -6 -23  582.84  104.79
   2   6  23  414.86   85.49
   6  -8  23  442.26   92.59
  -8   2  23  465.55   89.19
   6  -8  23  449.06   87.49
  -5  -6 -23  230.88   78.29
  -5  -6 -23  158.88   86.09
  11  -5 -23  228.68   91.49
   6 -11  23  341.17  105.49
 -11   5  23  241.98   88.69
   6 -11  23   47.30   94.29
  -7  -5 -23   64.99   77.59
  12  -7 -23   68.89   90.79
  -7  -5 -23   15.10   63.89
 -12   7  23  -30.50   95.29
   5 -12  23  -58.99   86.79
   5 -12  23  168.58  102.49
  -2   9 -23   89.09   75.59
   9  -7 -23  -14.20   71.99
  -9   7  23  208.08   75.79
   2  -9  23  154.98   76.29
   1   6 -23  327.47   76.99
   6  -7 -23  285.97   77.99
  -1  -6  23  195.88   67.79
  -6   7  23  178.28   62.89
   3  -7 -23    9.60   63.59
   4   3 -23    7.00   55.49
   7  -4  23  -50.29   39.20
  -3   7  23   38.60   52.99
   7  -4  23   82.49   38.30
  -4  -3  23  135.49   55.79
   7   0 -23   50.39   61.59
   0  -7 -23  -17.70   62.69
  -7   0  23  -24.80   52.49
   7  -7  23  -76.69   50.19
   7  -7  23  -87.59   54.49
   0   7  23  -81.09   58.19
  10  -3 -23  363.26   93.69
  -3  -7 -23  296.97  101.49
  -3  -7 -23  436.86   91.79
   7 -10  23  316.27  109.49
   7 -10  23  283.57   97.19
 -10   3  23  457.15   93.09
  -6  -7 -23  -80.59   74.49
  -6  -7 -23  183.18   89.39
  13  -6 -23  172.48  103.69
 -13   6  23   54.89   95.79
   7 -13  23  233.58  117.19
   7 -13  23  135.49  104.99
  14  -8 -23   35.30  107.69
  -8  -6 -23   73.89   70.59
  -8  -6 -23   15.30   96.89
   6 -14  23   76.29  106.29
  11  -8 -23   40.20   89.29
  -8  -3 -23  -82.99   50.19
  -8  -3 -23   17.90   43.30
   3 -11  23   64.99   87.39
   3 -11  23   31.00   90.99
 -11   8  23   54.49   91.29
   0   8 -23    8.40   64.89
   8  -8 -23  -31.60   69.99
   0  -8  23   35.30   59.09
  -8   8  23  -52.39   54.19
   3   5 -23   21.40   58.89
   5  -8 -23    9.40   69.29
  -3  -5  23  105.39   58.49
  -5   8  23  157.58   61.09
   6   2 -23  524.55   97.09
   2  -8 -23  449.06   96.39
   8  -6  23  336.77   73.29
  -2   8  23  323.47   85.09
  -6  -2  23  453.25   86.49
   8  -6  23  658.13   83.99
  -1  -8 -23   86.29   74.89
   9  -1 -23  120.89   71.79
   8  -9  23   42.10   82.89
   8  -9  23   11.30   72.79
  -9   1  23  -56.89   57.09
   1   8  23  -53.29   76.09
  -4  -8 -23   33.90   89.79
  12  -4 -23   87.79   85.89
  -4  -8 -23  144.79   84.59
 -12   4  23  126.89  110.19
   8 -12  23  143.39  112.59
   8 -12  23  164.78   95.19
  -9  -4 -23   52.69   59.49
  -9  -4 -23  -50.09   48.00
  13  -9 -23   66.39  111.09
 -13   9  23  -16.60   83.19
   4 -13  23  -20.20   93.09
  10  -9 -23  -88.09   80.59
  -1  10 -23   43.40   79.89
   1 -10  23  -35.30  131.69
 -10   9  23  -47.10   68.09
   2   7 -23   57.09   70.89
   7  -9 -23   67.39   84.09
  -7   9  23  145.79   68.79
  -2  -7  23  166.08   75.49
   5   4 -23  103.09   70.89
   4  -9 -23   86.89   78.39
  -4   9  23  122.19   67.89
   9  -5  23  171.88   43.40
  -5  -4  23   91.19   69.49
   9  -5  23  130.09   46.20
   8   1 -23   81.49   77.89
   1  -9 -23  218.68   80.59
   9  -8  23   60.09   66.39
  -8  -1  23  -62.39   59.69
   9  -8  23  160.68   77.69
  -1   9  23  -41.80   68.69
  -2  -9 -23  -41.60   95.19
  -2  -9 -23  249.48   93.09
  11  -2 -23  299.37   92.29
   9 -11  23  279.67  111.69
   9 -11  23  205.58   92.29
 -11   2  23  211.18   96.69
  14  -5 -23  184.58  104.39
  -5  -9 -23  109.09  112.59
  -5  -9 -23  238.88  101.39
   9 -14  23   47.10  108.39
 -14   5  23  -46.50  100.59
  12 -10 -23   31.50   98.59
 -12  10  23   20.40   77.49
   2 -12  23  104.39   94.49
   9 -10 -23 -122.19   77.09
   1   9 -23   52.59   78.39
  -1  -9  23  -56.59  117.89
   6 -10 -23  -31.90   75.09
   4   6 -23   72.79   79.59
  -6  10  23  -67.89   64.19
  -4  -6  23   22.40   62.19
   3 -10 -23  330.47  157.38
  10  -7  23  242.68  109.09
  10  -7  23  316.27   74.19
  -7  -3  23  406.96   99.79
  -3  10  23  196.48   81.79
  10   0 -23 -115.89   78.59
   0 -10 -23  -39.70  145.79
   0 -10 -23   57.19   96.89
  10 -10  23   -2.30   72.49
 -10   0  23  -85.29   77.29
  10 -10  23   21.70   91.39
  -3 -10 -23   42.30  116.49
  -3 -10 -23  -92.39   88.39
  13  -3 -23   57.19   90.09
  10 -13  23  153.98  102.29
  10 -13  23    6.00  121.49
 -13   3  23   10.20   96.19
  11 -11 -23  147.19  103.59
   0  11 -23   -4.60   86.49
 -11  11  23  -18.60   74.89
   8 -11 -23  100.39   93.09
   3   8 -23  -60.89   71.49
  -3  -8  23  116.09   77.49
  -8  11  23    1.60   66.49
   5 -11 -23  117.89   91.69
   6   5 -23  344.77   95.89
  -6  -5  23  234.18   89.99
  11  -6  23   80.99   45.70
  11  -6  23  122.39   42.50
  -5  11  23   -3.70   78.79
   2 -11 -23   79.69   92.19
   9   2 -23  151.88   99.89
  11  -9  23  199.88   80.59
  11  -9  23   66.69   98.89
  -9  -2  23  176.08   91.19
  -2  11  23   90.09   90.89
  -1 -11 -23   98.79  105.39
  -1 -11 -23  -29.70  107.99
  12  -1 -23  212.28   95.09
  11 -12  23  -76.29   95.09
 -12   1  23  -79.49   90.59
  11 -12  23  -70.99  103.29
   2  10 -23  -65.99   83.99
  10 -12 -23   -8.30   84.99
   7 -12 -23   61.49   89.69
   5   7 -23  110.59   87.39
  -5  -7  23  106.49   82.39
  -7  12  23   27.90   72.89
   8   4 -23  124.39   89.89
   4 -12 -23    9.70   92.39
  -8  -4  23   94.39   94.29
  12  -8  23  100.19   73.39
  12  -8  23   41.80   75.29
  -4  12  23  -61.39   76.99
  11   1 -23   62.39   95.99
   1 -12 -23   83.59  110.99
   1 -12 -23   60.69   94.29
  12 -11  23 -108.49   76.79
 -11  -1  23    7.70  105.59
  12 -11  23  108.19  103.39
   4   9 -23    0.50   87.19
   9 -13 -23  -17.20   91.99
   6 -13 -23  -61.79   93.49
   7   6 -23  140.09  100.09
  -7  -6  23   36.10   93.69
  10   3 -23   94.89  101.49
   3 -13 -23 -127.49   93.69
  13 -10  23  121.39   94.89
 -10  -3  23   52.89  107.19
  13 -10  23 -130.99   84.69
   6   8 -23   72.29  101.09
   8 -14 -23   13.80   95.49
   5 -14 -23   -7.10   99.99
   9   5 -23  180.38  117.49
  14  -9  23  -13.80   64.79
  14  -9  23   74.49   73.69
   0   0 -24 1398.66  137.39
   0   0  24 1670.23  159.48
  -1   2 -24  358.76  116.09
  -1  -1 -24  417.76   68.29
   2  -1 -24  513.05   78.49
   1  -2  24  407.96   75.09
  -2   1  24  407.36   68.79
   1   1  24  384.86   69.59
   1  -2 -24  475.55   81.09
   1   1 -24  449.26   71.49
  -2   1 -24  367.46   63.59
   2  -1  24  442.06   70.39
  -1   2  24  371.56   66.09
  -1  -1  24  450.35   71.19
  -2   4 -24  774.82  107.69
   4  -2 -24  784.42  107.09
  -2  -2 -24  820.62   93.49
   2  -4  24  956.40  103.99
   2   2  24  668.53   89.39
  -4   2  24  747.63  101.99
   3  -3 -24 1511.05  146.99
  -3   0 -24 1260.87  130.59
   0   3 -24 1515.95  147.99
   0  -3  24 1343.47  141.39
  -3   3  24 1356.46  144.79
   3   0  24 1440.26  128.69
   3   0 -24  522.15   91.19
  -3   3 -24  637.74   86.79
   0  -3 -24  471.95   87.19
  -3   0  24  500.95   87.29
   3  -3  24  555.64   77.79
   0   3  24  528.65   79.69
  -3   6 -24 1098.79  125.79
   6  -3 -24  812.62  120.39
  -3  -3 -24  987.10  108.29
  -6   3  24  735.43  107.99
   3  -6  24  782.52  114.49
   3   3  24 1004.80  104.19
  -1   5 -24   60.09   55.09
   5  -4 -24   55.19   55.79
  -4  -1 -24   65.09   36.00
   1  -5  24  183.78   58.89
   4   1  24   65.49   38.20
  -5   4  24  179.98   56.59
   2   2 -24  925.21  108.79
  -4   2 -24  794.32   93.49
   2  -4 -24  774.12  106.59
   4  -2  24  636.34   85.59
  -2  -2  24  911.81   99.69
  -2   4  24  677.73   95.49
  -4   5 -24  313.77   73.89
  -1  -4 -24  254.57   65.89
   5  -1 -24  248.88   66.09
   4  -5  24  253.07   62.89
  -5   1  24  317.87   66.99
   1   4  24  201.38   60.19
   8  -4 -24  421.16   84.39
  -4  -4 -24  349.47   74.69
  -4  -4 -24  299.67   73.69
  -4   8 -24  441.26   92.19
   4  -8  24  298.57   83.19
  -8   4  24  457.95   85.19
   7  -5 -24  626.94  100.39
  -5  -2 -24  640.64   75.79
  -2   7 -24  685.63  107.39
  -5  -2 -24  521.65   69.89
   2  -7  24  652.73  102.69
  -7   5  24  394.66   82.49
   4  -5 -24   24.00   54.29
   1   4 -24  146.59   54.59
  -4   5  24   71.49   50.99
  -1  -4  24   60.59   52.09
  -5   4 -24  246.98   61.59
   1  -5 -24  244.98   67.09
   4   1 -24  353.26   73.89
   5  -4  24  219.98   54.69
  -4  -1  24  277.27   64.29
  -1   5  24  105.79   48.10
  -5   7 -24  498.55   95.49
  -2  -5 -24  692.03  101.29
   7  -2 -24  534.25   94.39
   2   5  24  617.54  105.79
   5  -7  24  648.64  103.19
  -7   2  24  683.93  103.29
  -5  -5 -24   33.00   61.59
  -5  -5 -24  -17.80   67.49
  10  -5 -24  -80.29   76.09
 -10   5  24   86.49   70.99
   5 -10  24   48.30   87.09
   5 -10  24   25.80   82.59
  -3   9 -24  -25.20   71.29
  -6  -3 -24    6.70   44.10
  -6  -3 -24  122.59   53.89
   9  -6 -24   50.69   68.29
   3  -9  24   30.30   65.69
  -9   6  24  150.68   77.09
   0   6 -24  862.61  111.29
   6  -6 -24  551.94  104.49
   0  -6  24  714.03  101.19
  -6   6  24  387.66   79.99
   3  -6 -24  809.82  118.19
   3   3 -24  974.60  117.59
  -3   6  24  676.33   99.69
   6  -3  24  729.13   80.29
   6  -3  24  743.93   80.99
  -3  -3  24  978.30  106.69
   0  -6 -24  468.55   89.79
   6   0 -24  508.75   85.69
   6  -6  24  523.25   83.39
   6  -6  24  486.05   81.39
   0   6  24  302.07   79.19
  -6   0  24  421.16   79.39
  -3  -6 -24  -42.90   76.09
   9  -3 -24  -22.00   65.79
  -3  -6 -24  -21.10   63.19
  -9   3  24  -15.40   58.49
   6  -9  24   58.49   76.09
   6  -9  24 -104.99   68.99
  12  -6 -24  306.17  101.89
  -6  -6 -24   65.19   81.09
  -6  -6 -24  266.47   80.49
   6 -12  24  191.28  108.09
 -12   6  24  284.67  133.59
   6 -12  24  290.97  112.29
  -7  -4 -24   78.59   66.89
  11  -7 -24  -57.09   85.09
  -7  -4 -24  112.89   55.19
   4 -11  24   34.30   93.09
   4 -11  24  240.18  107.39
 -11   7  24  -14.30   77.09
   8  -7 -24   27.20   66.79
  -1   8 -24   79.29   67.49
   1  -8  24  -50.09   59.39
  -8   7  24   -6.60   56.69
   5  -7 -24  541.85   96.69
   2   5 -24  623.94  102.69
  -2  -5  24  502.35   88.59
  -5   7  24  363.26   74.59
   5   2 -24  600.34  107.89
   2  -7 -24  698.23  105.69
  -2   7  24  631.74   99.19
  -5  -2  24  575.64   93.79
   7  -5  24  568.54   84.29
   7  -5  24  583.34   86.89
  -1  -7 -24  124.59   74.79
   8  -1 -24   61.39   65.89
   1   7  24  150.78   73.49
   7  -8  24  -19.00   64.69
   7  -8  24  153.98  127.09
  -8   1  24   49.99   65.89
  11  -4 -24   86.59   83.69
  -4  -7 -24  118.99   80.69
  -4  -7 -24   43.60   87.49
   7 -11  24  252.17  113.59
 -11   4  24  307.47   95.49
  -7  -7 -24  131.99   94.49
  14  -7 -24  127.29  110.29
  -7  -7 -24   83.49   82.19
   7 -14  24    9.10  100.09
  -8  -5 -24   72.49   73.09
  -8  -5 -24  -83.99   56.39
  13  -8 -24 -105.59   95.39
 -13   8  24  -37.50   83.29
   5 -13  24  -95.19   90.49
  10  -8 -24   63.09   84.19
  -2  10 -24   85.09   80.79
 -10   8  24   16.40   70.59
   2 -10  24  -39.40   76.79
   7  -8 -24   11.90   67.89
   1   7 -24  -16.40   58.09
  -1  -7  24   11.50   58.69
  -7   8  24   38.90   55.49
   4  -8 -24  349.87   85.09
   4   4 -24  359.16   79.79
  -4  -4  24  452.85   81.39
  -4   8  24  209.88   69.89
   1  -8 -24   52.89   73.49
   7   1 -24   76.49   67.79
  -1   8  24   34.50   63.29
  -7  -1  24   50.59   60.89
   8  -7  24  121.49   61.39
   8  -7  24  137.69   63.29
  -2  -8 -24  182.08   97.19
  10  -2 -24  167.78  111.39
  -2  -8 -24   49.00   83.99
 -10   2  24  189.68   82.59
   8 -10  24  112.89   82.09
   8 -10  24   51.79   95.99
  -5  -8 -24  -23.90   81.29
  13  -5 -24  -15.50   90.39
  -5  -8 -24   42.20   97.09
 -13   5  24  -89.29   89.89
   8 -13  24  285.57  126.69
   8 -13  24   -1.40   97.89
  12  -9 -24  -59.79   92.29
 -12   9  24   -3.50   78.39
   3 -12  24   12.20   93.69
   3 -12  24 -110.19   93.79
   0   9 -24  136.99   81.19
   9  -9 -24  144.09   86.49
   0  -9  24  365.46   87.79
  -9   9  24  124.79   74.59
   6  -9 -24   44.30   77.39
   3   6 -24  -39.30   64.69
  -3  -6  24   35.20   60.29
  -6   9  24   15.70   57.99
   3  -9 -24   83.19   81.19
   6   3 -24  -31.70   68.79
   9  -6  24   72.29   51.39
   9  -6  24   66.49   53.69
  -6  -3  24    9.20   62.89
  -3   9  24  -50.39   60.09
   0  -9 -24   44.10   79.99
  -9   0  24   26.50   75.89
   0   9  24  -81.29   75.89
   9  -9  24   32.60   83.59
   9  -9  24    0.60   70.29
  -3  -9 -24   66.99  105.69
  -3  -9 -24  -38.90   91.09
  12  -3 -24  109.99   88.69
 -12   3  24  202.18   95.79
   9 -12  24  -16.00  111.19
   9 -12  24   41.70   88.19
  11 -10 -24  178.78  103.89
  -1  11 -24  216.58   92.19
 -11  10  24  115.59   79.69
   1 -11  24  211.78   96.99
   8 -10 -24  102.59   85.49
   2   8 -24   -5.80   69.19
  -8  10  24   85.79   69.69
  -2  -8  24  127.99   80.99
   5 -10 -24  -92.49   75.99
   5   5 -24   21.30   72.79
  -5  10  24   60.59   70.09
  -5  -5  24  150.88   76.09
   8   2 -24  253.07   98.69
  -2  10  24  297.57   95.79
  10  -8  24  152.58   79.49
  -8  -2  24   51.99   84.49
  10  -8  24  101.39   71.99
  -1 -10 -24   83.69  102.29
  -1 -10 -24  230.38  108.29
  11  -1 -24   79.99   86.29
  10 -11  24   70.79   83.89
 -11   1  24  101.09  146.69
  10 -11  24   87.99  105.29
  13 -11 -24  211.98  117.59
   2 -13  24  301.97  124.59
   1  10 -24  250.37  102.29
  10 -11 -24  146.79   90.99
 -10  11  24  121.79   78.19
  -1 -10  24  309.87   99.09
   4   7 -24  168.68   83.79
   7 -11 -24  210.38   97.19
  -4  -7  24  205.98   99.29
  -7  11  24   99.49   72.39
   4 -11 -24   33.80   84.39
   7   4 -24  150.68   90.99
  -4  11  24   89.89  100.89
  11  -7  24 -106.69   60.69
  -7  -4  24  263.67   92.39
  11  -7  24   92.49   58.39
  10   1 -24  113.69   91.79
   1 -11 -24  100.49   98.29
  11 -10  24   87.59   81.19
  11 -10  24  289.87  103.39
 -10  -1  24  136.79  129.29
  -2 -11 -24   49.70  103.69
  -2 -11 -24   19.60  128.09
  13  -2 -24   38.60   94.69
  11 -13  24  237.38  160.98
 -13   2  24 -103.39   99.19
  11 -13  24   30.60   95.79
   0  12 -24  109.59   85.79
  12 -12 -24  -14.60  102.19
   9 -12 -24    6.20   90.29
   3   9 -24  -98.59   80.79
  -9  12  24  132.89  131.09
  -3  -9  24  -18.90   88.09
   6   6 -24  187.58   99.39
   6 -12 -24  211.78   98.49
  -6  -6  24  143.39   89.19
  -6  12  24   41.70   76.49
   9   3 -24 -129.69   88.09
   3 -12 -24  -50.79   91.09
  -3  12  24  182.98   93.89
  12  -9  24  -10.80   74.99
  12  -9  24   23.00   80.39
  -9  -3  24   74.19   94.79
   0 -12 -24 -118.39  106.39
   0 -12 -24  -32.60   98.69
  12   0 -24  -13.20   95.49
 -12   0  24   37.60  102.69
  12 -12  24  233.58  116.59
  12 -12  24  -92.69  116.89
   2  11 -24  248.08  107.19
  11 -13 -24   57.39  102.29
   8 -13 -24  166.38   96.39
   5   8 -24   13.80   92.39
   8   5 -24  -25.50   98.09
   5 -13 -24   -6.10   90.69
  13  -8  24   62.69   70.49
  -8  -5  24   23.60  107.89
  13  -8  24   78.89   59.39
   2 -13 -24   97.89  106.39
  11   2 -24  162.88  109.79
 -11  -2  24   43.00  140.29
  13 -11  24   30.30   86.59
  13 -11  24  177.98  103.79
   7 -14 -24   70.49  100.89
   7   7 -24   80.89  104.49
   1  -1 -25  -17.00   48.90
   0   1 -25   25.40   45.00
  -1   0 -25   40.50   45.30
   0  -1  25   61.79   50.19
   1   0  25   44.30   44.00
  -1   1  25    4.70   48.30
   3  -2 -25 1715.53  169.88
  -1   3 -25 1707.03  168.58
  -2  -1 -25 1760.92  160.78
  -3   2  25 1370.26  149.88
   1  -3  25 1714.33  151.28
   2   1  25 1468.85  140.49
  -2   2 -25  -77.39   44.20
   2   0 -25  -17.00   50.49
   2  -2  25    0.50   46.00
   0   2  25   35.10   46.00
  -2   0  25   -8.60   44.80
  -2   5 -25  959.20  117.99
  -3  -2 -25  839.22   94.89
   5  -3 -25  835.72  110.29
   3   2  25  769.72   92.89
  -5   3  25  730.33  104.09
   2  -5  25  928.81  108.59
  -3   1 -25 1569.44  145.99
   2  -3 -25 1528.85  154.78
   1   2 -25 1538.75  155.08
  -2   3  25 1453.05  152.88
   3  -1  25 1631.74  144.99
  -1  -2  25 1539.65  154.78
   4  -1 -25  160.88   60.49
  -1  -3 -25  136.69   63.29
  -3   4 -25  213.98   63.29
   1   3  25  121.09   49.80
   3  -4  25  238.68   56.89
  -4   1  25  216.38   64.59
  -3   7 -25   94.49   66.19
  -4  -3 -25  100.29   49.80
   7  -4 -25   66.19   62.09
   4   3  25   52.29   52.29
   3  -7  25  143.99   62.69
  -7   4  25   58.09   57.19
   4  -4 -25  -84.49   52.19
  -4   0 -25    0.20   30.20
   0   4 -25  -17.80   47.10
   4   0  25   23.90   31.40
   0  -4  25  -56.49   48.00
  -4   4  25   21.30   92.49
  -4   3 -25  116.49   55.59
   3   1 -25  310.37   66.39
   1  -4 -25  219.18   62.99
   4  -3  25   97.29   48.30
  -1   4  25  166.58   53.29
  -3  -1  25  227.98   58.49
  -4   6 -25  157.48   70.19
  -2  -4 -25  162.98   60.79
   6  -2 -25  205.38   68.69
   2   4  25  138.09   55.39
  -6   2  25  120.89   57.69
   4  -6  25  213.28   63.49
  -5  -4 -25  150.28   61.09
   9  -5 -25   76.59   71.09
  -4   9 -25   62.69   76.09
  -5  -4 -25   20.50   58.39
   4  -9  25   38.70   69.89
  -9   5  25  -68.79   61.19
  -1   6 -25  622.74   95.09
  -5  -1 -25  455.05   57.39
   6  -5 -25  353.06   81.49
  -6   5  25  349.27   73.09
   1  -6  25  400.96   79.19
   2   3 -25  694.83  108.49
   3  -5 -25  762.02  107.39
  -5   2 -25  829.42   85.29
   5  -2  25  768.62   82.59
  -2  -3  25  938.61  107.69
  -3   5  25  683.53  129.49
   5   0 -25  -28.50   51.19
   0  -5 -25   64.59   62.79
  -5   5 -25  -25.10   57.49
   0   5  25  -77.19   44.50
  -5   0  25   54.99   48.40
   5  -5  25   25.50   45.40
  -3  -5 -25  494.25   82.99
   8  -3 -25  248.68   82.29
  -8   3  25  297.07   77.69
   3   5  25  265.77   73.89
   5  -8  25  404.66   86.19
  -6  -5 -25  132.69   69.79
  -6  -5 -25  271.07   79.49
  11  -6 -25  261.17   97.29
 -11   6  25  184.38   89.49
   5 -11  25  351.86  108.99
   5 -11  25  317.87  104.69
   8  -6 -25  -46.50   58.29
  -2   8 -25   37.50   65.59
  -6  -2 -25   -2.40   38.20
  -6  -2 -25   32.90   32.60
  -8   6  25  -90.69   55.49
   2  -8  25 -142.69   58.09
   1   5 -25  338.27   72.09
   5  -6 -25  318.87   77.09
  -5   6  25  277.27   68.19
  -1  -5  25  345.37   69.99
   4   2 -25  190.08   67.79
   2  -6 -25   93.59   65.99
  -2   6  25   46.40   51.29
   6  -4  25    7.70   46.50
   6  -4  25  129.49   43.70
  -4  -2  25  144.89   59.99
   7  -1 -25  470.65   91.79
  -1  -6 -25  501.25   92.49
   6  -7  25  234.78   73.79
  -7   1  25  493.75   84.19
   6  -7  25  596.54   91.59
   1   6  25  318.37   82.39
  -4  -6 -25  -35.90   76.39
  -4  -6 -25  139.79   70.99
   6 -10  25 -109.19   77.89
 -10   4  25   50.89   69.09
   6 -10  25  162.48   87.59
  13  -7 -25 -116.59   91.09
  -7  -6 -25   -0.90   65.19
  -7  -6 -25   25.20   83.39
 -13   7  25   97.39   96.89
   6 -13  25  163.68  127.89
   6 -13  25  -20.40   99.79
  -3  10 -25  175.98   87.39
  -7  -3 -25   99.69   46.90
  -7  -3 -25  134.59   56.29
  10  -7 -25  209.28   93.29
   3 -10  25   71.49   81.79
 -10   7  25   36.60   75.59
   0   7 -25   11.00   55.69
   7  -7 -25  -31.00   61.39
  -7   7  25   10.90   53.69
   0  -7  25   81.79   60.49
   3   4 -25   39.70   58.19
   4  -7 -25  175.08   71.69
  -4   7  25   21.10   44.70
  -3  -4  25  110.99   61.39
   6   1 -25  586.84  102.39
   1  -7 -25  534.25   96.89
   7  -6  25  544.45   79.39
  -6  -1  25  380.46   81.29
   7  -6  25  330.47   76.29
  -1   7  25  343.97   78.19
   9  -2 -25   49.10   76.69
  -2  -7 -25  114.19   80.29
   7  -9  25   16.70   74.49
  -9   2  25  284.47   82.89
   7  -9  25  235.58   81.49
  -5  -7 -25  272.17   95.19
  12  -5 -25  124.09   90.09
  -5  -7 -25   64.29   80.29
 -12   5  25   74.29   94.39
   7 -12  25  146.99   99.39
  12  -8 -25   -4.40   95.89
  -8  -4 -25   72.59   61.79
  -8  -4 -25   13.20   52.49
 -12   8  25    0.30   84.69
   4 -12  25  -26.30   89.29
   4 -12  25  116.89  101.39
  -1   9 -25   46.20   75.49
   9  -8 -25   93.39   75.39
   1  -9  25  -15.00   69.59
  -9   8  25  -38.90   60.99
   6  -8 -25   89.59   66.39
   2   6 -25   -0.60   62.09
  -6   8  25   14.10   49.99
  -2  -6  25   21.00   56.29
   5   3 -25  286.47   82.99
   3  -8 -25  338.87   88.59
  -3   8  25  276.87   78.79
   8  -5  25  490.15   68.29
   8  -5  25  326.97   62.99
  -5  -3  25  219.78   74.29
   0  -8 -25   72.39   78.99
   8   0 -25 -126.29   64.39
   8  -8  25  -23.50   60.09
   8  -8  25   37.20   69.49
   0   8  25  -95.39   69.29
  -8   0  25   24.40   57.19
  -3  -8 -25   97.09   95.29
  11  -3 -25  164.58   94.39
  -3  -8 -25   27.00   80.69
 -11   3  25   83.19   83.29
   8 -11  25  196.48  101.79
   8 -11  25  109.09  106.09
  -6  -8 -25  135.19   92.39
  -6  -8 -25   52.49   96.89
  14  -6 -25  279.07  113.19
   8 -14  25   83.69  111.69
  -9  -5 -25   25.70   86.39
  -9  -5 -25   73.69   65.19
  14  -9 -25 -143.89  111.89
   5 -14  25  116.49  110.79
  11  -9 -25  -49.60   90.19
  -2  11 -25   62.59   84.89
 -11   9  25  128.29   81.59
   2 -11  25  192.48  103.29
   8  -9 -25   77.59   80.79
   1   8 -25  -33.30   64.49
  -8   9  25   28.10   60.59
  -1  -8  25  220.38   75.89
   5  -9 -25   -9.60   75.99
   4   5 -25  102.69   69.79
  -5   9  25   83.89   61.79
  -4  -5  25   32.50   63.79
   7   2 -25  159.78   81.39
   2  -9 -25  275.57   93.49
  -7  -2  25  107.09   74.79
   9  -7  25  356.36   72.69
   9  -7  25   86.59   65.09
  -2   9  25  181.28   78.89
  -1  -9 -25   34.80  100.89
  10  -1 -25  211.68   89.89
  -1  -9 -25  144.99   93.39
   9 -10  25  216.28  100.59
 -10   1  25  127.99   84.59
   9 -10  25  198.18   84.59
  -4  -9 -25   79.89  103.79
  -4  -9 -25   88.29   94.29
  13  -4 -25  -14.90   87.29
   9 -13  25  105.09  122.99
   9 -13  25 -179.78  101.49
 -13   4  25    5.00   98.49
  13 -10 -25 -109.79  108.09
   3 -13  25   30.50  101.39
   0  10 -25  -95.19   76.89
  10 -10 -25   45.90   90.79
   0 -10  25  -25.90   82.29
 -10  10  25  -39.70   62.09
   7 -10 -25   15.00   84.79
   3   7 -25  120.49   80.49
  -3  -7  25   86.49   74.99
  -7  10  25  -17.00   63.09
   6   4 -25   49.60   78.09
   4 -10 -25  200.68   88.59
  -6  -4  25  162.28   77.29
  10  -6  25   40.40   55.09
  -4  10  25   95.89   69.69
  10  -6  25   75.59   51.19
   9   1 -25  254.67   92.99
   1 -10 -25  129.19  128.79
  10  -9  25  130.09   80.59
  -1  10  25   79.19   87.99
  10  -9  25  196.78  115.09
  -9  -1  25   79.79   79.99
  -2 -10 -25   61.69  116.39
  -2 -10 -25  -69.99   93.89
  12  -2 -25  -62.09   87.19
  10 -12  25    6.40   83.39
 -12   2  25   18.10   91.19
  10 -12  25  -40.60  109.99
  12 -11 -25   48.70  105.09
   9 -11 -25  132.89   91.89
   2   9 -25  177.78   85.29
  -9  11  25   22.50   69.89
  -2  -9  25  100.09   84.09
   6 -11 -25  115.59   87.29
   5   6 -25  313.87  102.79
  -6  11  25  149.59   76.69
  -5  -6  25  -80.39  110.79
   3 -11 -25   65.89   93.89
   8   3 -25  107.89   85.19
  11  -8  25  112.79   73.59
  11  -8  25   46.20   71.19
  -3  11  25  -93.19  144.89
  -8  -3  25  136.79  151.68
  11   0 -25  -28.20   88.59
   0 -11 -25  127.19  124.09
   0 -11 -25  -27.40   95.19
  11 -11  25  105.29  104.59
 -11   0  25 -158.28   85.89
  11 -11  25  -53.49   77.49
  11 -12 -25   11.60   98.09
   1  11 -25  161.18   98.79
   8 -12 -25    9.70   88.79
   4   8 -25  -35.20   78.09
  -4  -8  25  115.59   83.19
  -8  12  25  -18.90   80.19
   7   5 -25  -18.80   88.39
   5 -12 -25  -14.30   96.19
  -7  -5  25   93.19   91.19
  -5  12  25  171.18   89.89
  12  -7  25  249.28   56.59
  12  -7  25  138.79   49.30
  10   2 -25   34.30   96.29
   2 -12 -25   11.00   95.89
  -2  12  25   27.80   96.79
 -10  -2  25   32.90   91.19
  12 -10  25   66.39   78.89
  12 -10  25   88.39   92.79
   3  10 -25  115.29   97.59
  10 -13 -25  -25.40   95.99
   7 -13 -25   20.30   95.99
   6   7 -25  174.68   97.99
   4 -13 -25 -168.48   87.39
   9   4 -25  -84.09   95.49
  13  -9  25   65.49   72.99
  -9  -4  25   -4.60  121.09
  13  -9  25  -67.19   74.79
   5   9 -25   11.30   98.19
   9 -14 -25  201.68  171.58
   6 -14 -25  -63.39  106.39
   8   6 -25  386.46  123.39
   0  -1 -26  310.27   90.69
  -1   1 -26  201.58   56.99
   1   0 -26  294.77   65.59
  -1   0  26  205.38   58.89
   1  -1  26  219.38   54.49
   0   1  26  363.46   59.09
   0   2 -26  765.32   99.39
   2  -2 -26  624.14   97.39
  -2   0 -26  625.84   86.89
   2   0  26  562.94   81.79
   0  -2  26  825.22   94.19
  -2   2  26  510.75   90.69
  -1  -2 -26 1285.37  134.49
  -2   3 -26 1480.55  137.49
   3  -1 -26 1142.59  141.49
   1   2  26 1199.18  120.69
  -3   1  26 1142.29  127.69
   2  -3  26 1121.49  125.69
  -3  -1 -26  352.46   58.99
   4  -3 -26  321.07   74.09
  -1   4 -26  462.35   75.19
   1  -4  26  302.07   63.29
  -4   3  26  366.36  108.39
   3   1  26  193.88   46.50
  -3   2 -26 1183.58  118.69
   2   1 -26 1110.59  124.69
   1  -3 -26  976.60  121.19
   3  -2  26 1221.18  125.99
  -1   3  26 1220.78  126.39
  -2  -1  26 1127.49  129.19
  -3   5 -26  710.43  101.99
   5  -2 -26  625.64   95.49
  -2  -3 -26  486.95   85.19
   3  -5  26  560.94   96.59
   2   3  26  548.55   83.89
  -5   2  26  596.24   94.39
  -4  -2 -26  487.05   68.89
   6  -4 -26  361.46   83.89
  -2   6 -26  509.25   87.59
   4   2  26  283.67   58.39
  -6   4  26  304.97   74.39
   2  -6  26  486.15   80.99
   1   3 -26  187.48   64.89
   3  -4 -26  379.26   75.59
  -4   1 -26  375.96   59.89
   4  -1  26  360.16   54.49
  -3   4  26  179.28   62.09
  -1  -3  26  440.16   72.79
  -4   4 -26 1233.68  142.49
   4   0 -26 1056.99  127.89
   0  -4 -26 1143.59  126.29
   4  -4  26  860.31  112.89
  -4   0  26 1150.68  121.19
   0   4  26 1055.29  114.09
  -4   7 -26  152.28   79.39
  -3  -4 -26  299.57   81.59
   7  -3 -26  262.97   74.49
   4  -7  26  252.67   77.49
  -7   3  26  301.77   73.39
   3   4  26  350.06   72.49
   8  -5 -26  146.49   68.89
  -5  -3 -26  134.09   50.29
  -5  -3 -26   24.10   52.49
  -3   8 -26   64.29   70.59
  -8   5  26   64.39   59.69
   3  -8  26   93.49   68.89
   0   5 -26  270.67   71.89
   5  -5 -26  285.17   68.69
  -5   5  26  155.78   61.89
   5   0  26  169.68   41.10
   0  -5  26  257.17   61.79
   3   2 -26  580.84   94.09
   2  -5 -26  577.64   95.19
  -5   3 -26  528.15   80.79
  -2   5  26  479.95   84.19
  -3  -2  26  570.24   87.09
   5  -3  26  410.06   70.39
  -1  -5 -26  424.26   80.19
   6  -1 -26  310.37   82.09
  -5   6 -26  320.57   82.39
   5  -6  26  348.97   73.29
   1   5  26  240.18   68.29
  -6   1  26  174.18   67.69
   9  -4 -26  347.67   88.19
  -4  -5 -26  235.68   77.79
  -4  -5 -26  314.47   82.29
   5  -9  26  428.86   96.49
   5  -9  26  147.49   88.29
  -9   4  26  334.67   87.89
  10  -6 -26  124.19   85.79
  -6  -4 -26   96.79   57.79
  -6  -4 -26  137.89   66.19
   4 -10  26   13.70   84.09
 -10   6  26  168.78   79.59
   7  -6 -26  240.18   79.59
  -1   7 -26  490.55   87.49
   1  -7  26  345.07   83.69
  -7   6  26  424.96   85.79
   4  -6 -26  355.86   81.49
   2   4 -26  477.65   82.19
  -4   6  26  309.27   68.99
  -2  -4  26  424.56   75.69
   5   1 -26  355.76   78.09
   1  -6 -26  329.67   79.29
  -1   6  26  337.97   82.79
  -5  -1  26  363.16   74.59
   6  -5  26  259.37   63.49
   8  -2 -26   -6.00   61.59
  -2  -6 -26  163.48   75.29
   2   6  26   92.29   68.69
  -8   2  26   95.49   63.49
   6  -8  26  -79.39   63.39
   6  -8  26   68.09   71.19
  11  -5 -26  722.73  116.89
  -5  -6 -26  241.98   84.79
  -5  -6 -26  293.27   91.29
 -11   5  26  190.18   92.89
   6 -11  26  478.15  113.59
   6 -11  26  452.15  113.99
  -7  -5 -26  132.09   64.39
  -7  -5 -26   71.89   74.99
  12  -7 -26  -56.89   88.49
   5 -12  26   62.79  103.89
 -12   7  26   58.19   91.99
   5 -12  26  -43.60   94.69
   9  -7 -26 -153.28   78.29
   2  -9  26   37.60   72.89
  -9   7  26   -5.90   62.09
   6  -7 -26  207.08   78.29
   1   6 -26  383.36   84.29
  -1  -6  26  285.17   70.19
  -6   7  26  207.88   65.79
   3  -7 -26  289.47   82.29
   4   3 -26  251.57   74.39
  -4  -3  26  202.88   67.49
   7  -4  26  266.67   49.70
  -3   7  26  106.59   57.99
   7  -4  26  306.47   51.89
   7   0 -26  181.38   74.39
   0  -7 -26  -85.89   68.39
  -7   0  26  116.59   59.89
   7  -7  26  114.39   61.49
   0   7  26   32.20   58.29
   7  -7  26   68.29   63.49
  -3  -7 -26   71.29   95.69
  10  -3 -26   93.39   78.19
  -3  -7 -26  256.47   85.99
   7 -10  26   32.60   90.99
   7 -10  26  128.29   85.59
 -10   3  26  121.89   80.59
  -6  -7 -26   96.49   92.09
  13  -6 -26  316.87  111.99
  -6  -7 -26   70.39   76.99
 -13   6  26  194.38  109.19
   7 -13  26  162.08  111.69
   7 -13  26  192.48  118.09
  -8  -6 -26   68.99   67.19
  -8  -6 -26  127.89   82.49
  14  -8 -26  -12.10  114.29
   6 -14  26   42.10  108.99
  11  -8 -26 -200.58   82.29
   3 -11  26  -16.90   87.79
 -11   8  26   35.60   75.89
   0   8 -26  210.58  119.29
   8  -8 -26   -5.50   97.99
   0  -8  26   99.39   68.59
  -8   8  26  205.08   69.19
   5  -8 -26  201.08   80.59
   3   5 -26  109.39   66.49
  -3  -5  26  123.39   60.49
  -5   8  26   11.40   52.79
   6   2 -26  139.79   71.19
   2  -8 -26   26.30   71.99
   8  -6  26  118.39   60.59
   8  -6  26  180.78   61.59
  -2   8  26  100.39   64.29
  -6  -2  26  105.59   61.29
  -1  -8 -26  207.18   88.69
   8  -9  26   70.09   77.79
  -9   1  26   57.09   69.09
   1   8  26  -37.70   76.89
   8  -9  26  -21.40   75.19
  -4  -8 -26   -8.60   83.49
  12  -4 -26   96.39   90.29
  -4  -8 -26  190.68  104.29
   8 -12  26  143.49  105.59
 -12   4  26   45.20   89.79
   8 -12  26   26.20  114.49
  -9  -4 -26   31.10   49.90
  -9  -4 -26   22.90   44.40
  13  -9 -26 -169.88   93.99
   4 -13  26   40.20  100.79
  -1  10 -26   62.29   81.39
  10  -9 -26  -30.40   86.29
   1 -10  26  157.48   87.29
 -10   9  26  -34.40   69.59
   7  -9 -26  -55.09   73.29
   2   7 -26  121.39   70.39
  -7   9  26   -8.70   53.89
  -2  -7  26   -0.10   65.29
   4  -9 -26  290.87   89.49
   5   4 -26  249.18   80.39
  -4   9  26  187.58   74.29
  -5  -4  26  230.48   77.79
   9  -5  26  180.98   48.40
   9  -5  26  370.46   53.19
   1  -9 -26  -23.90   81.49
   8   1 -26  181.78  102.39
   9  -8  26   91.29   68.19
  -1   9  26    1.60   78.39
  -8  -1  26   73.29   70.39
   9  -8  26   26.80   70.89
  11  -2 -26  261.07   91.89
  -2  -9 -26  191.68   94.89
  -2  -9 -26   57.19   99.09
 -11   2  26  125.39  131.99
   9 -11  26  178.68  109.39
   9 -11  26   53.19   89.99
  12 -10 -26   93.39  104.29
   2 -12  26   52.39   96.59
   9 -10 -26  -67.99   82.99
   1   9 -26   62.39   78.49
  -1  -9  26  152.08   83.39
  -9  10  26   39.00   65.29
   6 -10 -26  260.17   94.79
   4   6 -26  198.28   84.99
  -4  -6  26   87.99   69.59
  -6  10  26  125.09   70.19
   3 -10 -26  134.19   93.89
   7   3 -26  222.98   92.09
  -3  10  26   82.49   76.59
  10  -7  26  168.58   63.59
  10  -7  26  205.28  112.69
  -7  -3  26  115.49   77.39
   0 -10 -26  169.38  103.79
  10   0 -26   93.39   87.39
   0  10  26  -67.69   91.99
  10 -10  26  111.69   79.49
  10 -10  26   53.79   95.59
  13  -3 -26  -12.20   87.09
  -3 -10 -26  102.29   98.69
  -3 -10 -26   66.09  117.89
  10 -13  26  161.58   99.19
 -13   3  26  115.39  109.59
  10 -13  26    4.20  118.09
  11 -11 -26  134.69   99.89
   0  11 -26  122.69   93.59
   3   8 -26   36.60   81.39
   8 -11 -26   23.00   90.19
  -3  -8  26   42.20   73.29
  -8  11  26   86.89   74.59
   5 -11 -26  349.07  104.09
   6   5 -26  489.15  109.19
  -6  -5  26  346.27  106.59
  -5  11  26  130.39   84.29
   2 -11 -26   33.90   95.39
   9   2 -26  220.38   95.19
  11  -9  26  111.29   78.69
  11  -9  26  370.86   95.19
  -9  -2  26  105.39   87.69
  -1 -11 -26   30.40   98.19
  12  -1 -26  143.59   93.59
  -1 -11 -26   48.00  122.49
  11 -12  26  105.69  115.89
  11 -12  26  -77.69   88.09
 -12   1  26    1.50  103.09
   2  10 -26  179.18   97.19
  10 -12 -26  -14.30   91.99
   5   7 -26  156.58   97.39
   7 -12 -26  -49.50   89.99
  -7  12  26   95.09   77.79
  -5  -7  26   21.20   82.29
   8   4 -26  120.29   97.69
   4 -12 -26  112.39   99.49
  -4  12  26   22.00   87.09
  -8  -4  26   83.39  100.09
  12  -8  26  -42.80   87.79
  12  -8  26  145.99   65.09
  11   1 -26  -66.29   89.79
   1 -12 -26    6.30  103.89
   1 -12 -26  151.68  108.79
  12 -11  26  -45.20   81.49
 -11  -1  26  -53.09  103.89
  12 -11  26   68.29  103.09
   4   9 -26    1.00   85.39
   9 -13 -26   -6.60   97.49
   7   6 -26   39.50  101.09
   6 -13 -26  112.69  108.29
  10   3 -26  -66.89   91.89
   3 -13 -26  -70.99   99.09
  13 -10  26 -102.09   77.69
  13 -10  26   97.99  102.69
   6   8 -26 -168.48   92.79
   8 -14 -26  -63.49  138.39
   0   0 -27   26.30   49.90
   0   0  27    3.30   49.90
   2  -1 -27 1009.60  114.69
  -1   2 -27  869.61  107.99
  -1  -1 -27  800.12  106.09
  -2   1  27  654.33   99.39
   1  -2  27  726.13  101.79
   1   1  27  853.61   93.79
   1   1 -27 1008.60  113.79
  -2   1 -27  924.81  107.89
   1  -2 -27  931.51  113.19
   2  -1  27  738.73   97.39
  -1  -1  27  692.43  102.99
  -1   2  27  934.61  102.69
  -2   4 -27  120.39   58.29
  -2  -2 -27  141.29   52.99
   4  -2 -27  108.69   57.89
  -4   2  27  268.57   71.99
   2  -4  27  117.49   54.89
   2   2  27  132.79   46.50
   0   3 -27   43.30   57.69
   3  -3 -27   29.50   56.09
  -3   0 -27   51.89   42.40
   0  -3  27  -18.70   49.20
  -3   3  27   -5.50   48.70
   3   0  27  -54.79   37.90
  -3   3 -27  117.59   57.49
   0  -3 -27   25.50   51.39
   3   0 -27    4.00   51.39
   3  -3  27 -114.59   45.80
  -3   0  27  -72.39   46.00
   0   3  27    1.00   42.20
   6  -3 -27 1355.16  154.78
  -3  -3 -27 1398.06  142.89
  -3   6 -27 1719.43  162.18
   3  -6  27 1384.26  186.68
  -6   3  27 1123.29  135.29
  -4  -1 -27  114.99   40.10
   5  -4 -27  115.29   63.29
  -1   5 -27   23.20   60.29
  -5   4  27  -13.30   52.39
   4   1  27   41.20   37.80
   1  -5  27  -19.70   52.49
  -4   2 -27  140.29   46.60
   2   2 -27  285.47   62.39
   2  -4 -27   40.10   57.39
  -2  -2  27  129.69   97.89
   4  -2  27  192.98   48.80
  -2   4  27  168.48   54.39
  -4   5 -27   35.30   58.69
   5  -1 -27   61.69   55.79
  -1  -4 -27    0.00   49.50
   1   4  27   71.19   48.20
   4  -5  27   30.30   51.39
  -5   1  27    0.00   49.30
   8  -4 -27   48.20   65.49
  -4  -4 -27  -16.20   79.19
  -4   8 -27   36.40   76.39
  -8   4  27  -44.90   52.19
   4  -8  27   41.60   72.19
  -2   7 -27  257.67   77.99
   7  -5 -27  331.07   85.59
  -5  -2 -27  371.86   54.49
  -7   5  27  182.98   64.89
   2  -7  27  283.17   78.89
  -5   1 -27    3.40   33.50
   4  -5 -27  -62.49   53.29
   1   4 -27   28.90   53.79
  -4   5  27    2.10   49.20
   5  -1  27   44.10   31.10
  -1  -4  27   25.80   49.99
   1  -5 -27  121.89   58.79
   4   1 -27    3.90   50.29
  -5   4 -27   64.49   56.19
  -4  -1  27    1.20   49.60
   5  -4  27  -70.59   42.30
  -1   5  27  -25.10   45.90
  -5   7 -27  856.11  127.19
  -2  -5 -27  770.12  108.69
   7  -2 -27  671.33  112.29
   2   5  27  730.73  107.89
  -7   2  27  579.34   99.09
   5  -7  27  719.33  169.08
  -5  -5 -27  -45.40   67.29
  -5  -5 -27  -13.20   66.19
  10  -5 -27    3.50   71.89
   5 -10  27   13.50  105.79
 -10   5  27   98.99   78.19
   5 -10  27    0.80   85.59
  -6  -3 -27  231.48   51.79
  -6  -3 -27  215.48   59.99
  -3   9 -27  228.38   94.59
  -9   6  27  207.48   73.29
   3  -9  27  124.49   81.89
   6  -6 -27   41.90   63.69
   0   6 -27 -160.58   54.69
  -6   6  27   -9.00   51.09
   0  -6  27   13.70   58.19
   3   3 -27 1399.16  152.88
   3  -6 -27 1387.56  152.98
  -3  -3  27 1309.17  132.89
  -3   6  27 1209.58  131.19
   6  -3  27 1093.59  113.99
   0  -6 -27  -70.89   59.09
   6   0 -27   -2.40   59.29
  -6   0  27   43.20   53.89
   6  -6  27   13.30   53.79
  -3  -6 -27   42.60   74.59
   9  -3 -27  146.69   80.59
  -9   3  27   78.49   66.19
   6  -9  27  202.58   88.09
   6  -9  27  -46.60   76.79
  12  -6 -27    2.10   93.59
  -6  -6 -27   29.30   69.79
  -6  -6 -27  128.39   82.29
   6 -12  27   57.59  100.29
   6 -12  27  -31.50   93.29
 -12   6  27  103.59   90.99
  -7  -4 -27  -22.40   52.19
  -7  -4 -27  -77.99   60.29
  11  -7 -27  -90.79   85.59
   4 -11  27  -77.09   94.39
   4 -11  27   18.70  103.09
 -11   7  27    7.60   82.19
   8  -7 -27   98.69   79.99
  -1   8 -27  152.88   76.99
   1  -8  27   92.69   72.89
  -8   7  27  139.59   68.79
   5  -7 -27  357.66   84.89
   2   5 -27  383.76   82.29
  -5   7  27  180.38   61.49
  -2  -5  27  256.97   68.69
   2  -7 -27  718.73  118.09
   5   2 -27  785.72  118.39
   7  -5  27  722.13   88.79
  -2   7  27  408.36   86.99
  -5  -2  27  599.34  107.49
   7  -5  27  681.43   90.39
   8  -1 -27   27.60   71.49
  -1  -7 -27   12.40   73.89
  -8   1  27    1.50   59.99
   7  -8  27   98.09   71.19
   7  -8  27   21.80   67.69
   1   7  27   50.09   74.59
  -4  -7 -27   97.49   90.19
  11  -4 -27   17.60   76.79
  -4  -7 -27   97.09   81.19
 -11   4  27   26.60  133.89
   7 -11  27  -22.00   91.59
   7 -11  27  -12.60   93.19
  -8  -5 -27   69.29   70.19
  13  -8 -27   21.00  103.39
  -8  -5 -27  277.57   94.39
   5 -13  27  -94.39  100.89
  10  -8 -27   55.89   84.89
  -2  10 -27  -44.00   78.99
 -10   8  27  -16.80  126.69
   2 -10  27   37.70  153.58
   7  -8 -27  -18.70   73.59
   1   7 -27  162.18   82.49
  -1  -7  27   18.70   62.09
  -7   8  27   -2.00   59.69
   4   4 -27  171.18   70.49
   4  -8 -27  -34.70   73.79
  -4   8  27  -24.20   53.99
  -4  -4  27  -75.79   54.19
   7   1 -27   58.39   65.89
   1  -8 -27   34.90   74.99
   8  -7  27   41.50   63.29
  -1   8  27    7.80   65.09
  -7  -1  27   25.10   65.39
   8  -7  27  -18.50   60.79
  -2  -8 -27   43.40   81.09
  10  -2 -27   36.80   77.49
  -2  -8 -27   28.90   94.39
   8 -10  27   40.80   84.59
   8 -10  27   39.70   89.99
 -10   2  27  -60.99   72.39
  -5  -8 -27   29.50   83.79
  13  -5 -27  -41.00   85.89
  -5  -8 -27   48.50   97.69
   8 -13  27   74.99  117.39
   8 -13  27  123.79  112.99
 -13   5  27  281.67  117.29
  12  -9 -27 -198.48   87.99
 -12   9  27  -54.19   89.49
   3 -12  27  118.89  101.49
   0   9 -27  -83.29   66.19
   9  -9 -27   95.69   86.59
  -9   9  27  -48.80  111.19
   0  -9  27   65.19  119.49
   3   6 -27   82.59   75.99
   6  -9 -27  144.79  100.39
  -6   9  27  208.58   68.29
  -3  -6  27   37.30   65.59
   3  -9 -27  173.78   88.89
  -6  -3  27  152.58   74.09
   9  -6  27  174.68   56.79
  -3   9  27   77.99   70.49
   9  -6  27  100.19   54.99
   0  -9 -27   42.50   92.09
   9   0 -27  -10.30   74.29
  -9   0  27  -33.40   75.09
   0   9  27  -40.80   78.39
   9  -9  27  106.29   79.39
   9  -9  27  -24.10   71.49
  12  -3 -27  117.49   89.49
  -3  -9 -27  155.18  114.99
  -3  -9 -27  202.68   96.69
 -12   3  27   75.79   89.59
   9 -12  27  -44.50  103.09
   9 -12  27   -9.00   91.69
  -1  11 -27   85.49   86.79
  11 -10 -27   47.10  100.99
 -11  10  27  136.59   86.59
   8 -10 -27    1.40   81.79
   2   8 -27   -7.50   71.89
  -8  10  27  -43.30   64.19
  -2  -8  27 -111.09   65.79
   5 -10 -27  106.39   88.09
   5   5 -27  -38.90   70.39
  -5  10  27    3.30   63.79
  -5  -5  27  -45.30   73.69
   2 -10 -27   21.20   95.09
   8   2 -27  -10.30   76.29
  10  -8  27   16.40   70.59
  -2  10  27  -67.19   75.49
  10  -8  27  -52.29   64.19
  -8  -2  27   84.49   80.79
  -1 -10 -27  -30.20  107.49
  -1 -10 -27   99.49   97.59
  11  -1 -27   22.00   81.99
  10 -11  27  170.88  107.29
  10 -11  27   34.30   87.39
 -11   1  27   37.50   89.99
  10 -11 -27  246.58   95.39
   1  10 -27   46.00   91.39
   4   7 -27    6.20   80.19
   7 -11 -27   32.10   90.59
  -7  11  27  -57.09   68.49
  -4  -7  27   84.49   78.39
   7   4 -27   24.20   81.99
   4 -11 -27  -97.19   91.69
  11  -7  27  -20.00   53.99
  -4  11  27    7.60   71.19
  -7  -4  27 -120.09   83.39
  11  -7  27  -27.30   59.19
  10   1 -27  221.48   95.69
   1 -11 -27   95.19  100.39
  11 -10  27   51.29   93.49
  11 -10  27  -42.80   76.59
  -1  11  27  108.49  112.99
 -10  -1  27  -28.60   82.69
   0  12 -27  -46.90  106.09
  12 -12 -27 -115.79   99.09
   3   9 -27   80.69   87.49
   9 -12 -27  124.39   92.79
   6 -12 -27  162.38  101.19
   6   6 -27  163.98   97.89
  -6  -6  27   51.49   86.59
  -6  12  27   26.90   72.39
   9   3 -27  132.09   96.19
   3 -12 -27  177.18  108.49
  12  -9  27  114.39   77.89
  -3  12  27  107.59   96.49
  -9  -3  27  157.58   98.59
  12  -9  27   58.69   77.29
   0 -12 -27  -26.50  103.49
  12   0 -27  -33.90   95.89
   0 -12 -27  276.57  148.59
  12 -12  27   78.99  122.39
  12 -12  27   98.39  109.39
   8 -13 -27  125.19  104.09
   5   8 -27  121.19   97.59
   8   5 -27   54.49   93.79
   5 -13 -27  231.58  112.59
  13  -8  27  142.69   56.19
  13  -8  27   46.50   53.79
   0   1 -28 1003.90  121.69
  -1   0 -28 1264.77  167.28
   1  -1 -28 1141.09  126.39
   0  -1  28  934.11  112.89
  -1   1  28  779.22  109.59
   1   0  28 1039.00  108.09
   3  -2 -28 1443.26  155.08
  -2  -1 -28 1503.25  145.89
  -1   3 -28 1511.75  155.18
   2   1  28 1262.27  137.79
   1  -3  28 1579.24  149.88
  -3   2  28 1583.54  150.08
   0  -2 -28  469.85   88.09
  -2   2 -28  541.25   94.29
   2   0 -28  544.15   89.99
  -2   0  28  299.77   70.29
   2  -2  28  665.73   85.99
   0   2  28  434.36   79.49
   5  -3 -28  178.68   66.79
  -3  -2 -28  165.58   54.99
  -2   5 -28  274.07   72.69
   3   2  28   82.19   46.40
   2  -5  28  261.07   68.49
  -5   3  28  194.38   60.19
  -3   1 -28 1485.55  143.59
   2  -3 -28 1296.27  152.48
   1   2 -28 1617.94  153.48
  -1  -2  28 1504.45  155.38
  -2   3  28 1529.85  154.88
   3  -1  28 1533.85  144.59
   4  -1 -28  198.38   66.29
  -1  -3 -28  280.77   65.19
  -3   4 -28  278.17   70.49
  -4   1  28  276.87   66.79
   1   3  28  271.27   59.39
   3  -4  28  290.97   63.39
   7  -4 -28   76.69   68.99
  -4  -3 -28  187.58   54.19
  -3   7 -28  264.87   77.29
   4   3  28  135.89   57.39
  -7   4  28  233.68   67.69
   3  -7  28  141.69   75.19
  -4   0 -28  954.20   96.69
   4  -4 -28  827.72  117.59
   0   4 -28 1072.09  120.89
  -4   4  28  769.32  108.49
   4   0  28  886.21   89.69
   0  -4  28  980.10  112.29
   3   1 -28  267.97   69.59
  -4   3 -28  240.48   68.69
   1  -4 -28  427.76   74.49
  -3  -1  28  307.37   67.69
   4  -3  28  284.97   58.89
  -1   4  28  197.18   60.09
   6  -2 -28  549.54   95.59
  -2  -4 -28  499.05   91.29
  -4   6 -28  618.24  106.29
   4  -6  28  737.33  109.89
  -6   2  28  659.63  106.19
   2   4  28  748.93  101.49
  -4   9 -28  474.45  111.59
  -5  -4 -28  584.04   99.69
  -5  -4 -28  608.94   99.19
   4  -9  28  508.15  107.19
  -9   5  28  483.65  100.49
  -5  -1 -28  548.05   61.89
  -1   6 -28  441.56   88.89
   6  -5 -28  326.77   84.09
   5   1  28  405.16   58.69
  -6   5  28  203.48   71.39
   1  -6  28  415.86   83.49
   2   3 -28   91.69   57.49
  -5   2 -28  169.48   49.00
   3  -5 -28  132.49   68.19
   5  -2  28  172.88   40.60
  -3   5  28   21.70   51.89
  -2  -3  28   99.79   55.49
  -5   5 -28  286.27   71.39
   5   0 -28  205.58   63.89
   0  -5 -28  185.08   69.89
   5  -5  28  179.28   61.19
   0   5  28  156.88   58.49
  -5   0  28  216.88   63.39
  -3  -5 -28  294.27   75.79
  -5   8 -28  229.88   89.29
   8  -3 -28  253.57   79.09
   5  -8  28  228.38   80.89
  -8   3  28  159.08   69.39
   3   5  28  240.58   72.09
  11  -6 -28  287.07   99.59
  -6  -5 -28  346.67   80.19
  -6  -5 -28  317.77   85.89
   5 -11  28  424.76  127.29
   5 -11  28  336.87  114.29
 -11   6  28  340.37   96.29
   8  -6 -28   88.09   73.69
  -2   8 -28  101.39   75.19
  -6  -2 -28   37.10   35.40
  -6  -2 -28  131.49   47.80
   2  -8  28  185.68   75.59
  -8   6  28  135.99   69.79
   1   5 -28  636.84   99.69
   5  -6 -28  478.95   95.19
  -5   6  28  233.88   69.59
  -1  -5  28  538.65   81.09
   4   2 -28  583.84  104.29
   2  -6 -28  604.54   99.49
  -4  -2  28  583.04   93.09
   6  -4  28  454.35   74.49
  -2   6  28  238.48   68.09
  -1  -6 -28  218.98   73.59
   7  -1 -28  160.48   72.09
  -7   1  28  247.78   71.59
   1   6  28  382.76  129.29
   6  -7  28  224.08   71.59
  -4  -6 -28    7.30   83.29
  -4  -6 -28   94.89   74.99
  10  -4 -28  104.39   81.19
   6 -10  28   27.10   87.69
   6 -10  28   48.90   86.79
 -10   4  28  -45.80   70.29
  13  -7 -28   -9.10   95.99
  -7  -6 -28   -0.20   69.49
  -7  -6 -28   19.90   76.79
   6 -13  28   46.60  106.39
  -3  10 -28   26.10   87.99
  -7  -3 -28  -23.70   48.00
  -7  -3 -28   54.19   40.50
  10  -7 -28 -154.48   77.49
 -10   7  28  152.18   99.39
   3 -10  28   56.79   86.59
   7  -7 -28  168.68   74.59
   0   7 -28   73.09   67.39
  -7   7  28  117.49   63.49
   0  -7  28  187.78   76.09
   3   4 -28  139.69   63.39
   4  -7 -28  264.37   77.39
  -4   7  28  117.69   58.69
  -3  -4  28  141.59   60.39
   6   1 -28  372.06   82.19
   1  -7 -28  202.88   79.89
   7  -6  28  130.09   64.49
   7  -6  28  201.68   67.69
  -6  -1  28  174.38   64.59
  -1   7  28  145.69   67.89
   9  -2 -28   87.69   78.69
  -2  -7 -28  121.39   84.99
   2   7  28  140.29   88.59
   7  -9  28   98.89   77.89
   7  -9  28   67.29   79.39
  -9   2  28  140.19   76.99
  -5  -7 -28  126.79   91.49
  12  -5 -28   -9.50   88.69
  -5  -7 -28   52.39   84.69
 -12   5  28  -78.49   82.39
   7 -12  28   91.09  105.89
   7 -12  28   53.49  107.79
  12  -8 -28   75.99   99.69
  -8  -4 -28  197.38   57.49
  -8  -4 -28   76.99   48.20
   4 -12  28   11.90  103.19
 -12   8  28   65.69   88.39
   4 -12  28  -18.90  100.99
  -1   9 -28   49.80   77.09
   9  -8 -28  -37.30   74.19
   1  -9  28   37.20   78.79
  -9   8  28  -28.00   65.79
   6  -8 -28   26.00   72.19
   2   6 -28   91.99   73.89
  -2  -6  28   43.20   66.19
  -6   8  28   33.90   54.29
   5   3 -28  183.48   80.09
   3  -8 -28  151.78   81.09
  -3   8  28  181.58   73.19
   8  -5  28  235.88   53.99
  -5  -3  28  174.78   71.59
   8  -5  28  175.38   53.49
   0  -8 -28   43.80   82.29
   8   0 -28  175.98  124.69
   0   8  28   40.30   70.59
   8  -8  28  103.19   79.29
   8  -8  28  128.29   72.09
  -8   0  28   97.49   75.09
  -3  -8 -28  196.68   92.49
  11  -3 -28  466.95  107.19
  -3  -8 -28  332.77  116.89
   8 -11  28  302.97  112.09
 -11   3  28   93.59   87.19
  -2  11 -28   33.40   86.19
  11  -9 -28   43.60   97.39
   2 -11  28   55.19   94.19
 -11   9  28   70.69   82.29
   1   8 -28   85.49   74.09
   8  -9 -28  -99.59   81.59
  -1  -8  28  159.08   80.89
  -8   9  28   35.20   65.99
   4   5 -28  694.43  123.09
  -4  -5  28  637.74  103.09
  -5   9  28  317.27   85.19
   7   2 -28  114.29   78.49
   2  -9 -28    4.80   81.99
   9  -7  28  -56.19   60.09
  -2   9  28  140.79   75.29
   9  -7  28   27.60   64.89
  -7  -2  28   21.50   70.39
  10  -1 -28   45.10   81.69
  -1  -9 -28   71.59   94.69
   1   9  28 -104.79   88.89
   9 -10  28   83.69   82.39
   9 -10  28   85.99   92.09
 -10   1  28  -17.30  133.89
  -4  -9 -28   54.09  112.09
  -4  -9 -28   78.19   92.39
  13  -4 -28   14.00   95.79
   9 -13  28   27.40  118.09
   9 -13  28  140.29  107.39
  13 -10 -28   52.89  112.39
   3 -13  28  -34.80  100.09
   0  10 -28  227.28   97.59
  10 -10 -28   -4.10   93.09
 -10  10  28   95.29   72.29
   0 -10  28  147.49   94.29
   3   7 -28   11.90   77.79
   7 -10 -28  -54.69   77.69
  -3  -7  28  115.19  114.39
  -7  10  28   -9.90   76.89
   6   4 -28  102.79   80.59
   4 -10 -28  216.58   95.99
  10  -6  28   21.30   49.50
  -4  10  28  170.88   75.69
  -6  -4  28  -88.89   67.99
  10  -6  28  114.69   49.30
   9   1 -28  144.59   85.69
   1 -10 -28  129.19   99.39
  10  -9  28   22.20   71.89
  10  -9  28   29.00   91.09
  -9  -1  28    3.10   99.69
  -1  10  28   66.49   85.19
  12  -2 -28  189.18   97.89
  -2 -10 -28 -164.98   92.39
  -2 -10 -28   34.00  124.09
  10 -12  28  -47.60   88.99
  10 -12  28   74.49  112.59
 -12   2  28   -5.40   98.29
  12 -11 -28  -36.30   98.49
  -1  12 -28   78.19   93.49
   9 -11 -28  -50.39   85.19
   2   9 -28  -48.90   77.39
  -9  11  28  -15.30   68.69
  -2  -9  28  107.79   86.69
   6 -11 -28  221.58  102.99
   5   6 -28  593.64  116.09
  -6  11  28  102.89   79.19
  -5  -6  28  131.29   86.79
   3 -11 -28  120.99  102.69
   8   3 -28  361.46  105.99
  11  -8  28  287.67   78.29
  -8  -3  28  256.67   98.69
  -3  11  28  113.29   91.69
  11  -8  28  205.98   74.79
   0 -11 -28   -7.00  108.49
  11   0 -28   -9.90   91.89
   0 -11 -28  -10.20   97.39
  11 -11  28    9.10   78.29
  11 -11  28   -6.80   98.99
 -11   0  28   45.70   96.59
  11 -12 -28  -58.69   97.79
   1  11 -28  146.19   98.39
   4   8 -28   25.90   85.99
   8 -12 -28  304.67  107.69
   5 -12 -28   -9.20   91.89
   7   5 -28  139.19   98.39
  -5  12  28   27.60   73.69
  -7  -5  28  -49.20   80.09
   2 -12 -28 -118.29  107.89
  10   2 -28   53.09  103.39
 -10  -2  28   66.99  127.09
  12 -10  28   61.29   86.29
  -2  12  28  130.39  106.39
  12 -10  28 -122.09   71.39
   3  10 -28  -41.10   87.69
  10 -13 -28  -75.29   95.69
   7 -13 -28    8.60   99.49
   6   7 -28   39.90   90.29
   9   4 -28  186.38  108.09
   4 -13 -28   73.59  113.19
  13  -9  28   78.59   78.69
  13  -9  28   80.89   68.69
  -1   1 -29  -41.90   48.00
   1   0 -29  -39.30   51.29
   0  -1 -29  -51.89   49.30
  -1   0  29   10.50   53.29
   1  -1  29   50.99   51.99
   0   1  29   -1.30   45.40
  -2   0 -29  -21.90   47.00
   2  -2 -29   30.70   57.49
   0   2 -29  -80.19   52.09
   2   0  29  -12.70   44.90
   0  -2  29  -33.30   50.59
  -2   2  29   16.30   50.89
   3  -1 -29  602.44  103.29
  -2   3 -29  866.61   99.49
  -1  -2 -29  595.34   96.69
  -3   1  29  351.56  132.29
   1   2  29  663.03   89.19
   2  -3  29  732.43   94.89
  -3  -1 -29  100.49   48.60
  -1   4 -29   -1.50   54.39
   4  -3 -29   37.10   54.09
  -4   3  29   60.49   51.69
   3   1  29   86.99   42.90
   1  -4  29    8.00   53.89
  -3   2 -29  638.54   95.89
   2   1 -29  807.92  103.29
   1  -3 -29  720.43  103.49
  -2  -1  29  672.03  143.99
   3  -2  29  722.33   97.19
  -1   3  29  755.02   96.69
  -3   5 -29  642.24   98.49
  -2  -3 -29  489.75   97.09
   5  -2 -29  747.63  104.89
  -5   2  29  504.65   87.39
   3  -5  29  507.85   92.89
   2   3  29  498.95   80.09
   6  -4 -29  482.75   85.49
  -2   6 -29  314.67   83.09
  -4  -2 -29  386.46   69.29
   4   2  29  253.87   58.49
  -6   4  29  211.38   71.39
   2  -6  29  395.26   81.29
   3  -4 -29  101.49   60.29
  -4   1 -29  -91.19   45.50
   1   3 -29  141.59   55.69
   4  -1  29   -0.20   40.40
  -3   4  29   54.39   49.10
  -1  -3  29  120.19   53.59
   0  -4 -29   83.99   57.39
  -4   4 -29  -82.49   53.49
   4   0 -29  -18.90   53.29
   4  -4  29   21.20   48.30
  -4   0  29  -15.40   46.40
   0   4  29   55.59   45.40
   7  -3 -29   71.19   70.99
  -4   7 -29  233.88   82.19
  -3  -4 -29  145.79   60.39
   4  -7  29  246.98   77.59
   3   4  29  226.58   65.49
  -7   3  29  247.08   69.69
  -5  -3 -29  248.98   56.99
  -5  -3 -29  189.48   62.29
  -3   8 -29  388.36   89.39
   8  -5 -29  261.07   83.29
  -8   5  29  101.29   70.99
   3  -8  29  217.28   82.79
  -5   0 -29   22.50   34.50
   0   5 -29   92.49   62.19
   5  -5 -29  -38.70   60.69
   0  -5  29   65.19   52.49
   5   0  29   -5.00   33.80
  -5   5  29   27.70   51.59
  -5   3 -29  699.13   89.49
   3   2 -29  479.35   91.09
   2  -5 -29  546.85   98.49
   5  -3  29  472.55   79.69
  -3  -2  29  595.24   90.79
  -2   5  29  530.05   84.79
  -1  -5 -29  288.27   77.49
  -5   6 -29  220.08   84.89
   6  -1 -29  342.07   77.09
   1   5  29  300.07   69.09
  -6   1  29  112.59   61.79
   5  -6  29  190.88   71.09
  -4  -5 -29   49.50   66.19
   9  -4 -29   55.49   74.09
  -4  -5 -29   47.80   78.79
  -5   9 -29    8.90   79.89
  -9   4  29   84.09   73.39
   5  -9  29   57.79   82.29
  -4  10 -29   47.10   90.09
  10  -6 -29  -68.29   75.99
  -6  -4 -29   84.09   62.69
  -6  -4 -29   -2.00   53.39
 -10   6  29   -7.40   80.39
   4 -10  29  -13.00   91.19
  -1   7 -29  334.57   83.49
   7  -6 -29  107.49   73.19
   1  -7  29  285.27   84.89
  -7   6  29  123.49   72.39
   4  -6 -29  139.59   70.29
   2   4 -29  282.37   71.89
   6  -2  29  171.28   57.79
  -2  -4  29  328.87   74.19
  -4   6  29  299.07   66.79
   1  -6 -29  175.58   74.99
   5   1 -29  225.68   72.49
   6  -5  29  231.28   63.49
  -5  -1  29  246.48   68.39
  -1   6  29  264.27   67.39
   8  -2 -29   83.89   73.89
  -2  -6 -29  242.58   80.69
   6  -8  29   63.49   73.39
  -8   2  29   59.39   70.09
   2   6  29  118.69   83.29
   6  -8  29   92.29   78.99
  -5  -6 -29   97.49   80.59
  11  -5 -29  199.28   97.09
  -5  -6 -29  189.68   86.79
 -11   5  29  161.78   86.89
   6 -11  29  222.28  105.59
   6 -11  29  263.57  107.59
  12  -7 -29   -3.40   94.69
  -7  -5 -29   82.59   82.19
  -7  -5 -29  104.09   73.29
   5 -12  29   73.49  101.89
   5 -12  29   66.39  107.59
 -12   7  29  -22.70   86.49
   9  -7 -29  185.08   86.79
  -2   9 -29   65.89   80.59
  -9   7  29  182.98   76.29
   2  -9  29  158.48   86.39
   1   6 -29  254.57   77.29
   6  -7 -29  172.78   77.79
  -1  -6  29   94.89   69.79
  -6   7  29  149.88   59.49
   3  -7 -29  143.39   73.09
   4   3 -29  172.58   70.99
  -3   7  29  133.79   56.99
   7  -4  29  113.59   47.00
   7  -4  29  206.68   48.50
  -4  -3  29  183.88   63.69
   0  -7 -29   -6.90   70.29
   7   0 -29  -85.59   60.39
   7  -7  29   66.09   67.09
   7  -7  29  -33.50   65.49
  -7   0  29    0.50   53.69
   0   7  29  -55.09   58.59
  -3  -7 -29  298.47  100.59
  -3  -7 -29  113.79   86.89
  10  -3 -29   29.20   77.89
   7 -10  29   49.00   86.39
   7 -10  29   75.59   96.39
 -10   3  29   58.99   77.29
  -6  -7 -29  133.69   89.99
  -6  -7 -29   92.19   85.29
  13  -6 -29  -25.20   96.19
   7 -13  29  120.19  144.59
   7 -13  29  133.29  121.19
  11  -8 -29 -138.19   90.99
  -3  11 -29  -34.60   83.69
   3 -11  29   41.70   92.09
 -11   8  29  -76.79   73.39
   0   8 -29 -121.29   62.09
   8  -8 -29   79.89   79.79
   0  -8  29   27.30   76.09
  -8   8  29   13.20   59.49
   3   5 -29  226.88   78.99
   5  -8 -29  152.98   82.39
  -3  -5  29  201.58   75.79
  -5   8  29  141.09   61.99
   6   2 -29  239.98   77.89
   2  -8 -29  183.08   84.99
   8  -6  29  157.88   63.39
  -6  -2  29   40.80   67.29
   8  -6  29   -1.30  105.79
  -2   8  29   73.19   64.89
  -1  -8 -29 -108.19   82.39
   9  -1 -29  -11.20   73.09
   1   8  29  -70.89   79.29
  -9   1  29   -8.60   69.59
   8  -9  29   89.79   80.49
   8  -9  29   37.70   78.09
  12  -4 -29  -89.19   82.69
  -4  -8 -29    8.30   98.79
  -4  -8 -29  -72.99   81.79
 -12   4  29  -64.99   86.49
   8 -12  29   19.30  102.29
  13  -9 -29  -90.19  103.19
   4 -13  29  -26.70  108.39
  10  -9 -29   65.19   92.39
  -1  10 -29  134.49   95.89
   1 -10  29   29.80   89.49
 -10   9  29   -7.60   70.99
   7  -9 -29  122.29   86.79
   2   7 -29  -33.00   71.29
  -7   9  29  112.29   65.09
  -2  -7  29  220.98   79.09
   5   4 -29  119.69   76.09
   4  -9 -29  179.78  132.39
  -4   9  29   55.89   67.19
   9  -5  29  -35.80   39.40
  -5  -4  29   29.30   67.19
   9  -5  29   43.90   39.20
   1  -9 -29  106.29   90.69
   8   1 -29  108.79   81.59
  -8  -1  29   24.10   65.59
   9  -8  29   95.69   76.79
   9  -8  29  -90.29   62.09
  -1   9  29  -36.10   75.39
  -2  -9 -29  222.48  111.59
  -2  -9 -29  107.09  101.29
  11  -2 -29   41.90   81.19
 -11   2  29  129.99   93.09
   9 -11  29  112.09  106.59
   9 -11  29  157.28   97.09
  12 -10 -29 -149.39   98.69
  -2  12 -29   12.10   85.99
   1   9 -29   76.49   80.89
   9 -10 -29   22.10   91.69
  -9  10  29   51.29   61.69
  -1  -9  29  166.88   89.29
   4   6 -29  -24.60   74.29
   6 -10 -29   46.80   86.79
  -4  -6  29  -22.30  114.59
  -6  10  29   -1.10  117.79
   3 -10 -29   96.29   95.09
   7   3 -29  -59.29   76.79
  -3  10  29   24.00   75.69
  10  -7  29  -59.59   98.89
  -7  -3  29   36.70  141.99
  10  -7  29  174.08   63.99
  10   0 -29    1.70   83.99
   0 -10 -29  -66.89   99.19
  10 -10  29  -43.20   77.99
  10 -10  29   24.70   88.39
 -10   0  29 -107.99   75.19
   0  10  29  -16.10   92.59
  13  -3 -29  -31.00   79.09
  -3 -10 -29   66.79   98.29
  -3 -10 -29  131.79  127.19
  10 -13  29 -108.39   97.79
  10 -13  29  -73.59  112.59
  11 -11 -29   -1.30   96.99
   0  11 -29   18.80   95.49
   8 -11 -29  111.29   94.29
   3   8 -29  -45.80   75.39
  -3  -8  29   -7.30   80.09
  -8  11  29  -55.09   67.29
   6   5 -29  197.98   94.39
   5 -11 -29   16.70   93.89
  -5  11  29   26.70   73.09
  -6  -5  29  289.17   93.39
   2 -11 -29  148.19  104.49
   9   2 -29   93.89   96.49
  -2  11  29   96.29   93.19
  11  -9  29  239.08   84.99
  11  -9  29  106.09   76.99
  -9  -2  29  198.88   94.29
  12  -1 -29  163.78   99.89
  -1 -11 -29   83.79  112.89
  -1 -11 -29   39.30  121.79
  11 -12  29   83.99   94.89
  11 -12  29  -21.40   96.59
  10 -12 -29  -26.10   97.69
   2  10 -29   45.00   86.39
   5   7 -29   72.09   91.59
   7 -12 -29   50.29   99.69
   8   4 -29   70.79   90.59
   4 -12 -29   11.40  101.49
  12  -8  29 -279.27   89.39
  -8  -4  29  -82.59   97.69
  -4  12  29    7.20   89.09
  12  -8  29   84.39   58.59
  11   1 -29  -37.10   93.69
   1 -12 -29   14.70  118.09
   1 -12 -29   24.20  106.69
  12 -11  29   82.19   84.79
  12 -11  29   85.09   96.59
   9 -13 -29  -11.80   95.39
   4   9 -29   11.50   88.09
   7   6 -29  -35.50   99.49
   6 -13 -29  -62.99   96.69
   3 -13 -29   14.20  114.19
  10   3 -29  -52.69   94.19
  13 -10  29   28.90   75.19
  13 -10  29  -11.90  122.49
   0   0 -30 2917.71  259.97
   0   0  30 2697.33  242.18
  -1  -1 -30  214.68   65.39
   2  -1 -30  254.37   68.59
  -1   2 -30  285.97   66.49
  -2   1  30  164.68   61.29
   1  -2  30  201.28   65.59
   1   1  30  409.26   69.69
   1   1 -30  183.58   63.59
   1  -2 -30  238.98   66.59
  -1   2  30  155.88   58.99
  -1  -1  30  293.97   66.29
   2  -1  30  383.36   67.49
   4  -2 -30  110.29   66.19
  -2  -2 -30  233.98   66.89
  -2   4 -30  200.78   63.19
  -4   2  30  211.48   64.99
   2   2  30  169.08   50.19
   2  -4  30  287.17   66.09
   0   3 -30 2043.00  189.18
   3  -3 -30 1848.62  187.58
  -3   0 -30 1886.91  176.88
  -3   3  30 1827.32  180.18
   3   0  30 1891.61  165.98
   0  -3  30 1581.04  200.98
   3   0 -30  591.84   94.79
   0  -3 -30  553.54   93.69
  -3   3 -30  531.95   93.49
   0   3  30  517.15   79.49
   3  -3  30  561.84   87.99
  -3   0  30  526.15   91.39
  -3   6 -30  362.66   89.09
  -3  -3 -30  457.25   80.49
   6  -3 -30  408.36   86.89
   3  -6  30  403.66   86.49
   3   3  30  338.07   73.89
  -6   3  30  386.06   77.79
  -1   5 -30  329.27   82.09
   5  -4 -30  270.97   73.99
  -4  -1 -30  257.27   54.79
   1  -5  30  289.77   68.19
   4   1  30  158.98   45.50
  -5   4  30  312.17   75.99
  -4   2 -30  218.68   57.29
   2  -4 -30   98.09   63.89
   2   2 -30  287.87   68.99
   4  -2  30  165.28   51.99
  -2  -2  30   95.89   61.49
  -2   4  30  106.09   94.69
  -4   5 -30  416.66   80.89
   5  -1 -30  346.07   80.09
  -1  -4 -30  407.76   78.49
  -5   1  30  249.97   65.69
   4  -5  30  426.66   74.19
   1   4  30  180.68   56.89
   8  -4 -30  904.41  128.99
  -4   8 -30  971.50  145.69
  -4  -4 -30  829.22  128.19
   4   4  30  575.44  108.89
  -8   4  30  672.33  115.29
   4  -8  30 1093.79  140.89
  -2   7 -30  440.86   85.29
  -5  -2 -30  227.88   52.49
   7  -5 -30  251.67   78.59
   2  -7  30  204.58   73.89
  -7   5  30  201.58   72.59
   1   4 -30  309.47   75.89
  -5   1 -30  282.87   51.99
   4  -5 -30  332.97   76.29
  -4   5  30  113.69   62.89
   5  -1  30  289.57   50.99
  -1  -4  30  375.16   74.09
   4   1 -30  265.37   75.49
  -5   4 -30  315.07   75.59
   1  -5 -30  407.86   81.49
  -1   5  30  256.57  100.29
  -4  -1  30  224.48   64.89
   5  -4  30  241.08   61.89
  -2  -5 -30  131.59   67.99
   7  -2 -30   66.79   68.99
  -5   7 -30  126.09   83.99
   5  -7  30  202.38   76.49
   2   5  30   80.79   67.79
  -7   2  30  175.98   68.99
  10  -5 -30  133.89   86.29
  -5  -5 -30   69.99   69.99
  -5  -5 -30  -70.09   71.69
   5 -10  30  179.48  106.69
 -10   5  30  -17.30   94.99
   5 -10  30  209.88   98.79
   9  -6 -30    5.50   74.39
  -6  -3 -30    2.30   52.99
  -6  -3 -30  -25.50   43.60
   3  -9  30  129.29   88.69
  -9   6  30  140.99   75.99
   0   6 -30  832.82  122.09
   6  -6 -30  689.43  113.99
   0  -6  30  675.23  104.89
  -6   6  30  412.26   83.49
   3  -6 -30  388.56   88.99
  -6   3 -30  466.25   75.09
   3   3 -30  443.06   85.39
  -3  -3  30  324.87   71.89
  -3   6  30  172.18   63.09
   6  -3  30  360.76   61.59
  -6   6 -30  336.77   84.99
   0  -6 -30  198.18   79.29
   6   0 -30  175.28   70.49
   0   6  30  170.58   61.39
  -6   0  30  221.88   67.49
   6  -6  30  129.39   69.79
   9  -3 -30   31.40   75.29
  -3  -6 -30   55.49   73.09
   6  -9  30   57.19   81.99
  -9   3  30    8.80   65.39
   6  -9  30  -15.30   84.89
   3   6  30   40.90   87.09
  -6  -6 -30   75.59   70.59
  -6  -6 -30   82.59   82.29
  12  -6 -30   75.69   93.19
 -12   6  30   57.19   86.99
   6 -12  30  236.48  114.59
   6 -12  30   24.00  109.39
  -7  -4 -30   85.29   50.79
  11  -7 -30   40.80   96.19
  -7  -4 -30   90.19   58.49
   4 -11  30   69.29   97.39
 -11   7  30  -27.30   80.79
  -1   8 -30  128.49  122.79
   8  -7 -30   15.20   77.89
  -8   7  30  -49.99   62.09
   1  -8  30   89.39   74.89
   2   5 -30  259.47   77.19
   5  -7 -30  192.78   77.79
  -5   7  30  216.18   67.29
  -2  -5  30  139.09   68.19
   5   2 -30  268.57   76.79
   2  -7 -30   72.59   78.29
   7  -5  30   57.99   55.09
  -2   7  30  134.29   62.49
  -5  -2  30  191.58   71.39
   7  -5  30  100.09   54.49
  -1  -7 -30  164.38   85.29
   8  -1 -30  110.69   85.79
  -8   1  30   52.79   68.79
   7  -8  30  230.58   88.09
   1   7  30  198.18   88.79
   7  -8  30  -13.90   77.99
  -4  -7 -30   99.69   86.69
  -4  -7 -30   28.80   91.69
  11  -4 -30  135.49   86.09
   7 -11  30  115.89  104.59
 -11   4  30   72.49   80.99
   7 -11  30   70.29  104.39
  13  -8 -30 -312.27   96.09
  -8  -5 -30  -51.89   62.09
  -8  -5 -30  -52.09   63.49
   5 -13  30  168.08  112.29
  10  -8 -30  -89.69   83.49
  -2  10 -30  -71.39   86.49
   2 -10  30  -47.30   82.69
 -10   8  30  -54.39   67.79
   7  -8 -30  242.68   88.49
   1   7 -30  140.49   78.69
  -1  -7  30   56.99   70.69
  -7   8  30  136.19   70.19
   4   4 -30  944.21  126.79
   4  -8 -30  653.83  120.39
  -4  -4  30  641.44  116.19
  -4   8  30  875.21  117.69
   1  -8 -30  -15.20   79.39
   7   1 -30   72.19   76.99
  -7  -1  30  136.49   73.49
   8  -7  30  141.39   71.89
  -1   8  30  -31.60   66.29
   8  -7  30  158.48   67.49
  -2  -8 -30  236.68  102.89
  10  -2 -30  272.77   90.69
 -10   2  30  255.97   99.09
   8 -10  30  316.77   98.99
   8 -10  30  190.48  102.99
  13  -5 -30    9.90   92.09
  -5  -8 -30  208.78  107.29
  -5  -8 -30   44.30   92.69
   8 -13  30  248.08  124.99
   8 -13  30   75.99  121.89
  12  -9 -30  -70.99   95.99
   3 -12  30   -7.00   94.49
   0   9 -30  151.38   82.89
   9  -9 -30  163.28   94.59
  -9   9  30  180.08   81.69
   0  -9  30  380.46   98.89
   3   6 -30   -9.80   70.29
   6  -9 -30   56.69   83.39
  -6   9  30   94.49   63.09
  -3  -6  30   67.69   71.89
   6   3 -30  172.28   83.29
   3  -9 -30  -93.59   89.79
   9  -6  30  174.58   55.99
  -6  -3  30   70.89   75.89
  -3   9  30  -46.30   64.39
   9  -6  30   30.40   56.69
   9   0 -30  -43.90   79.49
   0  -9 -30   91.49  100.19
   9  -9  30   79.39   85.99
  -9   0  30  141.29  120.29
   9  -9  30   54.39   73.09
   0   9  30  -48.30   85.69
  -3  -9 -30   77.59   99.99
  -3  -9 -30  111.39  111.59
  12  -3 -30   82.89   92.99
 -12   3  30  130.79  102.39
   9 -12  30   77.09  117.59
   9 -12  30  246.28  103.49
  11 -10 -30  -45.30   92.19
  -1  11 -30   34.50   95.99
   2   8 -30  -81.69   66.99
   8 -10 -30    7.60   84.29
  -2  -8  30   25.90   69.99
  -8  10  30   72.99   65.59
   5   5 -30  108.09   84.59
   5 -10 -30  108.09   94.59
  -5  10  30  -13.60   79.09
  -5  -5  30  227.38  103.49
   2 -10 -30  130.19  102.59
   8   2 -30  365.66   99.29
  -8  -2  30  183.78   84.69
  -2  10  30  126.09   82.09
  10  -8  30  225.98   76.79
  10  -8  30  321.77   83.39
  -1 -10 -30  290.77  116.69
  11  -1 -30  185.88   96.99
  -1 -10 -30   23.60  106.79
  10 -11  30  135.29  106.99
 -11   1  30  133.49   95.69
  10 -11  30    5.10   83.39
   1  10 -30   27.20   87.39
  10 -11 -30   93.99   96.99
   4   7 -30  212.28   90.29
   7 -11 -30   76.49   89.79
  -7  11  30  -55.69   71.99
  -4  -7  30  103.69   83.29
   4 -11 -30  194.08  104.29
   7   4 -30    7.80   81.89
  11  -7  30  -41.80   57.29
  -7  -4  30 -124.79   78.29
  11  -7  30   94.09   52.89
  -4  11  30   44.20   75.29
  10   1 -30    7.40   85.69
   1 -11 -30   48.80  108.59
 -10  -1  30  -61.49   92.29
  -1  11  30  -18.30   92.39
  11 -10  30  -61.89   72.99
  11 -10  30  165.18   93.79
   3   9 -30   37.70   86.99
   9 -12 -30  -13.20   99.19
   6 -12 -30  102.09   97.29
   6   6 -30   62.59   96.79
   9   3 -30   26.70   90.09
   3 -12 -30  131.79  109.39
  12  -9  30  257.67   82.49
  -3  12  30   93.69  100.89
  12  -9  30  161.58   76.79
   8 -13 -30  -74.89  100.79
   5   8 -30   31.80   91.99
   5 -13 -30   35.40  101.39
   8   5 -30   46.60  105.89
   1  -1 -31   37.40   59.89
   0   1 -31    6.40   51.79
  -1   0 -31   26.60   52.59
  -1   1  31   -8.50   52.79
   1   0  31  -25.10   46.20
   0  -1  31    6.40   47.30
  -2  -1 -31  886.21  114.49
  -1   3 -31  902.71  112.59
   3  -2 -31  720.53  113.39
  -3   2  31  658.63  104.29
   1  -3  31  819.32  105.09
   2   1  31  723.53   93.79
   0  -2 -31   40.30   52.49
   2   0 -31   32.20   54.99
  -2   2 -31  -30.70   49.50
   2  -2  31   34.70   54.39
   0   2  31  -48.70   48.50
  -2   0  31   13.70   95.99
   5  -3 -31  862.91  119.69
  -2   5 -31  776.62  123.49
  -3  -2 -31  898.11  105.29
   2  -5  31  829.12  103.69
   3   2  31  577.64   82.19
  -5   3  31  468.35   89.39
  -3   1 -31  748.53  102.09
   2  -3 -31  790.12  111.39
   1   2 -31  793.52  110.19
   3  -1  31  720.53   95.09
  -2   3  31  732.53  119.99
  -1  -2  31  810.02  107.99
  -3   4 -31   43.60   59.69
   4  -1 -31   22.50   54.49
  -1  -3 -31    0.00   54.79
  -4   1  31  -20.20   49.20
   3  -4  31  -28.30   53.39
   1   3  31  -56.09   42.00
   7  -4 -31   50.39   69.89
  -4  -3 -31   79.09   55.59
  -3   7 -31  144.59   75.69
   3  -7  31   82.49   73.69
   4   3  31  252.47   65.39
  -7   4  31  106.39   63.99
  -4   0 -31   -0.80   40.90
   4  -4 -31  -72.29   57.49
   0   4 -31  -23.20   52.79
   4   0  31  -12.70   39.50
   0  -4  31   53.09   56.99
  -4   4  31   29.10   53.79
   1  -4 -31 -115.59   51.79
   3   1 -31   76.79   55.89
  -4   3 -31   80.09   68.79
  -1   4  31  -42.80   46.50
   4  -3  31   64.99   55.39
  -3  -1  31   -3.50   46.80
  -2  -4 -31  -21.90   58.09
  -4   6 -31  194.18   76.79
   6  -2 -31   52.29   65.09
   2   4  31   92.99   61.09
   4  -6  31   82.89   79.99
  -6   2  31   18.00   61.39
   9  -5 -31  202.78   86.09
  -4   9 -31   33.50   92.79
  -5  -4 -31  138.99   81.19
  -5  -4 -31   52.19   65.89
  -9   5  31   34.20   69.89
   4  -9  31   86.69   91.69
  -5  -1 -31  142.69   41.20
   6  -5 -31   16.60   63.09
  -1   6 -31  -32.80   62.09
  -6   5  31  122.09   63.79
   1  -6  31   38.80   62.59
   5   1  31   41.80   41.50
  -5   2 -31  796.52   97.39
   3  -5 -31  633.44  109.29
   2   3 -31  734.23  109.59
  -3   5  31  637.94  100.69
   5  -2  31  753.82   83.49
  -2  -3  31  663.23  104.99
  -5   5 -31    9.40   64.79
   0  -5 -31   -3.40   63.39
   5   0 -31   50.79   57.69
   5  -5  31    3.30   54.39
  -5   0  31   11.20   52.59
   0   5  31  -41.80   54.19
  -3  -5 -31  -18.20   65.79
  -5   8 -31   74.79   90.09
  -8   3  31   26.50   61.69
   5  -8  31  110.89   84.69
   3   5  31  111.89   74.09
  -6  -5 -31  -58.19   68.99
  11  -6 -31  216.28   99.49
  -6  -5 -31   49.00   65.49
 -11   6  31    6.40   83.09
   5 -11  31  188.58  106.69
   5 -11  31  297.07  109.69
  -6  -2 -31  107.99   45.00
  -2   8 -31   12.70   77.79
   8  -6 -31   41.00   81.99
  -6  -2 -31   -1.20   39.30
  -8   6  31    5.30   63.49
   2  -8  31  182.88   81.39
   5  -6 -31    9.80   64.49
   1   5 -31  157.38   63.39
  -1  -5  31  108.69   62.39
  -5   6  31  119.89   61.19
   2  -6 -31   30.30   68.89
   4   2 -31  184.08   67.59
  -6   4 -31   10.10   55.69
  -4  -2  31   41.00   58.19
   6  -4  31  -48.20   48.40
  -2   6  31   -2.80   47.10
   7  -1 -31  252.87   78.79
  -1  -6 -31  177.58   81.39
  -6   7 -31  253.07   87.49
   1   6  31  155.38   74.19
  -7   1  31  297.47   75.69
  -4  -6 -31  -45.30   69.59
  10  -4 -31 -105.59   73.49
  -4  -6 -31 -165.78   92.59
   6 -10  31  -48.00  120.09
   6 -10  31  -28.00   95.79
 -10   4  31  -69.09  100.89
  -7  -6 -31   22.70   70.09
  13  -7 -31   16.70  105.89
  -7  -6 -31    4.30   67.99
   6 -13  31   86.99  114.09
  -3  10 -31  206.08  107.79
  -7  -3 -31  223.28   45.40
  10  -7 -31  184.28   96.19
 -10   7  31  201.18   85.79
   3 -10  31  192.48  150.18
   7  -7 -31  -18.10  110.19
   0   7 -31  -20.40   79.59
  -7   7  31   12.30   59.69
   0  -7  31    3.20   62.29
   4  -7 -31  149.19   72.89
   3   4 -31   52.49   64.59
   7  -3  31   82.79   33.60
  -3  -4  31   61.59   59.49
  -4   7  31   25.60   55.09
   7  -3  31   81.39   47.30
   6   1 -31  191.08   77.69
   1  -7 -31  317.17   86.99
  -6  -1  31  198.38   68.79
   7  -6  31  158.08   67.29
  -1   7  31   89.79   68.49
   7  -6  31  338.57   74.69
  -2  -7 -31  -44.30   77.59
   9  -2 -31    6.10   75.29
   2   7  31  164.78   88.69
   7  -9  31  -87.49   87.89
   7  -9  31  250.17   89.19
  -9   2  31  -71.59   66.69
  -5  -7 -31  105.39   82.79
  12  -5 -31  -77.49   84.09
  -5  -7 -31   54.89   89.79
   7 -12  31   87.89  110.09
   7 -12  31   73.39  107.69
 -12   5  31  -39.50  101.79
  -8  -4 -31   -1.60   40.10
  12  -8 -31  -41.40   95.19
  -8  -4 -31   78.09   49.60
   4 -12  31    2.40  106.49
  -1   9 -31    0.20   75.29
   9  -8 -31  -77.69   77.89
   1  -9  31  -59.09  135.69
  -9   8  31   38.50   67.59
   6  -8 -31   12.00   87.29
   2   6 -31   90.39   70.19
  -2  -6  31   88.69   70.49
  -6   8  31   36.00   62.99
   5   3 -31  185.88  140.09
   3  -8 -31 -122.49   75.59
  -5  -3  31    3.30   68.49
  -3   8  31   29.50   58.19
   8  -5  31   76.99   50.69
   8  -5  31   44.20   48.60
   8   0 -31  107.29   73.99
   0  -8 -31 -125.29   81.89
   8  -8  31   64.09  119.99
   8  -8  31   98.59   76.79
  -8   0  31  -58.29   70.89
   0   8  31   42.40   75.79
  -3  -8 -31 -128.39   89.29
  -3  -8 -31   55.19  106.49
  11  -3 -31  -26.10   82.79
   8 -11  31   45.20  104.69
 -11   3  31   23.20   86.39
   8 -11  31  106.69  101.89
  11  -9 -31  129.09  102.09
  -2  11 -31  275.07  108.99
   1   8 -31   38.70   73.69
   8  -9 -31   29.30   83.39
  -1  -8  31  -60.39   69.99
  -8   9  31  -50.89   62.49
   4   5 -31   -1.00   73.19
   5  -9 -31   67.09   81.99
  -5   9  31  122.49   68.59
  -4  -5  31   57.59   71.19
   7   2 -31   26.10   73.69
   2  -9 -31  -50.39   87.39
  -2   9  31   -4.60   67.89
   9  -7  31   -3.90   62.59
   9  -7  31   17.10   63.79
  -7  -2  31  -71.89   70.19
  -1  -9 -31   26.20   99.09
  10  -1 -31  128.89   91.39
   9 -10  31  176.58   90.09
   9 -10  31   40.80   95.69
 -10   1  31   85.39   85.39
   1   9  31   75.29  104.69
  13  -4 -31  -94.89   86.59
  -4  -9 -31   14.90   97.49
  -4  -9 -31  114.99  109.89
   9 -13  31   47.40  107.39
   9 -13  31   79.99  122.19
   0  10 -31   61.39   83.99
  10 -10 -31   -7.40   88.39
   7 -10 -31   71.99   87.19
   3   7 -31  251.87   91.39
  -3  -7  31  216.78   82.19
  -7  10  31  117.99   72.99
   6   4 -31  -48.80   77.19
   4 -10 -31  -87.59   84.49
  -6  -4  31 -118.29   71.99
  10  -6  31  -17.30   44.00
  10  -6  31  -37.90   45.40
  -4  10  31  101.79   81.39
   9   1 -31  108.69   90.59
   1 -10 -31  -26.20   96.69
  -9  -1  31  243.28   92.59
  10  -9  31  131.59   94.39
  -1  10  31  101.89   92.39
  10  -9  31  115.69   74.19
  -2 -10 -31  113.49  128.09
  12  -2 -31  110.29   95.09
  -2 -10 -31  232.38  112.99
  10 -12  31  132.89   98.39
  10 -12  31  121.49  107.39
  12 -11 -31  -92.99  108.49
  -1  12 -31   68.29  102.39
   9 -11 -31   75.09   95.79
   2   9 -31  182.88   89.49
   5   6 -31  278.67   98.19
   6 -11 -31  -28.00   94.59
  -5  -6  31   31.90   84.59
  -6  11  31  -76.09   70.99
   3 -11 -31  -81.49   96.49
   8   3 -31  -21.40   82.09
  -3  11  31  154.58   92.29
  -8  -3  31   53.09   91.09
  11  -8  31   90.09   69.19
  11  -8  31   50.59   64.29
  11   0 -31   17.30   94.19
   0 -11 -31  -10.70  108.89
  11 -11  31  -12.10   94.79
  11 -11  31  -73.59   79.69
   1  11 -31  114.49  130.09
  11 -12 -31 -123.59  111.79
   8 -12 -31   -4.80   97.89
   4   8 -31  109.79   92.69
   5 -12 -31  101.69  103.69
   7   5 -31   16.60   86.89
  10   2 -31   62.79   97.99
   2 -12 -31   80.69  119.59
  -2  12  31   47.10  131.29
  12 -10  31  113.19   86.99
  12 -10  31   50.39   74.69
   7 -13 -31  -36.40  101.09
   6   7 -31   73.49  104.49
   4 -13 -31  -77.59  109.79
   9   4 -31   83.49   97.69
  13  -9  31  -80.79   78.09
  13  -9  31   31.70   62.99
   1   0 -32  295.97   68.69
  -1   1 -32  357.26   67.89
   0  -1 -32  173.48   68.99
  -1   0  32  293.37   68.89
   0   1  32  245.88   64.09
   1  -1  32  250.87   64.79
   2  -2 -32 1108.89  142.29
   0   2 -32 1304.17  140.19
  -2   0 -32 1322.37  145.99
   0  -2  32 1329.37  145.79
   2   0  32 1363.76  137.69
   3  -1 -32  -39.40   53.69
  -1  -2 -32   41.50   53.09
  -2   3 -32   18.50   54.39
   2  -3  32    7.90   53.09
   1   2  32  -43.40   42.40
  -3   1  32   35.70   52.99
  -1   4 -32  692.93  106.59
   4  -3 -32  584.44  101.09
  -3  -1 -32  685.83   92.59
   3   1  32  592.44   83.69
   1  -4  32  745.93  105.39
  -4   3  32  644.34   99.29
   2   1 -32    2.30   52.09
   1  -3 -32   17.80   55.19
  -3   2 -32   -7.60   50.29
  -1   3  32  -66.09   44.80
  -2  -1  32  -77.39   46.30
   3  -2  32   -8.70   50.39
  -3   5 -32  419.76   79.79
  -2  -3 -32  252.77   71.49
   5  -2 -32  373.86   85.49
   3  -5  32  281.07   89.29
   2   3  32  182.78   57.59
  -5   2  32  289.77   69.89
  -2   6 -32   70.49   69.79
  -4  -2 -32  256.37   56.99
   6  -4 -32  110.69   72.59
  -6   4  32  130.79   68.19
   2  -6  32  170.68   68.49
   4   2  32  125.89   57.49
   3  -4 -32  581.74  109.79
   1   3 -32  788.32  108.49
  -4   1 -32  742.63   94.39
  -3   4  32  540.95   91.79
  -1  -3  32  692.83  100.89
   4  -1  32  628.24   80.59
   0  -4 -32 1476.15  167.58
   4   0 -32 1673.13  170.18
  -4   4 -32 1831.82  176.48
  -4   0  32 1681.63  180.48
   4  -4  32 1954.00  180.68
   7  -3 -32   10.70   72.29
  -3  -4 -32   84.19   60.89
  -4   7 -32  -88.49   67.19
  -7   3  32  -58.89   56.79
   3   4  32   88.39   67.99
   4  -7  32   52.39   69.29
  -5  -3 -32  218.98   59.89
  -3   8 -32  156.08   84.59
   8  -5 -32  225.98   84.49
  -8   5  32  138.19   72.39
   3  -8  32  185.68   85.69
   5  -5 -32  542.35  102.59
   0   5 -32  709.73  112.29
  -5   0 -32  700.43   82.09
   5   0  32  515.65   68.89
   0  -5  32  767.42  104.09
  -5   5  32  338.87   84.39
  -5   3 -32  325.57   74.79
   3   2 -32  482.35   87.89
   2  -5 -32  403.16   85.99
  -3  -2  32  351.46   72.89
  -2   5  32  217.38   68.09
   5  -3  32  258.97   62.39
   6  -1 -32  170.48   68.79
  -5   6 -32  187.28   77.69
  -1  -5 -32  161.58   72.49
   5  -6  32   62.69   65.49
   1   5  32  113.89   63.19
  -6   1  32   16.30   56.69
  -5   9 -32  278.47  107.09
  -4  -5 -32  131.09   73.39
   9  -4 -32  282.07   92.09
   5  -9  32  217.68   96.69
  -9   4  32  261.47   83.59
  -4  10 -32  114.39   95.59
  10  -6 -32   67.99   88.49
  -6  -4 -32   18.00   54.89
  -6  -4 -32  126.79   63.79
 -10   6  32  172.38   83.99
   4 -10  32  110.19   99.99
  -1   7 -32  530.05  102.99
   7  -6 -32  450.95  127.29
  -7   6  32  308.07   85.49
   1  -7  32  409.66   92.79
  -6   2 -32  158.78   46.00
   2   4 -32  228.28   71.09
   4  -6 -32  178.68   75.19
   6  -2  32  222.48   44.40
  -4   6  32  114.79   60.89
  -2  -4  32  130.59   67.09
   5   1 -32    6.00   63.69
  -6   5 -32  157.98   71.89
   1  -6 -32   71.39   70.49
  -1   6  32   39.20   54.59
  -5  -1  32   72.29   56.59
   6  -5  32  -11.00   54.69
   8  -2 -32  157.58   81.49
  -2  -6 -32  250.47   83.89
   2   6  32   27.20   80.39
   6  -8  32  213.68   93.39
  -8   2  32  303.57   83.89
  11  -5 -32   33.30   88.09
  -5  -6 -32   44.10   76.89
  -5  -6 -32  118.59   85.09
 -11   5  32  -49.40   81.39
   6 -11  32  186.48  150.98
   6 -11  32   88.69  104.29
  -7  -5 -32 -133.29   58.99
  12  -7 -32 -107.59   96.79
  -7  -5 -32  -53.29   84.19
   5 -12  32  -95.19  104.89
   5 -12  32  -92.69  108.19
  -2   9 -32  -66.39   79.39
   9  -7 -32   97.59   83.69
  -9   7  32   21.00   90.09
   2  -9  32   10.90   85.89
   1   6 -32  573.64  101.79
   6  -7 -32  274.37   94.19
  -6   7  32  312.17   80.59
  -1  -6  32  419.86   85.59
   3  -7 -32   45.30   73.19
   4   3 -32   53.69   65.19
   7  -4  32  -13.20   46.70
   7  -4  32  -37.20   45.30
  -4  -3  32   10.40   61.89
  -3   7  32   30.90   51.59
   0  -7 -32   59.29   82.89
   7   0 -32   29.20   77.49
   7  -7  32   57.89   74.09
  -7   0  32   12.30   67.69
   0   7  32  -12.70   68.59
   7  -7  32  254.77   77.79
  10  -3 -32  -55.09   76.99
  -3  -7 -32  103.99   86.19
 -10   3  32   28.40   73.29
   7 -10  32   39.60   92.29
   7 -10  32   70.79  106.19
  13  -6 -32  -91.89   94.59
  -6  -7 -32  -59.39   82.99
  -6  -7 -32  -51.29   75.89
   7 -13  32   35.50  113.29
  -3  11 -32   51.19   98.09
  11  -8 -32  -14.20   96.69
   3 -11  32   99.79  105.09
 -11   8  32  -32.50   88.29
   0   8 -32  260.37   89.69
   8  -8 -32  188.08   92.29
  -8   8  32   64.49  118.59
   0  -8  32   85.09   80.19
   3   5 -32  193.08   78.49
   5  -8 -32  168.98  156.98
  -3  -5  32  322.47   88.29
  -5   8  32  202.78   72.39
   2  -8 -32  -34.80   84.39
   6   2 -32  167.58   83.89
  -6  -2  32  161.78   73.79
   8  -6  32  157.78   74.69
   8  -6  32  279.57   67.59
  -2   8  32  113.89   71.89
   9  -1 -32  284.27   92.19
  -1  -8 -32  201.48   98.39
   1   8  32  101.39   90.89
   8  -9  32  245.48   99.89
  -9   1  32  209.08  110.39
   8  -9  32  224.88   91.89
  -4  -8 -32  153.28   96.69
  -4  -8 -32  273.77  110.79
  12  -4 -32  128.49   98.29
   8 -12  32  103.89  114.79
   8 -12  32  155.08  108.99
  -1  10 -32   39.30   89.89
  10  -9 -32 -181.48   78.49
 -10   9  32   38.60   79.39
   1 -10  32   49.50   94.89
   7  -9 -32  -30.00   78.89
   2   7 -32   41.90   72.59
  -7   9  32  -89.69   86.89
  -2  -7  32   28.90   82.99
   5   4 -32  241.48   82.79
   4  -9 -32  316.47  103.59
   9  -5  32  110.29   45.40
   9  -5  32   67.99   42.70
  -5  -4  32  229.98   85.69
  -4   9  32   46.60   70.69
   8   1 -32  342.97   96.49
   1  -9 -32  334.07  111.69
  -1   9  32   11.00   82.19
   9  -8  32  242.38   87.89
  -8  -1  32  370.66  109.39
   9  -8  32  264.97   78.69
  -2  -9 -32  197.88  108.29
  -2  -9 -32  179.58  118.79
  11  -2 -32  368.96  102.69
 -11   2  32   81.79   95.09
   9 -11  32   -2.70  121.89
   9 -11  32   23.40  100.89
  12 -10 -32  -36.30  107.69
  -2  12 -32  161.38  106.19
   9 -10 -32   53.09   90.59
   1   9 -32   35.30   81.19
  -1  -9  32  -29.80   82.59
  -9  10  32  -70.49   61.79
   6 -10 -32   20.50   92.59
   4   6 -32  287.67   94.59
  -6  10  32   72.29   70.89
  -4  -6  32   83.09   81.79
   7   3 -32  -41.50   79.69
   3 -10 -32  -48.50   89.59
  10  -7  32  -37.10  101.89
  10  -7  32  116.39   62.69
  -7  -3  32  122.39   90.99
  -3  10  32   24.50   79.79
  10   0 -32   93.39   85.09
   0 -10 -32  283.57  114.59
   0  10  32   68.89  102.89
  10 -10  32  237.38   96.09
 -10   0  32  159.68   97.39
  10 -10  32  112.09   86.89
   0  11 -32  165.18  104.09
  11 -11 -32   15.00   96.19
   3   8 -32   -5.30   76.49
   8 -11 -32  101.39   94.79
   6   5 -32    4.00   80.69
   5 -11 -32  -95.19   91.69
  -5  11  32   63.29   81.09
  -6  -5  32   49.80   87.39
   2 -11 -32  235.78  107.79
   9   2 -32  165.18   97.39
  -2  11  32  -32.00   92.59
  -9  -2  32  275.07  120.79
  11  -9  32  139.39   79.39
  11  -9  32  158.48   74.09
  10 -12 -32   31.10  103.19
   2  10 -32  104.79   90.69
   5   7 -32  -38.30   81.39
   7 -12 -32 -151.08   91.99
   8   4 -32  143.39   99.59
   4 -12 -32  313.57  118.59
  12  -8  32  111.79   81.79
  12  -8  32  215.48   63.19
   7   6 -32    6.80   99.09
   6 -13 -32  145.09  107.79
   0   0 -33  -22.30   53.29
   0   0  33  -89.79   47.80
   2  -1 -33  269.07   79.79
  -1   2 -33  556.94   91.19
  -1  -1 -33  517.85   82.29
  -2   1  33  411.06   81.89
   1  -2  33  374.56   76.99
   1   1  33  457.75   79.49
   1  -2 -33  517.75   87.19
  -2   1 -33  359.96   74.59
   1   1 -33  522.95   90.99
  -1  -1  33  398.76   87.79
  -1   2  33  547.55   88.69
   2  -1  33  532.45   82.39
   4  -2 -33   69.79   65.19
  -2  -2 -33  -45.20   54.99
  -2   4 -33   10.00   60.19
   2  -4  33   16.80   69.19
   2   2  33   67.69   46.50
  -4   2  33   87.69   59.69
   3  -3 -33   -4.50   57.69
  -3   0 -33   32.90   46.50
   0   3 -33  -62.69   51.69
  -3   3  33   27.30   53.09
   0  -3  33  -97.99   50.49
   3   0  33 -108.69   44.10
   0  -3 -33   59.69   58.59
   3   0 -33  -20.80   57.39
  -3   3 -33   -4.00   56.19
   3  -3  33  -14.10   55.39
   0   3  33  -62.09   47.00
  -3   0  33  -71.99   53.49
  -3   6 -33  676.93  115.39
  -3  -3 -33  554.94   93.09
   6  -3 -33  596.94  109.49
  -6   3  33  362.96   84.09
   3  -6  33  575.94   97.59
   3   3  33  523.45   90.79
   5  -4 -33  184.28   76.89
  -1   5 -33  281.57   77.79
  -4  -1 -33  259.77   56.09
   4   1  33  131.69   49.20
   1  -5  33  173.08   68.59
  -5   4  33  213.08   69.99
  -4   2 -33  105.59   54.09
   2   2 -33  -74.89   55.19
   2  -4 -33   21.50   64.19
  -2  -2  33    0.00   53.29
   4  -2  33  -61.99   52.39
  -2   4  33   29.40   55.89
  -1  -4 -33  -27.70   59.99
   5  -1 -33   62.09   64.99
  -4   5 -33   57.99   67.99
   1   4  33   -1.00   49.20
   4  -5  33  -36.30   59.69
  -5   1  33  -68.69   49.40
   8  -4 -33   63.59   75.69
  -4  -4 -33  -12.70   58.69
  -4   8 -33  118.69   85.79
  -8   4  33   83.29   66.59
   4  -8  33   27.70   79.69
   4   4  33   19.40   65.09
  -2   7 -33  156.98   83.39
  -5  -2 -33  234.58   55.89
   7  -5 -33  201.78   85.89
  -7   5  33  237.48   73.79
   5   2  33   64.49   53.59
   2  -7  33  352.76   83.39
   4  -5 -33  235.68   77.49
  -5   1 -33  167.38   54.49
   1   4 -33  275.07   70.59
  -4   5  33   89.29   65.09
   5  -1  33  243.28   49.99
  -1  -4  33  328.67   75.49
  -5   4 -33   18.50   61.09
   4   1 -33  -97.69   56.29
   1  -5 -33  102.29   64.69
  -1   5  33  -43.90   48.90
   5  -4  33   51.29   55.39
  -4  -1  33  -38.90   50.59
  -5   7 -33  151.28   97.19
   7  -2 -33  180.88   80.69
  -2  -5 -33  252.07   75.89
   2   5  33  107.39   68.79
  -7   2  33  156.28   75.09
   5  -7  33  158.58   80.89
  10  -5 -33  157.28   92.79
  -5  10 -33   94.69   94.29
  -5  -5 -33  133.39   78.09
  -5  -5 -33   16.40   67.69
   5 -10  33  -14.20   93.89
 -10   5  33  -92.29   74.29
  -6  -3 -33   43.90   52.89
  -6  -3 -33   68.09   49.70
   9  -6 -33  139.49   82.69
  -3   9 -33   13.30   91.19
  -9   6  33  -46.10  107.79
   3  -9  33   12.50   90.99
   0   6 -33   35.90   72.39
   6  -6 -33  -42.80   69.59
   0  -6  33  -24.70   63.29
  -6   6  33  -32.50   59.39
  -6   3 -33  453.55   86.09
   3  -6 -33  485.55   95.49
   3   3 -33  691.73  104.59
  -3   6  33  385.06   83.59
   6  -3  33  586.84   79.19
  -3  -3  33  631.74  101.49
   0  -6 -33  144.99   72.19
   6   0 -33  -56.29   60.09
  -6   6 -33  -38.80   74.49
   0   6  33   31.90   62.69
   6  -6  33  -10.90   60.79
  -6   0  33  -11.30   59.09
   9  -3 -33    8.30   72.59
  -3  -6 -33   44.20   75.89
  -9   3  33  -28.00   88.29
   6  -9  33  138.29   95.29
   3   6  33  151.78  103.29
  -6  -6 -33  125.69   83.99
  -6  -6 -33   47.50   69.19
  12  -6 -33    2.40   97.59
   6 -12  33   50.09  111.89
   6 -12  33   11.30  114.69
  -7  -4 -33   12.70   46.40
  11  -7 -33 -146.49   87.99
  -7  -4 -33   45.70   53.69
  -4  11 -33   93.79  101.49
   4 -11  33  132.79  102.59
 -11   7  33  100.29   97.59
   8  -7 -33   27.80   81.09
  -1   8 -33   87.39   78.69
   1  -8  33   57.49   79.79
  -8   7  33  -58.69   66.49
   2   5 -33  158.58   76.19
   5  -7 -33  -25.50   74.79
  -5   7  33   47.50   61.39
  -2  -5  33  231.28   76.89
   2  -7 -33  181.28   85.79
   5   2 -33  283.47   91.19
   7  -5  33  127.49   80.69
   7  -5  33  135.89   65.49
  -2   7  33  165.58   68.69
  -5  -2  33   96.89   68.19
  -1  -7 -33   22.00   84.19
   8  -1 -33   63.79   68.79
   1   7  33   87.19   79.59
   7  -8  33  -42.10   79.59
   7  -8  33  -43.00   74.99
  -8   1  33   13.90   71.99
  11  -4 -33   -0.40   83.99
  -4  -7 -33  -63.19   92.79
  -4  -7 -33  -72.69   81.69
 -11   4  33   19.70   82.69
   7 -11  33  -70.69   98.19
   7 -11  33 -116.19   93.79
  10  -8 -33  -50.99   88.59
  -2  10 -33  216.38  104.49
   2 -10  33   15.00   93.49
 -10   8  33   72.09   74.59
   7  -8 -33  -69.19   80.59
   1   7 -33  104.29   78.79
  -7   8  33   84.59   69.79
  -1  -7  33  113.09   76.79
   4  -8 -33   42.80   79.29
   4   4 -33   64.19   73.39
   8  -4  33   15.00   41.50
  -4   8  33   20.80   54.59
  -4  -4  33   26.40   68.49
   8  -4  33  -27.50   36.80
   1  -8 -33   -6.00   88.09
   7   1 -33    3.10   70.79
  -7  -1  33  -81.79   64.79
   8  -7  33    9.30   69.59
   8  -7  33   36.90   67.29
  -1   8  33    3.30   69.69
  10  -2 -33   54.29   77.29
  -2  -8 -33  -55.29   89.09
   8 -10  33   27.50  101.19
   2   8  33 -239.98   91.59
 -10   2  33  -34.00   77.59
   8 -10  33  -85.69   83.79
  -3  12 -33  107.09  100.09
  12  -9 -33  185.88  111.89
   9  -9 -33  -28.00   85.39
   0   9 -33   -2.40   77.79
  -9   9  33   80.99   75.69
   0  -9  33   60.89   89.79
   3   6 -33   81.69   80.89
   6  -9 -33   58.39   82.79
  -3  -6  33  -36.60   96.99
  -6   9  33   73.29   77.99
   6   3 -33   -5.00   78.69
   3  -9 -33  -86.89   85.89
  -3   9  33   16.40   73.49
   9  -6  33  -20.90   52.09
   9  -6  33  143.89   55.69
   0  -9 -33  -93.79  105.99
   9   0 -33 -116.79   72.89
   0   9  33  130.49   88.09
  -9   0  33  -35.70   75.29
   9  -9  33   69.89   77.29
   9  -9  33   83.59   85.99
  -3  -9 -33   -5.40  101.59
  12  -3 -33  -13.20   92.29
  -3  -9 -33   14.80  120.09
   9 -12  33   82.39   98.59
  11 -10 -33    1.10  102.89
  -1  11 -33  166.38  106.09
   2   8 -33   86.39   85.99
   8 -10 -33  -52.89   88.59
  -2  -8  33   46.40   82.39
  -8  10  33   32.70   67.19
   5 -10 -33  118.59   92.99
   5   5 -33   25.50   78.79
  -5  10  33   45.40   73.19
  -5  -5  33   35.70   72.69
   8   2 -33 -107.19   80.99
   2 -10 -33   -4.80   96.99
  -2  10  33  -58.59   78.79
  10  -8  33   37.30   67.49
  -8  -2  33   62.89   79.99
  10  -8  33   85.59   74.89
  11  -1 -33  177.68   96.39
  -1 -10 -33   28.00  106.69
  10 -11  33  132.99   93.69
  10 -11  33  184.58  106.89
   1  10 -33   30.60   88.09
  10 -11 -33  -51.19   96.09
   4   7 -33  188.18   96.99
   7 -11 -33   43.10   95.89
  -7  11  33   42.80  101.99
   4 -11 -33  -19.00   98.29
   7   4 -33  -46.50   78.79
  11  -7  33  -65.49   48.80
  -4  11  33    1.10   75.39
  11  -7  33    6.30   46.40
  -7  -4  33  -50.99   88.59
  10   1 -33  290.17  109.39
   1 -11 -33  171.88  119.89
  -1  11  33  113.09  100.09
  11 -10  33  315.97   98.99
  11 -10  33   52.79   80.59
   9 -12 -33  137.79  101.59
   3   9 -33   91.79   88.39
   6 -12 -33  -28.00   93.79
   6   6 -33  -30.00   87.09
   9   3 -33   29.80   90.19
   3 -12 -33    7.80  109.69
  12  -9  33  -58.19   65.79
  12  -9  33  181.48   74.29
   0   1 -34  509.45   89.49
  -1   0 -34  299.07   72.79
   1  -1 -34  390.96   78.79
   1   0  34  278.27   68.99
   0  -1  34  349.17   75.49
  -1   1  34  404.26   84.69
  -1   3 -34  698.53  108.79
   3  -2 -34  607.84  101.99
  -2  -1 -34  643.04   97.39
  -3   2  34  574.44  102.19
   1  -3  34  683.23  133.29
   2   1  34  686.73   93.09
   2   0 -34   15.20   55.29
  -2   2 -34  -16.40   50.99
   0  -2 -34   24.50   56.99
   0   2  34   -8.00   50.19
  -2   0  34   14.80   54.19
   2  -2  34  -63.59   53.29
   5  -3 -34  141.69   73.19
  -2   5 -34  108.69   71.99
   3   2  34  116.59   55.79
   2  -5  34  127.99   73.29
  -5   3  34   93.69   66.59
  -3   1 -34  603.54   99.39
   2  -3 -34  556.54  103.39
   1   2 -34  623.34  103.79
  -1  -2  34  774.12  109.09
   3  -1  34  776.12   96.09
  -2   3  34  542.25  102.99
  -1  -3 -34 1014.80  127.09
  -3   4 -34 1044.50  134.39
   4  -1 -34 1033.50  129.69
  -4   1  34  753.52  113.99
   3  -4  34 1115.69  118.69
   1   3  34  763.22  106.69
  -3   7 -34   54.39   72.89
  -4  -3 -34  -21.40   72.39
   7  -4 -34  121.59  139.69
   4   3  34 -107.69   54.59
   3  -7  34   34.80   80.59
  -7   4  34  -26.90   61.79
   0   4 -34 2311.67  217.88
   4  -4 -34 2243.68  218.58
  -4   0 -34 2191.58  203.18
   4   0  34 2023.10  187.58
   0  -4  34 2301.67  206.88
  -4   4  34 1974.00  205.28
  -4   3 -34 1095.09  126.89
   1  -4 -34  873.11  130.29
   3   1 -34 1083.59  131.49
  -1   4  34  771.92  104.39
   4  -3  34  823.92  109.09
  -3  -1  34  668.33  111.09
   6  -2 -34  156.58   69.79
  -4   6 -34  125.69   77.79
  -2  -4 -34   88.99   65.09
   2   4  34  133.39   64.79
  -6   2  34   27.10   62.19
   4  -6  34  168.18   75.39
  -4   9 -34  152.78  167.88
  -5  -4 -34  419.66   96.09
  -5  -4 -34  314.37   82.59
   9  -5 -34  401.46  103.79
  -9   5  34   88.59  107.99
   4  -9  34  310.77  104.89
  -5  -1 -34  141.99   45.50
   6  -5 -34  147.39   74.99
  -1   6 -34   37.50   72.29
   5   1  34   30.60   46.80
   1  -6  34   80.49   69.79
  -6   5  34  141.29   65.49
   3  -5 -34  233.48   72.69
   2   3 -34  183.88   70.09
  -5   2 -34  113.49   60.49
   5  -2  34   84.19   49.50
  -2  -3  34  275.47   71.39
  -3   5  34  172.88   61.49
  -5   5 -34  193.08   75.99
   0  -5 -34  264.57   77.59
   5   0 -34   79.39   67.09
   5  -5  34  113.39   66.19
   0   5  34   42.00   52.79
  -5   0  34   96.39   67.49
  -3  -5 -34  322.47   84.09
  -5   8 -34  243.08  104.29
   8  -3 -34  322.67  103.59
   3   5  34  151.38   77.69
  -8   3  34  220.38   79.99
   5  -8  34  226.58   91.99
  -6  -5 -34   95.89   65.49
  -6  -5 -34  174.78   75.29
  11  -6 -34   54.59   91.79
 -11   6  34  195.38  101.49
   5 -11  34  131.09  110.39
   5 -11  34  122.09  111.29
  -6  -2 -34   49.40   42.80
   8  -6 -34  -47.20   74.99
  -2   8 -34  169.28   95.09
  -6  -2 -34   31.80   40.50
  -8   6  34  -17.90   66.99
   2  -8  34   74.59   88.69
   1   5 -34   88.89   68.99
   5  -6 -34   60.09   72.29
   6  -1  34   81.99   42.50
  -1  -5  34   52.39   67.79
  -5   6  34   57.39   59.59
   2  -6 -34  214.28   78.79
   4   2 -34   48.90   68.29
  -6   4 -34  111.99   65.79
  -4  -2  34  137.29   67.99
  -2   6  34  105.79   60.39
   6  -4  34   23.50   60.39
  -1  -6 -34  127.29   78.29
   7  -1 -34  -21.30   66.79
  -6   7 -34  -87.99   77.19
  -7   1  34   10.20   64.09
   1   6  34  107.19   78.79
   6  -7  34  107.99   81.09
  -4  -6 -34   -7.10  156.98
  10  -4 -34  -54.89   82.09
  -4  -6 -34   -6.10   74.99
   6 -10  34   56.89  103.19
 -10   4  34 -121.99   70.99
   6 -10  34  -87.99  101.99
  -3  10 -34  -63.99   97.59
  10  -7 -34  106.79   91.69
   3 -10  34  127.89  100.29
 -10   7  34  130.59   88.29
   0   7 -34  264.27   90.59
   7  -7 -34  136.19   86.09
  -7   7  34   67.69   69.19
   0  -7  34   31.90   69.69
   3   4 -34  130.49  102.79
   4  -7 -34  -83.19   67.49
   7  -3  34   -3.90   35.70
  -3  -4  34   74.29   69.99
  -4   7  34  -59.49   54.29
   6   1 -34   86.09   74.79
   1  -7 -34   95.69   79.89
   7  -6  34   55.99   63.99
  -1   7  34  -49.10   66.19
   7  -6  34   78.59   66.79
  -6  -1  34   49.90   63.29
   9  -2 -34  202.18   86.89
  -2  -7 -34   79.79   91.89
   7  -9  34  283.67   98.09
   2   7  34  286.47   96.99
   7  -9  34   92.09   96.79
  -9   2  34  265.07   94.09
  12  -5 -34   -8.20   84.49
  -5  -7 -34   -0.10   85.89
  -5  -7 -34   63.49   84.99
   7 -12  34   94.99  115.19
   7 -12  34   94.29  121.39
  12  -8 -34   78.59  104.09
   4 -12  34  147.49  109.59
   9  -8 -34  -19.20   90.29
  -1   9 -34  -20.30   84.79
   1  -9  34   69.79   89.69
  -9   8  34    3.50   72.59
   2   6 -34  179.98   78.39
   6  -8 -34  114.59   83.09
  -2  -6  34  171.28   75.79
  -6   8  34  -57.09   58.89
   3  -8 -34  323.37   98.29
   5   3 -34  274.77   91.89
  -5  -3  34  379.16   93.39
   8  -5  34  289.57   67.19
   8  -5  34  211.28   63.29
  -3   8  34  343.17   80.49
   8   0 -34  639.94  119.39
   0  -8 -34  762.52  134.59
  -8   0  34  754.92  134.39
   8  -8  34  771.92  123.09
   0   8  34  421.06  112.39
   8  -8  34  525.55  113.39
  11  -3 -34   21.90   93.89
  -3  -8 -34  197.28  120.19
  -3  -8 -34  209.08   99.79
   8 -11  34  289.77  125.89
   8 -11  34  418.96  111.39
  -2  11 -34   42.10   97.39
  11  -9 -34  -78.19   94.19
   8  -9 -34  122.89   95.09
   1   8 -34  116.29   83.59
  -8   9  34  164.08   80.19
  -1  -8  34  270.07   90.49
   4   5 -34  269.07   89.19
   5  -9 -34  387.96  103.49
  -5   9  34  128.99   71.69
  -4  -5  34  204.48   89.49
   2  -9 -34  165.58  101.89
   7   2 -34  191.68   91.39
  -7  -2  34   37.70   72.99
   9  -7  34  238.78   75.19
  -2   9  34   99.69   78.39
   9  -7  34  139.39   69.29
  -1  -9 -34  218.98  125.09
  10  -1 -34   27.40   86.19
   1   9  34  -92.19   93.09
 -10   1  34  -60.99   81.19
   9 -10  34  -47.60   91.29
   9 -10  34   44.80   90.79
  10 -10 -34    5.60   97.29
   0  10 -34  110.89   91.29
   3   7 -34  -20.10   80.29
   7 -10 -34   35.50   93.89
  -7  10  34  -36.40   66.59
  -3  -7  34  103.19   83.49
   4 -10 -34   84.89   97.59
   6   4 -34   -0.40   77.19
  10  -6  34   25.00   46.10
  -4  10  34  -64.89   65.39
  10  -6  34   -0.10   45.70
  -6  -4  34  -44.70   77.39
   1 -10 -34   35.30  105.49
   9   1 -34  -59.29   83.69
  -1  10  34  136.09  103.99
  -9  -1  34  -26.30   89.29
  10  -9  34   57.69   74.59
  10  -9  34   45.00   86.29
  -2 -10 -34  194.58  160.18
  -2 -10 -34    4.70  103.99
  12  -2 -34   24.50   92.49
  10 -12  34  103.79  115.69
  10 -12  34  245.98  106.69
   9 -11 -34  -49.70   93.09
   2   9 -34   11.40   84.49
   6 -11 -34  171.18   98.69
   5   6 -34  205.28   95.19
  -6  11  34   23.70   79.79
   3 -11 -34   38.30  114.29
   8   3 -34  365.26  103.29
  11  -8  34   85.79   68.59
  -3  11  34   64.39   78.19
  11  -8  34  290.47   72.89
   0 -11 -34  -34.30  110.79
  11   0 -34  123.19  101.09
  11 -11  34  172.88  101.59
  11 -11  34   24.80   83.89
   0  11  34  -73.69  115.59
   4   8 -34  127.39   96.69
   8 -12 -34   52.99   99.79
   5 -12 -34 -100.19  101.89
   7   5 -34   49.70   96.59
   2 -12 -34  -52.09  113.59
  10   2 -34  169.48  102.49
  12 -10  34   59.59   88.09
  12 -10  34   -3.60   76.09
  -1   1 -35   50.09   53.89
   1   0 -35   96.69   58.99
   0  -1 -35  -86.99   54.79
   0   1  35  -18.90   49.70
  -1   0  35  -45.90   51.89
   1  -1  35   20.80   61.09
   2  -2 -35  -57.99   59.89
   0   2 -35   71.69   61.99
  -2   0 -35  -75.59   52.39
  -2   2  35  -18.10   54.99
   2   0  35 -120.79   50.69
   0  -2  35  -39.70   55.69
   3  -1 -35  226.28   67.79
  -2   3 -35  185.08   71.69
  -1  -2 -35  275.37   71.69
  -3   1  35  131.79   65.79
   1   2  35   60.39   59.29
   2  -3  35  223.38   72.59
  -1   4 -35  126.09   71.09
   4  -3 -35  162.58   76.49
   3   1  35  113.19   53.39
  -4   3  35   71.89   64.09
   1  -4  35  160.88   66.79
   2   1 -35  232.28   70.69
  -3   2 -35  214.38   67.69
   1  -3 -35  310.57   78.29
  -1   3  35  154.78   66.49
  -2  -1  35  202.98   70.09
   3  -2  35  240.88   64.79
   5  -2 -35  293.37   82.29
  -2  -3 -35  319.67   76.59
  -3   5 -35  343.07   88.69
   3  -5  35  326.57   83.19
   2   3  35  279.97   67.79
  -5   2  35  304.57   78.39
  -4  -2 -35    6.90   56.19
   6  -4 -35  122.59   76.19
  -2   6 -35  108.39   79.39
  -6   4  35  165.98   73.99
   2  -6  35  -11.90   67.19
   4   2  35   12.40   54.09
   1   3 -35   -5.20   63.19
  -4   1 -35  219.08   63.19
   3  -4 -35  -12.70   66.09
   4  -1  35   31.00   55.09
  -3   4  35  124.79   61.59
  -1  -3  35   59.99   67.59
   0  -4 -35   35.90   64.19
  -4   4 -35 -140.59   65.59
   4   0 -35  113.79   64.49
  -4   0  35  104.69   63.69
   4  -4  35  -17.90   58.19
   7  -3 -35  100.29   83.19
  -3  -4 -35   94.39   65.19
  -4   7 -35   -3.50   77.59
   4  -7  35   39.40   77.69
  -7   3  35   48.70   65.29
   3   4  35   39.70   68.09
  -3   8 -35  109.89   89.89
  -5  -3 -35  -49.00   52.49
   8  -5 -35  -13.30   75.69
   3  -8  35  125.09   86.39
  -8   5  35  -66.89   64.89
   0   5 -35   39.00   70.89
  -5   0 -35   26.30   47.80
   5  -5 -35  -93.19   64.69
   0  -5  35 -113.59   62.69
   5   0  35   45.70   42.40
  -5   5  35    0.60   58.19
   2  -5 -35  245.88   81.89
   3   2 -35  313.17   79.39
  -5   3 -35  454.65   85.19
  -2   5  35  192.98   69.99
  -3  -2  35  410.86   82.19
   5  -3  35  341.17   66.49
   6  -1 -35  -26.80   64.19
  -5   6 -35  116.79   80.09
  -1  -5 -35  121.09   74.19
   1   5  35   67.99   65.39
  -6   1  35  -35.30   61.19
   5  -6  35   16.60   76.99
  -5   9 -35   -2.80   95.79
   9  -4 -35  -30.80   76.49
  -4  -5 -35   -3.50   69.39
  -9   4  35   24.70   73.79
   4   5  35   50.19   77.99
   5  -9  35 -132.79   86.09
  -4  10 -35  -17.40  100.79
  -6  -4 -35  147.09   64.49
  10  -6 -35  -10.50   84.49
  -6  -4 -35  -83.29   52.69
 -10   6  35   10.90   75.09
   4 -10  35  192.58  134.49
   7  -6 -35  238.18   93.69
  -1   7 -35  540.55  159.48
  -7   6  35  114.29   73.19
   1  -7  35  254.07   84.49
  -6   2 -35   78.89   47.50
   4  -6 -35   46.40   72.79
   2   4 -35   45.70   68.29
  -4   6  35   59.49   62.29
  -2  -4  35   38.00   64.49
   6  -2  35   76.99   43.90
   1  -6 -35  121.59   77.19
  -6   5 -35   52.79   75.79
   5   1 -35  -10.30   71.39
  -5  -1  35   38.50   61.99
  -1   6  35  125.39   59.39
   6  -5  35  116.19   68.79
  -2  -6 -35   52.09   78.59
  -6   8 -35  -52.19   89.59
   8  -2 -35  -27.60   72.39
  -8   2  35   38.00   67.99
   6  -8  35 -155.48   84.59
   2   6  35   61.69   74.79
  11  -5 -35   -0.60   86.79
  -5  -6 -35   55.49   75.09
  -5  -6 -35  162.48   96.69
   6 -11  35    8.10  106.99
   6 -11  35  -58.19  101.59
  12  -7 -35   34.50   96.39
  -7  -5 -35  117.09   76.09
  -7  -5 -35   58.69   63.39
   5 -12  35  157.58  123.89
   9  -7 -35   48.50   83.59
  -2   9 -35  -74.79   83.29
  -9   7  35   35.50   73.89
   2  -9  35  -55.39  118.59
   1   6 -35  379.16   98.39
   6  -7 -35  332.07   96.89
  -1  -6  35  275.87   86.79
  -6   7  35  215.38   77.19
   3  -7 -35   46.90   80.79
   4   3 -35  -11.00   72.69
  -4  -3  35  -11.80   68.99
  -3   7  35  -17.30   56.89
   7  -4  35    6.10   51.19
   0  -7 -35   59.09   81.59
   7   0 -35  -17.40   73.39
  -7   0  35  -88.79   67.09
   7  -7  35  153.28   77.69
   0   7  35   78.79   70.79
   7  -7  35  166.28   95.89
  -3  -7 -35   60.39   87.09
  10  -3 -35  -12.70   83.29
   7 -10  35   88.09  131.89
 -10   3  35   62.79   82.49
   7 -10  35   22.80  100.39
  11  -8 -35   53.69   96.79
  -3  11 -35   60.59  104.49
   0   8 -35  -39.70   69.29
   8  -8 -35  -41.80   82.19
   0  -8  35   26.50   83.59
  -8   8  35   -0.30   66.49
   3   5 -35  -39.10   72.19
   5  -8 -35  -30.90   75.99
  -5   8  35   20.70   64.59
  -3  -5  35  -67.99   62.89
   6   2 -35   10.50   74.69
   2  -8 -35  -80.79   80.49
   8  -6  35  -19.50   62.09
   8  -6  35  -64.99   58.19
  -6  -2  35  -16.40   73.49
  -2   8  35  -74.69   70.19
   9  -1 -35   38.60   77.89
  -1  -8 -35  -28.80   94.49
  -9   1  35   52.99   81.59
   8  -9  35   43.00   93.99
   8  -9  35  -27.70   83.69
   1   8  35   -5.90   87.59
  -4  -8 -35   91.29   93.89
  12  -4 -35   58.19   95.79
  -4  -8 -35  -11.50  104.99
   8 -12  35  -57.89  104.89
   8 -12  35  202.68  122.99
  10  -9 -35   40.30   96.89
  -1  10 -35  191.18   98.19
   7  -9 -35  -32.30   86.39
   2   7 -35   42.60   81.29
  -7   9  35   -5.20   64.19
  -2  -7  35   99.19   82.59
   4  -9 -35  -49.40   83.39
   5   4 -35  -22.00   75.89
  -5  -4  35   -9.00   77.69
  -4   9  35   -1.30   66.69
   9  -5  35    6.10   39.70
   9  -5  35 -103.49   39.20
   8   1 -35  -41.70   81.89
   1  -9 -35   50.59  105.29
  -8  -1  35  -32.00   72.59
  -1   9  35  -31.40   74.39
   9  -8  35   72.49   71.99
   9  -8  35   23.90   84.69
  -2  -9 -35  120.29  143.29
  -2  -9 -35  115.69  114.69
  11  -2 -35   96.89   88.29
   9 -11  35  137.89  112.39
   9 -11  35  160.98  108.29
   1   9 -35   88.09   85.79
   9 -10 -35   79.39   94.99
   4   6 -35  122.19   84.59
   6 -10 -35   91.49   96.19
  -4  -6  35  -37.60   74.19
  -6  10  35   20.20   71.09
   7   3 -35  109.79   91.09
   3 -10 -35   35.40   95.49
  -3  10  35   15.40   84.29
  -7  -3  35   -0.70   77.49
  10  -7  35  -13.90   60.09
  10  -7  35  -50.49  120.79
  10   0 -35   20.80   91.29
   0 -10 -35  -66.59  108.29
  10 -10  35   83.69   93.49
  10 -10  35   70.39   87.99
   0  10  35   45.40  127.09
  11 -11 -35 -282.47  150.08
   0  11 -35  124.59  116.89
   8 -11 -35   39.40   99.59
   3   8 -35  110.29   92.49
   6   5 -35  113.99   91.69
   5 -11 -35  115.99  101.99
  -5  11  35  -10.70   80.39
   9   2 -35  129.29   93.29
   2 -11 -35  222.18  118.99
  11  -9  35  216.48   77.29
  -2  11  35  188.18  106.29
  11  -9  35  150.68   88.99
   7 -12 -35  -52.09   95.39
   5   7 -35  -35.00   90.19
   8   4 -35  237.68  104.09
   4 -12 -35  -55.69  108.99
  12  -8  35   71.49   51.99
  12  -8  35   56.49   64.69
   0   0 -36 1719.93  176.18
   0   0  36 1617.24  170.58
  -1  -1 -36  -12.10   57.89
  -1   2 -36  -12.80   56.99
   2  -1 -36   41.50   61.29
   1  -2  36  -46.40   60.69
   1   1  36   18.20   50.69
  -2   1  36   34.00   59.79
  -2   1 -36   40.50   60.49
   1   1 -36  -47.50   56.29
   1  -2 -36  -36.60   62.59
   2  -1  36  -57.09   55.89
  -1   2  36  -17.50   55.99
  -1  -1  36 -120.59   50.09
  -2  -2 -36   45.70   60.89
  -2   4 -36   34.70   65.49
   4  -2 -36   67.59   70.39
   2   2  36   89.19   51.59
   2  -4  36  117.29   67.49
  -4   2  36  200.38   70.59
   3  -3 -36  842.82  132.89
  -3   0 -36 1100.09  120.49
   0   3 -36 1095.99  134.69
  -3   3  36  848.32  127.59
   3   0  36 1053.69  115.89
   0  -3  36 1045.40  131.99
  -3   3 -36 1356.06  149.99
   0  -3 -36 1456.85  151.78
   3   0 -36 1160.28  148.99
   3  -3  36 1523.25  154.08
   0   3  36 1336.67  159.88
  -3   0  36 1193.18  153.68
   6  -3 -36   96.49   72.39
  -3   6 -36  185.18   78.49
  -3  -3 -36  -20.80   64.99
   3   3  36  -43.40   52.99
   3  -6  36   29.60   73.49
  -6   3  36   52.09   65.09
  -4  -1 -36  539.25   87.49
  -1   5 -36  518.55   95.39
   5  -4 -36  427.86   96.59
   1  -5  36  441.16   90.29
   4   1  36  408.56   69.49
  -5   4  36  413.66   88.99
   2   2 -36  106.99   68.09
  -4   2 -36  142.69   68.99
   2  -4 -36  101.69   69.09
  -2  -2  36  126.39   67.29
  -2   4  36   -6.80   60.29
   4  -2  36  108.49   63.09
  -4   5 -36  -11.80   77.09
  -1  -4 -36  -44.00   68.59
   5  -1 -36  141.99   70.39
   1   4  36  209.88   61.49
   4  -5  36  103.09  129.89
  -5   1  36   95.29   66.69
  -4   8 -36  702.23  129.19
  -4  -4 -36  596.24  105.19
   8  -4 -36  703.73  124.29
  -8   4  36  731.13  131.19
   4  -8  36  711.93  127.19
   4   4  36  669.63  122.19
  -2   7 -36   32.90   79.29
  -5  -2 -36   50.09   52.89
   7  -5 -36   77.99   73.29
   2  -7  36  -23.20   78.39
  -7   5  36  -45.80   61.69
   5   2  36  -21.50   51.79
  -5   1 -36  533.75   85.39
   4  -5 -36  390.16   91.99
   1   4 -36  553.64   99.39
  -4   5  36  546.25   93.49
   5  -1  36  384.66   73.79
  -1  -4  36  523.15   96.49
   1  -5 -36   92.39   73.69
  -5   4 -36  229.68   77.79
   4   1 -36  169.38   76.39
  -1   5  36  -34.30   52.09
  -4  -1  36  131.19   67.59
   5  -4  36  150.98   71.29
  -2  -5 -36  143.29   76.79
  -5   7 -36  170.88   91.19
   7  -2 -36   54.59   71.69
   5  -7  36  142.09   86.39
  -7   2  36   56.49   67.79
   2   5  36  211.78  121.79
  -5  -5 -36  109.49   76.99
  -5  -5 -36   -3.50   64.49
  10  -5 -36  -67.89   80.49
  -5  10 -36  -54.19   93.69
 -10   5  36  -48.90   78.69
   5 -10  36   32.70  103.69
   9  -6 -36  -87.09   79.39
  -6  -3 -36  110.79   52.89
  -3   9 -36  172.78  103.59
  -6  -3 -36   43.20   53.59
   3  -9  36 -116.79   88.99
  -9   6  36  111.09   76.69
   6  -6 -36   19.60   81.79
   0   6 -36  166.18   86.09
   6   0  36   92.69   52.19
  -6   6  36  197.68   75.99
   0  -6  36  127.29   79.99
   3   3 -36   57.99   66.89
  -6   3 -36   96.29   59.79
   3  -6 -36    9.60   71.99
  -3  -3  36  -24.80   62.19
   6  -3  36   41.50   50.09
  -3   6  36  -20.00   55.39
   0  -6 -36  150.08   83.19
   6   0 -36  161.18   73.09
  -6   6 -36  166.98   88.59
   0   6  36   22.50   62.69
  -6   0  36  111.69   70.59
   6  -6  36  -21.90   68.09
  -3  -6 -36   40.10   81.49
   9  -3 -36  258.97   88.99
  -9   3  36   -7.40   72.09
   6  -9  36   45.00   97.59
   3   6  36  179.08   85.29
  -6  -6 -36   66.29   76.29
  12  -6 -36   26.90   93.79
  -6  -6 -36   54.69   69.89
   6 -12  36  -43.50  123.99
   6 -12  36  -66.79  115.89
  -7  -4 -36   36.90   49.80
  -7  -4 -36  123.69   53.29
  -4  11 -36  177.68  106.69
  11  -7 -36   27.40   89.89
   4 -11  36  326.37  121.59
  -1   8 -36  173.98   86.59
   8  -7 -36  100.49   87.19
  -8   7  36   45.90   72.49
   1  -8  36  -59.29   87.59
   2   5 -36  -12.80   71.89
   5  -7 -36  -34.80  104.09
  -2  -5  36  129.99   74.49
  -5   7  36   67.29   65.09
   2  -7 -36   -7.80   77.19
   5   2 -36   34.30   74.99
  -5  -2  36  -34.90   67.69
  -2   7  36   55.09   70.19
   7  -5  36  -83.39   59.39
   8  -1 -36  100.99   82.29
  -1  -7 -36  389.36   99.39
  -8   1  36  222.88   87.09
   7  -8  36  177.58   96.99
   1   7  36  276.47   88.49
   7  -8  36  423.86  102.19
  11  -4 -36   82.99   86.69
  -4  -7 -36   97.79   86.09
  -4  -7 -36  100.19  101.59
   7 -11  36   80.39  106.39
   7 -11  36   -2.30  165.78
  10  -8 -36   92.69   93.79
  -2  10 -36   66.09  100.39
   2 -10  36  163.18  107.19
   7  -8 -36  -17.00   89.99
   1   7 -36  177.88   85.39
  -1  -7  36   63.49   88.39
  -7   8  36   41.40   73.29
   4   4 -36  756.62  126.39
   4  -8 -36  736.63  127.99
  -4   8  36  365.86   85.99
   8  -4  36  426.26   68.39
   8  -4  36  432.66   64.29
  -4  -4  36  867.21  132.69
   1  -8 -36  415.46  112.69
   7   1 -36  518.55  109.39
  -7  -1  36  277.47   85.99
   8  -7  36  423.76   87.79
  -1   8  36   90.29   87.39
   8  -7  36  119.89   75.69
  -2  -8 -36  185.68  100.99
  10  -2 -36  198.78   91.99
   2   8  36    2.10   94.99
   8 -10  36   73.99   98.09
   8 -10  36   86.39  100.09
 -10   2  36   62.99   95.99
  -3  12 -36  355.86  120.39
  12  -9 -36  -77.09  106.79
   0   9 -36  283.27   93.39
   9  -9 -36  280.97  103.49
   0  -9  36  171.38  106.79
  -9   9  36  156.98  132.29
   3   6 -36  103.09   79.09
   6  -9 -36   56.39   92.69
  -3  -6  36  144.39   86.79
  -6   9  36   41.30   69.89
   6   3 -36   37.60   79.49
   3  -9 -36   33.00   90.69
  -6  -3  36  -51.99   76.79
   9  -6  36    3.10   53.59
   9  -6  36   87.39   59.29
  -3   9  36  -42.10   75.39
   0  -9 -36   93.49  121.79
   9   0 -36  129.69   92.59
   9  -9  36   68.79   90.19
   0   9  36  141.49  105.39
   9  -9  36   14.50   88.19
  -9   0  36  112.49   86.49
  -3  -9 -36  -22.40  128.89
  12  -3 -36  181.88   98.19
  -3  -9 -36  127.89  118.29
   9 -12  36   94.39  110.89
   9 -12  36  236.18  127.29
  -1  11 -36  314.57  124.39
  11 -10 -36   -6.00  101.59
   8 -10 -36   98.69   94.09
   2   8 -36   23.00   86.09
   5 -10 -36 -127.19   92.59
   5   5 -36   51.89   84.19
  -5  10  36   14.60   72.89
  -5  -5  36 -101.99   76.79
   8   2 -36  220.08   92.09
   2 -10 -36   35.50   99.59
  -2  10  36  -60.79   80.19
  -8  -2  36   16.50  112.59
  10  -8  36   -2.80   67.39
  10  -8  36  130.19   76.29
  11  -1 -36  126.89   93.49
  -1 -10 -36  -49.90  103.09
  10 -11  36   20.10   98.09
  10 -11  36  -28.90  108.79
   1  10  36  -69.19  204.48
   1  10 -36   20.20   83.99
  10 -11 -36   69.09   99.19
   7 -11 -36  119.59  100.09
   4   7 -36  112.49   95.49
   7   4 -36    2.00   89.89
   4 -11 -36   69.39  101.89
  11  -7  36   49.90   49.99
  11  -7  36  -21.20   50.19
  -4  11  36  221.08   90.09
   1 -11 -36  -30.30  107.79
  10   1 -36  -11.30   88.39
  -1  11  36  -41.20  101.79
  11 -10  36   71.99   89.09
  11 -10  36 -141.89   73.99
   9 -12 -36  122.09  150.08
   3   9 -36  179.78  155.18
   6   6 -36   84.29   94.59
   6 -12 -36  -79.69   99.49
   3 -12 -36  135.19  126.59
   9   3 -36   79.49   98.49
  12  -9  36  222.78   73.79
  12  -9  36   90.89   69.99
   0   1 -37    9.90   59.89
   1  -1 -37  -15.80   57.39
  -1   0 -37   16.50   57.09
  -1   1  37   -7.20   56.39
   0  -1  37   27.80   59.49
   1   0  37   19.10   59.89
   3  -2 -37  498.75   98.39
  -2  -1 -37  506.35   86.69
  -1   3 -37  648.54  106.89
   2   1  37  497.25   84.79
  -3   2  37  550.84   96.19
   1  -3  37  641.64  109.59
   2   0 -37  -69.29   57.89
   0  -2 -37  -22.70   62.09
  -2   2 -37  -63.19   59.99
  -2   0  37  -33.10   59.29
   0   2  37  -22.10   66.49
   2  -2  37    2.30   57.19
  -3  -2 -37  361.76   84.69
   5  -3 -37  476.15   97.39
  -2   5 -37  675.23  105.89
   2  -5  37  502.75   95.49
  -5   3  37  421.96   85.19
   3   2  37  261.77   64.39
  -3   1 -37  496.45   89.49
   1   2 -37  578.54  104.69
   2  -3 -37  519.75   96.29
   3  -1  37  415.16   82.69
  -1  -2  37  603.14  101.29
  -2   3  37  656.43  106.19
   4  -1 -37   -5.60   68.99
  -3   4 -37 -111.09   64.79
  -1  -3 -37  156.68   64.89
  -4   1  37  -27.80   56.69
   1   3  37  -29.80   51.79
   7  -4 -37  -76.29   70.39
  -3   7 -37 -145.59   71.59
  -4  -3 -37  -87.49   63.79
   3  -7  37   26.30   77.79
   4   3  37 -101.79   58.19
  -7   4  37  -80.89   64.79
  -4   0 -37  -27.10   55.79
   0   4 -37   12.90   59.79
   4  -4 -37   67.69   69.09
   4   0  37  -65.99   44.50
  -4   4  37  -10.60   61.29
   0  -4  37  -71.39   60.29
  -4   3 -37   12.40   63.99
   3   1 -37   32.20   66.99
   1  -4 -37   43.00   70.69
  -3  -1  37  -56.29   57.09
   4  -3  37  152.88   63.29
  -1   4  37  -11.10   50.39
  -4   6 -37   30.00   78.89
  -2  -4 -37 -107.09   66.39
  -6   2  37  117.29   72.49
   4  -6  37   66.09   74.29
   2   4  37    1.70   59.09
  -4   9 -37  134.09  105.59
  -5  -4 -37   -4.60   74.79
   9  -5 -37  -80.09   79.49
   4  -9  37   64.79   96.69
  -9   5  37   29.10   73.39
   6  -5 -37  116.49   99.59
  -1   6 -37   61.69   81.29
  -5  -1 -37  138.99   53.39
   1  -6  37   25.60   79.19
   5   1  37  123.49   52.89
  -6   5  37  103.59   67.49
   2   3 -37  619.04   96.99
  -5   2 -37  300.07   75.99
   3  -5 -37  381.46   93.19
  -2  -3  37  389.16   89.79
   5  -2  37  492.85   75.09
  -3   5  37  356.86   83.39
   0  -5 -37   72.29   73.69
  -5   5 -37  -24.30   71.19
   5   0 -37   40.20   68.99
   5  -5  37   58.79   72.69
  -5   0  37   -5.70   70.79
   0   5  37  -35.00   53.69
  -5   8 -37  -20.00   95.99
   8  -3 -37   18.70   72.09
  -3  -5 -37  116.69   75.19
   5  -8  37   39.90   89.49
  -8   3  37   49.40  110.49
   3   5  37  -33.90   74.49
  -6  -5 -37   99.89   71.09
  -6  -5 -37  -55.59   69.59
  11  -6 -37   66.99   94.19
   5 -11  37   68.29  109.99
  -2   8 -37   57.69   82.19
   8  -6 -37  -96.79   75.19
  -6  -2 -37   25.20   46.60
   2  -8  37  116.59   85.19
  -8   6  37   87.19   78.89
   1   5 -37  221.58   96.59
   5  -6 -37  180.48  101.79
  -6   1 -37  128.39   52.29
  -5   6  37   80.89   71.79
  -1  -5  37  191.98   81.59
   6  -1  37  113.99   45.10
  -6   4 -37  115.09   91.89
   2  -6 -37  -83.59   75.59
   6  -4  37   58.39   62.99
  -4  -2  37   24.20   64.49
  -2   6  37   69.79   63.69
  -6   7 -37  420.06  110.09
  -1  -6 -37  206.68   86.59
   7  -1 -37   30.60   72.89
   6  -7  37   43.10   80.69
   1   6  37   75.69   75.89
  -7   1  37   30.40   73.39
  -4  -6 -37   30.60   77.09
  10  -4 -37   14.80   78.89
   6 -10  37   53.89  103.69
 -10   4  37  116.59   87.69
  10  -7 -37   82.39   87.19
  -3  10 -37  183.58  112.19
   3 -10  37   66.39   97.89
   0   7 -37  -85.49   76.89
   7  -7 -37  -21.70   84.59
   0  -7  37  -55.89   72.59
  -7   7  37   41.70  112.19
   3   4 -37  110.49   77.69
   4  -7 -37  -62.89   94.89
   7  -3  37    3.60   41.00
  -3  -4  37 -106.59   72.39
  -4   7  37   19.40   63.09
   1  -7 -37  154.28   87.99
   6   1 -37  105.09   82.19
   7  -6  37   43.40   72.79
  -1   7  37   91.59   72.69
  -6  -1  37   34.50   69.39
   9  -2 -37  183.78   86.79
  -2  -7 -37  188.28   95.29
  -9   2  37   51.79   83.39
   7  -9  37   59.89   98.09
   2   7  37  240.98   94.59
   7  -9  37  161.98  101.59
  12  -5 -37 -110.79   89.99
  -5  -7 -37   65.99   90.59
  -5  -7 -37 -117.29   76.49
   7 -12  37  151.48  128.09
   7 -12  37   40.50  118.69
  12  -8 -37 -178.58   91.19
   9  -8 -37  191.88  100.09
  -1   9 -37  174.28   90.99
   1  -9  37  249.78  105.39
  -9   8  37  163.38   86.39
   2   6 -37   18.40   80.19
   6  -8 -37   41.80   87.89
  -6   8  37  -53.19  138.59
  -2  -6  37  101.09   86.99
   3  -8 -37 -111.49   90.99
   5   3 -37  107.49   79.49
   8  -5  37  -40.20   54.19
   8  -5  37   78.89   53.99
  -3   8  37   -5.70   69.29
  -5  -3  37  -42.90  112.59
   8   0 -37   -1.20   82.39
   0  -8 -37   72.19   93.29
   0   8  37   -7.50   81.19
   8  -8  37  -90.39   75.59
   8  -8  37   29.10   77.89
  -8   0  37  118.59   80.39
  -3  -8 -37  165.88  110.79
  -3  -8 -37   43.10   94.39
  11  -3 -37 -111.49   84.59
   8 -11  37   23.80   98.29
   8 -11  37   -1.00  112.79
  -2  11 -37  144.79  106.59
  11  -9 -37  126.59  101.29
   8  -9 -37   66.59   91.59
   1   8 -37  158.78   89.89
  -1  -8  37  183.88   90.29
  -8   9  37   50.69   74.99
   5  -9 -37  -39.30   91.29
   4   5 -37   -0.90   79.99
  -5   9  37   42.70   72.49
  -4  -5  37  106.89   82.19
   2  -9 -37  186.08  101.69
   7   2 -37  106.39   81.69
   9  -7  37   11.50   67.69
  -2   9  37  157.28   87.39
   9  -7  37   98.39   64.49
  -7  -2  37  -12.50   75.69
  -1  -9 -37 -223.68  108.09
  10  -1 -37   50.79   88.49
   9 -10  37  113.19   96.39
   9 -10  37   14.70   95.59
   1   9  37   -2.50   96.29
  10 -10 -37 -109.99   90.19
   0  10 -37   79.59   86.69
   3   7 -37   29.50   87.79
   7 -10 -37   50.99   95.09
  -7  10  37   33.30   77.29
   4 -10 -37  -82.89   93.69
   6   4 -37  -31.20   81.59
  -4  10  37  -23.70   78.79
  10  -6  37  -43.70   40.80
  -6  -4  37   20.40   90.09
  10  -6  37  -13.10   40.80
   9   1 -37    4.30   88.59
   1 -10 -37  137.89  112.19
  10  -9  37   45.00   77.89
  10  -9  37  -85.99   78.19
  -1  10  37  -47.10   94.49
   2   9 -37  216.98  103.49
   9 -11 -37   68.49  101.29
   5   6 -37  183.18  101.89
   6 -11 -37   39.60  103.69
   8   3 -37    1.80   92.09
   3 -11 -37   92.39  114.19
  11  -8  37  -79.09   59.19
  11  -8  37   15.50   61.09
  -3  11  37  -60.69   82.79
   4   8 -37  -16.60  115.89
   8 -12 -37  -82.49   96.99
   7   5 -37   75.49   92.19
   5 -12 -37 -110.49   99.99
   1   0 -38  594.24  105.39
  -1   1 -38  768.82  109.79
   0  -1 -38  555.84  102.59
  -1   0  38  530.15   93.59
   1  -1  38  703.33  125.19
   0   1  38  553.04  110.89
   2  -2 -38   52.99   69.29
   0   2 -38 -103.39   65.49
  -2   0 -38   12.40   54.99
  -2   2  38  -32.60   56.99
   0  -2  38  -12.90   61.49
   2   0  38  -40.30   54.89
  -1  -2 -38  137.79   69.89
   3  -1 -38   54.89   66.59
  -2   3 -38   49.40   66.69
  -3   1  38  -42.40   60.79
   2  -3  38  195.88   78.59
   1   2  38   17.90   56.49
   4  -3 -38  377.06   95.69
  -3  -1 -38  422.66   81.29
  -1   4 -38  572.14   97.29
   3   1  38  327.77   68.99
   1  -4  38  393.66   90.29
  -4   3  38  318.57   84.09
   2   1 -38   30.30   68.19
  -3   2 -38  -47.50   63.59
   1  -3 -38  -32.70   66.99
  -1   3  38   36.60   57.49
   3  -2  38  155.38   67.59
  -2  -1  38  -63.99   58.69
  -3   5 -38   18.60   80.59
   5  -2 -38 -132.79   63.39
  -2  -3 -38   46.10   68.09
   3  -5  38  127.69   77.59
  -5   2  38  -40.60   62.99
   2   3  38   15.30   55.79
  -2   6 -38  -20.70   76.39
   6  -4 -38  -26.70   81.69
   4   2  38   11.60   60.69
  -6   4  38   48.30   75.19
   2  -6  38  -11.20   78.89
  -4   1 -38  500.75  109.69
   1   3 -38  471.45   92.59
   3  -4 -38  357.36   90.79
   4  -1  38  430.06   74.19
  -3   4  38  314.37   83.89
  -1  -3  38  330.17   86.69
   4   0 -38  917.41  138.09
  -4   4 -38 1403.16  151.68
   0  -4 -38  955.20  138.59
   4  -4  38  938.91  128.89
  -4   0  38  846.62  125.19
   0   4  38  757.72  111.69
  -3  -4 -38  179.28   77.99
   7  -3 -38  115.59   80.29
  -4   7 -38  107.89   88.39
   4  -7  38  156.78   85.39
  -7   3  38   41.60   71.99
   3   4  38   61.49   73.29
  -3   8 -38  216.68   95.29
   8  -5 -38  111.19   89.19
  -5  -3 -38  201.88   70.29
   3  -8  38  126.89   93.39
   5   3  38  105.89   67.79
  -8   5  38  130.59   77.09
  -5   0 -38  284.47   69.39
   5  -5 -38  553.34  105.09
   0   5 -38  391.56   91.59
   0  -5  38  249.58   86.39
   5   0  38  183.98   57.19
  -5   5  38  372.16   87.19
   2  -5 -38 -116.19   67.79
  -5   3 -38   37.90   74.59
   3   2 -38    2.30   68.29
   5  -3  38   89.99   59.89
  -2   5  38   17.70   67.59
  -3  -2  38   -3.10   60.19
   6  -1 -38    8.80   71.89
  -1  -5 -38  -38.70   71.89
  -5   6 -38  -81.29   79.59
   5  -6  38   84.59   83.29
   1   5  38   93.59   64.39
  -6   1  38   71.59   74.59
   9  -4 -38  278.77   99.19
  -5   9 -38  369.06  167.78
  -4  -5 -38  323.17   84.69
   4   5  38   50.39   85.59
  -9   4  38  190.28   82.59
   5  -9  38  509.05  117.89
  10  -6 -38   67.09   92.19
  -6  -4 -38   72.19   64.29
  -6  -4 -38  116.49   65.49
  -4  10 -38  283.67  117.99
   4 -10  38   87.39  108.09
  -6  -1 -38   39.50   45.50
   7  -6 -38   19.40   77.69
  -1   7 -38   97.39   84.39
  -7   6  38  -14.40   99.19
   1  -7  38  -60.19   78.19
  -6   2 -38   72.69   58.19
   4  -6 -38  128.29   81.09
  -4   6  38   84.39   68.49
   6  -2  38   41.30   50.39
  -2  -4  38   81.89   73.49
  -6   5 -38  -55.59   78.99
   1  -6 -38  -65.79   76.19
   5   1 -38  174.98   79.89
   6  -5  38   48.10   71.79
  -5  -1  38  -17.60   65.29
  -1   6  38   32.60   59.89
  -6   8 -38  234.18  110.59
  -2  -6 -38  243.48   88.79
   8  -2 -38   59.99   77.19
  -8   2  38   79.69   81.89
   2   6  38   57.39   80.39
   6  -8  38    1.40   90.39
  11  -5 -38   31.50   89.69
  -5  -6 -38  197.78   78.69
  -5  -6 -38   57.79  144.49
   6 -11  38  -10.20  116.59
   6 -11  38   74.49  115.39
  -7  -5 -38  -62.29   65.89
  12  -7 -38  -76.09   96.79
  -7  -5 -38   90.69   59.89
   5 -12  38  -23.60  119.29
   9  -7 -38   29.50   85.19
  -2   9 -38   -9.30   83.09
  -9   7  38    7.90   75.49
   2  -9  38   68.59  100.19
   1   6 -38   17.90   77.49
   6  -7 -38  -30.60   79.29
  -6   7  38   40.40   69.59
  -1  -6  38   -8.60   82.09
   4   3 -38  141.99   80.09
   3  -7 -38  143.89   92.99
  -4  -3  38  162.28   78.79
  -3   7  38   80.39   66.19
   7  -4  38   82.69   58.29
   0  -7 -38  134.89   98.09
   7   0 -38  124.19   84.49
  -7   0  38  186.48   83.29
   7  -7  38   51.69   80.09
   0   7  38   -9.40   77.89
  -3  -7 -38   72.29   86.09
  10  -3 -38  -31.80   80.89
   3   7  38  -67.79   93.99
   7 -10  38   45.40  100.29
   7 -10  38 -102.19  101.29
  -3  11 -38   84.69  107.29
  11  -8 -38 -163.68   89.09
   0   8 -38  270.67   95.89
   8  -8 -38  235.68  102.59
  -8   8  38  156.68   85.19
   0  -8  38  297.47   95.39
   5  -8 -38  139.99   92.69
   3   5 -38  277.67   88.19
  -3  -5  38  194.48   86.99
  -5   8  38    3.20   72.89
   2  -8 -38  -28.10  152.78
   6   2 -38  171.58   90.09
  -2   8  38  -13.30   71.09
  -6  -2  38  110.89   74.59
   8  -6  38   46.00   66.19
   8  -6  38   85.59   67.19
  -1  -8 -38  201.58  104.89
   9  -1 -38  182.38   91.39
   8  -9  38  142.89  103.79
   1   8  38  101.29  101.29
   8  -9  38  277.37   99.99
  -9   1  38   97.69   91.29
  10  -9 -38  178.58  104.99
  -1  10 -38  106.59   93.49
   2   7 -38   30.70   81.59
   7  -9 -38 -104.29   87.09
  -7   9  38  127.29   78.49
  -2  -7  38   10.10   84.99
   5   4 -38  380.66  102.69
   4  -9 -38  400.16  114.59
   9  -5  38  199.58   48.40
   9  -5  38  155.18   50.59
  -5  -4  38  306.87  103.69
  -4   9  38  150.28  100.89
   8   1 -38  290.77  106.59
   1  -9 -38  340.97  117.69
  -8  -1  38  273.97  114.19
   9  -8  38  212.68   83.79
  -1   9  38   42.30   86.79
  11  -2 -38  156.68   92.69
  -2  -9 -38   48.80  117.99
   9 -11  38   13.40   95.29
   9 -11  38  -18.70  104.79
   9 -10 -38 -126.99   93.39
   1   9 -38   89.69   88.29
   6 -10 -38   35.50   99.39
   4   6 -38  107.89   89.59
  -6  10  38   70.39   74.09
   7   3 -38  112.29   90.89
   3 -10 -38  -88.19   97.79
  10  -7  38    1.90   57.69
  -3  10  38   25.10   80.49
  10   0 -38  119.39   93.29
   0 -10 -38  121.49  117.39
  10 -10  38  105.99   97.69
  10 -10  38  -60.29   81.79
   0  10  38  -67.09  102.49
   3   8 -38   57.49   93.59
   8 -11 -38  -47.30  101.29
   6   5 -38  237.88   94.19
   5 -11 -38  -56.79  101.69
   2 -11 -38  443.26  131.29
   9   2 -38  -24.90   90.89
  11  -9  38  -25.30   70.69
  11  -9  38   95.59   92.89
  -2  11  38   -9.80   96.09
   5   7 -38 -133.89  112.79
   7 -12 -38  128.79  109.99
   0   0 -39  -35.30   57.29
   0   0  39   35.00   64.99
  -1   2 -39  392.36   87.59
  -1  -1 -39  515.35   89.99
   2  -1 -39  601.54  103.89
   1   1  39  533.55   90.29
   1  -2  39  598.24  106.39
  -2   1  39  452.25   94.19
   1   1 -39  589.14  106.79
  -2   1 -39  469.05   89.09
   1  -2 -39  540.95  102.19
  -1   2  39  470.25   89.69
   2  -1  39  374.66   85.49
  -1  -1  39  513.35   93.59
  -2   4 -39   96.69   68.89
   4  -2 -39   16.80   66.69
  -2  -2 -39   47.10   71.79
   2   2  39   32.30   52.89
   2  -4  39  -13.50   73.69
  -4   2  39    8.80   67.19
  -3   0 -39  -58.69   55.29
   3  -3 -39   38.30   69.69
   0   3 -39   36.50   68.59
   0  -3  39  -50.69   69.39
  -3   3  39   49.60   63.69
   3   0  39  -85.19   55.39
   0  -3 -39  -36.90   66.09
  -3   3 -39  -88.19   63.79
   3   0 -39  117.29   66.89
  -3   0  39    4.80   66.59
   3  -3  39   24.40   67.89
   0   3  39  -72.79   58.69
  -3  -3 -39  180.38   75.79
   6  -3 -39  299.07   94.59
  -3   6 -39  376.16  102.19
   3  -6  39   17.10   84.09
  -6   3  39  149.49   72.79
   3   3  39  171.28   67.79
  -1   5 -39  -19.60   71.99
   5  -4 -39   61.09   76.59
   1  -5  39   25.60   74.69
   4   1  39  -54.29   49.40
  -5   4  39   28.40   71.39
   2   2 -39   52.39   69.09
   2  -4 -39  163.38   76.69
  -4   2 -39   25.80   67.29
  -2   4  39   59.09   68.79
   4  -2  39   76.69   59.69
  -2  -2  39    5.00   62.99
  -1  -4 -39  111.29   79.79
  -4   5 -39  189.88   87.99
   1   4  39  -16.80   61.39
  -5   1  39   75.29   71.29
   4  -5  39   22.60   72.59
  -4   8 -39  -31.40   93.59
   8  -4 -39  -48.00   75.99
  -4  -4 -39    5.60   69.59
   4  -8  39  -86.79   84.89
   4   4  39   27.50   75.59
  -8   4  39   72.99   70.19
  -2   7 -39  509.85  182.78
  -5  -2 -39  173.38   59.99
   7  -5 -39  153.58   86.29
   2  -7  39  175.98   88.99
   5   2  39   67.69   63.29
  -7   5  39  138.39  112.39
   1   4 -39 -185.88   65.89
  -5   1 -39  -20.10   58.89
   4  -5 -39   48.00   76.79
  -4   5  39   33.10   70.89
  -1  -4  39   18.50   75.09
   5  -1  39  -67.29   51.69
   1  -5 -39  220.08   84.29
  -5   4 -39   12.20   76.49
   4   1 -39  176.08  129.09
  -1   5  39   88.99   65.09
   5  -4  39  133.09   77.79
  -4  -1  39  138.19   71.79
  -2  -5 -39   99.19   81.49
  -5   7 -39   45.00   91.49
   7  -2 -39  111.39   84.39
   2   5  39  101.29   77.39
  -7   2  39  -26.80  128.79
   5  -7  39  -32.10   84.79
  -5  10 -39  225.38  119.19
  -5  -5 -39   52.29   79.69
  10  -5 -39 -147.19   83.09
  -5  -5 -39   28.00   68.69
   5 -10  39    4.10  114.29
  -6  -3 -39  357.36   72.89
   9  -6 -39  340.37  104.49
  -3   9 -39  420.86  116.39
  -6  -3 -39  458.45   71.39
   3  -9  39  426.66  115.69
  -9   6  39  251.57   91.69
   6  -6 -39 -160.08   75.59
  -6   0 -39   60.29   48.80
   0   6 -39  158.48   87.29
   0  -6  39  -91.49   72.09
   6   0  39  -35.50   42.50
  -6   6  39 -100.19   69.49
   3  -6 -39  295.17   98.49
   3   3 -39  353.56   92.89
  -6   3 -39  298.77   78.89
  -3  -3  39  334.07   88.79
   6  -3  39  187.38   65.19
  -3   6  39   98.39   73.09
   6   0 -39  -47.00   69.59
  -6   6 -39  155.48   92.39
   0  -6 -39   -6.60   80.19
   6  -6  39   48.10  125.09
   0   6  39   25.70   70.49
  -6   0  39  -23.60   71.99
  -6   9 -39   78.59  109.59
  -3  -6 -39   52.49   82.79
   9  -3 -39   39.80   82.69
  -9   3  39  -80.19   66.59
   6  -9  39  274.37  109.69
   3   6  39  -26.20   88.39
  -7  -4 -39  -37.10   48.20
  -7  -4 -39   52.29   47.90
  11  -7 -39 -178.58   89.49
  -4  11 -39   93.59  111.69
   8  -7 -39   30.30   88.29
  -1   8 -39   -4.20   81.29
  -8   7  39  -19.00   71.09
   1  -8  39   34.40   86.29
   2   5 -39  150.98   79.59
   5  -7 -39  155.98   87.89
  -5   7  39  122.69   76.39
  -2  -5  39  184.48   86.99
   2  -7 -39  -65.29   81.69
   5   2 -39   56.49   83.59
  -5  -2  39  129.99  130.59
   7  -5  39  -26.60   67.79
  -2   7  39  -44.70   54.59
   8  -1 -39   17.70   79.09
  -1  -7 -39  -22.40   89.29
   1   7  39  113.19   86.39
  -8   1  39  -45.90   70.59
   7  -8  39  -81.89   87.29
  -4  -7 -39   21.60   98.49
  11  -4 -39 -142.69   83.59
  -4  -7 -39   36.40   81.59
   7 -11  39  -15.50  104.79
   7 -11  39   -4.70  110.29
  10  -8 -39   29.70   92.29
  -2  10 -39   54.89   96.89
   7  -8 -39  136.79   96.79
   1   7 -39  -18.60   86.79
  -1  -7  39  -59.89   87.09
  -7   8  39   27.20   73.59
   4  -8 -39  -25.30   85.09
   4   4 -39   37.60   79.09
  -4  -4  39   20.50   81.89
   8  -4  39   44.90   43.50
   8  -4  39  -34.90   41.20
  -4   8  39    7.60   64.49
   7   1 -39 -101.99   71.99
   1  -8 -39 -125.09  145.79
  -7  -1  39  -26.90   66.79
   8  -7  39   80.89   77.49
   8  -7  39  -77.69   72.49
  -1   8  39  -95.29   68.89
  10  -2 -39    7.30   80.89
  -2  -8 -39 -211.38   86.89
   8 -10  39  -25.30  126.49
   2   8  39  -54.79   96.89
   8 -10  39  -70.49  103.09
   0   9 -39   40.50   84.19
   9  -9 -39  -65.39   89.29
   6  -9 -39  379.16  113.09
   3   6 -39  365.16  109.89
  -3  -6  39  172.88   91.59
  -6   9  39  100.19   71.79
   3  -9 -39   97.89  100.59
   6   3 -39  119.99   94.69
  -3   9  39  139.19  153.68
  -6  -3  39  113.29   84.79
   9  -6  39   43.20   63.39
   9  -6  39 -109.29   67.29
   9   0 -39  -55.39   79.89
   0  -9 -39  -13.90  101.09
   0   9  39   63.39   96.99
   9  -9  39  -66.69   83.39
   9  -9  39   51.99   90.29
   8 -10 -39  -42.50   92.99
   2   8 -39  116.19   87.89
   5   5 -39  175.38   88.79
   5 -10 -39  137.49  106.39
  -5  10  39   30.30   77.59
   8   2 -39  282.77  100.39
   2 -10 -39  -46.90  103.39
  10  -8  39    3.00   68.49
  10  -8  39   73.09   71.49
  -2  10  39  206.28   93.19
   7 -11 -39    4.80  102.59
   4   7 -39  145.29  101.59
   7   4 -39   41.70   90.49
   4 -11 -39  133.19  112.39
  11  -7  39 -144.09   41.80
   1  -1 -40  606.04  109.39
   0   1 -40  689.13  108.39
  -1   0 -40  584.04  105.19
   1   0  40  404.66  138.59
  -1   1  40  631.64  105.19
   0  -1  40  693.93  118.19
  -1   3 -40 -103.89   67.09
  -2  -1 -40    7.00   60.99
   3  -2 -40  -22.90   68.39
   2   1  40   69.59   60.99
  -3   2  40 -103.19   59.29
   1  -3  40   72.89   71.99
  -2   2 -40  265.47   79.19
   2   0 -40  186.18   74.89
   0  -2 -40  334.67   88.19
   0   2  40   69.49   69.49
   2  -2  40   97.19  123.89
  -2   0  40  174.58   73.59
  -3  -2 -40   72.09   66.79
  -2   5 -40   15.20   76.39
  -5   3  40  -71.29   61.19
   3   2  40  -21.60   54.49
   2  -5  40   56.89   77.39
  -3   1 -40  -85.59   61.29
   1   2 -40   15.90   66.79
   2  -3 -40   21.20   70.19
  -1  -2  40    4.00   66.39
  -2   3  40  -37.40   63.09
   3  -1  40   30.00   62.89
   4  -1 -40  280.57   83.89
  -3   4 -40  160.68   81.39
  -1  -3 -40  167.88   79.19
   3  -4  40  193.88   83.99
  -4   1  40  134.19   75.89
   1   3  40   28.40   74.09
  -4  -3 -40  253.87   79.99
   7  -4 -40  265.87   96.79
  -3   7 -40  450.95  107.49
   3  -7  40  183.18   90.49
   4   3  40   64.69   69.19
  -7   4  40  138.19  123.29
   0   4 -40 1430.76  156.98
   4  -4 -40  849.02  149.09
  -4   0 -40 1215.88  143.99
  -4   4  40  837.52  135.49
   0  -4  40 1036.20  142.29
   3   1 -40   39.20   71.89
  -4   3 -40  128.49   75.49
   1  -4 -40  203.38   82.19
  -3  -1  40   83.79   71.99
   4  -3  40   44.70   71.99
  -1   4  40   83.49   64.09
  -4   6 -40   10.60   85.29
  -2  -4 -40  -32.60   74.49
   6  -2 -40  -17.90   73.99
  -6   2  40  -29.20   69.39
   4  -6  40   70.59   89.69
   9  -5 -40  245.88   96.99
  -4   9 -40  355.36  119.59
  -5  -4 -40  155.88   70.29
   4  -9  40  215.08  111.99
  -9   5  40  129.59   86.99
  -5  -1 -40   65.39   53.79
   6  -5 -40  -49.00   78.19
  -1   6 -40  -29.10  162.28
  -6   5  40    5.30   66.99
   5   1  40   -6.00   52.59
   1  -6  40  -53.99   81.39
   2   3 -40   66.09   75.59
  -5   2 -40  191.28  119.19
   3  -5 -40 -110.29   74.09
   5  -2  40  -73.19   56.39
  -3   5  40   77.19   67.39
  -2  -3  40  -73.29   67.69
   5   0 -40   74.79   73.09
   0  -5 -40  122.39   84.79
  -5   5 -40   16.10   86.89
  -5   0  40   59.09   73.99
   5  -5  40  -46.60  146.69
   0   5  40  138.69   69.39
  -3  -5 -40  575.94  106.69
   8  -3 -40  636.14  114.79
  -5   8 -40  629.24  136.09
   5  -8  40  686.63  120.89
  -8   3  40  290.47   87.79
   3   5  40  185.58  132.89
  -6  -5 -40  -20.30   71.89
  -6  -5 -40   76.49   70.99
  -5  11 -40  -81.49  102.49
  11  -6 -40 -174.68   86.19
   5 -11  40  -15.80  112.59
   8  -6 -40  -11.50   85.09
  -2   8 -40 -118.99   82.09
  -6  -2 -40   12.10   46.70
   2  -8  40 -168.08  165.48
  -8   6  40    6.80   77.79
  -6   1 -40   34.20   56.69
   5  -6 -40    9.80   79.89
   1   5 -40 -105.59   70.49
  -1  -5  40   19.20   77.59
  -5   6  40   -4.60   67.89
   6  -1  40  -38.00   43.80
   2  -6 -40   57.79   81.69
  -6   4 -40   35.00   73.19
   4   2 -40  -90.59   72.59
  -4  -2  40   -6.10   72.79
   6  -4  40  -27.40   68.49
  -2   6  40  -27.00   59.69
   7  -1 -40   18.40   76.59
  -1  -6 -40 -118.19   83.29
  -6   7 -40   58.29  101.89
  -7   1  40   -3.90   77.29
   6  -7  40  -85.19   85.19
   1   6  40   91.39   80.29
  10  -4 -40  138.79   89.99
  -4  -6 -40  127.79   79.89
   6 -10  40  -37.40  112.99
  -3  10 -40   45.20  102.39
  10  -7 -40  -39.70   90.79
   3 -10  40  149.09  114.19
   7  -7 -40  -49.99   85.59
   0   7 -40   40.80   81.49
   0  -7  40  -35.70   87.49
  -7   7  40  -10.30   71.29
   3   4 -40  134.09   87.19
   4  -7 -40  144.89   93.59
  -3  -4  40  197.78  146.09
   7  -3  40  181.58   53.19
  -4   7  40  125.49   76.19
  -7   6 -40  -60.99   80.39
   6   1 -40    2.40   80.69
   1  -7 -40  146.79   89.59
  -1   7  40  -78.39   66.79
   7  -6  40  -42.50   71.19
  -6  -1  40 -102.09   63.19
  -2  -7 -40  -24.90   87.89
   9  -2 -40   99.59   83.69
   7  -9  40  119.09  104.09
  -9   2  40 -118.59  121.59
   2   7  40  -11.40   91.99
   7  -9  40   29.60   99.79
   9  -8 -40  160.18  102.59
  -1   9 -40  156.18   97.69
   1  -9  40   88.79  112.99
   6  -8 -40   13.60   91.89
   2   6 -40  -39.30   79.69
  -2  -6  40    3.30   79.29
  -6   8  40   44.20   74.79
   5   3 -40  467.75  106.79
   3  -8 -40  533.15  120.79
  -3   8  40  202.08   86.59
   8  -5  40  442.56   77.59
  -5  -3  40  606.94  112.79
   8  -5  40  433.86   82.29
   0  -8 -40  461.75  143.69
   8   0 -40  515.75  118.49
   0   8  40  240.48  101.59
  -8   0  40  610.14  122.79
   8  -8  40  388.16  104.89
   8  -8  40  419.36  100.29
  11  -3 -40  -44.60   84.79
  -3  -8 -40   14.60   95.79
   8 -11  40  136.69  204.38
   8 -11  40   79.89  110.29
   1   8 -40   67.89   86.69
   8  -9 -40  103.59   96.89
   5  -9 -40  216.98  105.29
   4   5 -40  285.37   98.09
  -5   9  40  222.18   82.49
  -4  -5  40  275.77  109.09
   7   2 -40  -16.00   79.49
   2  -9 -40  -79.29   98.09
   9  -7  40  -46.10   67.39
   9  -7  40   -4.60   67.49
  -2   9  40   40.70  152.58
  10  -1 -40    1.50   91.89
  -1  -9 -40   11.30  104.89
   1   9  40  -23.20   99.39
   9 -10  40  -83.99   99.59
   9 -10  40   24.80   94.49
   0  10 -40  168.78   99.19
  10 -10 -40   86.09  112.39
   7 -10 -40   54.49  101.89
   3   7 -40  -50.79   84.19
   4 -10 -40   24.70  102.19
   6   4 -40   -3.30   87.19
  -4  10  40  117.39   92.29
  10  -6  40  -51.49   42.60
   9   1 -40  150.28   95.19
   1 -10 -40   53.99  115.39
  -1  10  40  -43.30   95.39
  10  -9  40  -29.00   76.09
  10  -9  40  -11.90   72.49
   5   6 -40   55.79   93.39
   6 -11 -40    2.10  104.29
   3 -11 -40   35.90  114.09
   8   3 -40  122.59  101.99
  11  -8  40  -34.50   59.79
  11  -8  40   87.19   61.99
  -1   1 -41  -59.99   65.39
   0  -1 -41  -35.30   63.29
   1   0 -41    8.00   66.59
  -1   0  41   54.99   68.89
   0   1  41  -53.79   62.89
   1  -1  41   36.20   71.19
   0   2 -41   55.99   69.19
  -2   0 -41    7.80   59.79
   2  -2 -41 -151.18   70.39
   0  -2  41  -50.79   67.19
   2   0  41  -50.09   58.59
  -2   2  41  -54.89   64.89
  -1  -2 -41  470.45  102.99
   3  -1 -41  512.75   98.99
  -2   3 -41  528.35  103.09
  -3   1  41  477.25  101.29
   2  -3  41  435.36  100.19
   1   2  41  545.25  108.39
  -3  -1 -41  101.69   66.79
  -1   4 -41  124.89   76.79
   4  -3 -41   14.30   79.39
  -4   3  41   72.69   70.19
   1  -4  41  -31.90   78.69
   3   1  41   90.99   61.29
   1  -3 -41  590.14  108.29
   2   1 -41  642.14  110.69
  -3   2 -41  655.23  113.59
  -1   3  41  384.66   88.39
  -2  -1  41  520.45   99.89
   3  -2  41  655.43  109.69
  -3   5 -41  208.28   97.79
  -2  -3 -41  115.49   79.99
   5  -2 -41  303.77   87.89
   2   3  41  188.68   67.19
  -5   2  41  219.48   87.79
   3  -5  41  237.78   92.39
  -4  -2 -41  109.19   63.39
  -2   6 -41  137.69   92.09
   6  -4 -41   25.70   82.49
   2  -6  41   47.30   82.89
  -6   4  41   22.60   75.99
   4   2  41   97.69   61.49
   3  -4 -41  -50.69   71.19
  -4   1 -41  132.19   72.79
   1   3 -41  -15.30   71.99
  -3   4  41  -64.79   66.39
   4  -1  41   21.70   60.29
  -1  -3  41   -9.30   77.49
  -4   4 -41  116.09   82.79
   0  -4 -41   19.20   75.79
   0   4  41   -0.20   60.09
   4  -4  41   95.79  108.09
  -4   0  41  -29.70   68.79
  -3  -4 -41  -59.49   72.99
   7  -3 -41  -29.00   76.49
  -4   7 -41   36.60   93.59
   4  -7  41    4.20   89.29
   3   4  41   28.50   72.39
  -7   3  41   56.19   71.89
  -3   8 -41  315.17  105.69
   8  -5 -41  266.47  100.89
  -5  -3 -41  224.68  104.69
   3  -8  41  452.45  109.59
  -8   5  41  263.57   91.69
   5   3  41  103.39   80.29
  -5   0 -41  108.89   61.79
   5  -5 -41  116.09   87.09
  -5   5  41   96.59   74.79
   0  -5  41   -2.90   76.79
   5   0  41   -9.70   50.89
   2  -5 -41   76.19   83.09
   3   2 -41  275.07   96.39
  -5   3 -41  136.39   84.69
  -2   5  41   37.20   67.29
   5  -3  41  172.98   75.99
  -3  -2  41  268.67   85.29
  -5   6 -41   18.50   87.99
   6  -1 -41    0.20   73.69
  -1  -5 -41  194.28   84.89
  -6   1  41   80.69   98.99
   5  -6  41   41.20   84.99
   1   5  41   17.80   67.09
  -4  -5 -41  195.48   83.89
   9  -4 -41  329.57   97.69
  -5   9 -41   99.69  123.99
   4   5  41  -54.39   85.49
   5  -9  41   94.39  105.49
  -9   4  41  172.68  100.39
  -6  -4 -41   58.19   75.39
  -6  -4 -41  153.08   63.69
  10  -6 -41  128.09   93.09
  -4  10 -41  167.18  118.29
   4 -10  41   96.09  102.79
  -6  -1 -41  198.18   55.79
  -1   7 -41  306.07   97.89
   7  -6 -41  157.08   92.39
   1  -7  41  224.58  112.79
  -7   6  41   98.59   81.89
   6   1  41  107.29   53.59
   2   4 -41 -131.79   76.89
  -6   2 -41   73.59   66.39
   4  -6 -41  -51.49   85.49
   6  -2  41  -50.49   50.59
  -4   6  41    6.50   67.29
  -2  -4  41  101.99   86.29
   5   1 -41   62.59   80.79
   1  -6 -41  -82.59   81.69
  -6   5 -41   24.60   79.89
  -1   6  41  -61.29   62.09
  -5  -1  41   17.30   87.19
   6  -5  41  -50.49   79.59
  -2  -6 -41  291.97   93.19
  -6   8 -41   88.19  114.09
   8  -2 -41  137.39   86.79
   2   6  41  -53.89   78.49
   6  -8  41    7.20   91.59
  -8   2  41  -73.49   80.19
  -5  -6 -41  138.89  138.99
  11  -5 -41   64.79   94.09
  -5  -6 -41   58.99   74.09
   6 -11  41  -83.59  118.39
   6 -11  41   84.49  115.69
  -2   9 -41  -75.39   86.89
   9  -7 -41   22.90   86.59
   2  -9  41  204.28  103.29
   6  -7 -41  133.39   95.89
   1   6 -41  285.77   98.69
  -6   7  41   36.80   76.39
  -1  -6  41  273.97   96.49
  -7   4 -41   18.80   69.49
   4   3 -41   93.09   80.49
   3  -7 -41  -35.90   85.59
   7  -4  41   18.90   58.59
  -4  -3  41  -15.00   81.89
  -3   7  41  -39.50   65.19
   7   0 -41 -124.59   77.99
   0  -7 -41  -38.00   85.79
  -7   0  41   -5.80   73.39
   7  -7  41  -16.90   82.29
   0   7  41   13.20   77.19
  -3  -7 -41  149.19   91.19
  10  -3 -41  134.39   90.79
   3   7  41   17.70  100.09
   7 -10  41   87.19  101.99
   7 -10  41  -38.60  106.29
  11  -8 -41 -141.59  111.99
  -3  11 -41   72.99  116.79
   0   8 -41   21.70   90.29
   8  -8 -41 -154.98   86.29
   0  -8  41   -6.00   89.09
   3   5 -41  266.27   98.99
   5  -8 -41  521.35  120.59
  -5   8  41  116.09   83.09
  -3  -5  41  307.87  105.59
   2  -8 -41   88.79   98.89
   6   2 -41   25.90   78.19
   8  -6  41  -44.10   74.09
   8  -6  41   53.29   66.59
  -6  -2  41   17.00   77.89
  -2   8  41   22.80   75.59
  -1  -8 -41   64.39  103.09
   9  -1 -41    4.40   82.39
   8  -9  41  -29.30   92.29
   1   8  41   37.80   96.89
   8  -9  41   44.90   95.49
  10  -9 -41   -5.60  103.19
  -1  10 -41  221.68  102.99
   2   7 -41   49.20   89.39
   7  -9 -41   44.80   98.09
   4  -9 -41  166.08  109.39
   5   4 -41   89.69   92.19
   9  -5  41   50.59   44.30
  -4   9  41   42.10   76.29
  -5  -4  41   -2.30  110.19
   9  -5  41    4.30   43.90
   8   1 -41  -12.80   91.59
   1  -9 -41  -23.50  101.49
  -1   9  41  -32.90  107.29
   9  -8  41  170.98   79.89
   9  -8  41  -47.20   78.19
   9 -10 -41  -12.90   99.69
   1   9 -41   10.70   85.39
   4   6 -41  -74.49   87.69
   6 -10 -41   59.59  102.19
   3 -10 -41   29.70  108.09
   7   3 -41  319.27  105.29
  10  -7  41   54.49   97.19
  -3  10  41  -59.99   80.09
  10  -7  41   35.90   62.69
   3   8 -41  -13.10  112.79
   8 -11 -41   31.70  104.99
   5 -11 -41    0.10  109.19
   6   5 -41  -30.40   82.69
   0   0 -42 1182.38  146.39
   0   0  42 1337.97  158.88
   2  -1 -42  286.97   86.69
  -1   2 -42  170.98   79.89
  -1  -1 -42   54.79   74.59
   1  -2  42  108.69   84.09
   1   1  42  -47.10   68.39
  -2   1  42   70.89   79.39
  -2   1 -42  141.49   73.39
   1  -2 -42  196.28   80.89
   1   1 -42  196.68   79.39
   2  -1  42  172.48  117.29
  -1   2  42  136.49   74.69
  -1  -1  42  123.79   79.29
  -2  -2 -42  -83.89   71.89
  -2   4 -42   82.09   83.09
   4  -2 -42  116.29   83.79
  -4   2  42   36.80   74.79
   2  -4  42 -116.29   76.99
   2   2  42  -37.50   55.99
   0   3 -42   -4.70   75.99
   3  -3 -42  248.78   85.49
  -3   0 -42   36.70   67.49
   3   0  42   -7.50   67.59
  -3   3  42  149.69   74.79
   0  -3  42  221.28   85.99
  -3   3 -42  259.37   92.79
   0  -3 -42  391.26   96.49
   3   0 -42  455.25   94.09
   3  -3  42  265.77   86.99
  -3   0  42  249.88   88.69
   0   3  42  280.07   78.59
  -3   6 -42   96.69   85.89
  -3  -3 -42   -0.40   72.19
   6  -3 -42    4.50   77.29
   3   3  42  -37.30   55.69
   3  -6  42  127.29   90.89
  -6   3  42   23.20   73.79
  -4  -1 -42  206.08   68.19
   5  -4 -42  138.89   86.19
  -1   5 -42  106.49   83.19
   4   1  42   92.19   56.89
  -5   4  42   25.10   76.79
   1  -5  42  288.27   92.19
  -4   2 -42  163.98   76.79
   2   2 -42   -0.90   76.09
   2  -4 -42  -66.29   72.69
  -2   4  42 -109.49   61.29
  -2  -2  42   10.50   69.79
   4  -2  42  109.09   70.19
   5  -1 -42  128.69   81.99
  -4   5 -42   77.19   91.89
  -1  -4 -42    4.20   75.99
   4  -5  42  253.87   93.69
   1   4  42   75.29   66.69
  -5   1  42   15.80   74.69
  -4  -4 -42  708.63  122.39
   8  -4 -42  758.92  136.89
  -4   8 -42  951.10  166.18
  -8   4  42  776.22  132.69
   4   4  42  552.84  116.59
   4  -8  42  815.72  139.09
   7  -5 -42   75.09   91.09
  -5  -2 -42  149.59   67.39
  -2   7 -42   26.80   92.99
   2  -7  42  222.38   99.69
   5   2  42   14.80   64.99
  -7   5  42  121.49   80.79
   4  -5 -42   57.09  117.59
  -5   1 -42   54.59   95.19
   1   4 -42  116.59   89.99
  -4   5  42   42.30   77.29
  -1  -4  42    5.30   87.29
   5  -1  42  186.58   63.49
  -5   4 -42  -15.00   88.09
   4   1 -42   66.59   84.69
   1  -5 -42  205.98   90.69
  -4  -1  42   69.99   74.49
   5  -4  42   29.50   75.89
  -1   5  42   76.39   65.69
  -2  -5 -42  -74.29   78.39
  -5   7 -42   37.90   92.49
   7  -2 -42  137.89   85.69
  -7   2  42  -72.79   73.19
   5  -7  42   17.20   95.59
   2   5  42   24.60   78.49
  10  -5 -42 -115.89   83.09
  -5  10 -42   77.29  114.19
  -5  -5 -42   -9.70   70.99
   5 -10  42   12.30  107.19
  -3   9 -42   44.60   94.69
   9  -6 -42 -101.59   79.49
  -6  -3 -42  -22.90   51.79
   3  -9  42  155.98  101.19
   6  -6 -42   66.09   90.29
   0   6 -42   38.70   81.59
  -6   0 -42    5.70   52.09
  -6   6  42    4.40   86.99
   0  -6  42 -110.19   86.49
   6   0  42   40.40   50.59
  -6   3 -42  150.68  117.59
   3   3 -42  103.69   83.59
  -3  -3  42   89.99   80.99
   6  -3  42   39.40   60.39
  -3   6  42   38.40   68.79
   0  -6 -42   48.00   91.69
  -6   6 -42  132.99   93.69
   6   0 -42  194.38   87.29
   6  -6  42   36.30   84.09
  -6   0  42  163.28   80.79
   0   6  42  110.79   74.39
   9  -3 -42   -2.50   83.89
  -6   9 -42    1.30  128.79
  -3  -6 -42   73.29   83.59
   6  -9  42  115.59  106.69
   3   6  42  -75.59   89.49
  -4  11 -42  366.06  136.69
  11  -7 -42  -35.30  113.99
  -1   8 -42   68.89   91.49
   8  -7 -42  -10.30   89.99
   1  -8  42   44.60   93.49
  -8   7  42  -55.69   85.79
   2   5 -42  112.39   84.79
   5  -7 -42  -73.39   88.99
   7  -2  42   53.59   42.50
  -2  -5  42   90.49   95.69
  -5   7  42   82.99  114.89
   5   2 -42   74.29   83.19
   2  -7 -42   93.09  119.49
  -7   5 -42  -86.59   82.19
  -5  -2  42   65.29   75.69
  -2   7  42   13.00   63.19
   7  -5  42  -52.79   73.59
  -1  -7 -42  193.88   97.59
   8  -1 -42   46.50   83.49
   7  -8  42    6.80   92.79
   1   7  42  -29.50   82.79
  -8   1  42   65.49  108.89
  -4  -7 -42  -71.19   81.99
  11  -4 -42  -70.39   92.69
  -4  -7 -42   90.09  103.89
   7 -11  42  -45.70  113.99
   7 -11  42  -54.19  115.29
  10  -8 -42  -73.99   94.09
  -2  10 -42   19.80   99.19
   7  -8 -42   -9.40   93.99
   1   7 -42  162.68   95.39
  -7   8  42    3.00   74.19
  -1  -7  42  118.09   95.79
   4   4 -42 1002.20  153.18
   4  -8 -42  831.12  154.38
  -4   8  42  423.76  103.79
   8  -4  42  598.44   82.29
   8  -4  42  490.05   76.59
  -4  -4  42  859.41  137.99
   7   1 -42  172.68   97.79
   1  -8 -42   13.30   99.99
  -1   8  42   57.19   84.79
   8  -7  42  -43.40   78.19
  -7  -1  42   -6.80  123.79
  10  -2 -42  -14.70   81.29
  -2  -8 -42  -67.49   97.59
   8 -10  42   31.30  102.69
   8 -10  42  128.49  106.59
   2   8  42 -133.99   99.49
   0   9 -42  188.28   98.89
   9  -9 -42  109.39  104.69
   6  -9 -42 -115.39   96.59
   3   6 -42  -46.80   85.39
  -6   9  42  -95.19   65.59
   6   3 -42  141.49   93.69
   3  -9 -42   99.49  101.79
   9  -6  42   46.80  108.49
   9  -6  42  -25.20   58.79
  -3   9  42   57.29   73.29
   9   0 -42  193.78  105.59
   0  -9 -42  181.78  114.99
   0   9  42  123.79  118.29
   9  -9  42  134.29   92.39
   9  -9  42  189.08   95.09
   8 -10 -42   82.39  107.49
   2   8 -42    0.80   86.29
   5   5 -42   67.79   88.39
   5 -10 -42  -51.29   98.39
   8   2 -42   55.99   88.39
   2 -10 -42    1.50  109.49
  10  -8  42  -55.49   63.59
  10  -8  42  -92.49   66.89
  -2  10  42  -80.89   82.39
   4   7 -42  213.58  162.08
   7 -11 -42  180.58  113.69
   4 -11 -42 -138.59  108.09
   7   4 -42  119.49  115.09
  -1   0 -43 -104.99   60.79
   0   1 -43   49.00   72.99
   1  -1 -43  -17.40   68.69
   1   0  43   14.60   73.39
  -1   1  43   50.49   77.89
   0  -1  43   63.89   75.69
  -1   3 -43   64.19   81.89
   3  -2 -43  255.97   85.49
  -2  -1 -43  379.56   86.39
   1  -3  43   72.29   87.09
   2   1  43  358.06   92.29
  -3   2  43  152.68   79.39
   0  -2 -43  -48.40   72.59
  -2   2 -43   16.10   75.89
   2   0 -43   10.40   68.89
   2  -2  43   -4.20   82.29
  -2   0  43   23.00   75.69
   0   2  43   35.90   72.69
   5  -3 -43  255.87  100.49
  -3  -2 -43  366.46   87.99
  -2   5 -43  452.55  103.09
   3   2  43  220.08   70.39
   2  -5  43  433.06  105.79
  -5   3  43  208.48   83.89
   2  -3 -43  304.27   91.19
  -3   1 -43  379.06   84.99
   1   2 -43  148.69   82.39
   3  -1  43  295.67   80.19
  -1  -2  43  218.28   89.59
  -2   3  43  -13.80   75.09
  -1  -3 -43  228.18   83.89
  -3   4 -43  235.68   87.89
   4  -1 -43  142.49   80.49
   3  -4  43   45.80   90.29
  -4   1  43   38.50   79.89
   1   3  43   46.30   61.79
  -4  -3 -43  250.07   84.79
  -3   7 -43  161.38  109.39
   7  -4 -43  231.78   96.09
   4   3  43  121.79   79.19
   3  -7  43  -27.70   97.29
  -7   4  43  109.19   82.69
   4  -4 -43   47.90   92.09
  -4   0 -43   49.10   69.49
   0   4 -43 -145.09   72.29
   4   0  43   43.60   57.49
  -4   4  43  -33.70   71.39
   0  -4  43 -212.18   80.19
  -4   3 -43   37.40   79.69
   1  -4 -43  108.69   82.99
   3   1 -43  -17.60   78.39
  -3  -1  43   72.19   74.89
   4  -3  43   59.89   80.69
  -1   4  43  179.08   71.79
  -2  -4 -43  115.19   78.09
   6  -2 -43   -2.30   77.19
  -4   6 -43  150.98   97.19
  -6   2  43 -120.09   74.59
   4  -6  43   45.60   86.19
   2   4  43   15.70   60.49
  -4   9 -43  104.79  109.49
   9  -5 -43   33.00   90.59
  -5  -4 -43  -13.40   69.39
   5   4  43   31.00   75.19
   4  -9  43   46.60   98.89
  -1   6 -43  443.36  110.29
   6  -5 -43  398.86  107.49
  -5  -1 -43  412.36   89.19
  -6   5  43  100.29   85.29
   1  -6  43  170.98   93.69
   5   1  43  149.88   67.69
   3  -5 -43  491.25  109.09
   2   3 -43  181.98   90.29
  -5   2 -43  272.17   84.39
  -2  -3  43  341.27   99.49
   5  -2  43  336.37   77.19
  -3   5  43  229.48   85.09
   0  -5 -43   96.29   85.59
  -5   5 -43 -130.99   86.79
   5   0 -43  -34.40   74.89
   0   5  43  -47.60   64.49
   5  -5  43  -99.39   86.99
  -5   0  43 -154.88  129.99
  -5   8 -43  271.27  144.19
  -3  -5 -43  341.07   98.99
   8  -3 -43  219.18   92.79
   5  -8  43  190.58  103.89
  -8   3  43  341.07   99.59
   3   5  43  145.69   93.29
  -6  -2 -43   79.69   52.69
   8  -6 -43   26.50   87.79
  -2   8 -43   64.29   90.99
  -8   6  43  -16.90   90.69
   2  -8  43  -35.40   91.69
   1   5 -43  365.46  102.29
  -6   1 -43  322.57   74.89
   5  -6 -43  287.67  101.49
  -5   6  43   22.10  122.59
   6  -1  43  120.09   54.59
  -1  -5  43  115.59  141.99
  -6   4 -43   -9.40   75.19
   4   2 -43   81.09   83.09
   2  -6 -43  129.59   97.09
  -2   6  43  -52.39   64.69
   6  -4  43  -25.70   70.09
  -4  -2  43   24.50  106.69
  -6   7 -43  196.08  110.59
  -1  -6 -43  -32.30   86.09
   7  -1 -43   66.89   80.89
   1   6  43   31.80   81.09
  -7   1  43   92.79   84.69
   6  -7  43   59.79   94.89
  10  -4 -43   61.09   89.89
  -6  10 -43   44.20  122.29
  -4  -6 -43   14.10   78.89
   4   6  43  -31.80   92.69
   6 -10  43   97.29  114.09
  -3  10 -43  206.88  117.29
  10  -7 -43   34.40   95.49
   0   7 -43  -46.40   90.29
   7  -7 -43   35.30   88.29
   0  -7  43   23.10   96.09
  -7   7  43   28.80   79.49
  -7   3 -43  144.19   68.19
   4  -7 -43  127.99  104.19
   3   4 -43  204.88   96.69
   7  -3  43  188.28   58.19
  -3  -4  43   77.09   91.49
  -4   7  43   47.70   95.09
   1  -7 -43   76.49  128.79
  -7   6 -43  -37.30   93.89
   6   1 -43  114.59   90.19
   7  -6  43  -11.20  115.79
  -6  -1  43   -2.50   85.69
  -1   7  43  146.89   76.89
  -2  -7 -43 -172.78   87.69
   9  -2 -43  236.88   97.69
   2   7  43  -50.49   94.69
   7  -9  43  256.27  112.39
  -1   9 -43  147.19   94.09
   9  -8 -43  106.79   97.19
   2   6 -43  149.19   92.59
   6  -8 -43   84.89  103.09
  -6   8  43    7.20   75.09
  -2  -6  43   56.89   94.49
   5   3 -43  204.68   98.29
   3  -8 -43  426.56  119.49
  -5  -3  43  196.68   95.39
   8  -5  43  150.38   70.59
   8  -5  43  281.67  112.79
  -3   8  43  -43.10  121.79
   0  -8 -43  -60.99   95.69
   8   0 -43  -41.80   88.79
   8  -8  43  -18.10   87.29
   0   8  43   57.39   87.19
   8  -8  43   44.70   89.89
   8  -9 -43 -140.09   97.79
   1   8 -43  -56.99   87.89
   4   5 -43   22.90   80.79
   5  -9 -43   63.79  105.69
  -5   9  43  187.18   79.49
   7   2 -43  -13.40   85.79
   2  -9 -43    4.60  103.89
   9  -7  43  119.29   79.19
   9  -7  43   -9.40   70.79
  -2   9  43  186.28   92.19
   7 -10 -43    3.40  106.09
   3   7 -43    3.20   95.99
   6   4 -43  -24.10   85.69
   4 -10 -43  -22.70  111.49
   1   0 -44  892.81  130.39
   0  -1 -44  694.03  128.99
  -1   1 -44  927.41  132.49
   0   1  44  865.31  129.99
  -1   0  44  931.61  134.79
   1  -1  44  734.43  130.99
   2  -2 -44   65.29   74.79
  -2   0 -44   51.99   73.99
   0   2 -44   43.50   74.29
   2   0  44   -3.20   68.59
   0  -2  44   19.70   81.19
  -2   2  44   46.00   71.49
  -1  -2 -44  111.39   75.79
  -2   3 -44   87.99   80.99
   3  -1 -44   -5.10   78.09
   2  -3  44  -60.99   80.89
   1   2  44   83.39   71.39
  -3   1  44   -1.00   78.19
   4  -3 -44  -47.50   83.29
  -3  -1 -44  165.78   74.39
  -1   4 -44   61.39   82.49
   3   1  44  -14.60   64.59
   1  -4  44   40.40   89.09
  -4   3  44   97.89   78.39
   1  -3 -44  -12.30   80.89
   2   1 -44  156.88   84.69
  -3   2 -44  173.78   78.19
  -1   3  44  138.49   79.19
   3  -2  44  -61.49   78.49
  -2  -1  44   18.40   84.59
  -3   5 -44   62.99   91.69
  -2  -3 -44  161.88   82.69
   5  -2 -44  -24.00   78.69
   2   3  44   84.09   65.19
  -5   2  44  -34.40   77.89
   3  -5  44  -84.79   91.99
   6  -4 -44   91.29   91.49
  -4  -2 -44  223.38   75.29
  -2   6 -44  265.87  130.39
   2  -6  44  273.97   97.59
   4   2  44   56.39   65.29
  -6   4  44  184.38   89.29
   3  -4 -44   34.20   87.39
  -4   1 -44   87.89   74.49
   4  -1  44   10.30   67.69
  -1  -3  44   60.19   80.89
  -3   4  44  142.99   83.09
   4   0 -44  250.17   89.39
   0  -4 -44  439.86  104.79
  -4   4 -44  472.95  108.69
   0   4  44  212.98   78.59
   4  -4  44  246.98   95.49
  -4   0  44  322.67   93.39
   7  -3 -44  325.87   97.29
  -4   7 -44  356.56  117.99
  -3  -4 -44  189.18   89.19
   3   4  44  108.39  100.29
  -7   3  44   62.49   77.59
   4  -7  44  430.96  112.09
  -5  -3 -44   54.39   72.79
   8  -5 -44   56.19   90.09
  -3   8 -44  119.19   98.89
   3  -8  44  108.09  137.59
   5   3  44   27.20   74.89
  -8   5  44   21.40  127.79
   0   5 -44   83.49   87.59
   5  -5 -44   62.19   86.19
  -5   5  44   13.60   90.69
   5   0  44   -7.10   58.79
   0  -5  44  157.98   99.19
   2  -5 -44  307.37   93.69
  -5   3 -44   35.80   84.09
   3   2 -44  -68.49   77.19
  -2   5  44  -12.70   67.39
   5  -3  44   27.80   69.89
  -3  -2  44  -53.79   75.99
  -1  -5 -44   98.89   88.89
  -5   6 -44  138.89   98.89
   6  -1 -44   96.19   80.99
   1   5  44  -53.49   68.19
  -6   1  44    2.00   82.69
   5  -6  44  133.49   92.39
  -4  -5 -44  140.29   85.39
  -5   9 -44  418.86  136.69
   9  -4 -44  223.28   94.29
   5  -9  44  249.48  160.58
   4   5  44  359.26  146.49
  10  -6 -44   -5.00   91.49
  -4  10 -44  -57.29  113.69
  -6  -4 -44   -8.00   61.29
  -6  -4 -44    3.60   79.49
   4 -10  44   12.70  123.49
   7  -6 -44   -4.30   87.19
  -1   7 -44   31.70   87.49
  -6  -1 -44  -25.80   52.39
   1  -7  44 -163.88   86.99
   6   1  44  -69.19   50.19
  -7   6  44  -49.99   74.99
   2   4 -44   84.19   91.59
  -6   2 -44  284.27   84.59
   4  -6 -44  219.88  103.19
   6  -2  44  181.38   66.79
  -2  -4  44  260.97  144.69
  -4   6  44  192.58   84.09
   1  -6 -44   19.20   91.49
  -6   5 -44  288.17   94.19
   5   1 -44  -32.90   83.39
  -1   6  44  -24.70   66.49
   6  -5  44   -6.50  112.29
  -5  -1  44  105.69   83.89
   8  -2 -44   25.60   79.39
  -2  -6 -44  -31.30   85.39
  -6   8 -44   28.20  113.99
   6  -8  44   15.00   97.49
   2   6  44  -68.99   84.29
  -2   9 -44 -108.29   93.49
   9  -7 -44  132.29   98.89
   1   6 -44   21.90   89.79
   6  -7 -44  154.98   95.89
  -1  -6  44  161.98   92.29
  -6   7  44  -93.59   69.39
   4   3 -44  282.17   95.09
   3  -7 -44  341.87  113.09
  -7   4 -44  372.86  111.39
  -3   7  44   68.19   73.79
  -4  -3  44   66.39   87.49
   7  -4  44  242.68   68.39
  -7   7 -44  184.18  103.39
   7   0 -44   49.10   87.69
   0  -7 -44   39.30  102.49
  -7   0  44  166.48  144.29
   7  -7  44  118.99   93.39
   0   7  44   56.59   87.89
  10  -3 -44  -40.40   85.79
  -3  -7 -44  -69.39   84.59
   7 -10  44   95.49  136.39
   3   7  44   41.30  102.79
   7 -10  44   37.10  108.49
   0   8 -44  411.96  117.59
   8  -8 -44  269.67  110.59
   5  -8 -44  140.09  102.79
   3   5 -44   90.59   86.69
  -5   8  44  172.18   85.69
  -3  -5  44  200.48  107.99
   2  -8 -44  -96.09   97.59
   6   2 -44  -52.89   83.99
   8  -6  44  -12.30   72.49
  -2   8  44   10.90  120.59
   8  -6  44 -107.89   73.29
  -1  -8 -44  159.28  125.39
   9  -1 -44  155.08   86.79
   8  -9  44   -9.70   94.69
   1   8  44  -26.90   90.79
   8  -9  44  -62.79   95.59
   7  -9 -44  256.87  111.39
   2   7 -44  -54.39   90.99
   4  -9 -44   93.79  111.29
   5   4 -44  113.19   94.29
  -4   9  44  118.69   87.39
   9  -5  44  127.69   48.60
   9  -5  44   97.99   49.10
   1  -9 -44  -36.00  109.49
   8   1 -44  159.18   96.89
   9  -8  44  118.89   79.39
  -1   9  44   55.79   99.19
   9  -8  44  202.38   84.39
   4   6 -44  146.39  100.29
   6 -10 -44  100.69  108.89
   3 -10 -44 -145.49  105.79
   7   3 -44  125.29   95.79
  10  -7  44 -104.79   58.49
  10  -7  44   32.10   64.49
   0   0 -45   -8.30   71.49
   0   0  45   67.89   81.79
   2  -1 -45  240.88   85.49
  -1  -1 -45   82.29   78.59
  -1   2 -45  -48.30   78.39
  -2   1  45  307.37   91.19
   1   1  45  172.68   79.99
   1  -2  45  -52.59   81.89
   1   1 -45   65.59   80.59
   1  -2 -45  148.39   81.09
  -2   1 -45  103.99   80.79
  -1   2  45   50.39   80.59
   2  -1  45  153.58   82.79
  -1  -1  45   96.79   83.79
  -2  -2 -45    1.80   76.49
   4  -2 -45  -83.99   75.09
  -2   4 -45  -92.59   78.09
   2  -4  45  -34.30   94.49
  -4   2  45   -9.70   70.19
   2   2  45  117.39   65.79
   3  -3 -45   29.00  106.59
  -3   0 -45  -74.09   72.99
   0   3 -45  -50.99   78.99
   0  -3  45   39.50   85.59
  -3   3  45   64.69   84.99
   3   0  45  -33.80   68.09
   0  -3 -45 -120.89   78.39
   3   0 -45  -18.20   75.79
  -3   3 -45  -59.29   75.49
  -3   0  45  -49.40   79.09
   3  -3  45   -9.60   83.39
   0   3  45   12.20   75.39
  -3  -3 -45  564.84  109.49
  -3   6 -45  531.75  122.79
   6  -3 -45  592.54  114.29
   3  -6  45  669.33  122.59
   3   3  45  190.38  109.89
  -6   3  45  295.67   89.69
  -1   5 -45   98.29   91.29
  -4  -1 -45  249.97   72.49
   5  -4 -45   47.90   90.19
  -5   4  45  180.78  130.49
   4   1  45   71.19   62.59
   1  -5  45  199.98  103.09
   2  -4 -45  -50.99   83.09
   2   2 -45  -13.50   77.59
  -4   2 -45   74.29   77.99
  -2   4  45    5.40   74.99
  -2  -2  45  129.69   93.39
   4  -2  45  -43.60   72.19
  -1  -4 -45    1.20   82.99
   5  -1 -45  -66.79   75.29
  -4   5 -45  262.77  102.39
   4  -5  45   56.69   95.79
  -5   1  45  170.78  101.09
   1   4  45   -1.70   65.29
   8  -4 -45  -33.10   79.59
  -4  -4 -45  -41.50   71.39
  -4   8 -45  -86.29  100.69
   4   4  45   48.30   79.39
   4  -8  45    5.10   96.69
  -5  -2 -45  108.99   92.59
   7  -5 -45  124.59   90.59
  -2   7 -45  199.48  106.39
   5   2  45  -11.20   70.49
  -7   5  45  246.28   93.19
   1   4 -45  206.08   94.99
  -5   1 -45  201.18   82.39
   4  -5 -45  176.58   95.29
   5  -1  45   90.39   64.99
  -1  -4  45   24.30   93.19
  -4   5  45   46.50   80.99
   4   1 -45   35.20   85.19
   1  -5 -45 -113.19   85.59
  -5   4 -45   38.00   94.29
  -4  -1  45   51.09  112.39
   5  -4  45  104.49  116.29
  -1   5  45    3.40   69.29
  -5   7 -45  689.53  131.19
   7  -2 -45  264.47   98.79
  -2  -5 -45  303.67   99.49
  -7   2  45   19.40   82.39
   5  -7  45  265.37  103.59
   2   5  45  219.18   86.99
  10  -5 -45  -99.89   82.89
  -5  -5 -45  -37.30   71.59
  -5  10 -45   89.99  130.49
   5 -10  45   92.79  111.59
   9  -6 -45  291.37  105.59
  -6  -3 -45  170.38   60.79
  -3   9 -45  261.87  107.09
   3  -9  45  -15.70  100.29
   6  -6 -45  -27.70   86.19
   0   6 -45  -14.20   90.89
  -6   0 -45  126.79   58.09
  -6   6  45  -40.30   83.89
   0  -6  45 -154.88   88.59
   6   0  45  -21.20   53.29
  -6   3 -45  344.57   95.09
   3   3 -45  431.66  102.79
   3  -6 -45  273.97  108.59
  -3  -3  45  455.15  108.59
  -3   6  45  308.87   93.89
   6  -3  45  369.56   83.89
   6   0 -45  -60.59   80.39
  -6   6 -45   71.19   98.49
   0  -6 -45  -32.40   96.19
   0   6  45  -51.09   66.39
   6  -6  45 -189.68   88.39
  -6   0  45  -59.89   81.99
  -3  -6 -45 -133.39   83.19
   9  -3 -45   91.89   90.09
  -6   9 -45   61.39  118.89
   3   6  45  160.48  100.49
   6  -9  45    3.10  101.59
   8  -7 -45  -32.20   92.29
  -1   8 -45    9.60   96.79
   1  -8  45   65.09  118.49
  -7   2 -45  194.78   58.29
   2   5 -45  220.28   98.79
   5  -7 -45  294.97  110.39
  -5   7  45   60.69   85.59
  -2  -5  45  142.99   99.79
   7  -2  45   41.40   47.30
   5   2 -45  106.29   88.99
   2  -7 -45  399.26  114.29
  -7   5 -45  270.47  100.09
   7  -5  45  263.57   83.09
  -5  -2  45  136.09   91.29
  -2   7  45   75.69   78.49
  -7   8 -45  -11.50  105.29
   8  -1 -45   35.70   82.39
  -1  -7 -45  -30.70   92.89
   1   7  45   67.99   88.99
   7  -8  45  -55.09   94.89
   7  -8 -45 -173.48   95.59
   1   7 -45  -23.10   87.89
   4  -8 -45  186.38  106.49
   4   4 -45  -54.79   83.19
  -4   8  45   36.30   74.89
   8  -4  45   16.90   48.50
   1  -8 -45 -160.08   95.29
   7   1 -45   57.69   86.89
   8  -7  45 -117.69   83.09
  -1   8  45   36.80   83.39
   8  -7  45   27.50   82.09
   0   9 -45  -48.00   91.19
   9  -9 -45 -176.78  129.69
   6  -9 -45   -8.00  101.49
   3   6 -45   31.00   91.09
   6   3 -45  159.18  101.39
   3  -9 -45   39.40  111.89
   9  -6  45   12.90   63.29
   9  -6  45  -44.80   62.89
  -3   9  45  -56.59   80.89
   9   0 -45   65.69  123.39
   0  -9 -45   40.10  109.19
   9  -9  45 -167.68   88.99
   0   9  45   57.79   97.39
   9  -9  45   -0.20   84.89
   5 -10 -45  -52.89  110.59
   5   5 -45  -12.50   90.79
   0   1 -46  703.73  118.69
   1  -1 -46  616.44  116.19
  -1   0 -46  529.85  104.99
  -1   1  46  676.03  123.99
   0  -1  46  669.73  122.99
   1   0  46  600.34  116.29
  -1   3 -46  -12.70   83.19
  -2  -1 -46   41.40   75.29
   3  -2 -46   84.09   88.09
   2   1  46  -19.00   70.39
   1  -3  46    2.20   84.39
  -3   2  46  -77.39   78.69
   0  -2 -46   32.70   79.69
   2   0 -46  221.28   90.49
  -2   2 -46    8.30   80.69
  -2   0  46   62.39   83.09
   0   2  46  148.99   83.89
   2  -2  46    0.20   90.79
  -3  -2 -46  421.46   92.09
  -2   5 -46  327.47  110.69
   5  -3 -46  314.77  102.09
   2  -5  46  304.67  116.49
  -5   3  46  300.87  113.79
   3   2  46  166.88   85.29
   2  -3 -46   -2.40   84.79
  -3   1 -46    3.90   78.49
   1   2 -46   85.29  140.99
  -1  -2  46  124.69   86.89
  -2   3  46   72.89   79.69
   3  -1  46   32.50   81.99
  -1  -3 -46   87.69   86.19
   4  -1 -46 -103.09   74.89
  -3   4 -46  -35.40   81.79
   1   3  46   94.39   64.29
   3  -4  46   34.70   93.49
  -4   1  46  117.89   90.49
  -4  -3 -46   84.99   76.19
  -3   7 -46  160.98  110.19
   7  -4 -46  138.59   89.79
   3  -7  46   61.29  100.89
   4   3  46   59.89   77.69
  -7   4  46  126.49   87.89
   0   4 -46  280.47   99.79
   4  -4 -46  235.28  102.09
  -4   0 -46  327.97   85.59
   0  -4  46  310.47  104.59
   4   0  46   64.49   63.89
  -4   4  46  170.98   87.59
   1  -4 -46  -65.79   86.99
   3   1 -46  149.59   87.89
  -4   3 -46  164.78   89.19
  -1   4  46   80.69   77.59
  -3  -1  46  -38.30   86.79
   4  -3  46 -128.29   81.59
   6  -2 -46   21.30   83.19
  -4   6 -46   65.79  103.69
  -2  -4 -46   94.69   85.39
   2   4  46    4.10   64.29
  -6   2  46   57.59   81.29
   4  -6  46  -23.50   98.79
  -4   9 -46  197.48  117.39
   9  -5 -46   45.10   93.29
  -5  -4 -46   82.99   74.09
   4  -9  46  194.38  113.89
   5   4  46  -77.79   76.49
   6  -5 -46  -39.30   84.19
  -5  -1 -46   95.29   84.79
  -1   6 -46   82.09   96.39
   5   1  46   -8.00   59.19
  -6   5  46  -20.70   77.19
  -5   2 -46  353.66   94.59
   2   3 -46  339.87   99.79
   3  -5 -46  357.16  108.29
  -3   5  46  158.48   83.69
  -2  -3  46  418.96  153.58
   5  -2  46  297.77   77.59
   0  -5 -46  206.68  101.49
  -5   5 -46  370.86  113.79
   5   0 -46  302.47   98.29
   0   5  46  261.37   84.69
   5  -5  46  147.19  100.29
  -5   0  46  132.39   90.19
   8  -3 -46  121.69   92.39
  -3  -5 -46  137.89   90.19
  -5   8 -46  180.78  119.99
   5  -8  46  114.69  109.59
   3   5  46  101.09   88.09
   8  -6 -46   40.60   92.79
  -6  -2 -46  151.48   59.49
  -2   8 -46  185.98  103.49
   2  -8  46  -39.20  107.39
   6   2  46   11.40   58.59
  -6   1 -46  108.09   66.79
   5  -6 -46 -116.89   84.59
   1   5 -46   18.30   82.49
  -1  -5  46 -117.39   96.19
   6  -1  46  -38.80   52.09
  -5   6  46  -62.09   75.39
  -6   4 -46   31.10   83.19
   2  -6 -46  104.39   95.69
   4   2 -46  161.08   95.09
   6  -4  46   10.50   78.49
  -2   6  46  -44.90   71.39
  -4  -2  46   57.59   86.39
   7  -1 -46  376.76  102.09
  -6   7 -46   18.10  114.49
  -1  -6 -46  203.58  104.99
   1   6  46  295.37  101.89
   6  -7  46  215.58  104.99
  10  -4 -46 -160.58  118.69
  -6  10 -46   97.09  132.69
  -4  -6 -46   -4.40   86.19
   6 -10  46  101.39  112.29
   4   6  46   44.20   96.09
   0   7 -46  -38.50   95.19
   7  -7 -46  -19.00   95.19
   0  -7  46   74.19  104.19
   4  -7 -46  162.48  104.59
  -7   3 -46  166.58   69.19
   3   4 -46  149.69   84.79
  -3  -4  46  140.89  101.69
   7  -3  46  121.49   60.89
  -4   7  46  144.39   84.89
   1  -7 -46   94.89  110.19
   6   1 -46  442.26  107.49
  -7   6 -46  255.97  107.29
  -1   7  46   41.20   78.29
   7  -6  46  141.39   91.69
   9  -2 -46  -62.09   87.29
  -2  -7 -46   28.00   95.59
   2   7  46   52.69   96.39
   7  -9  46  103.49  100.09
   9  -8 -46   25.60  103.19
  -1   9 -46   62.69   93.79
   2   6 -46   70.79   96.79
   6  -8 -46  -42.70  103.79
   3  -8 -46  244.58  111.49
   5   3 -46  238.88  101.79
  -3   8  46   64.89   80.19
   8  -5  46   44.80   63.59
   8   0 -46  227.98   98.59
   0  -8 -46  146.59  113.29
   8  -8  46   63.19   97.29
   0   8  46  165.28  102.49
   8  -8  46   76.69   94.89
   8  -9 -46   63.09  110.79
   1   8 -46  129.59  103.09
   4   5 -46  240.68   99.29
   5  -9 -46   90.69  110.29
   2  -9 -46  111.39  115.69
   7   2 -46  128.89   93.09
   9  -7  46 -108.59   75.99
  -2   9  46  -24.00   85.39
   9  -7  46   14.30   70.69
   4 -10 -46   88.39  119.89
   6   4 -46  191.48  158.68
   0  -1 -47   -3.00   80.49
   1   0 -47 -109.49   77.59
  -1   1 -47   85.29   86.89
  -1   0  47 -106.49   78.99
   0   1  47  130.49   84.69
   1  -1  47   37.40   84.59
  -2   0 -47   75.39   77.39
   2  -2 -47    8.30   79.99
   0   2 -47  103.09   88.69
  -2   2  47  -78.29   76.59
   2   0  47   31.10   74.89
   0  -2  47    6.80   83.29
   3  -1 -47  189.78   94.49
  -1  -2 -47  150.98   86.19
  -2   3 -47  147.39   90.79
   2  -3  47   -3.30   90.49
   1   2  47  210.58   79.59
  -3   1  47  207.68   93.29
   4  -3 -47  -13.40   90.39
  -1   4 -47  174.18  145.29
  -3  -1 -47   69.19   74.99
   1  -4  47  109.89   99.99
   3   1  47  222.38  134.89
  -4   3  47  -61.29   80.79
   1  -3 -47  126.19   98.19
  -3   2 -47   98.29   87.79
   2   1 -47  180.78   92.29
  -2  -1  47  186.28   96.19
  -1   3  47  156.58   82.39
   3  -2  47   66.79   81.99
  -2  -3 -47  390.36  100.89
   5  -2 -47  230.58  101.99
  -3   5 -47  308.67  114.09
   2   3  47  216.98   80.79
  -5   2  47  229.48   88.09
   3  -5  47  106.69  107.79
  -2   6 -47  269.27  107.49
   6  -4 -47  -58.09   86.99
  -4  -2 -47    1.60   68.79
   2  -6  47   88.69  102.49
  -6   4  47   -6.00   84.19
   4   2  47  -25.30   64.29
   3  -4 -47   90.49   92.19
   1   3 -47   61.39   84.79
  -4   1 -47   66.29   83.29
  -3   4  47   51.19   78.49
  -1  -3  47  187.38   98.59
   4  -1  47   75.89   74.79
  -4   4 -47  -88.19   89.99
   4   0 -47   15.60   78.89
   0  -4 -47  -94.69   82.09
   0   4  47   58.89   70.39
  -4   0  47   37.70   88.19
   4  -4  47  -73.39   85.29
  -4   7 -47   38.50   99.29
  -3  -4 -47   78.69   84.69
   7  -3 -47  179.38   90.69
   4  -7  47   73.99   99.19
   3   4  47   24.60   77.99
  -5  -3 -47  115.69   69.19
   8  -5 -47  162.18   99.09
  -3   8 -47   85.59  105.39
   5   3  47   -9.50   72.49
   3  -8  47   -1.50  106.49
   5  -5 -47 -191.68   81.59
  -5   0 -47   30.40   69.69
   0   5 -47  126.29   86.29
   0  -5  47   34.30  125.39
   5   0  47   18.80   57.29
  -5   5  47  -47.20   72.39
   2  -5 -47  288.97  112.59
  -5   3 -47  247.18  100.49
   3   2 -47  382.16   98.99
  -2   5  47  102.39   80.09
   5  -3  47  123.59   79.19
  -3  -2  47  159.68   97.29
  -1  -5 -47   70.49   95.19
   6  -1 -47  301.37   94.39
  -5   6 -47   95.89  105.39
   1   5  47  198.28   78.79
   5  -6  47  197.48  110.99
  -6   1  47   34.60   89.59
  -5   9 -47    7.30  132.79
  -4  -5 -47 -132.29   76.19
   9  -4 -47  124.49   92.59
   4   5  47  -21.70   90.89
   5  -9  47   37.70  110.19
   7  -6 -47  143.09   96.09
  -6  -1 -47   45.60   59.49
  -1   7 -47   97.79  101.99
   1  -7  47   31.20  102.39
   6   1  47  -10.40   54.59
  -6   2 -47  147.09   95.19
   2   4 -47   71.59   92.69
   4  -6 -47  154.18   99.49
  -4   6  47  -57.29   75.59
   6  -2  47  100.49   61.69
  -2  -4  47  147.29   97.39
   1  -6 -47  186.48  133.89
  -6   5 -47  298.07  103.09
   5   1 -47  175.88   92.49
   6  -5  47  129.49   88.49
  -5  -1  47  121.29   96.89
  -1   6  47   21.40   70.99
  -6   8 -47  -50.49  184.98
  -2  -6 -47  -11.40   94.69
   8  -2 -47   75.89   85.59
   2   6  47  -16.80   86.29
   6  -8  47   38.30  107.59
  -2   9 -47  192.48  112.59
   9  -7 -47 -104.59   94.69
   1   6 -47   35.80   91.09
   6  -7 -47  248.68  108.09
  -6   7  47   76.99  117.39
  -1  -6  47  118.79  113.79
   3  -7 -47   36.70  103.79
   4   3 -47  -62.49   78.29
  -7   4 -47  -26.90   74.99
  -4  -3  47   -2.30  112.19
  -3   7  47   28.80   81.39
   7  -4  47  -35.20   61.49
   7   0 -47    7.90   83.29
   0  -7 -47  -79.09   98.89
  -7   7 -47  163.48  109.19
   7  -7  47  -48.90   92.39
   0   7  47   88.89   94.49
   8  -8 -47 -132.09   92.49
   0   8 -47   10.30   97.39
   5  -8 -47  153.68  112.19
   3   5 -47   86.79   88.39
  -5   8  47   33.40   98.29
   6   2 -47  154.88   98.89
   2  -8 -47  -11.90  101.89
  -2   8  47   44.30   78.89
   8  -6  47  -66.49   75.09
   7  -9 -47  -90.49  104.29
   2   7 -47  228.68  105.99
   5   4 -47  -61.59   80.29
   4  -9 -47 -104.99  103.59
   9  -5  47   69.69   46.30
   9  -5  47  -47.30   47.50
   0   0 -48  934.71  142.49
   0   0  48  829.72  138.89
  -1  -1 -48   20.90   81.99
  -1   2 -48  196.88   92.49
   2  -1 -48    1.80  113.59
  -2   1  48   70.19   86.89
   1  -2  48  108.09  100.49
   1   1  48  143.89   88.19
   1  -2 -48   -8.70   86.89
  -2   1 -48  195.48   91.59
   2  -1  48  182.48   93.19
  -1  -1  48  137.39   96.99
  -1   2  48  213.08   92.89
   4  -2 -48   73.99   92.99
  -2   4 -48  160.78   95.69
  -2  -2 -48   62.29   80.39
   2   2  48  -65.39   65.39
   2  -4  48   92.59  102.89
  -4   2  48  -64.69  114.89
   3  -3 -48    3.80   84.59
   0   3 -48  142.89   92.79
  -3   0 -48   80.79   84.99
   3   0  48  134.19   82.39
   0  -3  48  119.49   95.99
  -3   3  48   36.50   86.89
   3   0 -48   -9.20   82.49
   0  -3 -48  174.28   95.89
  -3   3 -48  129.99   88.19
  -3   0  48 -100.49   84.19
   3  -3  48  -77.19   94.99
   0   3  48   -1.90   70.89
  -3  -3 -48  144.29   84.59
  -3   6 -48   97.89  110.39
   6  -3 -48  133.59   87.59
   3   3  48   31.20   66.39
  -6   3  48   37.30   84.29
   3  -6  48 -153.68  102.09
  -4  -1 -48  140.09   75.79
  -1   5 -48  -89.99   84.99
   5  -4 -48  112.39   98.19
  -5   4  48  -17.20   85.69
   1  -5  48  -89.79   96.89
   4   1  48    6.20   65.49
  -4   2 -48  136.69   87.99
   2  -4 -48   17.50  103.89
   2   2 -48  163.38   93.59
  -2   4  48   99.29   85.29
   4  -2  48   29.50   85.59
  -2  -2  48   37.90  101.59
   5  -1 -48  237.68  101.49
  -1  -4 -48  343.37  106.29
  -4   5 -48  213.78  114.79
   4  -5  48  126.09  108.19
  -5   1  48  439.26  107.19
   1   4  48  226.68   80.39
  -4   8 -48  658.03  134.99
  -4  -4 -48  114.29   90.99
   8  -4 -48  254.47  104.49
   4   4  48  -28.90  115.69
   4  -8  48  232.18  120.29
  -5  -2 -48   93.29   66.89
  -2   7 -48  263.67  111.69
   7  -5 -48   17.30   94.09
   2  -7  48  280.87  114.69
   5   2  48   22.90   71.19
   1   4 -48  -28.70   86.89
   4  -5 -48  -54.09   91.39
  -5   1 -48   98.99   78.49
  -1  -4  48   10.80   94.69
  -4   5  48  -17.40   90.49
   5  -1  48   52.69   66.69
   1  -5 -48  554.14  160.98
  -5   4 -48  432.36  117.69
   4   1 -48  290.17  107.89
  -4  -1  48  223.28   99.39
   5  -4  48  338.27  102.29
  -1   5  48  240.28   80.59
  -2  -5 -48 -103.59   82.29
   7  -2 -48  -16.60   82.89
  -5   7 -48   62.29  117.79
   5  -7  48  -20.40  100.79
   2   5  48   88.99   81.39
  -6  -3 -48   41.10   59.69
   9  -6 -48   -8.20  102.49
  -3   9 -48  -58.89  104.49
   0   6 -48  195.38   99.89
  -6   0 -48    5.60   62.89
   6  -6 -48 -133.89   90.39
   0  -6  48   49.90  107.19
  -6   6  48  -41.00   99.49
   6   0  48   44.10   57.59
   3   3 -48  212.38   96.49
  -6   3 -48   21.30   86.19
   3  -6 -48   -5.70   97.79
  -3   6  48   19.80  143.09
   6  -3  48   38.20   68.79
  -3  -3  48   37.40   89.79
   6   0 -48  373.56  113.99
  -6   6 -48  609.14  127.59
   0  -6 -48  723.83  166.38
   6  -6  48  333.97  109.29
   0   6  48  272.67   96.99
   9  -3 -48  -59.69   90.59
  -6   9 -48   66.49  123.99
  -3  -6 -48   24.50   90.59
   3   6  48  -26.30   93.89
   6  -9  48  -73.29  170.88
  -1   8 -48  144.99  108.99
   8  -7 -48   41.40  100.69
   5  -7 -48   43.40  102.29
   2   5 -48  148.79   96.39
  -7   2 -48  145.29   59.09
  -5   7  48   -4.50   80.49
   7  -2  48    8.30   50.29
   2  -7 -48 -128.79  100.09
  -7   5 -48  151.98   90.79
   5   2 -48   40.40   88.99
  -2   7  48  -19.90  116.89
   7  -5  48   43.60   80.79
  -7   8 -48   -2.20  115.59
  -1  -7 -48   70.79  130.49
   8  -1 -48    1.90   83.39
   1   7  48   82.29   99.59
   7  -8  48  -61.49   96.79
   7  -8 -48  -24.30  101.99
   1   7 -48   30.90  109.59
   4   4 -48  164.48   94.29
   4  -8 -48  124.79  114.89
   8  -4  48  190.58   59.99
  -4   8  48  109.29   90.29
   1  -8 -48 -138.89  104.49
   7   1 -48  104.29  101.29
   8  -7  48   -6.50   91.19
  -1   8  48   -9.20   89.99
   6  -9 -48 -109.99  117.69
   3   6 -48  114.29  103.69
   3  -9 -48  -11.40  117.09
   6   3 -48  -49.40   92.59
   9  -6  48   40.50   60.49
   9  -6  48   60.99   64.59
  -1   0 -49  -83.29   77.19
   1  -1 -49 -176.98   73.29
   0   1 -49  -25.80   81.59
  -1   1  49  -97.59   75.19
   0  -1  49  -41.70   85.29
   1   0  49  -50.59   76.59
   3  -2 -49  280.77   99.99
  -1   3 -49  306.47  107.79
  -2  -1 -49  347.67   94.59
  -3   2  49  248.48   95.49
   2   1  49  184.58   87.29
   1  -3  49  271.87  111.19
   0  -2 -49  -85.29   82.69
  -2   2 -49  132.99   90.59
   2   0 -49  -34.40   73.89
   0   2  49   -2.00   79.99
   2  -2  49   27.20   90.59
  -2   0  49  -57.39   85.19
  -3  -2 -49  227.28   86.79
  -2   5 -49  141.19   99.99
   5  -3 -49  212.08   96.49
   3   2  49   94.19   70.69
  -5   3  49  145.39   86.29
   2  -5  49  -60.69  107.89
  -3   1 -49  273.17  101.29
   1   2 -49  444.96  107.09
   2  -3 -49  431.76  115.09
  -2   3  49  155.38   96.19
  -1  -2  49  386.26  109.99
   3  -1  49  324.87   93.39
  -1  -3 -49   76.09   92.19
  -3   4 -49  189.48   95.99
   4  -1 -49  -59.79   79.59
   1   3  49  -25.90   69.79
  -4   1  49  102.49   94.29
   3  -4  49   95.29  101.59
  -4  -3 -49   -6.00   72.59
  -3   7 -49  102.39  105.49
   7  -4 -49   23.20   85.09
   3  -7  49  -64.99  114.09
   4   3  49  -22.90   94.19
   0   4 -49  -47.30   82.69
   4  -4 -49 -126.49   91.99
  -4   0 -49  -25.90   75.79
   0  -4  49   -5.10  112.29
   4   0  49  -44.50   66.79
  -4   4  49  -37.60   86.99
   3   1 -49  -14.80   86.79
   1  -4 -49  125.89   97.69
  -4   3 -49   34.80   90.99
  -1   4  49  -67.59   67.89
  -3  -1  49 -132.49   83.09
   4  -3  49  -62.69   84.29
  -2  -4 -49   81.69   88.19
   6  -2 -49   57.39   81.69
  -4   6 -49   47.50  115.49
   2   4  49   57.09   71.99
   4  -6  49   27.30  110.99
  -6   2  49  -64.49   96.29
  -5  -4 -49  -84.79   67.39
  -4   9 -49  -49.70  117.29
   9  -5 -49  -89.59  110.09
   4  -9  49   12.40  121.39
   5   4  49   -8.00   79.49
  -1   6 -49  -40.40   97.89
  -5  -1 -49   85.29   74.09
   6  -5 -49  -65.39   89.09
  -6   5  49  -84.99   91.09
   1  -6  49   28.20  112.79
   5   1  49  -27.30   59.39
   2   3 -49  164.18   92.99
   3  -5 -49   21.80   96.49
  -5   2 -49   88.79   87.39
  -3   5  49   59.49  138.09
   5  -2  49  219.88   78.79
  -2  -3  49  196.98  102.19
   0  -5 -49 -170.18   90.19
   5   0 -49   47.90   87.79
  -5   5 -49   94.89  101.79
   5  -5  49  -41.00   94.59
  -5   0  49   35.60   93.99
   0   5  49   25.00   75.39
  -3  -5 -49  -39.20   85.39
  -5   8 -49   57.99  117.19
   8  -3 -49   20.80   90.49
   3   5  49   93.69   92.29
   5  -8  49    7.40  115.69
  -2   8 -49   22.90  105.99
  -6  -2 -49  -29.90   59.89
   8  -6 -49  110.09   98.79
   6   2  49   95.69   65.89
   5  -6 -49  -24.80   95.99
  -6   1 -49   78.49   99.49
   1   5 -49   63.59   94.09
  -1  -5  49   10.70   97.19
  -5   6  49   41.30   84.39
   6  -1  49   31.40   58.59
  -6   4 -49   69.79   84.59
   4   2 -49   74.99   88.29
   2  -6 -49   30.00   99.79
   6  -4  49 -140.59  125.09
  -4  -2  49   -8.20   95.99
  -2   6  49   -0.40   82.79
  -1  -6 -49  330.17  115.79
  -6   7 -49  421.76  129.39
   7  -1 -49  279.87  103.69
   6  -7  49  226.58  112.99
   1   6  49  191.58   92.39
   7  -7 -49 -147.19   95.29
   0   7 -49  -49.50  101.89
   4  -7 -49   71.59  107.49
   3   4 -49   34.90   90.19
   7  -3  49  -14.50   56.69
  -4   7  49   61.39   82.39
   1  -7 -49  120.39  115.89
  -7   6 -49  413.26  115.59
   6   1 -49  183.08   98.79
   7  -6  49    1.50   88.19
  -1   7  49  204.18  114.69
   2   6 -49   -3.50   91.79
   6  -8 -49 -165.18   95.99
   3  -8 -49  128.59  123.49
   5   3 -49  164.08   94.49
  -3   8  49  -34.90   71.49
   8  -5  49  -56.69   63.49
   5  -9 -49 -172.38  111.59
   4   5 -49   83.49   98.39
   0  -1 -50  293.87   96.69
   1   0 -50  302.67  112.79
  -1   1 -50  183.58  100.69
  -1   0  50  324.77  106.09
   1  -1  50  288.17  107.69
   0   1  50  319.37   99.59
   0   2 -50   77.89   99.59
   2  -2 -50  -80.79   85.39
  -2   0 -50  123.59   90.69
   0  -2  50   64.59   98.89
   2   0  50   84.09   83.09
  -2   2  50   37.40   86.49
   3  -1 -50  293.57   97.79
  -1  -2 -50  194.08   98.69
  -2   3 -50  180.58   99.79
   2  -3  50  273.67  105.99
   1   2  50  242.48   83.29
  -3   1  50  136.79  184.08
   4  -3 -50  -56.89   84.19
  -3  -1 -50   21.70   76.69
  -1   4 -50  -16.50   88.99
   3   1  50  -72.59   73.49
  -4   3  50  -37.90   87.19
   1  -4  50   25.60   97.09
   2   1 -50  362.96  106.79
   1  -3 -50  182.38  117.39
  -3   2 -50  230.58  102.39
  -1   3  50   54.59   89.59
   3  -2  50  191.28   94.89
  -2  -1  50  289.47  139.39
  -3   5 -50  -65.99  144.09
   5  -2 -50   54.99   92.99
  -2  -3 -50  193.18   89.49
  -5   2  50   42.80   81.59
   2   3  50  136.99   76.49
   3  -5  50  104.09  112.19
  -2   6 -50  300.97  115.59
  -4  -2 -50  189.58   81.89
   6  -4 -50  247.58  105.29
   2  -6  50  289.37  135.49
   4   2  50  114.29   89.19
  -4   1 -50   -8.10   81.79
   3  -4 -50  -28.10   95.49
   1   3 -50   35.50   86.79
   4  -1  50  -39.40   76.09
  -3   4  50 -144.59  111.29
  -1  -3  50   62.39  110.39
   0  -4 -50  875.11  158.58
   4   0 -50  680.23  134.99
  -4   4 -50 1204.58  167.78
   4  -4  50  821.52  129.79
   0   4  50  331.27   96.99
  -4   0  50  491.45  116.49
  -3  -4 -50   19.60   87.09
  -4   7 -50  127.69  115.69
   7  -3 -50  167.88   95.59
   3   4  50   53.49   80.39
   4  -7  50  153.38  116.69
  -5  -3 -50  -29.10   67.19
   8  -5 -50   68.59  100.29
  -3   8 -50  151.38  115.29
   3  -8  50  135.09  115.09
   5   3  50  -29.30   73.89
  -5   0 -50   70.59   76.39
   5  -5 -50  -11.50   93.29
   0   5 -50   60.99   95.99
   0  -5  50  148.09  107.49
   5   0  50   86.09   66.29
  -5   5  50   36.40   83.89
   2  -5 -50 -101.99   94.79
  -5   3 -50    4.30   96.59
   3   2 -50    4.20   91.69
  -3  -2  50    2.00   94.19
   5  -3  50   63.99   79.39
  -2   5  50   13.30   76.69
  -1  -5 -50  203.08  103.69
  -5   6 -50  149.88  107.69
   6  -1 -50   67.29   89.49
   1   5  50   65.09   77.29
   5  -6  50  264.37  114.39
   7  -6 -50  -42.60   95.19
  -1   7 -50  -24.30  104.59
  -6  -1 -50   22.10   67.29
   6   1  50   19.90   62.89
   2   4 -50   30.20   92.69
   4  -6 -50  255.27  113.39
  -6   2 -50  221.78   88.69
  -2  -4  50  161.98  112.29
   6  -2  50  106.09   69.99
  -4   6  50  146.99   88.49
   1  -6 -50  -15.10  102.79
  -6   5 -50  307.87  105.19
   5   1 -50  133.09   93.49
  -1   6  50   35.90   81.59
   6  -5  50  106.69   94.39
  -2  -6 -50  -78.99   93.79
   8  -2 -50  -47.20   85.09
  -6   8 -50   53.99  127.39
   2   6  50    9.90   89.99
   6  -8  50  136.19  113.39
   6  -7 -50  -74.49  100.49
  -7   1 -50   73.39   47.70
   1   6 -50  104.69  101.29
   7  -1  50   41.50   48.70
  -7   4 -50   38.40   76.79
   4   3 -50  109.99   96.79
   3  -7 -50  -95.09  104.59
   7  -4  50  -27.90   65.69
  -3   7  50  -26.20   75.39
   0  -7 -50   93.89  111.99
   7   0 -50  292.57  107.59
  -7   7 -50  312.47  120.19
   7  -7  50  380.46  114.89
   0   7  50  176.48  103.49
   5  -8 -50  -35.20  107.09
   3   5 -50  -18.80   90.39
   6   2 -50  -53.59   90.89
   2  -8 -50    1.40  116.39
   8  -6  50  -44.40  138.59
  -2   8  50   58.39   89.19
   0   0 -51  -42.60   84.59
   0   0  51  -61.89   92.89
  -1  -1 -51  125.39   89.69
   2  -1 -51  205.48   93.59
  -1   2 -51  179.78   99.49
   1   1  51    2.50   86.89
   1  -2  51  182.08  103.89
  -2   1  51  146.99   90.99
  -2   1 -51  249.08  105.19
   1   1 -51  246.38  102.99
   1  -2 -51  263.27  156.18
  -1  -1  51   82.79  101.09
  -1   2  51  168.08   99.49
   2  -1  51  155.78   95.39
   4  -2 -51   39.60   85.39
  -2  -2 -51  111.99   85.29
  -2   4 -51  -37.50  109.59
  -4   2  51  -67.49   78.19
   2   2  51    5.90   70.29
   2  -4  51   18.60  102.69
  -3   0 -51   68.29   88.49
   0   3 -51  -12.20   90.79
   3  -3 -51   72.89   86.89
   3   0  51   55.89   79.69
   0  -3  51   41.40  102.89
  -3   3  51   59.29  128.29
  -3   3 -51  -43.80   92.89
   3   0 -51  -50.19   85.29
   0  -3 -51 -125.09   86.39
   3  -3  51  -25.10  100.69
  -3   0  51  -76.09   93.59
   0   3  51   58.79   84.49
  -3   6 -51  126.49  121.89
  -3  -3 -51  304.97   91.09
   6  -3 -51  108.39  100.69
   3   3  51  142.69   76.99
   3  -6  51  137.69  121.19
  -4  -1 -51  -52.29   80.29
   5  -4 -51  -11.30   98.09
  -1   5 -51   62.59   95.49
  -5   4  51  -49.30   87.29
   1  -5  51   49.00  111.09
   4   1  51  240.58  136.69
   2   2 -51 -104.79   84.59
   2  -4 -51  -97.79   96.69
  -4   2 -51  -66.19   86.99
   4  -2  51  -33.60   79.09
  -2   4  51  -49.40   82.09
  -2  -2  51   52.99  104.09
  -1  -4 -51   71.99   97.59
   5  -1 -51    6.70   81.69
  -4   5 -51   98.49  116.59
   4  -5  51   73.29  105.39
   1   4  51   -4.40   72.29
  -5   1  51  -29.30  111.09
   8  -4 -51  -71.09   83.29
  -4   8 -51 -112.29  117.09
  -4  -4 -51 -120.09   76.39
   4   4  51  -99.79   83.69
   4  -8  51  -13.90  110.99
  -2   7 -51   -0.80  112.09
  -5  -2 -51   86.29   71.99
   7  -5 -51   28.90   97.59
   2  -7  51    3.60  111.49
   5   2  51   -3.20   72.49
   1   4 -51  -22.90   92.19
   4  -5 -51   13.70   95.19
  -5   1 -51   55.19   78.99
  -4   5  51  -81.19   83.39
  -1  -4  51  -10.90   98.09
   5  -1  51  -31.70   67.39
   1  -5 -51  -87.19   98.79
  -5   4 -51   94.09  103.09
   4   1 -51  108.79   93.29
  -1   5  51  -27.30   77.09
   5  -4  51   32.30   91.79
  -4  -1  51  170.28  108.39
   7  -2 -51  141.49   86.29
  -5   7 -51   80.29  113.79
  -2  -5 -51  -16.60   93.79
   2   5  51  -35.30   82.09
   5  -7  51   74.69  118.49
   0   6 -51   82.69   99.99
   6  -6 -51   42.80  102.49
  -6   0 -51  -22.60   88.29
   6   0  51  -35.40   57.29
  -6   3 -51  155.58   92.59
   3  -6 -51  186.88  111.59
   3   3 -51  143.89  101.39
   6  -3  51  141.09   73.79
  -3   6  51  138.19   91.99
   6   0 -51   81.49   88.49
   0  -6 -51  116.89  106.19
  -6   6 -51   13.30  102.09
   0   6  51  -26.30   75.49
   6  -6  51 -118.39   97.69
   2   5 -51  137.99  103.79
  -7   2 -51   -2.70   60.39
   5  -7 -51 -100.29   99.09
   7  -2  51  -13.70   52.69
   5   2 -51  101.49  100.59
   2  -7 -51  186.88  116.59
  -7   5 -51   37.50   91.89
  -2   7  51   91.19   80.89
   7  -5  51   43.10  101.59
   4  -8 -51  -77.79  109.79
   4   4 -51    9.60   90.59
   8  -4  51  -17.00   57.59
   0   1 -52  532.75  119.99
   1  -1 -52  272.47   98.89
  -1   0 -52  232.68  100.79
   1   0  52  269.07  107.59
  -1   1  52  246.38  107.79
   0  -1  52  369.86  114.39
  -1   3 -52  152.08  105.99
  -2  -1 -52  207.18   89.39
   3  -2 -52   -1.70   91.99
   1  -3  52   64.89  105.59
   2   1  52   -4.30   80.09
  -3   2  52   78.69   92.89
  -2   2 -52  486.65  120.09
   0  -2 -52  522.45  116.99
   2   0 -52  504.65  118.39
  -2   0  52  230.58  160.48
   0   2  52  275.87  103.69
   2  -2  52  430.36  114.59
  -3  -2 -52  204.18   87.09
  -2   5 -52  152.58  103.79
   5  -3 -52  127.79   99.19
  -5   3  52  115.39  110.09
   3   2  52   85.29   72.29
   2  -5  52  162.38  137.69
  -3   1 -52  215.88   98.09
   1   2 -52  226.78  103.49
   2  -3 -52  187.58   99.79
  -2   3  52   57.39   97.59
   3  -1  52  231.28   89.79
  -1  -2  52   72.49  127.19
   4  -1 -52   65.69   93.09
  -3   4 -52  194.78  104.59
  -1  -3 -52  146.49   93.89
  -4   1  52  -25.70   87.29
   3  -4  52   94.59  110.69
   1   3  52   41.70   77.59
   7  -4 -52  259.67  102.89
  -4  -3 -52  -48.90   76.59
  -3   7 -52  -61.49  113.39
   4   3  52   82.09   80.79
   3  -7  52 -155.88  114.99
   0   4 -52  371.56  111.29
  -4   0 -52  299.07   94.99
   4  -4 -52   29.50  104.39
   0  -4  52  345.47  117.19
   4   0  52  149.19   80.99
  -4   4  52  101.29   97.89
  -4   3 -52  107.59   95.39
   1  -4 -52   25.90  103.89
   3   1 -52  195.68   96.09
  -3  -1  52  160.18  104.19
  -1   4  52  -47.40   76.99
   4  -3  52   28.00   93.29
  -4   6 -52    1.40  115.19
   6  -2 -52   45.70   89.79
  -2  -4 -52   90.29   99.69
   4  -6  52   26.50  112.99
   2   4  52  133.89   76.89
  -5  -1 -52   60.89   76.69
   6  -5 -52  -22.80   94.99
  -1   6 -52  193.08  111.19
   1  -6  52   16.50  111.09
   5   1  52    1.60   63.49
  -5   2 -52  139.89   92.69
   2   3 -52  155.68  100.29
   3  -5 -52   18.90  102.39
  -3   5  52  190.68   95.19
   5  -2  52   90.39   89.59
  -2  -3  52  -19.70   97.79
   0  -5 -52  122.89  108.59
   5   0 -52  137.79   96.59
  -5   5 -52  381.96  120.19
   0   5  52   28.80   82.09
   5  -5  52  278.87  110.49
   1   5 -52   13.40   97.49
   5  -6 -52  -34.60  101.89
  -6   1 -52  138.09   77.59
   6  -1  52  133.69   64.99
   4   2 -52  193.98   98.89
   2  -6 -52   29.10  106.59
  -6   4 -52  112.39   95.79
  -2   6  52   48.30   87.09
   6  -4  52   93.89   84.79
  -6   7 -52   44.80  133.59
  -1  -6 -52  128.79  116.39
   7  -1 -52  309.67  104.69
   1   6  52   45.90   90.69
   6  -7  52    2.40  111.49
  -7   3 -52    8.10   74.79
   4  -7 -52   73.39  106.49
   3   4 -52  -60.69   91.79
   7  -3  52   17.40   61.89
   1  -7 -52  242.18  117.79
   6   1 -52  152.88  103.49
  -7   6 -52  -20.40  109.59
   7  -6  52  245.08   99.29
  -1   7  52   73.29   92.19
  -1   1 -53 -152.08   90.59
   1   0 -53  -98.79   87.79
   0   1  53 -117.59   87.49
  -1   0  53  202.68  106.49
   1  -1  53  -78.29   94.69
  -2   0 -53  126.29   93.09
   2  -2 -53   92.99   94.79
   0   2 -53  101.39  103.39
   2   0  53   32.60   83.09
   0  -2  53 -133.59   97.69
  -1  -2 -53  110.99   95.29
   3  -1 -53  171.78   97.89
   1   2  53   21.20   79.19
   2  -3  53   92.69  107.39
  -3   1  53   21.40   98.99
  -1   4 -53   59.79  102.29
  -3  -1 -53   90.59   88.29
   4  -3 -53 -106.39   84.49
   1  -4  53  -34.70  137.59
  -4   3  53  -55.89   94.89
   3   1  53   11.80   79.99
   2   1 -53  183.68  102.69
   1  -3 -53  106.39   97.49
  -3   2 -53  169.68  104.89
  -1   3  53   98.89   83.29
  -2  -1  53  193.78  106.49
   3  -2  53  -94.39   90.39
   5  -2 -53  247.08  104.69
  -3   5 -53  347.17  122.49
  -2  -3 -53  293.17   97.69
   3  -5  53  260.17  121.49
   2   3  53  205.38   85.39
   6  -4 -53  -18.40   94.09
  -4  -2 -53   99.79   76.29
  -2   6 -53  126.59  120.89
   4   2  53   99.79   71.49
   2  -6  53  -45.70  112.09
  -4   1 -53   73.79   88.69
   3  -4 -53   42.30  105.29
   1   3 -53   70.89  102.29
   4  -1  53  -41.80   78.39
  -1  -3  53 -110.49   98.69
  -3   4  53  -97.79   81.89
   4   0 -53  -98.39   87.59
   0  -4 -53  -86.39  111.29
  -4   4 -53   91.59  107.69
   4  -4  53    0.10  103.99
   0   4  53 -118.59   75.09
   7  -3 -53  -11.50   92.39
  -3  -4 -53  -42.50   82.99
  -4   7 -53  145.79  118.99
   4  -7  53  -37.20  119.69
   3   4  53   65.59   86.49
   0   5 -53 -112.39   95.19
  -5   0 -53  114.89   81.69
   5  -5 -53   99.99  105.09
   0  -5  53  -32.10  109.99
   5   0  53   63.69   69.39
   2  -5 -53  154.38  116.39
  -5   3 -53  404.86  112.29
   3   2 -53  144.89  100.29
  -2   5  53   89.09   89.19
   5  -3  53  146.49   89.59
   6  -1 -53  136.69   95.19
  -1  -5 -53  118.89  143.39
  -5   6 -53   70.29  136.79
   1   5  53  -92.39   72.39
   5  -6  53   49.30  107.89
   2   4 -53  103.49  103.49
   4  -6 -53  -26.70  106.09
  -6   2 -53  115.59   88.39
  -4   6  53  303.97  154.48
   6  -2  53   -6.70   64.29
   5   1 -53  -34.20   89.39
  -6   5 -53   12.40  101.09
   1  -6 -53   51.59  108.99
   6  -5  53    3.10   94.79
  -1   6  53   20.20   85.49
   4   3 -53 -109.49   91.99
   3  -7 -53 -122.99  103.99
  -7   4 -53   61.49   82.59
   7  -4  53   61.69   69.69
  -3   7  53   65.89  109.99
   0   0 -54 1601.24  203.08
   0   0  54 1154.28  171.18
  -1  -1 -54  221.58   97.49
   2  -1 -54  190.98   98.49
  -1   2 -54  114.69  103.29
   1  -2  54   87.49  107.79
   1   1  54  151.98   96.59
  -2   1  54  172.28  104.69
   1  -2 -54  134.39  100.99
  -2   1 -54  290.67  107.69
   1   1 -54  403.86  112.99
   2  -1  54   84.99  104.19
  -1   2  54   29.90   99.49
  -1  -1  54   98.09  115.59
  -2   4 -54  140.19  106.19
  -2  -2 -54   49.40   87.79
   4  -2 -54  182.28  100.89
   2   2  54   -1.90   78.69
   2  -4  54   -0.40  113.19
  -4   2  54  120.99  102.79
   0   3 -54   65.19  102.29
  -3   0 -54  -60.69   87.29
   3  -3 -54  -39.60   89.09
   0  -3  54 -134.69  104.99
   3   0  54   65.29   84.79
  -3   3  54  -97.39   96.79
  -3   3 -54   78.19   95.49
   3   0 -54   40.10   92.39
   0  -3 -54 -111.59   88.09
  -3   0  54  -25.80   99.39
   3  -3  54  115.59  106.19
   0   3  54  -16.00   87.49
  -3   6 -54  225.48  129.69
  -3  -3 -54  120.89   87.79
   6  -3 -54   55.69  101.49
   3  -6  54   96.89  125.69
   3   3  54  -17.90   71.59
  -1   5 -54  -26.90   98.89
  -4  -1 -54  137.29   85.69
   5  -4 -54  164.78  102.39
   1  -5  54  -98.39  109.89
   4   1  54   86.09   74.89
   2  -4 -54  166.78  114.69
  -4   2 -54  230.78  101.29
   2   2 -54  227.18  114.79
   4  -2  54   14.70   85.99
  -2  -2  54  157.98  108.89
  -2   4  54  185.38   93.69
  -4   5 -54  -21.80  184.28
   5  -1 -54 -120.59   86.29
  -1  -4 -54  -96.59  101.89
   1   4  54   16.70   80.49
   4  -5  54   17.90  108.49
  -5   1 -54   47.20   83.59
   4  -5 -54   63.59  112.39
   1   4 -54  -68.49   92.19
  -4   5  54   47.90  155.18
   5  -1  54   55.19  111.79
  -5   4 -54  121.29  106.19
   1  -5 -54  -18.50  104.89
   4   1 -54  160.88   99.49
  -1   5  54  -22.90  117.19
   5  -4  54  106.59   94.49
  -6   0 -54  196.58   89.79
   6  -6 -54  -67.59  105.09
   0   6 -54  182.58  115.49
   6   0  54   87.79   66.09
  -6   3 -54  229.48   97.99
   3  -6 -54   -9.30  110.79
   3   3 -54  184.28  104.79
   6  -3  54   96.29  100.39
  -3   6  54  134.99   93.59
   0  -6 -54  383.46  129.19
   6   0 -54  343.67  119.49
  -6   6 -54  462.15  126.09
   6  -6  54  278.77  114.59
   0   1 -55  213.78  107.19
   1  -1 -55   55.99   90.79
   1   0  55 -113.59   91.19
  -1   1  55  140.69  146.09
   0  -1  55 -117.79  104.59
  -2  -1 -55  107.19   95.89
  -1   3 -55  138.89  104.89
   3  -2 -55  185.88  107.69
   2   1  55  -24.40   81.29
  -3   2  55   80.29  101.69
   2   0 -55   45.10  101.29
   0  -2 -55   66.29   92.69
  -2   2 -55   23.20  170.68
   0   2  55    1.20   91.79
   2  -2  55 -182.88   92.19
  -2   0  55  -38.20  100.19
  -2   5 -55  430.46  125.29
  -3  -2 -55  199.68   93.39
   5  -3 -55  310.37  115.49
   2  -5  55  171.48  124.79
   3   2  55  114.19   81.49
   2  -3 -55   86.39  106.39
  -3   1 -55  165.78  100.09
   1   2 -55   98.09  103.49
  -1  -2  55  -36.50  107.99
   3  -1  55  -19.30   90.29
  -2   3  55  -44.80  102.39
  -1  -3 -55  -24.70  100.59
  -3   4 -55 -109.69  102.49
   4  -1 -55    4.60   90.89
   3  -4  55 -108.79  110.69
   1   3  55    0.20   81.39
  -4   0 -55   34.90   86.79
   0   4 -55    5.70  102.99
   4  -4 -55   88.49  104.89
   0  -4  55 -217.48  100.29
   4   0  55   -7.30   76.69
   3   1 -55  -56.29   92.79
  -4   3 -55  159.08  102.79
   1  -4 -55  -75.79  105.79
   4  -3  55    0.00   91.89
  -1   4  55   17.50  156.08
  -4   6 -55   67.99  119.19
  -2  -4 -55   60.09   94.29
   6  -2 -55   48.60   93.59
   2   4  55   14.80   74.49
   4  -6  55   35.60  164.88
  -1   6 -55   24.40  113.09
  -5  -1 -55   38.80   79.79
   6  -5 -55    1.70  109.19
   5   1  55   38.40   80.39
  -5   2 -55  399.86  109.19
   3  -5 -55   26.20  114.59
   2   3 -55  360.26  117.59
   5  -2  55  130.69   83.19
  -3   5  55  139.89  100.29
   0  -5 -55 -169.88   95.49
  -5   5 -55  -34.40  108.59
   5   0 -55 -165.88   90.29
   5  -5  55 -141.19  104.89
   0   5  55  -92.79   77.59
   1   5 -55  114.29  109.99
  -6   1 -55  179.68   82.19
   5  -6 -55  -33.10  115.39
   6  -1  55   -9.70   65.69
  -6   4 -55  110.79  102.99
   4   2 -55  -38.90   93.49
   2  -6 -55  -49.99  114.59
   6  -4  55  142.29   88.89
  -2   6  55   23.10   88.69
  -1   1 -56  128.69  101.39
   0  -1 -56  131.29  100.49
   1   0 -56  103.59  104.49
   0   1  56  140.49  106.29
   1  -1  56  119.59  103.79
  -1   0  56    9.10  107.59
  -2   0 -56  303.77  110.19
   2  -2 -56  263.77  112.09
   0   2 -56  624.24  129.39
   2   0  56  131.69   99.09
   0  -2  56   92.39  116.89
  -2   2  56   32.30  105.29
   3  -1 -56   69.49  104.39
  -2   3 -56  525.85  124.89
   1   2  56  152.38   96.19
   2  -3  56  255.77  118.09
  -3   1  56  103.59  117.09
   4  -3 -56  103.89  102.29
  -3  -1 -56  102.49   90.39
  -1   4 -56   73.99  110.09
   3   1  56   77.49   85.39
   1  -4  56  -55.49  114.19
   1  -3 -56  204.48  110.49
   2   1 -56  410.86  117.59
  -3   2 -56  378.96  116.69
   3  -2  56  164.28  107.39
  -1   3  56  101.29  113.29
  -2  -1  56  148.39  113.99
   5  -2 -56   54.89   94.69
  -2  -3 -56   65.09   92.99
  -3   5 -56  159.68  124.39
   2   3  56   -9.20   78.19
   3  -5  56   88.19  162.58
   1   3 -56  128.39  114.09
   3  -4 -56  119.89  112.79
  -4   1 -56  239.68  103.79
  -3   4  56  -86.99   91.79
  -1  -3  56   52.49  165.38
   4  -1  56   19.60   83.59
  -4   4 -56   63.99  115.99
   4   0 -56  108.59  100.79
   0  -4 -56   29.60  101.59
   4  -4  56   71.19  103.69
   0   4  56   32.60   87.19
  -5   0 -56  -67.29   84.69
   0   5 -56   -1.20  107.09
   5  -5 -56  -27.90  108.49
   5   0  56  -11.80   93.29
   2  -5 -56   74.99  120.39
   3   2 -56  117.89  107.29
  -5   3 -56  102.69  109.89
   5  -3  56   11.30   89.89
  -2   5  56   17.80   85.79
   0   0 -57   26.20  101.19
   2  -1 -57   -1.90   98.19
  -1  -1 -57  150.98  103.29
  -1   2 -57  132.19  103.79
  -2   1  57   72.29  108.79
   1   1  57  -45.20   94.29
   1  -2 -57  127.79   99.89
   1   1 -57  -12.10  102.59
  -2   1 -57  143.79  174.08
   2  -1  57  138.79  102.79
  -1   2  57  -76.39  104.89
  -1  -1  57   15.20  112.09
  -2   4 -57  154.28  109.59
  -2  -2 -57   46.70   92.99
   4  -2 -57  -63.79   93.39
   2   2  57 -119.99   76.59
   2  -4  57 -110.09  112.89
   0   3 -57   65.39  108.59
   3  -3 -57  -38.70  106.79
  -3   0 -57  -95.09   88.39
   3   0  57   49.70   89.89
  -3   3  57   37.50  140.79
   0  -3  57  -23.90  113.79
   0  -3 -57  -87.09   97.09
   3   0 -57   38.10  101.59
  -3   3 -57  171.38  115.19
   0   3  57  -19.80   91.99
   3  -3  57 -127.99  102.49
   2  -4 -57   -4.10  103.49
   2   2 -57  -33.50   97.49
  -4   2 -57   34.70   94.09
   4  -2  57  -52.59   81.79
  -2   4  57   23.60  102.79
  -1   0 -58  185.28  106.69
   1  -1 -58    5.80   94.09
   0   1 -58  123.29  102.49
  -1   1  58  -54.09   99.09
   1   0  58  -40.20  101.39
   0  -1  58   49.10  110.79
   3  -2 -58  153.18  105.59
  -2  -1 -58   20.80  106.49
  -1   3 -58  421.66  125.69
   1  -3  58  112.99  115.19
   2   1  58   25.00   85.99
   2   0 -58  116.39  107.79
   0  -2 -58  -44.00   94.99
  -2   2 -58  200.68  118.69
  -2   0  58   30.70  140.29
   2  -2  58  166.58  108.79
   1   2 -58  183.78  116.49
  -3   1 -58  196.18  104.39
   2  -3 -58  303.47  123.69
  -1  -2  58   -9.90  164.08
  -2   3  58  209.98  111.79
   3  -1  58   98.99   93.89
  -3   4 -58  -21.20  115.49
   4  -1 -58  -67.39   96.79
  -1  -3 -58   98.19  102.59
   3  -4  58   34.40  144.19
   1   3  58  -90.09   82.09
   1  -4 -58 -123.39  101.89
  -4   3 -58   48.60  105.09
   3   1 -58  -24.80   99.89
   4  -3  58  -52.69   94.19
  -1   4  58  -28.50   92.19
   0  -1 -59  100.09  106.89
   1   0 -59   54.39  103.39
  -1   1 -59   78.79  107.29
   1  -1  59   48.30  138.19
  -1   0  59  -31.60  107.59
   0   1  59  -50.39  109.29
   2  -2 -59   84.49  103.89
   0   2 -59  175.08  111.99
  -2   0 -59   59.19  104.99
   0  -2  59 -233.18  108.79
  -2   2  59 -118.89  122.69
   2   0  59 -180.28   92.19
  -2   3 -59  233.68  119.09
   3  -1 -59   45.10  102.29
  -1  -2 -59   25.70   96.49
   2  -3  59  -34.70  116.49
   1   2  59   85.49   97.89
   1  -3 -59  222.08  116.09
   2   1 -59   -7.40  105.69
  -3   2 -59 -103.39  114.89
  -1   3  59  160.98  102.69
   3  -2  59  111.69  106.69
   0   0 -60  455.85  132.79
   0   0  60  261.67  124.89
   0   0   0    0.00    0.00

_computing_structure_solution     'SHELXT 2018/2 (Sheldrick, 2018)'
;
_shelx_hkl_checksum   13702

_shelx_fab_file
;
    0    0   60    -14.38     22.11
   -1    3   59      4.07     -1.15
   -1    1   58     -2.55     -3.27
    0    2   58     -5.76     -3.83
   -2    3   58      4.66     -8.94
   -1    4   58     14.33      1.49
   -1    2   57      1.23      6.12
   -2    4   57      3.26     -0.75
    0    1   56    -10.83      0.94
   -2    2   56     -2.87      9.12
   -1    3   56     -1.84      6.58
    0    4   56     17.39     23.63
   -3    4   56     17.42      8.38
   -2    5   56      1.47     -3.09
   -5    5   56     -7.34     -0.90
   -2    3   55      2.88      1.17
   -1    4   55     -9.31     -4.16
   -3    5   55     -2.39     15.15
   -2    6   55      4.42     11.92
   -5    6   55     -7.57     12.23
    0    0   54      4.60      0.98
   -1    2   54     17.75     -2.88
    0    3   54    -24.98    -11.95
   -3    3   54    -13.71      0.69
   -2    4   54     -0.74      0.53
   -1    5   54    -19.33      7.05
   -4    5   54     -4.16     -7.24
    0    6   54      9.34      5.61
   -3    6   54      4.43     10.17
   -6    6   54     -0.16      2.48
   -1    3   53     21.39      4.15
   -3    4   53      1.23     -0.44
   -2    5   53     -1.79     -1.94
   -1    6   53      4.84     -1.73
   -4    6   53      3.87    -15.82
   -3    7   53     -3.66      5.22
   -1    1   52     -9.84     17.64
    0    2   52      7.59     16.21
   -2    3   52      7.14      2.22
   -1    4   52     19.46    -12.64
   -4    4   52      1.15     -6.30
    0    5   52     22.60    -10.92
   -3    5   52      0.39     -2.89
   -2    6   52      0.69    -17.44
   -5    6   52     12.46      1.79
   -1    7   52     -4.78      7.29
   -4    7   52      1.81      1.60
   -1    2   51    -17.56     15.67
   -2    4   51    -14.01     13.63
   -1    5   51      3.63      6.12
   -4    5   51      7.61     12.36
   -3    6   51     -3.08     -1.16
   -2    7   51     -6.37     -2.17
   -5    7   51      1.43     -7.96
   -4    8   51     -0.52     -5.92
    0    1   50     -4.64     11.58
   -2    2   50     -3.08     18.45
   -1    3   50     -8.95      7.01
    0    4   50    -10.27     20.61
   -3    4   50     12.34     -4.20
   -2    5   50      5.34     -2.15
   -5    5   50    -22.97    -14.96
   -1    6   50     -0.19      8.88
   -4    6   50    -10.46      1.13
    0    7   50    -13.80     -4.79
   -3    7   50     -6.78     19.29
   -6    7   50     -9.35      6.72
   -2    8   50    -11.97      2.39
   -5    8   50      1.30    -10.12
   -2    3   49     -3.26    -16.59
   -1    4   49      1.56     -6.21
   -3    5   49      4.67    -12.79
   -2    6   49     -0.20     11.32
   -5    6   49     -9.39      3.52
   -1    7   49     10.68     -1.57
   -4    7   49     11.23     -8.74
   -3    8   49      5.39     -2.99
   -6    8   49      1.41    -13.85
   -5    9   49     -2.81    -13.11
    0    0   48    -13.79      1.43
   -1    2   48     -0.74      6.30
    0    3   48      3.63     -3.68
   -3    3   48    -10.27      6.68
   -2    4   48     12.28      8.69
   -1    5   48     11.98      2.92
   -4    5   48     26.10    -12.70
    0    6   48     -1.68    -12.82
   -3    6   48      7.17    -11.90
   -6    6   48      7.04     -6.55
   -2    7   48     13.93    -10.13
   -5    7   48      0.21     -7.73
   -1    8   48      7.45    -14.81
   -4    8   48      0.51     -2.90
   -7    8   48     -3.64    -11.02
   -3    9   48      4.32     -0.61
   -6    9   48     10.97     -5.48
   -1    3   47      6.47     -2.44
   -3    4   47      5.23      8.55
   -2    5   47     -9.47     -3.56
   -1    6   47     -8.63      3.64
   -4    6   47     12.42      9.39
   -3    7   47     -6.24      1.59
   -6    7   47      2.93    -11.47
   -2    8   47      1.74     12.67
   -5    8   47      1.11      3.33
   -4    9   47      5.08      3.30
   -7    9   47      1.01      0.01
   -1    1   46    -16.14     18.88
    0    2   46    -34.83     13.97
   -2    3   46     -8.48      2.18
   -1    4   46    -16.45     -3.41
   -4    4   46      2.18      9.48
    0    5   46     -6.15      7.80
   -3    5   46     -3.72     14.75
   -2    6   46     -7.59     10.28
   -5    6   46      2.01      5.81
   -1    7   46     13.34     14.34
   -4    7   46      4.52     -3.40
   -7    7   46    -25.10     -1.01
    0    8   46     -1.36      8.99
   -3    8   46     -3.58     19.31
   -6    8   46      5.19     -0.60
   -2    9   46      6.35      9.31
   -5    9   46      3.69      4.61
   -8    9   46     -8.47      2.04
   -4   10   46     -0.02     -2.23
   -1    2   45      0.03     -0.68
   -2    4   45     16.41     -1.41
   -1    5   45     -3.66     -0.78
   -4    5   45    -10.60      4.35
   -3    6   45      1.22     -3.17
   -2    7   45     -5.71     -4.37
   -5    7   45      1.32     -7.98
   -1    8   45    -10.58      6.21
   -4    8   45      4.26     -9.72
   -7    8   45     -0.16     -2.05
   -3    9   45      5.87     -9.65
   -6    9   45      0.46     -9.61
   -5   10   45     -5.99      1.88
    0    1   44      1.13     -8.66
   -2    2   44     -6.34     11.44
   -1    3   44      3.76    -20.51
    0    4   44      5.50      4.06
   -3    4   44      4.05      0.67
   -2    5   44      7.76    -11.71
   -5    5   44     -2.91     10.21
   -1    6   44      2.37      6.87
   -4    6   44      9.92     -0.38
    0    7   44     -1.75     -3.27
   -3    7   44      8.52     -6.38
   -6    7   44      1.31    -11.36
   -2    8   44    -15.65     -0.47
   -5    8   44     -4.34      6.04
   -8    8   44      4.49    -14.57
   -1    9   44     -3.19     -2.38
   -4    9   44     -0.77      3.70
   -7    9   44     13.26     -7.22
   -3   10   44      0.52     -4.56
   -6   10   44     -8.32      5.31
   -2    3   43      5.67      8.51
   -1    4   43     -3.39      3.99
   -3    5   43      0.67     -3.74
   -2    6   43      0.23    -10.22
   -5    6   43     -6.14     -0.40
   -1    7   43     -0.41     -5.24
   -4    7   43      0.62     -0.02
   -3    8   43     -2.10     12.83
   -6    8   43     14.59     -5.64
   -2    9   43     -7.64     -8.16
   -5    9   43     -1.87     -5.89
   -8    9   43     -9.25     -5.14
   -4   10   43      3.46     -2.64
   -7   10   43    -18.22    -12.13
    0    0   42    -22.68     25.90
   -1    2   42    -19.18      6.03
    0    3   42      8.84    -19.76
   -3    3   42    -18.61      4.15
   -2    4   42      2.89     -7.00
   -1    5   42     -6.88     -0.71
   -4    5   42    -12.05      4.25
    0    6   42     -9.28     -6.38
   -3    6   42      9.70     17.16
   -6    6   42     -6.98    -15.51
   -2    7   42      8.36     12.82
   -5    7   42     -0.70     -5.96
   -1    8   42     -2.07     -1.11
   -4    8   42      0.39     -3.95
   -7    8   42     -1.24      2.59
    0    9   42      0.47     -2.29
   -3    9   42     -0.48     -1.89
   -6    9   42      1.42     -6.72
   -9    9   42    -10.89      5.61
   -2   10   42      9.03     -1.26
   -5   10   42     -3.39      9.43
   -8   10   42    -17.92     15.27
   -4   11   42      2.16      6.46
   -7   11   42    -17.48    -29.46
   -1    3   41      3.36      1.81
   -3    4   41      3.06     12.34
   -2    5   41     -4.05     -8.70
   -1    6   41      8.62      5.92
   -4    6   41     18.33    -10.66
   -3    7   41     -3.95     -9.76
   -6    7   41      0.11      7.01
   -2    8   41      9.74      5.96
   -5    8   41      3.52      2.50
   -1    9   41      7.65     -0.02
   -4    9   41      7.54    -13.94
   -7    9   41     17.37     -5.03
   -3   10   41     10.83     -2.25
   -6   10   41      3.20    -13.99
   -9   10   41     -7.31      5.41
   -5   11   41      6.84     -2.74
   -8   11   41      3.70     -9.15
   -1    1   40     -4.63      3.95
    0    2   40      3.97      2.54
   -2    3   40      1.85     -5.79
   -1    4   40     17.57     14.21
   -4    4   40    -15.20    -17.49
    0    5   40      1.85     -8.18
   -3    5   40     11.75      7.54
   -2    6   40    -19.39      6.73
   -5    6   40     12.39     -5.78
   -1    7   40      5.66     15.22
   -4    7   40      5.37      0.42
   -7    7   40     21.10     -5.99
    0    8   40    -12.36    -20.11
   -3    8   40     -0.53     15.64
   -6    8   40      9.82     13.85
   -2    9   40     11.49     -8.52
   -5    9   40    -13.51     -3.72
   -8    9   40      5.29    -11.02
   -1   10   40     -1.29      2.44
   -4   10   40     -0.27     -2.13
   -7   10   40     17.03     -3.87
  -10   10   40     11.64     19.48
   -3   11   40     -4.73      2.72
   -6   11   40      8.51      3.33
   -1    2   39     -0.80      1.56
   -2    4   39      6.39     -1.08
   -1    5   39     -4.16     -6.59
   -4    5   39     -7.12     15.67
   -3    6   39     17.24      1.35
   -2    7   39    -13.06     -4.34
   -5    7   39     -3.37     -2.66
   -1    8   39     -3.77      3.38
   -4    8   39      5.16     -5.39
   -7    8   39    -14.79      4.23
   -3    9   39     20.13      8.86
   -6    9   39     -2.23      2.70
   -2   10   39     -1.28     18.26
   -5   10   39     -2.23      1.87
   -8   10   39     -6.25    -20.42
   -4   11   39     -0.99      2.11
   -7   11   39      7.13     -9.45
    0    1   38    -33.32      1.46
   -2    2   38    -12.70     -4.99
   -1    3   38     13.15     -7.46
    0    4   38    -12.82      6.20
   -3    4   38    -11.39      0.96
   -2    5   38     -9.59     -3.32
   -5    5   38     15.18     -2.12
   -1    6   38      5.41      1.48
   -4    6   38     -0.69     13.00
    0    7   38     -6.89    -12.30
   -3    7   38     -0.06     -2.32
   -6    7   38     -2.25      5.09
   -2    8   38    -17.82      4.42
   -5    8   38      9.47     -2.94
   -8    8   38      9.71      6.95
   -1    9   38     11.62      2.20
   -4    9   38     -3.97      3.78
   -7    9   38     -9.18      8.23
    0   10   38     11.11    -13.60
   -3   10   38      1.84      3.57
   -6   10   38     -5.92     -2.58
   -9   10   38    -19.00    -10.83
   -2   11   38      1.17    -14.52
   -5   11   38     -6.08      0.28
   -8   11   38      8.35    -26.59
   -7   12   38      2.74    -19.68
   -2    3   37     -3.54      7.13
   -1    4   37      8.77     -7.71
   -3    5   37    -12.97      3.01
   -2    6   37      9.19     -6.36
   -5    6   37     -5.98     -6.88
   -1    7   37      4.11      4.57
   -4    7   37      6.50     17.76
   -3    8   37     -2.60     12.51
   -6    8   37     -5.62     -7.25
   -2    9   37     -1.47     18.63
   -5    9   37      9.32    -14.99
   -8    9   37      5.39    -12.52
   -1   10   37    -20.65      0.59
   -4   10   37     -4.23     21.53
   -7   10   37     13.08      1.83
   -3   11   37    -11.25     -9.53
   -6   11   37     -3.76     -3.86
   -9   11   37      8.12      4.49
   -5   12   37     -2.61     -0.01
   -8   12   37     -4.32     -0.51
    0    0   36      2.72    -25.61
   -1    2   36    -11.29     16.28
    0    3   36    -13.84     29.33
   -3    3   36      8.38    -27.62
   -2    4   36     -2.81      2.43
   -1    5   36     -8.92     -0.30
   -4    5   36     -5.01     -2.00
    0    6   36    -14.32      4.31
   -3    6   36      3.70      9.08
   -6    6   36      5.52      3.56
   -2    7   36      0.95      1.44
   -5    7   36      4.93     10.11
   -1    8   36     12.44     -4.07
   -4    8   36      0.10     12.71
   -7    8   36      3.22     24.05
    0    9   36    -15.47     -2.95
   -3    9   36     -6.49     -1.75
   -6    9   36     -4.06     -5.43
   -9    9   36     22.07      2.87
   -2   10   36      9.31      5.96
   -5   10   36    -15.44      2.25
   -8   10   36     15.15     18.47
   -1   11   36      6.26     -1.51
   -4   11   36     12.51     -8.32
   -7   11   36     18.24     11.33
  -10   11   36     10.52     -2.77
   -3   12   36      2.03     -4.09
   -6   12   36      5.66      6.54
   -9   12   36      6.15     10.11
   -1    3   35      2.57     13.72
   -3    4   35      0.71     -6.47
   -2    5   35     14.58     -2.43
   -1    6   35     -3.88      3.80
   -4    6   35     -6.55    -19.30
   -3    7   35     -4.39    -13.78
   -6    7   35     10.13     -4.63
   -2    8   35     -2.97     11.30
   -5    8   35    -11.54      0.79
   -1    9   35     -5.22    -14.11
   -4    9   35    -10.16    -10.05
   -7    9   35      5.40    -12.70
   -3   10   35     -9.12    -11.62
   -6   10   35      3.97      6.55
   -9   10   35      8.18     -9.87
   -2   11   35     10.75     -2.62
   -5   11   35     -1.69     -7.15
   -8   11   35     -0.17     -2.73
   -4   12   35     16.34     13.25
   -7   12   35     -5.09      7.59
   -1    1   34     -2.86     -4.81
    0    2   34    -29.74    -25.77
   -2    3   34      1.71     -9.02
   -1    4   34      5.15    -12.72
   -4    4   34     -6.19     -0.31
    0    5   34     12.24    -13.30
   -3    5   34     -2.98     -2.96
   -2    6   34     -5.01      4.40
   -5    6   34      4.61      7.02
   -1    7   34      1.31     15.02
   -4    7   34    -18.33      4.39
   -7    7   34    -12.74      5.43
    0    8   34     16.68     -7.11
   -3    8   34      2.45     -1.35
   -6    8   34    -11.94     -0.89
   -2    9   34    -12.18      0.85
   -5    9   34     -1.12     -7.75
   -8    9   34    -20.01     -4.68
   -1   10   34      3.26     -0.21
   -4   10   34     -8.85     -3.01
   -7   10   34      1.84      2.30
  -10   10   34     11.68      0.03
    0   11   34     25.74    -13.43
   -3   11   34      5.35      1.14
   -6   11   34     -8.11    -19.47
   -9   11   34    -16.38      4.16
   -2   12   34     14.28     -6.80
   -5   12   34     -4.35      4.35
   -8   12   34      5.65      0.92
   -1    2   33     -4.39     -8.20
   -2    4   33     -6.39     -0.18
   -1    5   33     -8.27      2.14
   -4    5   33      3.44      4.17
   -3    6   33     11.87     10.02
   -2    7   33     -1.59      4.13
   -5    7   33      0.94     -0.48
   -1    8   33     -4.56     15.68
   -4    8   33      0.02     -5.32
   -7    8   33     -2.86      3.82
   -3    9   33     -2.17      5.31
   -6    9   33     -4.68     -0.02
   -2   10   33     13.58      6.12
   -5   10   33      4.51     -5.68
   -8   10   33      3.24      9.54
   -1   11   33     -5.28      2.84
   -4   11   33     -0.79      1.71
   -7   11   33    -14.49    -19.14
  -10   11   33      7.97      7.96
   -3   12   33     -0.84      9.54
   -6   12   33     -1.88      8.45
   -9   12   33      5.99      2.80
    0    1   32    -28.53     -4.43
   -2    2   32     -1.68      8.24
   -1    3   32      8.16     -3.70
    0    4   32    -16.89     10.58
   -3    4   32      8.90    -10.06
   -2    5   32    -11.40      0.68
   -5    5   32      9.72     -2.54
   -1    6   32    -12.95      0.51
   -4    6   32      6.14      3.48
    0    7   32    -10.83     -0.32
   -3    7   32     13.13     10.25
   -6    7   32     -2.85     11.88
   -2    8   32     -7.21      6.32
   -5    8   32     -4.35      0.87
   -8    8   32      8.41      3.83
   -1    9   32     -6.75     -0.96
   -4    9   32     -5.05      5.93
   -7    9   32      5.42      3.30
    0   10   32     22.38     -0.04
   -3   10   32     19.24      0.61
   -6   10   32      6.13      8.09
   -9   10   32      3.10     10.76
   -2   11   32     -3.27     -2.36
   -5   11   32      2.96     -1.65
   -8   11   32    -12.77      4.68
  -11   11   32      5.90      4.39
   -4   12   32      4.36     -0.80
   -7   12   32     12.46     10.09
  -10   12   32     -4.52    -18.98
   -6   13   32      6.98      1.62
   -2    3   31      9.60     -0.26
   -1    4   31      7.82     -5.35
   -3    5   31     -2.98     -6.52
   -2    6   31     -0.26     -2.86
   -5    6   31     -5.82     -8.56
   -1    7   31     -1.95      1.33
   -4    7   31     -7.46    -10.25
   -3    8   31      7.26    -17.52
   -6    8   31     -1.65    -19.04
   -2    9   31    -10.86     16.75
   -5    9   31      4.33     -7.90
   -8    9   31      8.53    -10.92
   -1   10   31      2.92     -8.53
   -4   10   31      0.87     -1.69
   -7   10   31      3.47    -14.49
   -3   11   31     -5.18     16.41
   -6   11   31     10.23     -5.09
   -9   11   31    -10.26      4.31
   -2   12   31    -11.41     22.45
   -5   12   31    -10.84     -2.19
   -8   12   31      6.38     -5.73
  -11   12   31     -7.37    -11.88
   -4   13   31     -1.13      6.04
   -7   13   31    -12.73      4.98
    0    0   30     24.80    -32.91
   -1    2   30      5.83     -6.85
    0    3   30     11.57     -2.97
   -3    3   30      6.96    -12.45
   -2    4   30      6.21     -5.08
   -1    5   30     16.71     -7.47
   -4    5   30     -9.55     15.18
    0    6   30     11.23     -6.47
   -3    6   30     -8.49     -0.02
   -6    6   30    -17.68     10.90
   -2    7   30     -4.67      9.38
   -5    7   30     -9.13    -10.65
   -1    8   30      6.93      0.81
   -4    8   30    -18.13      8.97
   -7    8   30     -3.26      9.48
    0    9   30     -3.08     -0.12
   -3    9   30    -15.63      1.08
   -6    9   30      5.01     -2.01
   -9    9   30    -17.59      0.98
   -2   10   30      4.20      4.97
   -5   10   30     -8.08     -9.21
   -8   10   30    -11.85     -9.36
   -1   11   30      7.23     19.77
   -4   11   30     -6.69      4.83
   -7   11   30     -2.57      0.00
  -10   11   30     10.34     -7.56
   -3   12   30      9.69      2.78
   -6   12   30      1.26      5.60
   -9   12   30     16.23      1.96
   -5   13   30     -3.99     -1.98
   -8   13   30      1.11     -7.29
   -1    3   29     -3.37      8.30
   -3    4   29      2.35     -0.80
   -2    5   29     -1.67     -0.86
   -1    6   29     -9.58     -3.00
   -4    6   29      8.53    -15.30
   -3    7   29      5.69      9.43
   -6    7   29      5.43      2.33
   -2    8   29    -15.78     17.54
   -5    8   29     -3.26     -8.71
   -1    9   29      8.66     -2.50
   -4    9   29     17.07      4.17
   -7    9   29      8.14      1.72
   -3   10   29    -17.28     -3.16
   -6   10   29     -1.31     14.13
   -9   10   29     -0.29     -3.91
   -2   11   29    -11.70      5.70
   -5   11   29      4.74      6.16
   -8   11   29      6.07     -7.04
   -1   12   29      0.62    -15.50
   -4   12   29     -7.95      1.27
   -7   12   29     -2.22      5.66
  -10   12   29     -1.19    -18.88
   -3   13   29    -18.07     -3.26
   -6   13   29      8.51     -1.89
   -9   13   29      5.72      4.40
   -1    1   28    -11.62      8.41
    0    2   28    -25.14     -6.22
   -2    3   28     19.50      4.05
   -1    4   28      2.93     10.65
   -4    4   28     -1.64      0.87
    0    5   28     -1.36      5.26
   -3    5   28      6.10     -6.65
   -2    6   28    -10.58     13.12
   -5    6   28      1.57      4.79
   -1    7   28     -8.23      6.33
   -4    7   28      6.96     -8.55
   -7    7   28    -17.93     -1.59
    0    8   28     -3.26      8.84
   -3    8   28     -7.27     -4.20
   -6    8   28      0.39     14.00
   -2    9   28    -15.94     -5.72
   -5    9   28     -9.58     13.11
   -8    9   28      9.38     -8.74
   -1   10   28     -9.58     -7.44
   -4   10   28      3.22     -2.14
   -7   10   28      3.72      0.85
  -10   10   28     10.33      6.64
    0   11   28     -3.15      8.53
   -3   11   28     -4.36     11.89
   -6   11   28      0.58      0.47
   -9   11   28     -8.69      5.62
   -2   12   28    -13.31     -6.86
   -5   12   28    -10.61      2.22
   -8   12   28    -11.59     13.42
  -11   12   28     -8.50     -8.15
   -4   13   28      4.34      5.47
   -7   13   28     -1.95     -3.96
  -10   13   28    -15.93    -12.91
   -1    2   27     -0.06     -5.27
   -2    4   27      3.20      0.91
   -1    5   27      1.60    -11.32
   -4    5   27     -0.02      5.33
   -3    6   27      0.64     -6.14
   -2    7   27      1.40     -0.31
   -5    7   27     10.73     -8.47
   -1    8   27    -18.90      7.52
   -4    8   27      2.51     -3.24
   -7    8   27      2.21     -3.14
   -3    9   27     -5.25     -2.78
   -6    9   27      6.27    -15.47
   -2   10   27     -3.73      2.58
   -5   10   27    -19.95      8.66
   -8   10   27     11.78      1.91
   -1   11   27     -4.10     -1.31
   -4   11   27     -4.82     -3.25
   -7   11   27    -12.10     -7.54
  -10   11   27     10.57      3.91
   -3   12   27     -1.68     -3.05
   -6   12   27    -21.73      3.69
   -9   12   27      1.07     -2.91
   -5   13   27     -8.52      2.55
   -8   13   27    -16.89    -21.64
    0    1   26     17.02    -24.43
   -2    2   26      4.79     33.65
   -1    3   26     26.20     -3.10
    0    4   26      4.24     25.38
   -3    4   26      3.14    -16.77
   -2    5   26      4.69    -12.16
   -5    5   26     -7.90    -33.67
   -1    6   26      7.07      3.74
   -4    6   26      2.33     10.25
    0    7   26     -8.47      9.05
   -3    7   26      8.12      8.51
   -6    7   26    -14.67     -1.17
   -2    8   26      4.32     -6.24
   -5    8   26    -16.40    -10.54
   -8    8   26      1.41     18.83
   -1    9   26      8.93     -9.29
   -4    9   26     -9.68     -9.82
   -7    9   26      4.56     14.40
    0   10   26     13.16      8.35
   -3   10   26      4.27      1.55
   -6   10   26      0.79     10.24
   -9   10   26     -2.90     10.63
   -2   11   26     -2.87    -12.55
   -5   11   26     -3.19     -7.43
   -8   11   26    -14.37     -0.46
  -11   11   26      9.53      3.38
   -1   12   26     -3.76      0.88
   -4   12   26     -1.88    -13.04
   -7   12   26      5.82      1.13
  -10   12   26      1.31     -7.54
   -3   13   26      1.92      3.95
   -6   13   26     13.99    -11.95
   -9   13   26     -6.40    -10.57
   -8   14   26     -2.14     10.03
   -2    3   25      3.10      3.08
   -1    4   25     -0.58    -12.40
   -3    5   25      1.59    -12.50
   -2    6   25      7.53     -5.94
   -5    6   25     -5.97    -10.01
   -1    7   25     -6.94     -8.87
   -4    7   25     -1.02     -6.29
   -3    8   25     -7.00      6.93
   -6    8   25     16.26     11.54
   -2    9   25    -12.59     -4.07
   -5    9   25     -2.20      2.66
   -8    9   25      4.09     -5.93
   -1   10   25     10.40      9.17
   -4   10   25     -2.04    -10.60
   -7   10   25     -0.81     -1.75
   -3   11   25     -6.23      8.19
   -6   11   25      5.33    -19.21
   -9   11   25      2.18     11.96
   -2   12   25     -0.85      3.76
   -5   12   25      7.21     -9.08
   -8   12   25     17.53     -6.87
  -11   12   25      0.27    -14.35
   -4   13   25     13.32      7.93
   -7   13   25     11.34     -9.83
  -10   13   25      6.46     -3.97
   -6   14   25     -5.78      0.78
   -9   14   25     26.12      2.44
    0    0   24      2.77     -0.15
   -1    2   24    -29.14     13.65
    0    3   24     -6.44     30.60
   -3    3   24     12.75     -8.86
   -2    4   24     25.57     30.87
   -1    5   24     -2.94      3.61
   -4    5   24     29.43     24.20
    0    6   24      1.39     -4.07
   -3    6   24     -5.19     14.07
   -6    6   24      9.65      5.07
   -2    7   24     -8.91      7.76
   -5    7   24     -1.54    -14.69
   -1    8   24    -10.92     -7.26
   -4    8   24     -3.38      5.34
   -7    8   24    -17.03     10.09
    0    9   24     -5.54     11.31
   -3    9   24      0.62      3.84
   -6    9   24     -8.20      8.28
   -9    9   24     -4.35     -8.02
   -2   10   24    -10.60      1.04
   -5   10   24     -8.18     -0.98
   -8   10   24     -7.43     -9.04
   -1   11   24      2.13      2.65
   -4   11   24     -1.90      8.03
   -7   11   24    -15.72     -4.28
  -10   11   24    -14.60     -3.85
    0   12   24     -4.76     -6.43
   -3   12   24      5.18      2.33
   -6   12   24     -0.28     12.47
   -9   12   24      0.67    -17.64
  -12   12   24    -13.29    -13.52
   -2   13   24     -1.98     -3.05
   -5   13   24      6.06     22.73
   -8   13   24     -0.35      2.28
  -11   13   24    -12.09    -21.11
   -7   14   24     -6.28      4.37
   -1    3   23      1.45     -0.72
   -3    4   23     -0.01      2.65
   -2    5   23     19.16      6.61
   -1    6   23      4.01      8.73
   -4    6   23     27.86      0.68
   -3    7   23      3.79     -3.24
   -6    7   23     -1.14      0.59
   -2    8   23     -1.75    -14.59
   -5    8   23     -7.99     -8.34
   -1    9   23     -0.69      2.84
   -4    9   23      2.08     -5.94
   -7    9   23     15.85     15.87
   -3   10   23    -10.89     -1.76
   -6   10   23     -2.04      2.59
   -9   10   23      3.28     22.66
   -2   11   23    -26.55      9.43
   -5   11   23     -2.33     -3.16
   -8   11   23    -13.25     -2.47
   -1   12   23      9.03      5.96
   -4   12   23     -8.26     18.65
   -7   12   23      4.18      0.77
  -10   12   23      1.72     -1.75
   -3   13   23    -23.03      1.49
   -6   13   23     -9.50      8.78
   -9   13   23      2.91      5.61
   -5   14   23     -9.17     17.44
   -8   14   23    -14.78    -11.40
   -1    1   22     33.25    -25.65
    0    2   22     12.74    -16.80
   -2    3   22     32.04     -7.35
   -1    4   22     -4.64      7.53
   -4    4   22     10.74     18.92
    0    5   22     22.34     11.56
   -3    5   22     -7.02     -1.91
   -2    6   22     -1.06     14.03
   -5    6   22     -2.21     -5.03
   -1    7   22     13.65      4.83
   -4    7   22     15.47    -12.91
   -7    7   22    -13.59    -26.78
    0    8   22      5.51      0.57
   -3    8   22     -0.31      1.76
   -6    8   22      0.00      1.94
   -2    9   22     15.31    -11.82
   -5    9   22     -9.55     -4.36
   -8    9   22     -8.83      6.68
   -1   10   22      4.24     -8.36
   -4   10   22     -0.97     -2.86
   -7   10   22      4.76     -1.32
  -10   10   22     10.96     11.90
    0   11   22     -0.60    -15.01
   -3   11   22     12.61     -9.71
   -6   11   22     12.24     10.38
   -9   11   22     -5.66     -3.58
   -2   12   22      6.50     -6.39
   -5   12   22    -12.13     -3.03
   -8   12   22     -7.24      4.72
  -11   12   22     11.45    -21.49
   -1   13   22     -4.30     -2.15
   -4   13   22    -10.23     -0.55
   -7   13   22      2.50      4.32
  -10   13   22      6.69     -7.98
   -6   14   22     -8.53      0.61
   -9   14   22    -11.92      4.39
   -1    2   21     -0.31     -5.46
   -2    4   21     10.50    -12.95
   -1    5   21     -5.04     -4.93
   -4    5   21    -13.32      1.88
   -3    6   21     -5.49     16.08
   -2    7   21      5.10     14.06
   -5    7   21     -2.54      7.69
   -1    8   21      2.90     13.16
   -4    8   21     15.54     -4.53
   -7    8   21     -6.89      3.57
   -3    9   21      0.15     -0.31
   -6    9   21     -5.30     -3.13
   -2   10   21    -22.15    -14.49
   -5   10   21      4.13     -1.14
   -8   10   21    -20.51      4.01
   -1   11   21    -12.58     -8.33
   -4   11   21     -2.15     -4.77
   -7   11   21      1.84     -5.25
  -10   11   21     -6.49     -9.65
   -3   12   21     -6.09     -6.39
   -6   12   21      1.01     -1.24
   -9   12   21     13.13      1.53
   -2   13   21      0.31    -11.54
   -5   13   21    -17.89    -12.26
   -8   13   21      5.03     16.57
  -11   13   21     -0.91     11.58
   -4   14   21     11.61    -22.24
   -7   14   21     25.60     -9.89
  -10   14   21    -10.66     18.46
    0    1   20    -28.43    -10.31
   -2    2   20     -0.89     56.15
   -1    3   20    -16.44     21.79
    0    4   20     20.36     21.64
   -3    4   20    -18.73     23.01
   -2    5   20      0.52     -0.11
   -5    5   20     15.58     15.66
   -1    6   20     -1.63     -1.03
   -4    6   20     26.46     27.80
    0    7   20     -4.60     -5.17
   -3    7   20      3.79      3.46
   -6    7   20     -0.14      6.82
   -2    8   20     -3.08      7.02
   -5    8   20     -0.96      0.82
   -8    8   20      8.43    -16.45
   -1    9   20     -4.52      1.81
   -4    9   20      7.48      3.97
   -7    9   20      1.50     -0.46
    0   10   20     -1.85     18.56
   -3   10   20    -11.95     13.18
   -6   10   20    -21.74      3.89
   -9   10   20    -14.92     -4.89
   -2   11   20     -0.08     12.23
   -5   11   20     -5.32     -5.05
   -8   11   20     -3.26    -19.43
  -11   11   20    -14.78      0.08
   -1   12   20      1.73      8.40
   -4   12   20     -5.19     11.81
   -7   12   20    -15.76      4.91
  -10   12   20     21.96    -16.54
   -3   13   20     -2.14     11.77
   -6   13   20    -17.10     -5.30
   -9   13   20     -0.53     -9.70
  -12   13   20     -0.12    -10.14
   -5   14   20      3.07     -4.67
   -8   14   20     -4.07      1.25
  -11   14   20     -1.44      0.57
   -2    3   19      8.18      8.28
   -1    4   19     23.16      2.61
   -3    5   19      0.75      8.50
   -2    6   19    -16.20     -6.49
   -5    6   19     -2.16    -22.42
   -1    7   19    -23.77     -9.53
   -4    7   19     -5.65      4.37
   -3    8   19     -1.43      8.60
   -6    8   19      2.40     11.21
   -2    9   19     -6.59    -10.12
   -5    9   19     -5.92      3.13
   -8    9   19      3.62     -9.47
   -1   10   19     18.87      0.50
   -4   10   19     -7.14     -8.47
   -7   10   19      5.38     -1.48
   -3   11   19     -0.88    -10.09
   -6   11   19      2.31     -2.01
   -9   11   19      0.84     10.00
   -2   12   19     -9.35      2.13
   -5   12   19      9.73     -6.60
   -8   12   19    -16.91     -2.73
  -11   12   19     10.50      3.21
   -1   13   19     -4.37    -14.68
   -4   13   19      3.53     14.08
   -7   13   19     -4.91      2.59
  -10   13   19    -21.36     -9.73
   -3   14   19      9.08     15.03
   -6   14   19    -17.37      4.22
   -9   14   19    -10.52    -25.48
    0    0   18    138.05    -49.95
   -1    2   18     27.94      5.63
    0    3   18     17.95      9.30
   -3    3   18     13.08    -34.79
   -2    4   18     40.89    -29.82
   -1    5   18      8.16     29.30
   -4    5   18     -0.30     25.20
    0    6   18     26.20     12.55
   -3    6   18     -1.64     21.42
   -6    6   18      8.61     -5.66
   -2    7   18     11.09     11.32
   -5    7   18      6.63     -6.01
   -1    8   18      3.76     -7.87
   -4    8   18     -1.68     18.21
   -7    8   18      7.40      9.78
    0    9   18     -0.20    -11.47
   -3    9   18     -0.53      0.96
   -6    9   18      0.38     19.19
   -9    9   18     11.68      6.94
   -2   10   18      8.02    -13.81
   -5   10   18     -6.81     10.05
   -8   10   18     -2.44     -5.18
   -1   11   18     -0.35    -15.74
   -4   11   18      5.76     -5.27
   -7   11   18     13.20    -14.14
  -10   11   18      6.92    -10.43
    0   12   18     -1.45    -25.85
   -3   12   18     -5.09     -8.81
   -6   12   18      0.17      8.52
   -9   12   18     12.28     16.08
  -12   12   18     17.52    -16.63
   -2   13   18    -14.94     -9.23
   -5   13   18      7.66    -12.24
   -8   13   18     -6.08      4.25
  -11   13   18      2.92     -5.92
   -4   14   18     11.68     -0.61
   -7   14   18      4.90      1.16
  -10   14   18     -3.02    -17.50
   -1    3   17     -0.21      3.65
   -3    4   17     -4.36     -3.64
   -2    5   17      2.69     -6.32
   -1    6   17     28.02    -24.10
   -4    6   17     -4.64     -0.72
   -3    7   17    -13.87     -6.14
   -6    7   17      7.73     -6.18
   -2    8   17      2.35      5.98
   -5    8   17    -20.50    -12.75
   -1    9   17    -16.42      7.42
   -4    9   17      2.31     10.01
   -7    9   17     -4.58      9.01
   -3   10   17      8.08    -15.21
   -6   10   17     -2.45     10.20
   -9   10   17    -10.11      9.13
   -2   11   17    -18.37      0.34
   -5   11   17     14.67      5.00
   -8   11   17    -10.44     -6.25
   -1   12   17     28.68     -6.90
   -4   12   17     -9.09     17.57
   -7   12   17      0.87      2.58
  -10   12   17     -2.15      3.59
   -3   13   17      4.05    -15.57
   -6   13   17     -0.75      0.44
   -9   13   17     17.43     -9.21
  -12   13   17     -9.31      8.81
   -5   14   17     12.49     -9.95
   -8   14   17      2.49     11.01
  -11   14   17      0.94     -9.30
   -1    1   16    -26.94     -7.41
    0    2   16    -81.76    -33.38
   -2    3   16      1.74      3.93
   -1    4   16     13.14     28.64
   -4    4   16    -25.05      6.86
    0    5   16     23.17     19.66
   -3    5   16     -9.67     22.10
   -2    6   16     -9.26      8.18
   -5    6   16      0.02      3.51
   -1    7   16     28.71      6.02
   -4    7   16     12.90     16.32
   -7    7   16     -5.31     16.00
    0    8   16     -3.05    -14.70
   -3    8   16     -9.95     -1.27
   -6    8   16    -24.14      7.22
   -2    9   16      6.20    -15.16
   -5    9   16    -21.57    -21.40
   -8    9   16     -5.40      2.67
   -1   10   16     -6.70     -0.63
   -4   10   16    -11.04     -3.46
   -7   10   16      4.53     -2.94
  -10   10   16      1.18      2.42
    0   11   16     10.80      7.46
   -3   11   16      2.93      7.49
   -6   11   16    -14.02      0.00
   -9   11   16     12.94     -4.84
   -2   12   16      9.88      0.87
   -5   12   16     -2.26     -3.15
   -8   12   16     -8.25      1.70
  -11   12   16     10.86      1.73
   -1   13   16     -6.52     -6.55
   -4   13   16     -4.66      9.36
   -7   13   16    -13.24    -11.07
  -10   13   16      9.49      3.70
  -13   13   16     -8.67      4.22
   -3   14   16      0.20      0.80
   -6   14   16     -9.88      2.00
   -9   14   16      2.64      0.04
   -8   15   16     -7.30      9.35
   -1    2   15     -8.40      4.66
   -2    4   15     10.39     10.16
   -1    5   15     12.13     22.79
   -4    5   15    -14.76    -20.18
   -3    6   15      5.46    -24.12
   -2    7   15      1.19      1.99
   -5    7   15     -0.60     -5.95
   -1    8   15      0.76    -11.57
   -4    8   15      3.55    -15.91
   -7    8   15     -5.24     20.08
   -3    9   15    -22.37     -2.85
   -6    9   15     -4.00    -12.39
   -2   10   15      3.09     -7.86
   -5   10   15    -17.92    -12.84
   -8   10   15    -13.19     -9.28
   -1   11   15     -7.14     14.10
   -4   11   15      2.27     13.42
   -7   11   15     -3.32     -7.77
  -10   11   15     -3.16      0.92
   -3   12   15     -7.59      2.47
   -6   12   15     -5.95      4.56
   -9   12   15     -2.43      6.25
   -2   13   15     -1.74     19.20
   -5   13   15     -6.15      1.90
   -8   13   15      3.51     -5.67
  -11   13   15    -15.38     -7.21
   -4   14   15     18.73     27.15
   -7   14   15      2.84    -11.03
  -10   14   15      4.11      5.77
   -6   15   15    -13.53      6.22
   -9   15   15     -1.08    -10.33
    0    1   14     57.09      4.89
   -2    2   14     68.61     51.16
   -1    3   14     56.04      2.11
    0    4   14     -6.82     91.20
   -3    4   14     25.51    -21.66
   -2    5   14    -12.50     11.52
   -5    5   14     32.12      9.05
   -1    6   14    -15.02     32.12
   -4    6   14     15.15     25.24
    0    7   14     -0.69     36.34
   -3    7   14     -5.66     11.40
   -6    7   14     12.70      5.65
   -2    8   14      5.66     18.60
   -5    8   14      0.06     11.62
   -8    8   14     -5.42      0.45
   -1    9   14     36.98    -20.92
   -4    9   14      6.66     -3.19
   -7    9   14      8.05      1.48
    0   10   14      5.47     -5.12
   -3   10   14      2.70      4.56
   -6   10   14     -7.55      2.15
   -9   10   14      0.28     16.81
   -2   11   14      8.88     -4.81
   -5   11   14      0.14     -2.95
   -8   11   14      2.26      7.25
  -11   11   14     13.62     17.93
   -1   12   14      7.45     -9.88
   -4   12   14      4.53     14.76
   -7   12   14      1.49     -5.73
  -10   12   14      6.10      1.08
    0   13   14      5.69     -6.84
   -3   13   14    -10.37     22.69
   -6   13   14      1.47      9.31
   -9   13   14      1.78     -5.09
  -12   13   14     14.02    -13.35
   -2   14   14      1.22    -18.46
   -5   14   14      8.53      4.67
   -8   14   14     -1.11      3.07
  -11   14   14     -1.99     11.70
   -7   15   14    -15.52     -5.67
   -2    3   13     -8.88    -24.10
   -1    4   13    -15.47     -6.98
   -3    5   13     21.32     -2.22
   -2    6   13     17.55     -1.19
   -5    6   13     26.67    -13.02
   -1    7   13      2.94      4.81
   -4    7   13      2.91     -5.57
   -3    8   13     10.95    -21.16
   -6    8   13     -5.09    -15.97
   -2    9   13      2.24     -1.29
   -5    9   13      2.91     -9.08
   -8    9   13     -0.39    -11.89
   -1   10   13     -3.80    -10.10
   -4   10   13     -5.71     -5.68
   -7   10   13      4.70      5.33
   -3   11   13     -7.55    -10.05
   -6   11   13      4.02     -3.07
   -9   11   13     -2.74     -3.12
   -2   12   13    -20.19    -14.35
   -5   12   13     -1.59     -1.25
   -8   12   13     -5.46     10.99
  -11   12   13     -2.47    -10.24
   -1   13   13     17.77    -10.11
   -4   13   13    -23.34     11.07
   -7   13   13      3.16     14.06
  -10   13   13      2.85    -17.37
   -3   14   13      0.88     18.06
   -6   14   13      5.91     -6.62
   -9   14   13      0.72      1.76
  -12   14   13     18.41    -14.74
   -8   15   13     17.73     10.30
    0    0   12     86.88   -267.74
   -1    2   12    -28.56    -66.64
    0    3   12    -62.34     -5.25
   -3    3   12      1.89     -4.73
   -2    4   12     30.46      2.02
   -1    5   12    -23.66     -9.53
   -4    5   12      1.52     24.79
    0    6   12      8.57      4.68
   -3    6   12     -6.76     -0.95
   -6    6   12     -8.07     14.94
   -2    7   12     15.56     17.37
   -5    7   12    -21.92      6.10
   -1    8   12     11.80     -8.52
   -4    8   12     -3.78    -10.95
   -7    8   12      0.88     -3.89
    0    9   12      6.89      2.18
   -3    9   12      0.66    -20.25
   -6    9   12     -9.38    -17.50
   -9    9   12     -8.56     -5.43
   -2   10   12      9.74      5.66
   -5   10   12      6.14    -22.13
   -8   10   12    -13.33     -0.19
   -1   11   12     -2.93      1.75
   -4   11   12    -15.05    -13.86
   -7   11   12     23.29    -13.23
  -10   11   12     -1.88      4.32
    0   12   12      8.65    -14.26
   -3   12   12    -29.25    -18.09
   -6   12   12      0.22     -8.80
   -9   12   12      7.18     13.49
  -12   12   12    -25.18     14.95
   -2   13   12     -4.70    -12.90
   -5   13   12     -9.31     -5.92
   -8   13   12      2.97     -3.73
  -11   13   12      2.36      6.57
   -4   14   12    -18.48     -5.56
   -7   14   12     -0.57    -20.73
  -10   14   12    -14.71      2.63
   -6   15   12     -9.61     -1.64
   -9   15   12    -18.64      4.82
   -1    3   11     15.77     -2.79
   -3    4   11      0.71     -4.11
   -2    5   11    -10.87      9.71
   -1    6   11     17.23     17.54
   -4    6   11     14.39     12.30
   -3    7   11      7.60     19.59
   -6    7   11      4.50     17.14
   -2    8   11     -0.35      9.38
   -5    8   11     16.23    -27.92
   -1    9   11     -9.12     15.95
   -4    9   11     19.14     -4.35
   -7    9   11     -5.21      9.16
   -3   10   11      2.50    -16.34
   -6   10   11      7.98    -11.83
   -9   10   11     -5.97      4.27
   -2   11   11     13.87    -10.39
   -5   11   11      4.12    -12.31
   -8   11   11    -23.23    -12.20
   -1   12   11     22.03     21.06
   -4   12   11     -6.85     11.55
   -7   12   11    -12.54    -10.87
  -10   12   11      2.33    -10.18
   -3   13   11      2.25     -8.82
   -6   13   11     -3.28     11.03
   -9   13   11     -8.56      5.15
  -12   13   11      6.23     22.75
   -2   14   11     -9.83      8.84
   -5   14   11      5.91    -10.18
   -8   14   11     -8.40      8.14
  -11   14   11     13.88     15.03
   -7   15   11      4.16      6.67
  -10   15   11     10.25     -1.02
   -1    1   10    141.03    134.75
    0    2   10     20.77    -43.87
   -2    3   10     30.32      9.16
   -1    4   10      7.11      1.32
   -4    4   10      5.40     39.88
    0    5   10    -11.21     23.04
   -3    5   10     13.81     29.37
   -2    6   10    -34.14      1.10
   -5    6   10     18.57     12.52
   -1    7   10    -28.72     22.71
   -4    7   10     21.34     12.49
   -7    7   10     -6.26     28.17
    0    8   10     20.18     41.67
   -3    8   10     -9.80      8.03
   -6    8   10     15.49     11.35
   -2    9   10     18.48     13.02
   -5    9   10     21.76     18.22
   -8    9   10      9.14     -2.16
   -1   10   10      5.49     -1.16
   -4   10   10     20.80     -7.88
   -7   10   10     13.25      3.88
  -10   10   10     -1.42     15.76
    0   11   10     -1.04      6.32
   -3   11   10     20.68      1.43
   -6   11   10     -1.31     17.42
   -9   11   10      4.45      1.52
   -2   12   10     11.77     -6.63
   -5   12   10     -3.66     10.84
   -8   12   10     -1.13     13.91
  -11   12   10     -0.66      0.87
   -1   13   10     15.58      7.25
   -4   13   10      5.29     -7.02
   -7   13   10      2.12      8.80
  -10   13   10      2.63    -11.66
  -13   13   10     10.78    -19.09
   -3   14   10     -1.11     -1.49
   -6   14   10     15.36      6.13
   -9   14   10      3.99     -7.06
  -12   14   10     -8.61      1.30
   -5   15   10     -2.80      8.47
   -8   15   10     10.18      6.65
   -1    2    9    -27.13    -14.84
   -2    4    9     43.50    -28.51
   -1    5    9    -22.93      7.71
   -4    5    9     -0.13      9.80
   -3    6    9      2.88    -14.74
   -2    7    9    -15.32      2.67
   -5    7    9      2.31     15.96
   -1    8    9    -13.76    -12.30
   -4    8    9     11.75     -4.36
   -7    8    9    -13.67    -11.37
   -3    9    9     -0.61     10.60
   -6    9    9     10.24     12.23
   -2   10    9      4.53      6.53
   -5   10    9      2.64      4.99
   -8   10    9      4.10    -27.11
   -1   11    9     -8.93     14.31
   -4   11    9      2.03     -1.65
   -7   11    9     15.76     -0.65
  -10   11    9     12.51      6.49
   -3   12    9      1.50      1.82
   -6   12    9      2.51      0.63
   -9   12    9      1.44    -16.80
   -2   13    9    -22.36     30.12
   -5   13    9     -0.63     -3.16
   -8   13    9     12.27    -29.80
  -11   13    9      3.56      1.09
   -4   14    9    -14.52     16.64
   -7   14    9     -2.32     12.13
  -10   14    9     -3.91      6.56
   -6   15    9      1.30     10.15
   -9   15    9      2.06     10.39
    0    1    8     73.56   -160.55
   -2    2    8     85.04     -3.15
   -1    3    8    122.88    -70.97
    0    4    8    -19.04      7.35
   -3    4    8    -22.74    -29.05
   -2    5    8     17.19    -17.87
   -5    5    8    -12.59     11.96
   -1    6    8      9.37    -21.90
   -4    6    8     -3.72     30.35
    0    7    8    -23.63    -21.45
   -3    7    8      3.70      1.43
   -6    7    8    -13.31    -13.57
   -2    8    8     12.05     -4.42
   -5    8    8    -11.58      2.93
   -8    8    8     19.62      4.56
   -1    9    8     -5.82     -4.52
   -4    9    8     16.47     -1.75
   -7    9    8     17.27     16.98
    0   10    8     -2.59    -30.22
   -3   10    8      2.94     -0.83
   -6   10    8    -10.16     -2.09
   -9   10    8      4.56     11.17
   -2   11    8     -5.65    -16.40
   -5   11    8     10.57    -16.22
   -8   11    8      2.67      7.75
  -11   11    8     -5.63     -3.65
   -1   12    8     16.05     -9.80
   -4   12    8      5.38    -11.06
   -7   12    8     15.11     -2.53
  -10   12    8     -0.66     12.51
    0   13    8      3.32     -5.44
   -3   13    8      5.80     -6.77
   -6   13    8     -8.42     -5.76
   -9   13    8     15.82      6.94
  -12   13    8      1.82     -9.80
   -2   14    8      0.98     -9.95
   -5   14    8      4.67     -5.54
   -8   14    8      5.61    -14.32
  -11   14    8     -3.11    -19.03
   -7   15    8     -4.04      9.46
  -10   15    8     -7.77    -14.06
   -2    3    7     19.63     46.05
   -1    4    7    -17.40    -27.31
   -3    5    7     -9.49     30.50
   -2    6    7     -2.26    -19.78
   -5    6    7    -26.30     -0.87
   -1    7    7      5.05      3.27
   -4    7    7      6.10     18.41
   -3    8    7      2.43      5.33
   -6    8    7      0.87    -17.39
   -2    9    7    -13.10    -10.70
   -5    9    7     12.49      7.15
   -8    9    7     15.19      2.81
   -1   10    7     -7.31      6.20
   -4   10    7      1.29     -3.96
   -7   10    7     -6.90     -3.15
   -3   11    7     -6.25      6.21
   -6   11    7      3.83     -1.23
   -9   11    7      5.11      7.76
   -2   12    7    -29.55     -9.27
   -5   12    7      3.05     -2.53
   -8   12    7     11.08      8.42
  -11   12    7    -16.86     -8.68
   -1   13    7    -19.25    -11.10
   -4   13    7     -1.42      2.66
   -7   13    7     -0.61      9.84
  -10   13    7     -5.12    -25.82
   -3   14    7      4.35     -9.59
   -6   14    7    -10.34      4.57
   -9   14    7      0.63      7.45
  -12   14    7      3.20     19.69
   -5   15    7      4.45    -16.14
   -8   15    7    -20.66      5.91
    0    0    6     69.47    -21.00
   -1    2    6    -82.80     98.80
    0    3    6     39.72      6.44
   -3    3    6    -13.27    -78.33
   -2    4    6     43.97     61.39
   -1    5    6      9.51    -25.61
   -4    5    6     19.11     10.80
    0    6    6      4.32    -25.03
   -3    6    6    -13.97      6.02
   -6    6    6     31.46      3.75
   -2    7    6    -21.51      7.67
   -5    7    6      5.09     31.89
   -1    8    6      2.14     -4.06
   -4    8    6     -7.28     12.52
   -7    8    6     -7.41     27.10
    0    9    6      1.04      6.24
   -3    9    6     -4.73     19.47
   -6    9    6     -9.97      5.07
   -9    9    6    -15.62     29.18
   -2   10    6      6.30      4.77
   -5   10    6     11.17      8.14
   -8   10    6    -15.89     -0.44
   -1   11    6     22.05      8.55
   -4   11    6      0.10     10.23
   -7   11    6      0.22     11.43
  -10   11    6    -12.00      3.32
    0   12    6      0.83     41.55
   -3   12    6     13.14      2.38
   -6   12    6     -2.75      1.79
   -9   12    6     -3.43     -6.58
  -12   12    6      0.01      7.72
   -2   13    6     -8.10     21.39
   -5   13    6     -7.50     12.92
   -8   13    6     -4.45     26.01
  -11   13    6     16.15      2.89
   -4   14    6    -13.11      0.02
   -7   14    6      1.17      6.94
  -10   14    6      5.38     10.12
   -6   15    6    -10.05     -0.22
   -9   15    6     12.74      3.36
   -1    3    5     14.80     38.97
   -3    4    5    -45.50    -30.98
   -2    5    5     73.30    -24.58
   -1    6    5      5.42     11.22
   -4    6    5    -22.81    -14.20
   -3    7    5      7.45     -2.01
   -6    7    5     26.64     -2.02
   -2    8    5     -2.84     -0.86
   -5    8    5     -1.52     -5.19
   -1    9    5    -15.82     -9.81
   -4    9    5    -13.65     17.56
   -7    9    5      7.91     10.56
   -3   10    5      5.84    -10.06
   -6   10    5    -10.22      0.13
   -9   10    5     -4.34      6.31
   -2   11    5     11.85    -19.82
   -5   11    5     11.45      4.62
   -8   11    5     -3.39     -3.85
   -1   12    5     14.32     -7.54
   -4   12    5     -1.91     19.51
   -7   12    5     -1.18     -1.56
  -10   12    5     35.73     -0.83
   -3   13    5    -20.97      1.63
   -6   13    5     -2.47      1.35
   -9   13    5     21.00     -7.14
  -12   13    5      7.22      0.57
   -2   14    5    -17.10      3.83
   -5   14    5     21.83     -4.08
   -8   14    5     18.45    -13.42
  -11   14    5     10.58     11.22
   -4   15    5      4.70     24.21
   -7   15    5      6.77      1.96
  -10   15    5     13.03      7.81
   -1    1    4    208.66   -196.85
    0    2    4    146.04    -35.33
   -2    3    4    168.16   -128.22
   -1    4    4     42.10     50.39
   -4    4    4     53.80      5.58
    0    5    4     60.09     53.96
   -3    5    4     -3.90     24.57
   -2    6    4      9.44     -7.72
   -5    6    4      7.69     20.52
   -1    7    4     24.84     11.81
   -4    7    4     -7.07    -24.51
   -7    7    4      9.37     10.49
    0    8    4      5.25    -10.91
   -3    8    4     -7.33    -18.48
   -6    8    4     -1.34      3.96
   -2    9    4     10.21    -10.00
   -5    9    4      7.05     -1.35
   -8    9    4    -11.28     -5.30
   -1   10    4     13.25    -26.38
   -4   10    4      1.67    -10.74
   -7   10    4     20.09     -6.92
  -10   10    4     -5.64     10.12
    0   11    4     -9.13      8.10
   -3   11    4      6.23     -9.08
   -6   11    4      1.32     12.94
   -9   11    4     30.52      9.92
   -2   12    4      3.44      1.28
   -5   12    4     10.05    -14.15
   -8   12    4     -5.12     -5.46
  -11   12    4     -7.54    -13.57
   -1   13    4     -8.17     -1.37
   -4   13    4     11.60     -9.36
   -7   13    4      4.47     -4.00
  -10   13    4      8.45     11.68
  -13   13    4     15.14      9.49
   -3   14    4      8.02    -19.58
   -6   14    4      6.57    -14.15
   -9   14    4      3.73     -7.26
  -12   14    4      4.76      4.30
   -5   15    4     13.99    -13.75
   -8   15    4      0.48      8.34
  -11   15    4      2.68    -16.79
   -1    2    3   -176.16    -92.03
   -2    4    3    -11.25     45.81
   -1    5    3    -21.92      5.11
   -4    5    3     22.14    -72.07
   -3    6    3    -16.81     32.06
   -2    7    3      4.02     -3.81
   -5    7    3      4.53      4.55
   -1    8    3     11.27    -18.00
   -4    8    3    -10.72      7.67
   -7    8    3    -15.29     11.89
   -3    9    3    -10.41      2.65
   -6    9    3      8.96     -2.57
   -2   10    3     12.88     14.23
   -5   10    3    -21.85    -13.48
   -8   10    3     -4.04    -13.49
   -1   11    3     -6.66     20.75
   -4   11    3     -4.87      1.80
   -7   11    3      9.59    -15.73
  -10   11    3     -6.51     13.22
   -3   12    3     -4.37    -12.79
   -6   12    3      6.00      0.08
   -9   12    3     -4.14      2.43
   -2   13    3    -12.01    -17.71
   -5   13    3     -7.92     12.65
   -8   13    3      4.30     15.93
  -11   13    3    -15.36     13.71
   -4   14    3      1.46      5.58
   -7   14    3    -10.50      5.57
  -10   14    3     14.44     -4.51
   -6   15    3      1.13     20.63
   -9   15    3     -6.76     24.64
    0    1    2   -147.22   -438.41
   -2    2    2    154.13    250.92
   -1    3    2    -39.02     34.12
    0    4    2    -67.91     22.38
   -3    4    2      2.62     23.91
   -2    5    2    -34.63    -13.76
   -5    5    2     -1.28     60.92
   -1    6    2    -29.28      4.22
   -4    6    2      5.35     24.02
    0    7    2    -11.09     -9.50
   -3    7    2     26.03    -18.05
   -6    7    2    -32.60     17.13
   -2    8    2    -20.97     -0.41
   -5    8    2     -2.61     14.38
   -8    8    2     -6.52     -2.60
   -1    9    2      6.75      9.66
   -4    9    2      6.87      4.19
   -7    9    2     -3.20      2.56
    0   10    2      3.19     16.25
   -3   10    2      7.64    -10.12
   -6   10    2    -10.88     -4.11
   -9   10    2    -18.76    -15.98
   -2   11    2     -3.34      9.32
   -5   11    2      0.04      4.21
   -8   11    2      1.59      8.43
  -11   11    2     17.59     -4.73
   -1   12    2    -20.21      1.51
   -4   12    2     -8.54      9.57
   -7   12    2     -4.44     -3.33
  -10   12    2      2.75      4.27
    0   13    2    -23.40      4.41
   -3   13    2     -1.24     -6.13
   -6   13    2      3.65     -3.18
   -9   13    2     -4.20      2.21
  -12   13    2    -15.70      7.43
   -2   14    2      0.18     -0.38
   -5   14    2      9.80     -1.05
   -8   14    2     -9.14     -4.89
  -11   14    2    -14.36      1.38
   -4   15    2      4.34     13.02
   -7   15    2    -14.11      4.26
  -10   15    2      9.69      3.12
   -2    3    1     28.98   -106.76
   -1    4    1    -18.93     24.90
   -3    5    1     39.93     11.77
   -2    6    1     22.43     -8.58
   -5    6    1     21.50     24.45
   -1    7    1      3.00     24.62
   -4    7    1    -13.25    -22.67
   -3    8    1    -27.74     -0.22
   -6    8    1     -3.36     -7.14
   -2    9    1      0.34     -6.41
   -5    9    1     -6.04    -31.67
   -8    9    1     -1.38     -3.51
   -1   10    1    -12.88     -5.37
   -4   10    1     -3.12     -3.97
   -7   10    1     16.78     10.07
   -3   11    1      2.43     13.84
   -6   11    1      7.62     -3.07
   -9   11    1      2.57      4.26
   -2   12    1     10.60     -8.80
   -5   12    1     -4.07     16.23
   -8   12    1     21.36     -5.40
  -11   12    1     -4.83     -2.16
   -1   13    1      4.96     -3.59
   -4   13    1     -1.04     20.99
   -7   13    1     16.69      6.23
  -10   13    1     17.42      1.34
   -3   14    1      4.57     -2.41
   -6   14    1      5.91     -1.24
   -9   14    1      7.48     16.88
  -12   14    1     -4.60     -5.31
   -5   15    1     10.26     12.08
   -8   15    1      1.34      2.47
  -11   15    1     11.46     35.00
   -1    2    0    213.77     -0.08
    0    3    0     56.57    -28.61
   -2    4    0     81.14      0.66
   -1    5    0    -20.40    -28.45
    0    6    0      2.76     21.90
   -3    6    0     18.58     -0.07
   -2    7    0     -1.32      6.02
   -1    8    0     11.46     -1.93
   -4    8    0      9.12      0.70
    0    9    0     19.88      1.94
   -3    9    0     10.42      1.57
   -2   10    0     20.82     -2.60
   -5   10    0      2.22      0.26
   -1   11    0      3.12    -24.49
   -4   11    0     18.88     -5.26
    0   12    0      2.95     -6.61
   -3   12    0      5.64    -16.75
   -6   12    0      0.23     -0.01
   -2   13    0     15.33     10.11
   -5   13    0     15.73      8.81
   -4   14    0     13.67     12.66
   -7   14    0     24.00     -0.55
   -1   14    0      4.85     -4.80
   -6   15    0     11.13     -9.32
  -13   14    3     -8.86      4.17
   -1   14    3      5.07    -11.99
  -13   14    6      7.52     -0.14
   -1   14    6      6.63      7.61
  -11   15    7      6.21     -4.24
   -4   15    8     -2.73     -6.27
  -11   15   10     -5.48      6.61
   -5   15   13     -3.76      2.31
  -10   15   14      6.61      8.73
  -12   14   16      4.56     -1.46
   -7   15   17      4.53     -3.90
  -12   13   23     13.98      5.07
  -10   14   24      2.73     -4.04
   -4   14   24      4.37      0.06
   -5   14   26     -1.96     -9.05
  -11   13   27      6.30     -2.46
   -2   13   27      2.38      1.83
   -7   14   27     -2.49      5.38
   -1   12   32      8.41     15.08
   -9   13   32    -13.01     -5.81
   -8   13   33      5.30     -6.26
   -5   13   33    -11.11     11.03
   -7   13   34      1.94    -14.89
  -10   12   35     -2.54     -7.98
   -4   12   38     -1.47     -2.33
   -6   12   39     11.07     12.81
   -9   11   40     -5.74      3.13
   -1   10   43     -0.41      5.80
   -6   11   43     -1.48     -0.74
   -8   10   45      1.83      5.31
   -2   10   45      5.40      4.67
   -7   10   46     -9.27      1.94
   -1    9   47     -4.02      5.33
   -4    9   50      2.27      5.82
   -7    7   52    -11.49      0.50
   -3    8   52     15.62      6.16
   -6    7   53    -12.32     -5.24
   -5    7   54     -6.35     -5.33
   -2    7   54      1.39      4.30
   -4    6   56      1.61      2.65
   -4    5   57      9.92     -1.77
   -1    5   57      4.14      3.43
   -4    4   58     -2.50     -7.84
   -1    2   60     -2.13     10.58
    0    0    0      0.00      0.00
# SQUEEZE RESULTS (Version = 260221)
# Note: Data are Listed for all Voids in the P1 Unit Cell
# i.e. Centre of Gravity, Solvent Accessible Volume,
# Recovered number of Electrons in the Void and
# Details about the Squeezed Material
loop_
  _platon_squeeze_void_nr
  _platon_squeeze_void_average_x
  _platon_squeeze_void_average_y
  _platon_squeeze_void_average_z
  _platon_squeeze_void_volume
  _platon_squeeze_void_count_electrons
  _platon_squeeze_void_content
   1 -0.065 -0.011 -0.043      5726      1839 ' '
_platon_squeeze_void_probe_radius                  1.20
_platon_squeeze_details
)
TITL oav660a_sq       R 3 c :H     R = 0.09
CELL   14.0590   14.0590   54.4300     90.00     90.00    120.00
SPGR R3c
# Solvent Accessible Volume =      5726
# Electrons Found in S.A.V. =      1831
# Note: Atoms in Void are Labelled as Cxxx and Qxxx for all Others
C101 1.000 0.995 0.226 !       5.57 eA-3
C102 1.000 1.003 0.207 !       3.11 eA-3
C103 0.933 0.050 0.724 !       2.64 eA-3
Q104 0.094 0.174 0.406 !       2.19 eA-3
C105 0.297 0.151 0.331 !       2.17 eA-3
C106 1.003 0.998 0.508 !       2.13 eA-3
C107 0.403 0.639 0.662 !       2.13 eA-3
Q108 0.075 0.828 0.400 !       1.97 eA-3
C109 0.377 0.323 0.157 !       1.97 eA-3
C110 0.879 0.673 0.710 !       1.83 eA-3
C111 0.093 0.951 0.484 !       1.80 eA-3
Q112 0.513 0.917 0.086 !       1.78 eA-3
Q113 0.425 0.846 0.055 !       1.77 eA-3
C114 0.376 0.768 0.633 !       1.74 eA-3
C115 0.372 0.392 0.099 !       1.70 eA-3
C116 0.314 0.754 0.156 !       1.69 eA-3
C117 0.279 0.016 0.945 !       1.60 eA-3
C118 0.934 0.419 0.137 !       1.56 eA-3
Q119 0.781 0.903 0.431 !       1.56 eA-3
C120 0.560 0.083 0.656 !       1.56 eA-3
C121 0.343 0.189 0.818 !       1.56 eA-3
C122 0.734 0.355 0.796 !       1.52 eA-3
C123 0.157 0.621 0.535 !       1.49 eA-3
Q124 0.268 0.624 0.437 !       1.49 eA-3
C125 0.283 0.656 0.415 !       1.48 eA-3
C126 0.031 0.653 0.137 !       1.46 eA-3
Q127 0.425 0.299 0.133 !       1.46 eA-3
C128 1.000 1.002 0.809 !       1.44 eA-3
Q129 0.813 0.580 0.218 !       1.41 eA-3
Q130 0.102 0.466 0.966 !       1.41 eA-3
C131 0.282 0.910 0.969 !       1.40 eA-3
C132 0.034 0.359 0.973 !       1.38 eA-3
C133 0.534 0.420 0.669 !       1.38 eA-3
Q134 0.528 0.535 0.587 !       1.37 eA-3
C135 0.769 0.144 0.687 !       1.36 eA-3
C136 0.185 0.638 0.057 !       1.34 eA-3
Q137 0.346 0.748 0.870 !       1.34 eA-3
C138 0.220 0.637 0.035 !       1.34 eA-3
C139 1.002 1.004 0.484 !       1.32 eA-3
C140 0.527 0.935 0.098 !       1.31 eA-3
C141 0.188 0.017 0.323 !       1.30 eA-3
C142 0.450 0.514 0.485 !       1.29 eA-3
C143 0.331 0.234 0.159 !       1.29 eA-3
C144 0.837 0.557 0.169 !       1.28 eA-3
C145 0.076 0.555 0.024 !       1.26 eA-3
C146 0.207 0.683 0.409 !       1.24 eA-3
C147 0.329 0.136 0.679 !       1.23 eA-3
C148 0.772 0.049 0.835 !       1.23 eA-3
C149 0.403 0.654 0.403 !       1.22 eA-3
Q150 0.736 0.045 0.696 !       1.22 eA-3
C151 0.297 0.738 0.648 !       1.21 eA-3
Q152 0.137 0.968 0.444 !       1.21 eA-3
C153 0.432 0.745 0.106 !       1.20 eA-3
C154 0.872 0.550 0.793 !       1.20 eA-3
C155 0.141 0.816 0.844 !       1.19 eA-3
C156 0.736 0.442 0.222 !       1.18 eA-3
C157 0.607 0.224 0.254 !       1.18 eA-3
C158 0.717 0.656 0.321 !       1.18 eA-3
C159 0.701 0.440 0.722 !       1.17 eA-3
C160 0.984 0.640 0.789 !       1.17 eA-3
C161 0.064 0.973 0.386 !       1.17 eA-3
C162 0.826 0.061 0.318 !       1.17 eA-3
C163 0.904 0.972 0.886 !       1.16 eA-3
Q164 0.438 0.323 0.676 !       1.16 eA-3
C165 0.451 0.016 0.564 !       1.16 eA-3
C166 0.718 0.562 0.152 !       1.15 eA-3
Q167 0.548 0.047 0.594 !       1.13 eA-3
C168 0.079 0.868 0.458 !       1.11 eA-3
C169 0.357 0.345 0.113 !       1.11 eA-3
Q170 0.030 0.878 0.711 !       1.11 eA-3
Q171 0.530 0.218 0.757 !       1.10 eA-3
C172 0.946 0.037 0.757 !       1.10 eA-3
C173 0.237 0.093 0.222 !       1.10 eA-3
Q174 0.825 0.063 0.277 !       1.07 eA-3
C175 0.280 0.796 0.613 !       1.07 eA-3
C176 0.391 0.953 0.625 !       1.07 eA-3
C177 0.292 0.342 0.414 !       1.06 eA-3
C178 0.720 0.370 0.125 !       1.05 eA-3
Q179 0.485 0.952 0.465 !       1.04 eA-3
C180 0.904 0.468 0.076 !       1.04 eA-3
Q181 0.575 0.799 0.409 !       1.03 eA-3
C182 0.287 0.064 0.269 !       0.98 eA-3
C183 0.808 0.486 0.665 !       0.96 eA-3
Q184 0.140 0.828 0.441 !       0.95 eA-3
Q185 0.655 0.720 0.648 !       0.94 eA-3
C186 0.872 0.391 0.602 !       0.93 eA-3
Q187 0.279 0.499 0.609 !       0.93 eA-3
C188 0.738 0.159 0.814 !       0.93 eA-3
C189 0.606 0.424 0.688 !       0.92 eA-3
C190 0.843 0.766 0.202 !       0.92 eA-3
C191 0.360 0.797 0.589 !       0.91 eA-3
Q192 0.942 0.491 0.574 !       0.90 eA-3
C193 0.498 0.171 0.681 !       0.90 eA-3
Q194 0.062 0.305 0.824 !       0.90 eA-3
Q195 0.746 0.890 0.298 !       0.89 eA-3
C196 0.752 0.357 0.134 !       0.89 eA-3
Q197 0.991 0.608 0.815 !       0.89 eA-3
Q198 0.462 0.765 0.559 !       0.88 eA-3
C199 1.000 1.003 0.375 !       0.87 eA-3
)
;
_shelx_fab_checksum   74048

