data_oav-207
_audit_creation_date               2023-09-23
_audit_creation_method
;
Olex2 1.5
(compiled 2023.08.24 svn.re1ec1418 for OlexSys, GUI svn.r6817)
;
_shelx_SHELXL_version_number       '2014/7'
_audit_contact_author_address      ?
_audit_contact_author_email        ?
_audit_contact_author_name         ''
_audit_contact_author_phone        ?
_publ_contact_author_id_orcid      ?
_publ_section_references
;
Dolomanov, O.V., Bourhis, L.J., Gildea, R.J, Howard, J.A.K. & Puschmann, H.
 (2009), J. Appl. Cryst. 42, 339-341.

Sheldrick, G.M. (2015). Acta Cryst. A71, 3-8.

Sheldrick, G.M. (2015). Acta Cryst. C71, 3-8.
;
_chemical_name_common              ?
_chemical_name_systematic          ?
_chemical_formula_moiety           'C7 H8 N5 O3 Zn0.5, C O'
_chemical_formula_sum              'C8 H8 N5 O4 Zn0.50'
_chemical_formula_weight           270.88
_chemical_melting_point            ?
loop_
  _atom_type_symbol
  _atom_type_description
  _atom_type_scat_dispersion_real
  _atom_type_scat_dispersion_imag
  _atom_type_scat_source
 'C' 'C' 0.0033 0.0016 'International Tables Vol C Tables 4.2.6.8 and 6.1.1.4'
 'H' 'H' 0.0000 0.0000 'International Tables Vol C Tables 4.2.6.8 and 6.1.1.4'
 'N' 'N' 0.0061 0.0033 'International Tables Vol C Tables 4.2.6.8 and 6.1.1.4'
 'O' 'O' 0.0106 0.0060 'International Tables Vol C Tables 4.2.6.8 and 6.1.1.4'
 'Zn' 'Zn' 0.2839 1.4301 'International Tables Vol C Tables 4.2.6.8 and 6.1.1.4'

_shelx_space_group_comment
;
The symmetry employed for this shelxl refinement is uniquely defined
by the following loop, which should always be used as a source of
symmetry information in preference to the above space-group names.
They are only intended as comments.
;
_space_group_crystal_system        'triclinic'
_space_group_IT_number             2
_space_group_name_H-M_alt          'P -1'
_space_group_name_Hall             '-P 1'
loop_
  _space_group_symop_operation_xyz
 'x, y, z'
 '-x, -y, -z'

_cell_length_a                     5.1105(10)
_cell_length_b                     9.783(2)
_cell_length_c                     10.645(2)
_cell_angle_alpha                  102.299(7)
_cell_angle_beta                   93.706(7)
_cell_angle_gamma                  93.286(8)
_cell_volume                       517.49(18)
_cell_formula_units_Z              2
_cell_measurement_reflns_used      1725
_cell_measurement_temperature      150.00
_cell_measurement_theta_max        25.62
_cell_measurement_theta_min        2.57
_shelx_estimated_absorpt_T_max     ?
_shelx_estimated_absorpt_T_min     ?
_exptl_absorpt_coefficient_mu      1.258
_exptl_absorpt_correction_T_max    0.7456
_exptl_absorpt_correction_T_min    0.6595
_exptl_absorpt_correction_type     none
_exptl_absorpt_process_details
;
SADABS-2016/2 (Bruker,2016/2) was used for absorption correction.
wR2(int) was 0.0568 before and 0.0387 after correction.
The Ratio of minimum to maximum transmission is 0.8845.
The \l/2 correction factor is Not present.
;
_exptl_absorpt_special_details     ?
_exptl_crystal_colour              ?
_exptl_crystal_density_diffrn      1.738
_exptl_crystal_density_meas        ?
_exptl_crystal_density_method      ?
_exptl_crystal_description         ?
_exptl_crystal_F_000               276
_exptl_crystal_size_max            ?
_exptl_crystal_size_mid            ?
_exptl_crystal_size_min            ?
_exptl_transmission_factor_max     ?
_exptl_transmission_factor_min     ?
_diffrn_reflns_av_R_equivalents    0.0529
_diffrn_reflns_av_unetI/netI       0.0762
_diffrn_reflns_Laue_measured_fraction_full  0.994
_diffrn_reflns_Laue_measured_fraction_max  0.991
_diffrn_reflns_limit_h_max         6
_diffrn_reflns_limit_h_min         -6
_diffrn_reflns_limit_k_max         12
_diffrn_reflns_limit_k_min         -12
_diffrn_reflns_limit_l_max         12
_diffrn_reflns_limit_l_min         -13
_diffrn_reflns_number              5506
_diffrn_reflns_point_group_measured_fraction_full  0.994
_diffrn_reflns_point_group_measured_fraction_max  0.991
_diffrn_reflns_theta_full          25.242
_diffrn_reflns_theta_max           27.885
_diffrn_reflns_theta_min           2.136
_diffrn_ambient_temperature        150.00
_diffrn_detector_area_resol_mean   ?
_diffrn_measured_fraction_theta_full  0.994
_diffrn_measured_fraction_theta_max  0.991
_diffrn_measurement_device_type    'Bruker APEX-II CCD'
_diffrn_measurement_method         '\f and \w scans'
_diffrn_radiation_type             MoK\a
_diffrn_radiation_wavelength       0.71073
_diffrn_source                     ?
_diffrn_source_current             1.4
_diffrn_source_power               0.07
_diffrn_source_voltage             50.0
_diffrn_standards_number           0
_reflns_Friedel_coverage           0.000
_reflns_Friedel_fraction_full      .
_reflns_Friedel_fraction_max       .
_reflns_number_gt                  1988
_reflns_number_total               2445
_reflns_special_details
;
 Reflections were merged by SHELXL according to the crystal
 class for the calculation of statistics and refinement.
 
 _reflns_Friedel_fraction is defined as the number of unique
 Friedel pairs measured divided by the number that would be
 possible theoretically, ignoring centric projections and
 systematic absences.
;
_reflns_threshold_expression       'I > 2\s(I)'
_computing_cell_refinement         ?
_computing_data_collection         ?
_computing_data_reduction          ?
_computing_molecular_graphics      'Olex2 1.5 (Dolomanov et al., 2009)'
_computing_publication_material    'Olex2 1.5 (Dolomanov et al., 2009)'
_computing_structure_refinement    'SHELXL 2014/7 (Sheldrick, 2015)'
_computing_structure_solution      'SHELXT 2014/5 (Sheldrick, 2014)'
_refine_diff_density_max           0.704
_refine_diff_density_min           -1.096
_refine_diff_density_rms           0.135
_refine_ls_extinction_coef         0.010(7)
_refine_ls_extinction_expression  
 'Fc^*^=kFc[1+0.001xFc^2^\l^3^/sin(2\q)]^-1/4^'
_refine_ls_extinction_method       'SHELXL-2014/7 (Sheldrick 2014'
_refine_ls_goodness_of_fit_ref     0.627
_refine_ls_hydrogen_treatment      constr
_refine_ls_matrix_type             full
_refine_ls_number_parameters       163
_refine_ls_number_reflns           2445
_refine_ls_number_restraints       0
_refine_ls_R_factor_all            0.0850
_refine_ls_R_factor_gt             0.0654
_refine_ls_restrained_S_all        0.627
_refine_ls_shift/su_max            0.646
_refine_ls_shift/su_mean           0.046
_refine_ls_structure_factor_coef   Fsqd
_refine_ls_weighting_details      
 'w=1/[\s^2^(Fo^2^)+(0.1871P)^2^+6.7923P] where P=(Fo^2^+2Fc^2^)/3'
_refine_ls_weighting_scheme        calc
_refine_ls_wR_factor_gt            0.1742
_refine_ls_wR_factor_ref           0.2040
_refine_special_details            ?
_olex2_refinement_description
;
1. Fixed Uiso
 At 1.2 times of:
  All C(H) groups, All N(H) groups
 At 1.5 times of:
  All C(H,H,H) groups, All O(H,H) groups
2.a Rotating group:
 O9(H9A,H9B)
2.b Aromatic/amide H refined with riding coordinates:
 N7(H7), C00B(H00B), C00E(H00E)
2.c Idealised Me refined as rotating group:
 C00G(H00A,H00C,H00D)
;
_atom_sites_solution_hydrogens     mixed
_atom_sites_solution_primary       dual
_atom_sites_solution_secondary     ?
loop_
  _atom_site_label
  _atom_site_type_symbol
  _atom_site_fract_x
  _atom_site_fract_y
  _atom_site_fract_z
  _atom_site_U_iso_or_equiv
  _atom_site_adp_type
  _atom_site_occupancy
  _atom_site_site_symmetry_order
  _atom_site_calc_flag
  _atom_site_refinement_flags_posn
  _atom_site_refinement_flags_adp
  _atom_site_refinement_flags_occupancy
  _atom_site_disorder_assembly
  _atom_site_disorder_group
 Zn01 Zn 0.5000 0.5000 0.0000 0.0191(3) Uani 1 2 d S . P . .
 O002 O 0.7806(7) 0.6698(4) 0.0243(3) 0.0257(7) Uani 1 1 d . . . . .
 N003 N 0.2788(9) 0.7420(4) 0.3514(4) 0.0295(10) Uani 1 1 d . . . . .
 N004 N 0.3922(9) 0.6268(4) 0.1740(4) 0.0307(10) Uani 1 1 d . . . . .
 N5 N 0.2226(9) 0.6223(4) 0.2608(4) 0.0291(10) Uani 1 1 d . . . . .
 N6 N 0.1937(10) 0.8891(5) 0.5467(4) 0.0308(10) Uani 1 1 d . . . . .
 O9 O 0.7407(8) 0.3947(6) 0.1115(6) 0.0543(14) Uani 1 1 d . . . . .
 H9A H 0.8306 0.3350 0.0609 0.081 Uiso 1 1 d R U . . .
 H9B H 0.8617 0.4549 0.1585 0.081 Uiso 1 1 d R U . . .
 O008 O 0.9154(11) 0.8772(5) 0.1524(5) 0.0655(19) Uani 1 1 d . . . . .
 N7 N 0.0283(9) 0.8824(4) 0.6400(4) 0.0301(10) Uani 1 1 d . . . . .
 H7 H 0.0238 0.9492 0.7096 0.036 Uiso 1 1 calc R U . . .
 C00A C 0.5528(11) 0.7464(6) 0.2074(5) 0.0337(13) Uani 1 1 d . . . . .
 C00B C -0.0667(11) 0.6855(5) 0.4977(5) 0.0291(11) Uani 1 1 d . . . . .
 H00B H -0.1429 0.5966 0.4519 0.035 Uiso 1 1 calc R U . . .
 C00C C 0.1337(11) 0.7690(5) 0.4627(5) 0.0271(10) Uani 1 1 d . . . . .
 C00D C -0.1282(11) 0.7630(5) 0.6152(5) 0.0273(10) Uani 1 1 d . . . . .
 C00E C 0.4832(12) 0.8215(5) 0.3229(5) 0.0344(13) Uani 1 1 d . . . . .
 H00E H 0.5604 0.9090 0.3717 0.041 Uiso 1 1 calc R U . . .
 C00F C 0.7678(12) 0.7680(6) 0.1216(5) 0.0362(14) Uani 1 1 d . . . . .
 C00G C -0.3252(11) 0.7337(6) 0.7070(5) 0.0341(12) Uani 1 1 d . . . . .
 H00A H -0.2406 0.6888 0.7713 0.051 Uiso 1 1 calc R U . . .
 H00C H -0.4717 0.6713 0.6590 0.051 Uiso 1 1 calc R U . . .
 H00D H -0.3916 0.8221 0.7505 0.051 Uiso 1 1 calc R U . . .
 O00H O 0.6605(15) 0.0821(8) -0.0033(8) 0.089(2) Uani 1 1 d . . . . .
 C00I C 0.7815(18) 0.1408(8) 0.0658(9) 0.0568(19) Uani 1 1 d . . . . .

loop_
  _atom_site_aniso_label
  _atom_site_aniso_U_11
  _atom_site_aniso_U_22
  _atom_site_aniso_U_33
  _atom_site_aniso_U_23
  _atom_site_aniso_U_13
  _atom_site_aniso_U_12
 Zn01 0.0220(4) 0.0139(4) 0.0186(4) -0.0034(3) 0.0060(3) -0.0013(3)
 O002 0.0315(18) 0.0227(16) 0.0196(16) -0.0032(13) 0.0126(13) -0.0076(13)
 N003 0.042(2) 0.0176(19) 0.024(2) -0.0083(15) 0.0174(18) -0.0093(17)
 N004 0.042(3) 0.020(2) 0.026(2) -0.0068(16) 0.0211(19) -0.0083(18)
 N5 0.038(2) 0.0182(19) 0.027(2) -0.0051(16) 0.0163(18) -0.0092(17)
 N6 0.044(3) 0.023(2) 0.023(2) -0.0021(16) 0.0190(18) -0.0056(18)
 O9 0.0203(18) 0.082(4) 0.079(4) 0.060(3) 0.003(2) 0.000(2)
 O008 0.086(4) 0.047(3) 0.046(3) -0.028(2) 0.048(3) -0.046(3)
 N7 0.043(3) 0.022(2) 0.024(2) -0.0021(16) 0.0163(18) -0.0025(18)
 C00A 0.042(3) 0.026(2) 0.026(2) -0.0109(19) 0.021(2) -0.015(2)
 C00B 0.037(3) 0.021(2) 0.026(2) -0.0025(18) 0.015(2) -0.0036(19)
 C00C 0.038(3) 0.018(2) 0.024(2) -0.0005(17) 0.018(2) -0.0013(19)
 C00D 0.036(3) 0.024(2) 0.024(2) 0.0063(18) 0.013(2) 0.005(2)
 C00E 0.047(3) 0.021(2) 0.030(3) -0.008(2) 0.021(2) -0.016(2)
 C00F 0.045(3) 0.027(3) 0.030(3) -0.009(2) 0.024(2) -0.020(2)
 C00G 0.037(3) 0.035(3) 0.034(3) 0.009(2) 0.020(2) 0.005(2)
 O00H 0.084(5) 0.079(5) 0.107(6) 0.021(5) 0.026(5) 0.013(4)
 C00I 0.064(5) 0.042(4) 0.059(5) 0.001(3) 0.007(4) -0.006(3)

_geom_special_details
;
 All esds (except the esd in the dihedral angle between two l.s. planes)
 are estimated using the full covariance matrix.  The cell esds are taken
 into account individually in the estimation of esds in distances, angles
 and torsion angles; correlations between esds in cell parameters are only
 used when they are defined by crystal symmetry.  An approximate (isotropic)
 treatment of cell esds is used for estimating esds involving l.s. planes.
;
loop_
  _geom_bond_atom_site_label_1
  _geom_bond_atom_site_label_2
  _geom_bond_distance
  _geom_bond_site_symmetry_2
  _geom_bond_publ_flag
 Zn01 O002 2.092(3) 2_665 ?
 Zn01 O002 2.092(3) . ?
 Zn01 N004 2.122(4) . ?
 Zn01 N004 2.122(4) 2_665 ?
 Zn01 O9 2.112(4) . ?
 Zn01 O9 2.112(4) 2_665 ?
 O002 C00F 1.262(6) . ?
 N003 N5 1.353(5) . ?
 N003 C00C 1.423(6) . ?
 N003 C00E 1.355(6) . ?
 N004 N5 1.312(6) . ?
 N004 C00A 1.358(6) . ?
 N6 N7 1.355(6) . ?
 N6 C00C 1.323(6) . ?
 O9 H9A 0.8782 . ?
 O9 H9B 0.8782 . ?
 O008 C00F 1.243(6) . ?
 N7 H7 0.8800 . ?
 N7 C00D 1.345(7) . ?
 C00A C00E 1.371(6) . ?
 C00A C00F 1.507(7) . ?
 C00B H00B 0.9500 . ?
 C00B C00C 1.392(7) . ?
 C00B C00D 1.383(7) . ?
 C00D C00G 1.505(7) . ?
 C00E H00E 0.9500 . ?
 C00G H00A 0.9800 . ?
 C00G H00C 0.9800 . ?
 C00G H00D 0.9800 . ?
 O00H C00I 0.986(10) . ?

loop_
  _geom_angle_atom_site_label_1
  _geom_angle_atom_site_label_2
  _geom_angle_atom_site_label_3
  _geom_angle
  _geom_angle_site_symmetry_1
  _geom_angle_site_symmetry_3
  _geom_angle_publ_flag
 O002 Zn01 O002 180.0 2_665 . ?
 O002 Zn01 N004 79.44(14) 2_665 2_665 ?
 O002 Zn01 N004 100.56(14) . 2_665 ?
 O002 Zn01 N004 100.56(14) 2_665 . ?
 O002 Zn01 N004 79.44(14) . . ?
 O002 Zn01 O9 92.14(17) 2_665 2_665 ?
 O002 Zn01 O9 87.85(17) 2_665 . ?
 O002 Zn01 O9 87.86(17) . 2_665 ?
 O002 Zn01 O9 92.15(17) . . ?
 N004 Zn01 N004 180.0 . 2_665 ?
 O9 Zn01 N004 91.4(2) . 2_665 ?
 O9 Zn01 N004 91.4(2) 2_665 . ?
 O9 Zn01 N004 88.6(2) . . ?
 O9 Zn01 N004 88.6(2) 2_665 2_665 ?
 O9 Zn01 O9 180.0 2_665 . ?
 C00F O002 Zn01 116.6(3) . . ?
 N5 N003 C00C 119.9(4) . . ?
 N5 N003 C00E 112.2(4) . . ?
 C00E N003 C00C 127.9(4) . . ?
 N5 N004 Zn01 139.0(3) . . ?
 N5 N004 C00A 110.7(4) . . ?
 C00A N004 Zn01 110.2(3) . . ?
 N004 N5 N003 105.2(4) . . ?
 C00C N6 N7 103.0(4) . . ?
 Zn01 O9 H9A 110.0 . . ?
 Zn01 O9 H9B 109.5 . . ?
 H9A O9 H9B 104.0 . . ?
 N6 N7 H7 123.5 . . ?
 C00D N7 N6 113.0(4) . . ?
 C00D N7 H7 123.5 . . ?
 N004 C00A C00E 108.0(4) . . ?
 N004 C00A C00F 118.5(4) . . ?
 C00E C00A C00F 133.4(5) . . ?
 C00C C00B H00B 128.3 . . ?
 C00D C00B H00B 128.3 . . ?
 C00D C00B C00C 103.4(4) . . ?
 N6 C00C N003 117.2(4) . . ?
 N6 C00C C00B 113.8(4) . . ?
 C00B C00C N003 129.0(4) . . ?
 N7 C00D C00B 106.8(4) . . ?
 N7 C00D C00G 121.6(5) . . ?
 C00B C00D C00G 131.6(5) . . ?
 N003 C00E C00A 103.9(4) . . ?
 N003 C00E H00E 128.0 . . ?
 C00A C00E H00E 128.0 . . ?
 O002 C00F C00A 115.3(4) . . ?
 O008 C00F O002 126.2(5) . . ?
 O008 C00F C00A 118.5(4) . . ?
 C00D C00G H00A 109.5 . . ?
 C00D C00G H00C 109.5 . . ?
 C00D C00G H00D 109.5 . . ?
 H00A C00G H00C 109.5 . . ?
 H00A C00G H00D 109.5 . . ?
 H00C C00G H00D 109.5 . . ?

loop_
  _geom_torsion_atom_site_label_1
  _geom_torsion_atom_site_label_2
  _geom_torsion_atom_site_label_3
  _geom_torsion_atom_site_label_4
  _geom_torsion
  _geom_torsion_site_symmetry_1
  _geom_torsion_site_symmetry_2
  _geom_torsion_site_symmetry_3
  _geom_torsion_site_symmetry_4
  _geom_torsion_publ_flag
 Zn01 O002 C00F O008 -179.8(6) . . . . ?
 Zn01 O002 C00F C00A 1.0(7) . . . . ?
 Zn01 N004 N5 N003 176.9(5) . . . . ?
 Zn01 N004 C00A C00E -177.3(4) . . . . ?
 Zn01 N004 C00A C00F -0.2(7) . . . . ?
 N004 C00A C00E N003 -0.9(7) . . . . ?
 N004 C00A C00F O002 -0.5(9) . . . . ?
 N004 C00A C00F O008 -179.8(7) . . . . ?
 N5 N003 C00C N6 -178.6(5) . . . . ?
 N5 N003 C00C C00B 1.7(9) . . . . ?
 N5 N003 C00E C00A 0.8(7) . . . . ?
 N5 N004 C00A C00E 0.7(7) . . . . ?
 N5 N004 C00A C00F 177.8(5) . . . . ?
 N6 N7 C00D C00B -0.7(6) . . . . ?
 N6 N7 C00D C00G 179.5(5) . . . . ?
 N7 N6 C00C N003 -179.1(5) . . . . ?
 N7 N6 C00C C00B 0.7(7) . . . . ?
 C00A N004 N5 N003 -0.2(7) . . . . ?
 C00C N003 N5 N004 -178.4(5) . . . . ?
 C00C N003 C00E C00A 178.6(6) . . . . ?
 C00C N6 N7 C00D 0.0(6) . . . . ?
 C00C C00B C00D N7 1.0(6) . . . . ?
 C00C C00B C00D C00G -179.2(6) . . . . ?
 C00D C00B C00C N003 178.6(6) . . . . ?
 C00D C00B C00C N6 -1.1(7) . . . . ?
 C00E N003 N5 N004 -0.4(7) . . . . ?
 C00E N003 C00C N6 3.7(9) . . . . ?
 C00E N003 C00C C00B -176.0(6) . . . . ?
 C00E C00A C00F O002 175.7(7) . . . . ?
 C00E C00A C00F O008 -3.6(12) . . . . ?
 C00F C00A C00E N003 -177.3(7) . . . . ?

_shelx_res_file
;
    oav-207.res created by SHELXL-2014/7

TITL oav-207_a.res in P-1
REM Old TITL oav-207 in P1
REM SHELXT solution in P-1
REM R1 0.154, Rweak 0.032, Alpha 0.077, Orientation as input
REM Formula found by SHELXT: C24 N4 O6 Zn
CELL 0.71073 5.1105 9.7827 10.6446 102.299 93.706 93.286
ZERR 2 0.001 0.002 0.002 0.007 0.007 0.008
LATT 1
SFAC C H N O Zn
UNIT 16 16 10 8 1

L.S. 4 0 0
PLAN  5
TEMP -123.15
CONF
list 4
fmap 2 53
ACTA
MORE -1
BOND $H
REM <olex2.extras>
REM <HklSrc "%.\\oav-207.hkl">
REM </olex2.extras>

WGHT    0.187100    6.792300
EXTI    0.009970
FVAR       0.66668
ZN01  5    0.500000    0.500000    0.000000    10.50000    0.02201    0.01387 =
         0.01856   -0.00340    0.00601   -0.00128
O002  4    0.780557    0.669766    0.024296    11.00000    0.03149    0.02269 =
         0.01958   -0.00318    0.01258   -0.00764
N003  3    0.278756    0.742008    0.351422    11.00000    0.04221    0.01759 =
         0.02359   -0.00826    0.01736   -0.00933
N004  3    0.392151    0.626838    0.173992    11.00000    0.04208    0.02042 =
         0.02563   -0.00679    0.02107   -0.00826
N5    3    0.222553    0.622294    0.260751    11.00000    0.03780    0.01820 =
         0.02738   -0.00514    0.01630   -0.00922
N6    3    0.193675    0.889064    0.546660    11.00000    0.04393    0.02315 =
         0.02335   -0.00209    0.01904   -0.00558
O9    4    0.740722    0.394750    0.111497    11.00000    0.02027    0.08246 =
         0.07874    0.06027    0.00263    0.00031
AFIX   7
H9A   2    0.830646    0.335041    0.060904    11.00000   -1.50000
H9B   2    0.861743    0.454854    0.158454    11.00000   -1.50000
AFIX   0
O008  4    0.915395    0.877235    0.152359    11.00000    0.08627    0.04683 =
         0.04596   -0.02791    0.04818   -0.04615
N7    3    0.028288    0.882391    0.640018    11.00000    0.04317    0.02158 =
         0.02354   -0.00206    0.01634   -0.00251
AFIX  43
H7    2    0.023768    0.949221    0.709616    11.00000   -1.20000
AFIX   0
C00A  1    0.552764    0.746418    0.207407    11.00000    0.04188    0.02586 =
         0.02612   -0.01093    0.02050   -0.01523
C00B  1   -0.066668    0.685507    0.497715    11.00000    0.03731    0.02125 =
         0.02621   -0.00249    0.01490   -0.00356
AFIX  43
H00B  2   -0.142891    0.596575    0.451866    11.00000   -1.20000
AFIX   0
C00C  1    0.133696    0.768979    0.462665    11.00000    0.03844    0.01772 =
         0.02447   -0.00053    0.01782   -0.00130
C00D  1   -0.128227    0.762964    0.615198    11.00000    0.03603    0.02410 =
         0.02417    0.00634    0.01314    0.00514
C00E  1    0.483213    0.821522    0.322911    11.00000    0.04687    0.02087 =
         0.02991   -0.00759    0.02149   -0.01596
AFIX  43
H00E  2    0.560388    0.908982    0.371650    11.00000   -1.20000
AFIX   0
C00F  1    0.767774    0.767994    0.121636    11.00000    0.04533    0.02654 =
         0.03000   -0.00944    0.02393   -0.02002
C00G  1   -0.325225    0.733739    0.707032    11.00000    0.03729    0.03474 =
         0.03375    0.00950    0.01984    0.00520
AFIX 137
H00A  2   -0.240600    0.688821    0.771341    11.00000   -1.50000
H00C  2   -0.471733    0.671260    0.659014    11.00000   -1.50000
H00D  2   -0.391643    0.822102    0.750550    11.00000   -1.50000
AFIX   0

O00H  4    0.660525    0.082052   -0.003289    11.00000    0.08358    0.07851 =
         0.10727    0.02070    0.02575    0.01319
C00I  1    0.781458    0.140771    0.065779    11.00000    0.06411    0.04187 =
         0.05912    0.00119    0.00655   -0.00572
HKLF 4

REM  oav-207_a.res in P-1
REM R1 =  0.0654 for    1988 Fo > 4sig(Fo)  and  0.0850 for all    2445 data
REM    163 parameters refined using      0 restraints

END

WGHT      0.0902      0.7810

REM Highest difference peak  0.704,  deepest hole -1.096,  1-sigma level  0.135
Q1    1   1.0214  0.8757  0.1637  11.00000  0.05    0.70
Q2    1   0.8540  0.8814  0.1005  11.00000  0.05    0.60
Q3    1   0.8482  0.9198  0.1596  11.00000  0.05    0.52
Q4    1   0.6918  0.3178  0.1045  11.00000  0.05    0.52
Q5    1   0.8450  0.1146 -0.0391  11.00000  0.05    0.50
;
_shelx_res_checksum                50261
_shelx_hkl_file
;
  -1   0   0   48.30    3.20
  -1   0   0   52.59    3.70
   1   0   0   49.70    3.60
   1   0   0   46.00    3.20
  -2   0   0   31.90    4.10
  -2   0   0   30.70    4.60
   2   0   0   34.00    4.90
   2   0   0   27.70    3.90
  -3   0   0  277.87   12.20
  -3   0   0  253.37   13.30
   3   0   0  253.67   12.80
   3   0   0  261.87   11.80
  -4   0   0  266.97   14.40
  -4   0   0  249.18   15.60
   4   0   0  243.18   12.80
  -5   0   0   46.20    9.40
  -6   0   0    9.90    5.70
  -6   0   0   12.80    6.90
  -6   1   0   -3.00    5.10
  -6   1   0    7.70    6.10
  -5   1   0   27.20    7.80
  -5   1   0   49.00    7.80
  -5   1   0   33.30    8.20
  -4   1   0  127.49    9.20
  -4   1   0  108.09   10.50
  -4   1   0  114.59    9.20
   3  -1   0  337.67   14.80
  -3   1   0  361.76   16.20
  -3   1   0  364.76   13.70
   2  -1   0    5.80    2.30
  -2   1   0    7.70    2.00
  -2   1   0    8.00    2.00
  -2   1   0    8.60    2.70
   1  -1   0  499.35   14.20
  -1   1   0  478.75   10.80
  -1   1   0  490.45   12.90
  -1   1   0  482.85   10.80
   0  -1   0    0.10    0.50
   0   1   0  207.58    5.70
   0   1   0  207.08    5.80
  -1  -1   0 1157.18   26.60
  -1  -1   0 1079.99   26.40
   1   1   0 1088.09   24.80
   1   1   0 1123.79   24.80
  -2  -1   0   84.79    6.50
  -2  -1   0   85.79    6.20
   2   1   0   80.19    6.10
   2   1   0   77.39    6.40
  -3  -1   0   19.80    4.40
  -3  -1   0   20.30    4.70
   3   1   0   24.30    4.90
   3   1   0   24.80    5.10
  -4  -1   0  164.68   12.50
  -4  -1   0  157.28   11.90
   4   1   0  149.39   11.00
  -5  -1   0   18.60    5.90
   5   1   0   43.60    8.10
  -6  -1   0    6.90    6.10
  -6  -1   0    3.90    5.90
  -6   2   0   12.30    6.50
  -6   2   0    9.50    6.00
  -5   2   0   12.30    5.40
  -5   2   0   18.30    6.70
  -5   2   0   15.70    4.80
  -4   2   0   73.09   10.00
  -4   2   0   84.59    7.10
  -4   2   0   80.49    7.70
   3  -2   0   42.00    6.30
  -3   2   0   40.40    4.90
  -3   2   0   43.30    4.30
  -3   2   0   51.49    7.90
   2  -2   0  177.28    8.80
  -2   2   0  173.28    6.70
  -2   2   0  182.38    9.40
  -2   2   0  183.38    6.80
   1  -2   0  290.97    7.70
  -1   2   0  301.57   10.20
  -1   2   0  296.37    8.00
   0  -2   0  785.72   18.10
   0   2   0  825.82   19.30
   0   2   0  846.62   19.40
  -1  -2   0  201.68    8.90
  -1  -2   0  204.68    8.70
   1   2   0  186.38    8.50
   1   2   0  197.78    8.90
  -2  -2   0  654.93   20.60
  -2  -2   0  637.14   20.50
   2   2   0  595.74   19.70
   2   2   0  633.84   20.30
  -3  -2   0   61.59    8.20
  -3  -2   0   73.39    9.50
   3   2   0   66.99    6.90
   3   2   0   57.09    7.90
  -4  -2   0   22.80    6.30
   4   2   0   38.90    9.40
  -5  -2   0   27.20    7.50
   5   2   0   15.10    6.00
  -6  -2   0   55.79   11.50
   6   2   0   49.10   10.70
  -6   3   0   62.59    9.10
  -6   3   0   64.59   12.70
  -5   3   0   27.10    7.30
  -5   3   0   26.60    5.00
  -5   3   0   36.20    6.50
  -4   3   0   50.59    9.00
  -4   3   0   47.60    5.90
  -4   3   0   52.39    5.50
   3  -3   0  311.57   14.60
  -3   3   0  341.17   11.10
  -3   3   0  334.07   15.90
   2  -3   0  375.36   10.50
  -2   3   0  401.96   15.10
  -2   3   0  397.76   10.90
   1  -3   0  282.37    8.70
   1  -3   0  263.97   10.40
  -1   3   0  287.37    9.10
  -1   3   0  286.87   10.80
   0  -3   0  167.38    7.50
   0  -3   0  168.18    7.60
   0   3   0  161.08    7.80
   0   3   0  151.28    7.50
  -1  -3   0 1409.16   33.80
  -1  -3   0 1385.86   33.80
   1   3   0 1395.46   34.20
   1   3   0 1428.86   34.40
  -2  -3   0  856.51   25.70
  -2  -3   0  845.52   26.10
   2   3   0  880.81   27.10
   2   3   0  890.91   26.90
  -3  -3   0  127.79    9.90
  -3  -3   0  103.69   12.90
   3   3   0  102.29    9.20
  -4  -3   0  138.39   12.00
   4   3   0  123.89   11.30
  -5  -3   0  121.79   12.90
   5   3   0  106.09   11.50
  -6  -3   0   15.00    6.80
   6   3   0   26.50    8.90
  -6   4   0   29.50    6.10
  -6   4   0   29.70    9.70
  -5   4   0   92.49    7.20
  -5   4   0   84.09    8.10
  -5   4   0   94.39   13.40
  -4   4   0   11.90    5.50
  -4   4   0    6.10    2.70
  -4   4   0    3.80    3.10
  -3   4   0  149.29    7.10
  -3   4   0  142.79    6.90
  -3   4   0  154.68   11.20
   2  -4   0  424.26   22.50
  -2   4   0  391.26   15.30
  -2   4   0  371.26   11.30
   1  -4   0  261.27   11.10
   1  -4   0  258.97    9.50
  -1   4   0  294.07   10.60
  -1   4   0  275.37   11.80
   0  -4   0   11.90    3.20
   0  -4   0   11.80    3.20
   0   4   0   15.20    4.00
   0   4   0   15.20    3.70
  -1  -4   0  876.71   25.00
  -1  -4   0  866.31   25.80
  -1  -4   0  870.71   25.70
   1   4   0  862.81   25.90
  -2  -4   0  100.29    8.40
  -2  -4   0  108.49    9.10
   2   4   0   99.69    9.00
   2   4   0   96.29    8.80
  -3  -4   0  116.19   10.00
  -4  -4   0   37.00    8.60
   4   4   0   49.50    8.30
  -5  -4   0  206.68   16.60
   5   4   0  185.48   16.20
  -6  -4   0   26.30    9.60
   6   4   0   28.20    9.90
  -6   5   0   21.20    8.50
  -5   5   0   28.30    6.30
  -5   5   0   24.90    7.60
  -4   5   0  126.99   11.70
  -4   5   0   95.99    6.50
  -3   5   0   65.59    8.20
  -3   5   0   46.30    8.20
   2  -5   0  273.57   10.00
   2  -5   0  309.17   14.20
  -2   5   0  290.27   14.20
  -2   5   0  298.17   10.80
   1  -5   0   47.10    4.50
  -1   5   0   62.29    6.20
  -1   5   0   59.49    5.60
   0  -5   0  390.06   15.40
   0  -5   0  392.16   15.10
   0   5   0  406.16   16.10
   0   5   0  378.36   15.50
  -1  -5   0    2.80    2.70
  -1  -5   0    5.00    2.40
  -1  -5   0    2.40    2.10
   1   5   0    1.60    2.70
  -2  -5   0   93.29    8.60
   2   5   0  110.39    9.90
  -3  -5   0   19.80    5.30
   3   5   0   14.20    5.30
  -4  -5   0    1.20    4.30
   4   5   0    6.70    4.60
  -5  -5   0   13.70    6.00
   5   5   0   31.80    9.70
  -6   6   0   13.00    7.40
  -5   6   0    7.90    5.90
  -4   6   0   61.99    4.90
  -4   6   0   72.29   10.70
  -4   6   0   75.09    4.60
   3  -6   0  160.18    7.40
  -3   6   0  185.08   13.10
  -3   6   0  177.38    8.40
   2  -6   0  332.77   12.50
  -2   6   0  366.56   13.50
  -2   6   0  336.47   16.50
   1  -6   0  248.38   13.00
   1  -6   0  237.18   11.30
  -1   6   0  241.48   13.20
  -1   6   0  248.08   12.10
   0  -6   0    6.30    3.10
   0   6   0    7.30    3.30
   0   6   0   10.10    4.30
  -1  -6   0   44.80    7.70
  -1  -6   0   47.30    8.70
   1   6   0   53.69    9.20
  -2  -6   0  206.18   13.60
   2   6   0  223.48   15.30
  -3  -6   0   29.60    7.10
   3   6   0   45.60    9.60
  -4  -6   0   81.19   11.10
   4   6   0  101.59   14.60
  -5  -6   0   10.00    5.70
   5   6   0    8.10    6.70
  -5   7   0   60.99   12.60
  -4   7   0   17.00    5.90
   3  -7   0   33.50    4.40
  -3   7   0   34.20    5.00
  -3   7   0   37.10    7.70
   2  -7   0   22.70    4.30
  -2   7   0   16.50    5.30
  -2   7   0   20.20    4.40
   1  -7   0  472.25   20.00
  -1   7   0  527.05   20.00
  -1   7   0  541.05   21.90
   0  -7   0  168.78   11.20
   0   7   0  165.68   13.40
   0   7   0  175.38   12.40
  -1  -7   0   11.90    5.00
   1   7   0   11.70    5.30
  -2  -7   0   57.89    9.00
   2   7   0  101.29   14.20
  -3  -7   0  247.28   16.80
   3   7   0  254.47   18.40
  -4  -7   0   28.10    8.70
   4   7   0   31.50    9.10
  -5  -7   0   -0.60    5.10
   5   7   0    4.50    6.50
  -5   8   0   24.80    9.10
  -4   8   0   65.69   11.60
   3  -8   0   19.30    4.50
  -3   8   0    7.60    4.10
  -3   8   0   18.80    6.30
   2  -8   0   13.30    4.60
  -2   8   0    4.30    4.70
  -2   8   0   11.80    4.60
   1  -8   0   89.69   10.20
  -1   8   0   84.99   11.50
  -1   8   0  106.99    9.90
   0   8   0  616.44   25.90
  -1  -8   0   15.00    5.90
   1   8   0   13.20    4.40
  -2  -8   0   21.10    7.40
   2   8   0   15.70    6.20
  -3  -8   0  129.89   13.20
   3   8   0  154.98   14.80
  -4  -8   0    7.60    5.30
   4   8   0   18.00    8.90
  -5   9   0   10.90    7.80
  -4   9   0   28.00    8.00
   3  -9   0   22.40    5.10
  -3   9   0   31.20    8.30
  -3   9   0   25.60    5.50
   2  -9   0   74.59    8.30
  -2   9   0   86.19    8.90
  -2   9   0   79.29   11.70
  -1   9   0  199.28   15.30
  -1   9   0  252.47   17.00
   0  -9   0   10.30    5.10
   0   9   0   31.20    8.80
  -1  -9   0  352.56   21.90
   1   9   0  366.46   22.20
  -2  -9   0   29.90    7.10
   2   9   0   45.90   11.20
  -3  -9   0    3.80    5.00
   3   9   0    2.40    5.70
  -4  -9   0   25.80    7.90
   4   9   0   14.50    8.30
  -4  10   0   24.50    8.70
   3 -10   0   27.60    7.50
  -3  10   0   21.60    7.10
  -3  10   0   45.20    7.40
  -2  10   0   58.39   11.20
  -2  10   0   66.19    9.20
  -1  10   0   -2.30    4.70
  -1  10   0   -1.60    4.20
   0 -10   0   16.30    7.10
   0  10   0   33.40    8.70
  -1 -10   0  101.79   15.10
   1  10   0  130.19   14.40
  -2 -10   0   69.39   13.80
   2  10   0   88.69   13.90
  -3 -10   0    4.10    5.60
   3  10   0   10.90    7.70
  -3  11   0   53.19    7.90
  -3  11   0   58.29   11.40
  -2  11   0   34.40    7.60
  -2  11   0   41.20    9.50
  -1  11   0   10.60    5.70
  -1  11   0   10.60    8.00
   0 -11   0   76.59   15.60
   0  11   0   60.49   12.10
  -1 -11   0   -3.20    5.80
   1  11   0    7.70    6.70
  -2 -11   0   15.60    6.80
   2  11   0   16.00    9.50
  -2  12   0    3.20    6.60
  -2  12   0   12.80    7.30
  -1  12   0   53.49   10.80
  -1  12   0   71.79   11.90
   0 -12   0   29.20    8.40
   0  12   0   28.70   10.50
  -1 -12   0   26.20    9.20
   1  12   0   45.10   12.70
   1  12  -1   23.40    9.40
  -1 -12   1   23.60   10.10
   0  12  -1   30.70    9.70
   0 -12   1   17.00    7.80
  -1  12  -1   17.30    7.90
  -1  12  -1    7.40    6.50
  -2  12  -1   23.50    9.40
  -2  12  -1   11.90    7.30
   2  11  -1   26.20    8.50
  -2 -11   1    6.10    4.90
   1  11  -1  141.89   19.70
  -1 -11   1  129.99   18.30
   0  11  -1   41.10    9.60
   0 -11   1   27.50    8.70
  -1  11  -1   25.60    8.30
  -1  11  -1   17.10    6.10
  -2  11  -1    8.70    6.00
  -2  11  -1   -1.90    5.80
  -3  11  -1   59.09   10.40
   3  10  -1   20.70    8.40
  -3 -10   1   11.10    6.90
   2  10  -1   10.60    7.30
  -2 -10   1   28.00    9.50
   1  10  -1  245.18   18.80
  -1 -10   1  233.88   18.40
   0  10  -1  130.19   13.30
   0 -10   1  105.89   16.40
  -1  10  -1   23.50    5.50
  -1  10  -1   21.10    6.60
  -2  10  -1   69.29   11.80
  -2  10  -1   54.69    9.10
  -3  10  -1   41.30    7.50
  -4  10  -1   13.50    6.00
  -4  10  -1   18.90    8.40
   4   9  -1   30.40    9.80
  -4  -9   1   26.20    7.70
  -3  -9   1   11.00    6.70
   2   9  -1   65.59   12.70
  -2  -9   1   47.50    9.90
   1   9  -1    4.90    4.50
  -1  -9   1    0.80    3.30
   0   9  -1  194.88   15.10
   0  -9   1  211.08   16.60
  -1   9  -1  174.08   13.80
  -1   9  -1  147.89   19.30
  -2   9  -1   92.89   12.20
  -2   9  -1   78.79   10.50
  -3   9  -1   26.90    6.20
  -3   9  -1   29.00    7.50
   3  -9   1   33.70    6.80
  -4   9  -1    7.20    4.90
  -4   9  -1   15.30    6.30
  -5   9  -1   22.90    8.40
   4   8  -1   23.20    8.90
  -4  -8   1    8.00    5.20
   3   8  -1  166.38   15.80
  -3  -8   1  140.29   13.70
   2   8  -1  129.29   13.10
  -2  -8   1  125.39   12.20
   1   8  -1    8.70    5.10
  -1  -8   1   11.60    5.00
   0   8  -1   85.89    9.30
  -1   8  -1  377.76   18.40
  -1   8  -1  389.36   19.60
   1  -8   1  346.87   18.80
  -2   8  -1   58.79    8.70
  -2   8  -1   35.70    7.70
   2  -8   1   43.80    7.10
  -3   8  -1    2.00    3.20
  -3   8  -1    7.90    5.00
   3  -8   1    4.20    4.50
  -4   8  -1   59.09   10.70
  -4   8  -1   56.09    7.00
  -4   8  -1   55.69    6.70
  -5   8  -1   25.30    7.70
   5   7  -1   18.10    7.30
  -5  -7   1    7.70    5.70
   4   7  -1   38.20    9.80
  -4  -7   1   31.00    8.50
   3   7  -1   25.90    7.40
  -3  -7   1   14.80    4.90
   2   7  -1   78.19   11.80
  -2  -7   1   88.69   12.80
   1   7  -1   99.69   15.00
  -1  -7   1   88.99    9.60
   0   7  -1  115.19   10.40
   0   7  -1  110.99    9.90
   0  -7   1   92.99    8.60
  -1   7  -1  163.78   12.10
  -1   7  -1  188.28   11.70
   1  -7   1  160.48   10.40
  -2   7  -1  141.39    9.60
  -2   7  -1  150.78   11.50
   2  -7   1  119.99    8.90
  -3   7  -1   10.80    5.20
  -3   7  -1   11.20    4.30
   3  -7   1    5.80    3.70
  -4   7  -1  109.99   12.00
  -4   7  -1   84.69    8.40
  -4   7  -1   90.19    7.20
  -5   7  -1   15.70    5.90
  -5   7  -1   23.70    6.30
  -5   7  -1   31.30    7.50
   5   6  -1   14.20    8.30
  -5  -6   1    7.00    4.90
   4   6  -1   -3.10    5.40
  -4  -6   1    2.60    3.30
   3   6  -1   91.19   12.80
  -3  -6   1   68.69   10.10
   2   6  -1   44.10    8.50
  -2  -6   1   29.50    6.30
   1   6  -1    6.50    3.80
  -1  -6   1    7.00    4.00
  -1  -6   1    6.30    2.80
  -1  -6   1    7.10    4.10
   0   6  -1   99.89    8.60
   0   6  -1   87.89    8.20
   0  -6   1   90.99    7.70
  -1   6  -1   32.20    5.80
  -1   6  -1   36.00    5.90
   1  -6   1   30.40    5.40
   1  -6   1   37.80    6.10
  -2   6  -1   65.99    6.50
  -2   6  -1   77.89    8.00
   2  -6   1   64.59    6.30
  -3   6  -1  212.28   13.40
   3  -6   1  177.08    9.20
  -4   6  -1   64.79    6.70
  -4   6  -1   60.69    6.40
  -4   6  -1   84.29   11.70
  -5   6  -1   55.69   10.20
  -5   6  -1   40.70    5.60
  -5   6  -1   46.40    7.20
  -6   6  -1    8.70    7.50
   6   5  -1   -1.50    6.90
  -6  -5   1    4.40    6.10
   5   5  -1   38.50    8.90
   4   5  -1  103.89   14.10
  -4  -5   1   86.99   12.20
   3   5  -1  351.26   19.30
  -3  -5   1  338.87   18.00
   2   5  -1   25.50    6.20
  -2  -5   1   23.70    5.50
   1   5  -1  432.76   18.30
  -1  -5   1  420.46   17.50
  -1  -5   1  389.36   16.80
  -1  -5   1  385.86   16.70
   0   5  -1   64.19    6.50
   0   5  -1   61.09    6.60
   0  -5   1   55.79    5.60
   0  -5   1   58.69    6.00
  -1   5  -1  189.28   10.30
  -1   5  -1  168.38    9.40
   1  -5   1  161.88    8.70
   1  -5   1  154.88    9.30
  -2   5  -1  237.68   10.60
  -2   5  -1  239.58   12.60
   2  -5   1  207.68   11.50
   2  -5   1  213.78    9.50
  -3   5  -1   57.99    5.60
   3  -5   1   45.40    5.40
  -4   5  -1   26.40    5.50
  -4   5  -1   17.40    5.30
  -4   5  -1   24.10    5.10
  -5   5  -1   49.60    6.10
  -5   5  -1   27.70    7.00
  -5   5  -1   33.00    8.80
  -6   5  -1   32.40    9.50
  -6   5  -1   25.80    6.60
   6   4  -1   26.50    9.80
  -6  -4   1   18.00    9.30
   5   4  -1   35.30    8.40
  -5  -4   1   27.30    6.50
   4   4  -1  501.85   23.90
  -4  -4   1  469.85   22.60
   3   4  -1   43.50    7.60
  -3  -4   1   46.00    8.30
   2   4  -1  900.01   28.50
   2   4  -1  879.61   28.30
  -2  -4   1  803.42   26.20
  -2  -4   1  802.22   25.50
   1   4  -1  271.07   13.10
  -1  -4   1  240.18   11.80
  -1  -4   1  259.67   12.10
  -1  -4   1  231.78   11.30
   0   4  -1    8.70    3.10
   0   4  -1    6.00    2.90
   0  -4   1    9.30    2.90
   0  -4   1   10.40    2.80
  -1   4  -1  407.46   13.70
  -1   4  -1  405.36   14.10
   1  -4   1  380.86   13.60
   1  -4   1  388.26   13.00
  -2   4  -1  384.66   13.00
  -2   4  -1  383.36   15.20
   2  -4   1  352.86   11.90
   2  -4   1  344.07   14.00
  -3   4  -1  218.48    9.90
  -3   4  -1  225.08   13.10
  -3   4  -1  227.68   10.00
  -4   4  -1   -1.70    2.70
  -4   4  -1   -1.30    3.80
  -4   4  -1    4.40    4.30
  -5   4  -1    3.50    3.60
  -5   4  -1   -0.50    6.40
  -6   4  -1   63.79   11.60
  -6   4  -1   47.20    9.00
   6   3  -1   10.30    6.90
  -6  -3   1   12.70    6.10
   5   3  -1  114.49   12.00
  -5  -3   1  112.69   12.20
   4   3  -1    2.70    3.40
  -4  -3   1    1.20    3.60
   3   3  -1   -0.20    2.50
  -3  -3   1   10.50    4.40
  -3  -3   1    3.50    2.60
   2   3  -1  857.11   26.10
   2   3  -1  830.02   25.70
  -2  -3   1  805.42   24.80
  -2  -3   1  797.92   24.50
   1   3  -1  881.91   24.00
   1   3  -1  909.91   24.80
  -1  -3   1  910.61   24.20
  -1  -3   1  915.51   24.50
   0   3  -1    8.40    2.60
   0   3  -1    6.10    2.40
   0  -3   1    4.40    2.10
   0  -3   1    9.20    3.00
  -1   3  -1  120.99    6.60
   1  -3   1  110.69    5.80
  -2   3  -1  121.49    7.90
  -2   3  -1  130.39    6.70
   2  -3   1  114.09    7.50
   2  -3   1  116.09    6.20
  -3   3  -1  161.58    8.60
  -3   3  -1  158.28    8.50
  -3   3  -1  172.28   11.20
   3  -3   1  123.79    9.00
  -4   3  -1    7.00    4.00
  -4   3  -1    7.50    3.60
  -4   3  -1    7.40    3.50
  -5   3  -1   45.30    8.80
  -5   3  -1   46.30    7.30
  -5   3  -1   44.90    7.40
  -6   3  -1   32.90    7.90
  -6   3  -1   40.80    8.80
   6   2  -1   41.50    8.60
  -6  -2   1   35.80    8.70
   5   2  -1   31.80    6.80
  -5  -2   1   22.30    6.40
   4   2  -1    9.10    4.20
  -4  -2   1    9.10    3.40
   3   2  -1  199.38   11.60
   3   2  -1  198.08   12.10
  -3  -2   1  173.18   11.00
   2   2  -1   34.60    5.80
   2   2  -1   43.60    5.90
  -2  -2   1   46.60    6.40
  -2  -2   1   34.40    5.30
   1   2  -1  747.63   19.90
   1   2  -1  778.02   20.50
  -1  -2   1  732.83   19.50
  -1  -2   1  734.23   19.10
   0   2  -1 1429.56   29.50
   0   2  -1 1484.15   30.70
   0  -2   1 1574.04   33.30
   0  -2   1 1460.35   30.30
  -1   2  -1   70.29    4.50
  -1   2  -1   67.69    5.10
   1  -2   1   59.99    3.90
   1  -2   1   59.09    4.30
  -2   2  -1  440.06   15.30
  -2   2  -1  456.35   13.90
  -2   2  -1  463.05   13.90
  -3   2  -1   17.10    4.80
  -3   2  -1   27.70    4.60
  -3   2  -1   21.10    4.40
   3  -2   1   17.50    3.90
  -4   2  -1  104.69   10.20
  -4   2  -1   99.99    9.20
  -4   2  -1   95.89    8.10
  -5   2  -1   28.40    7.30
  -5   2  -1   41.40    7.30
  -5   2  -1   38.50    9.70
  -6   2  -1    4.00    5.40
  -6   2  -1    7.10    6.20
   6   1  -1   25.70    7.40
  -6  -1   1    5.50    5.70
   5   1  -1    2.10    4.70
  -5  -1   1    2.20    3.70
   4   1  -1  115.29    9.40
  -4  -1   1  103.79    9.90
  -4  -1   1  112.39   10.20
   3   1  -1  455.15   18.40
   3   1  -1  449.56   16.80
  -3  -1   1  486.55   17.40
  -3  -1   1  464.15   18.70
   2   1  -1  525.75   16.50
   2   1  -1  546.15   17.70
  -2  -1   1  531.75   16.20
  -2  -1   1  521.55   17.10
   1   1  -1  134.19    6.30
   1   1  -1  145.19    6.50
  -1  -1   1  132.49    7.00
  -1  -1   1  133.29    6.20
   0   1  -1 2120.79   41.40
   0   1  -1 2270.97   40.90
   0  -1   1 2156.88   40.90
   0  -1   1 2193.38   39.50
  -1   1  -1 2237.48   42.80
  -1   1  -1 2128.39   42.40
   1  -1   1 2177.08   42.70
   1  -1   1 2207.58   42.90
  -2   1  -1   19.80    3.40
  -2   1  -1   18.10    3.80
  -2   1  -1   11.40    2.80
   2  -1   1   14.30    3.20
  -3   1  -1  355.26   14.70
  -3   1  -1  356.16   14.50
  -3   1  -1  367.66   16.10
   3  -1   1  303.37   13.90
  -4   1  -1  336.47   18.00
  -4   1  -1  325.97   15.80
  -4   1  -1  347.37   16.50
  -5   1  -1   23.60    7.10
  -5   1  -1   26.60    5.80
  -6   1  -1    2.20    5.90
  -6   1  -1    3.60    5.00
  -6   0   1    1.50    4.80
  -6   0   1    2.80    5.50
   5   0  -1   63.39    8.10
  -5   0   1   82.59   13.30
   4   0  -1  195.18   11.30
  -4   0   1  187.48   11.40
  -4   0   1  198.48   13.60
   3   0  -1  102.99    7.10
   3   0  -1   91.09    7.90
  -3   0   1  111.99    7.30
  -3   0   1  104.89    8.50
   2   0  -1  158.28    8.50
  -2   0   1  165.38    8.70
  -2   0   1  164.08    7.10
   1   0  -1  710.13   15.20
  -1   0   1  752.62   15.90
  -1   0   1  744.93   17.70
  -1   0  -1 1532.35   31.30
   1   0   1 1528.55   31.20
   1   0   1 1504.05   31.80
  -2   0  -1   84.89    6.50
  -2   0  -1   79.89    6.00
   2   0   1   80.19    6.10
   2   0   1   70.99    5.70
  -3   0  -1   74.69    7.10
  -3   0  -1   70.19    8.50
   3   0   1   61.89    7.80
   3   0   1   69.99    6.30
  -4   0  -1  167.98   12.90
  -4   0  -1  153.28   11.90
   4   0   1  170.98   11.30
  -5   0  -1    4.20    4.10
  -5   0  -1   -1.00    3.20
  -6   0  -1    6.10    7.00
  -6   0  -1   19.40    6.70
  -6   1   1   58.39    9.10
  -6   1   1   73.09   12.30
  -5   1   1   65.99    8.30
  -5   1   1   58.19    9.00
  -5   1   1   44.00    9.90
   4  -1  -1  230.28   11.00
  -4   1   1  269.97   15.70
  -4   1   1  220.08   11.20
   3  -1  -1    0.10    2.10
   3  -1  -1    4.00    1.80
  -3   1   1    0.90    2.70
  -3   1   1    2.40    1.80
   2  -1  -1   13.80    2.30
   2  -1  -1   13.80    3.20
  -2   1   1   15.10    2.30
  -2   1   1   16.10    3.30
   1  -1  -1   36.20    4.10
   0  -1  -1   94.49    4.10
   0  -1  -1  102.99    4.00
   0   1   1  100.59    4.30
   0   1   1   98.69    4.10
  -1  -1  -1   49.50    4.30
   1   1   1   43.20    3.90
   1   1   1   45.60    4.30
  -2  -1  -1  150.38    8.70
  -2  -1  -1  143.49    8.70
   2   1   1  137.49    8.70
   2   1   1  141.39    8.30
  -3  -1  -1  305.07   14.70
   3   1   1  322.27   14.70
   3   1   1  289.27   14.60
  -4  -1  -1   32.10    7.10
   4   1   1   38.70    7.10
  -5  -1  -1   30.30    7.30
   5   1   1   22.20    6.40
  -6  -1  -1   15.30    6.80
  -6  -1  -1   22.20    8.10
  -6   2   1   43.20    7.30
  -6   2   1   35.70    9.60
  -6   2   1   35.60   10.30
  -5   2   1  134.39    9.20
  -5   2   1  149.69   13.90
  -4   2   1    8.30    3.60
  -4   2   1   18.20    4.00
  -4   2   1   10.10    4.70
   3  -2  -1   13.60    3.40
  -3   2   1   15.30    4.80
  -3   2   1   22.30    3.10
   2  -2  -1  656.63   19.80
  -2   2   1  699.83   14.20
  -2   2   1  734.83   21.40
  -2   2   1  716.73   14.20
   1  -2  -1  342.07   11.40
   1  -2  -1  360.26    7.80
  -1   2   1  341.37   11.30
  -1   2   1  350.46    7.70
   0  -2  -1  665.93   17.50
   0  -2  -1  626.44   16.00
   0   2   1  610.94   15.60
  -1  -2  -1   91.79    6.10
   1   2   1  105.39    6.60
   1   2   1  101.69    6.80
  -2  -2  -1  200.58   11.00
  -2  -2  -1  216.68   10.90
   2   2   1  206.38   11.20
   2   2   1  196.78   10.60
  -3  -2  -1  332.27   15.90
  -3  -2  -1  349.57   16.30
   3   2   1  314.07   15.90
   3   2   1  334.47   18.30
  -4  -2  -1   53.29    8.80
   4   2   1   35.30    7.30
  -5  -2  -1  324.67   19.80
   5   2   1  332.17   19.50
  -6  -2  -1   24.00    7.90
   6   2   1   32.20    7.40
  -6   3   1    4.50    7.10
  -6   3   1    5.40    4.80
  -6   3   1   -8.20    6.30
  -5   3   1   56.69    6.40
  -5   3   1   54.99    5.80
  -5   3   1   74.89   11.80
  -4   3   1  169.58    7.40
  -4   3   1  199.48    8.80
  -4   3   1  184.98   13.30
  -3   3   1  199.28    6.10
  -3   3   1  180.88   11.70
  -3   3   1  198.98    6.00
   2  -3  -1   76.79    6.30
  -2   3   1   69.69    6.50
   1  -3  -1  123.69    7.10
   1  -3  -1  118.99    4.90
  -1   3   1  121.09    7.00
  -1   3   1  118.69    5.10
   0  -3  -1  116.59    6.70
   0  -3  -1  121.89    6.50
   0   3   1  116.59    7.00
   0   3   1  124.09    7.00
  -1  -3  -1  216.38   10.20
  -1  -3  -1  213.68   10.30
  -1  -3  -1  196.78   10.50
   1   3   1  203.88   10.60
   1   3   1  210.98   10.60
  -2  -3  -1  657.53   21.80
   2   3   1  716.83   24.40
  -3  -3  -1    1.70    2.80
   3   3   1    1.90    3.20
  -4  -3  -1  202.58   14.60
   4   3   1  176.08   13.90
  -5  -3  -1   61.99   10.10
   5   3   1   68.29   10.50
  -6  -3  -1   13.80    6.50
   6   3   1   35.10    9.30
  -6   4   1   13.20    7.80
  -5   4   1    6.40    4.90
  -4   4   1  172.98   13.20
  -3   4   1  319.97   16.30
   2  -4  -1  677.73   14.90
   2  -4  -1  665.33   21.80
  -2   4   1  739.03   16.20
  -2   4   1  743.83   23.40
   1  -4  -1    9.20    2.20
   1  -4  -1   12.00    3.00
  -1   4   1   11.60    3.10
   0  -4  -1    9.70    2.80
   0  -4  -1    5.60    2.20
   0   4   1   13.20    3.50
   0   4   1   13.40    3.40
  -1  -4  -1  500.75   18.90
  -1  -4  -1  503.45   17.70
  -1  -4  -1  507.15   18.50
   1   4   1  551.34   20.00
  -2  -4  -1   19.90    5.20
  -2  -4  -1   32.70    5.90
   2   4   1   20.00    4.90
   2   4   1   18.50    5.00
  -3  -4  -1   13.00    5.10
   3   4   1   11.70    4.60
  -4  -4  -1   35.70    7.50
   4   4   1   51.99    9.90
  -5  -4  -1    7.90    6.10
   5   4   1   11.70    6.10
  -6  -4  -1   28.80    8.60
   6   4   1   23.20    8.00
  -6   5   1   21.60    9.00
  -5   5   1   55.99   11.60
  -4   5   1    9.50    5.60
  -3   5   1  247.98   14.40
   2  -5  -1  100.29    7.00
  -2   5   1  103.19    5.60
  -2   5   1  102.49    8.70
   1  -5  -1  341.67   12.10
   1  -5  -1  347.87   14.70
  -1   5   1  338.87   12.70
  -1   5   1  354.86   15.00
   0  -5  -1  169.88    9.80
   0  -5  -1  203.58   10.90
   0   5   1  175.58   10.30
   0   5   1  178.58   10.50
  -1  -5  -1   85.79    8.40
  -1  -5  -1   78.79    7.90
  -1  -5  -1   79.89    7.40
   1   5   1   89.09    8.30
  -2  -5  -1  155.58   11.60
   2   5   1  184.28   12.80
  -3  -5  -1   68.09   10.60
   3   5   1   67.79   10.30
  -4  -5  -1    6.90    4.70
   4   5   1    6.00    4.10
  -5  -5  -1   18.40    5.60
   5   5   1   14.80    9.70
  -6   6   1   19.80    9.10
  -4   6   1   48.80    9.30
  -3   6   1  129.09   11.00
   2  -6  -1    6.00    2.60
  -2   6   1    6.20    3.20
  -2   6   1    8.30    2.90
   1  -6  -1  180.58    9.60
  -1   6   1  209.08   10.90
  -1   6   1  232.88   13.00
   0   6   1  637.34   23.40
   0   6   1  656.13   23.30
  -1  -6  -1   28.90    7.00
   1   6   1   44.30    7.90
  -2  -6  -1   11.50    4.40
   2   6   1   17.10    5.20
  -3  -6  -1  168.58   13.80
   3   6   1  153.58   14.60
  -4  -6  -1  118.29   16.10
   4   6   1  128.59   14.00
  -5  -6  -1   11.10    6.00
   5   6   1    5.30    6.40
  -5   7   1    9.70    7.00
  -4   7   1   52.99    9.70
  -3   7   1    2.60    4.40
  -3   7   1    5.50    2.50
   2  -7  -1  124.99    8.20
  -2   7   1  132.19   11.00
  -2   7   1  140.09    8.80
   1  -7  -1  127.59    9.00
  -1   7   1  126.79   10.40
  -1   7   1  114.99    9.10
   0  -7  -1  217.48   13.10
   0   7   1  260.47   15.00
   0   7   1  246.08   15.10
  -1  -7  -1  282.07   17.60
   1   7   1  327.27   18.10
  -2  -7  -1    7.30    4.30
   2   7   1    8.10    4.20
  -3  -7  -1   82.89   12.00
   3   7   1  134.19   17.80
  -5  -7  -1   16.50    8.30
   5   7   1   10.50    8.40
  -5   8   1   23.80    9.00
  -4   8   1   87.59   12.80
   3  -8  -1   30.80    4.40
  -3   8   1   32.60    7.80
  -3   8   1   43.20    5.20
   2  -8  -1   81.19    8.70
  -2   8   1   97.99   12.20
  -2   8   1   87.59    8.30
   1  -8  -1  124.29   10.10
  -1   8   1  157.28   11.60
  -1   8   1  152.48   12.90
   0   8   1   52.89    9.30
  -1  -8  -1   66.79   11.10
   1   8   1   95.09   13.50
  -2  -8  -1  397.26   22.60
   2   8   1  408.36   23.90
  -3  -8  -1   18.60    6.30
   3   8   1   36.10    9.00
  -4  -8  -1    4.40    5.60
   4   8   1   -5.40    6.30
  -4   9   1   -2.30    5.00
   3  -9  -1   62.89    6.50
  -3   9   1   72.29    7.30
  -3   9   1   69.19   11.00
   2  -9  -1   94.99   10.20
  -2   9   1   73.89   11.50
  -2   9   1   81.59    8.90
  -1   9   1    0.90    4.20
  -1   9   1   -1.20    4.00
   0  -9  -1   35.10    8.10
   0   9   1   31.10    8.50
  -1  -9  -1   41.90    9.00
   1   9   1   52.89   10.70
  -2  -9  -1  123.69   13.30
   2   9   1  134.19   14.70
  -3  -9  -1   19.40    7.40
   3   9   1   31.90   10.10
  -4  -9  -1   18.30    8.70
   4   9   1   10.40    8.20
  -4  10   1    2.90    6.30
  -3  10   1   27.50    6.20
  -3  10   1   20.00   10.40
  -2  10   1   30.90    9.40
  -2  10   1   25.30    6.30
  -1  10   1   13.40    5.40
  -1  10   1   20.60    7.00
   0 -10  -1   -6.10    4.20
   0  10   1   -0.20    5.80
  -1 -10  -1   81.09   13.90
   1  10   1  101.79   15.90
  -2 -10  -1   11.00    6.70
  -3 -10  -1    7.20    5.90
   3  10   1    2.40    8.20
  -3  11   1   19.80    8.60
  -3  11   1    3.70    7.00
  -2  11   1   22.30    7.30
  -2  11   1   24.10    8.30
  -1  11   1  119.79   14.70
  -1  11   1  117.99   15.10
   0 -11  -1   37.60   10.70
   0  11   1   90.69   15.50
  -1 -11  -1   30.00    9.30
   1  11   1   28.90    9.60
  -2 -11  -1   17.90    7.70
   2  11   1   25.60    8.70
  -2  12   1   41.50   10.00
  -2  12   1   26.50    9.00
  -1  12   1   39.10   10.10
  -1  12   1   36.80   10.60
   0 -12  -1   21.20    9.30
   0  12   1   16.20    9.10
  -1 -12  -1   49.40   12.90
   1  12   1   16.10    8.40
   1  12  -2   41.40   11.00
  -1 -12   2   46.80    9.30
   0  12  -2   50.39   11.90
   0 -12   2   39.60   10.30
  -1  12  -2    9.10    7.60
  -1  12  -2   19.90    7.90
   1 -12   2    9.80    7.40
  -2  12  -2    1.20    8.20
  -2  12  -2   23.20    8.70
   3  11  -2   12.40    9.10
  -3 -11   2   10.00    7.00
   2  11  -2    2.40    6.90
  -2 -11   2    2.60    6.20
   1  11  -2   63.69   12.50
   0  11  -2  168.78   16.90
   0 -11   2  204.18   18.20
  -1  11  -2    5.60    6.30
  -1  11  -2    6.80    6.00
  -2  11  -2   58.19    9.20
  -3  11  -2   32.00    9.00
  -3  11  -2   17.70    8.00
   3  10  -2   15.00    7.70
  -3 -10   2    1.20    5.00
   2  10  -2   79.19   13.70
  -2 -10   2   75.99   12.40
   1  10  -2   17.10    6.90
  -1 -10   2   32.00    9.10
   0  10  -2   30.60    8.50
   0 -10   2   26.70    8.30
  -1  10  -2  185.68   15.40
  -1  10  -2  213.88   16.10
  -2  10  -2   11.40    6.20
  -2  10  -2   13.80    6.30
  -3  10  -2   -0.40    6.00
  -4  10  -2   12.00    8.20
  -4  10  -2   16.00    6.60
   4   9  -2    2.00    6.50
  -4  -9   2    3.80    5.80
   3   9  -2   22.60    8.30
  -3  -9   2    8.60    4.90
   2   9  -2  222.88   18.00
  -2  -9   2  212.78   16.50
   1   9  -2   80.79   12.80
  -1  -9   2   74.49   12.80
   0   9  -2   11.70    4.60
   0  -9   2    7.60    6.10
  -1   9  -2   83.59   11.40
  -1   9  -2   83.59   11.30
  -2   9  -2  207.88   15.20
  -2   9  -2  172.38   13.60
  -3   9  -2    9.50    5.90
  -3   9  -2   21.40    6.70
  -4   9  -2   33.20    6.50
   4  -9   2   25.00    9.10
  -5   9  -2   -5.30    6.90
  -5   9  -2   14.90    8.30
  -5   9  -2   -5.40    6.80
   5   8  -2   12.20    8.70
   4   8  -2   39.80    9.50
  -4  -8   2   71.39   12.70
   3   8  -2  123.09   13.80
  -3  -8   2  125.39   12.60
   2   8  -2   -6.90    4.50
  -2  -8   2   -4.90    3.80
   1   8  -2  181.98   14.80
  -1  -8   2  160.98   13.40
   0   8  -2  104.49   10.90
   0  -8   2   85.09   12.20
  -1   8  -2    1.40    3.60
  -1   8  -2    8.30    3.60
  -2   8  -2   56.29    8.30
  -2   8  -2   46.40    7.80
   2  -8   2   49.50    7.40
  -3   8  -2  137.59   12.70
  -3   8  -2  126.29   10.10
   3  -8   2   96.09    9.80
  -4   8  -2   44.40    7.10
  -4   8  -2   35.80    8.30
   4  -8   2   17.60    6.50
  -5   8  -2   43.90   10.40
  -5   8  -2   31.80    6.60
   5   7  -2   49.50   11.00
  -5  -7   2   33.80   10.10
   4   7  -2   52.39   10.80
  -4  -7   2   48.80   10.00
   3   7  -2    7.30    5.00
  -3  -7   2    2.70    3.80
   2   7  -2    5.50    3.80
  -2  -7   2    3.00    2.90
   1   7  -2   24.30    5.50
   0   7  -2   23.30    5.90
   0   7  -2   33.40    6.30
  -1   7  -2  352.56   16.60
  -1   7  -2  360.86   16.80
   1  -7   2  300.17   14.60
  -2   7  -2   31.70    6.30
  -2   7  -2   22.10    4.90
   2  -7   2   15.60    4.90
  -3   7  -2   33.10    7.00
  -3   7  -2   40.00    6.20
   3  -7   2   21.50    5.90
  -4   7  -2   39.60    6.60
  -4   7  -2   26.50    8.30
  -4   7  -2   38.40    8.10
  -5   7  -2   68.49   17.60
  -5   7  -2   39.50   12.20
  -5   7  -2   36.00    6.50
  -5  -6   2   50.39   10.90
   4   6  -2  260.27   19.10
  -4  -6   2  264.87   18.00
   3   6  -2   65.29   10.40
  -3  -6   2   48.70    8.60
   2   6  -2  212.58   14.50
   1   6  -2    7.10    4.00
  -1  -6   2    6.80    3.40
  -1  -6   2    5.10    4.50
  -1  -6   2   14.60    4.80
   0   6  -2  494.55   19.70
   0   6  -2  465.15   18.20
   0  -6   2  487.25   17.80
   0  -6   2  482.55   18.70
  -1   6  -2   65.99    8.50
  -1   6  -2   55.99    7.40
   1  -6   2   38.80    6.30
   1  -6   2   38.00    5.90
  -2   6  -2   95.89    8.00
  -2   6  -2   90.39    8.00
   2  -6   2   72.99    6.60
  -3   6  -2   59.69    8.00
  -3   6  -2   57.19    8.40
   3  -6   2   57.09    6.90
  -4   6  -2   64.09    9.50
  -4   6  -2   47.40    7.40
  -4   6  -2   81.29    7.80
  -5   6  -2   12.20    9.80
  -5   6  -2   11.80    4.90
  -5   6  -2   20.20    7.30
  -6   6  -2   18.60    7.80
  -6   6  -2   30.40    9.10
   6   5  -2   23.60    9.00
  -6  -5   2   20.00    7.50
   5   5  -2    9.60    5.20
   4   5  -2  157.48   14.00
  -4  -5   2  119.09   11.90
   3   5  -2  474.75   22.40
  -3  -5   2  497.65   22.00
   2   5  -2  137.29   11.10
   2   5  -2  134.89   10.80
  -2  -5   2  142.69   10.20
   1   5  -2  549.05   21.10
  -1  -5   2  553.04   20.30
  -1  -5   2  525.75   18.60
  -1  -5   2  524.95   19.30
   0   5  -2  624.94   20.00
   0   5  -2  632.04   21.40
   0  -5   2  556.84   17.90
   0  -5   2  555.54   19.10
  -1   5  -2  172.68    9.50
  -1   5  -2  174.88    9.30
   1  -5   2  158.78    8.90
   1  -5   2  150.58    8.70
  -2   5  -2    3.40    2.80
  -2   5  -2    0.30    2.30
   2  -5   2    2.40    2.40
   2  -5   2   -0.90    2.50
  -3   5  -2  109.69    8.20
  -3   5  -2  109.29    9.70
   3  -5   2   94.69    7.40
  -4   5  -2   57.39    9.20
  -4   5  -2   58.29    7.50
  -4   5  -2   48.70    6.70
  -5   5  -2   43.60    7.70
  -5   5  -2   50.39    9.60
  -5   5  -2   49.20    8.90
  -6   5  -2   12.30    7.30
  -6   5  -2   -3.50    7.40
   6   4  -2    0.00    6.10
  -6  -4   2    3.50    5.80
   5   4  -2   28.80    7.80
  -5  -4   2   53.99   10.80
   4   4  -2   30.20    6.90
  -4  -4   2   28.10    6.60
   3   4  -2  129.19   11.00
   2   4  -2  212.98   12.90
   2   4  -2  217.88   12.40
  -2  -4   2  211.08   11.90
  -2  -4   2  204.68   11.60
   1   4  -2  340.67   14.30
   1   4  -2  356.46   15.10
  -1  -4   2  341.27   14.30
  -1  -4   2  341.27   13.90
   0   4  -2    1.20    2.30
   0   4  -2    2.10    2.00
   0  -4   2    1.50    1.70
   0  -4   2    3.60    2.50
  -1   4  -2   14.90    3.10
  -1   4  -2   14.70    3.30
   1  -4   2   11.30    2.90
   1  -4   2   11.10    3.10
  -2   4  -2  523.75   17.30
  -2   4  -2  516.15   17.80
   2  -4   2  474.15   16.30
   2  -4   2  454.95   15.40
  -3   4  -2   28.90    5.50
  -3   4  -2   35.40    5.20
   3  -4   2   26.20    4.80
   3  -4   2   18.80    6.20
  -4   4  -2   15.80    6.20
  -4   4  -2   12.50    6.50
  -4   4  -2   15.60    4.30
  -5   4  -2   21.20    6.20
  -5   4  -2   29.00    8.30
  -5   4  -2   28.10    6.40
  -6   4  -2   13.00    6.50
  -6   4  -2   18.00    8.50
   6   3  -2   47.40    9.60
  -6  -3   2   41.20    9.70
   5   3  -2   16.70    7.10
  -5  -3   2    6.80    4.70
   4   3  -2    4.10    3.70
  -4  -3   2    3.40    3.50
   3   3  -2   90.59    8.10
  -3  -3   2   89.29    8.60
  -3  -3   2  102.59    9.00
   2   3  -2  162.58   10.30
   2   3  -2  156.48    9.80
  -2  -3   2  158.98   10.00
  -2  -3   2  147.89    9.40
   1   3  -2  157.98    8.50
   1   3  -2  155.58    8.80
  -1  -3   2  158.58    8.70
  -1  -3   2  162.08    8.20
   0   3  -2  208.98    9.20
   0   3  -2  195.98    7.90
   0  -3   2  192.18    9.00
   0  -3   2  211.58    7.90
  -1   3  -2  191.48    7.90
  -1   3  -2  194.58    9.00
   1  -3   2  169.78    8.00
   1  -3   2  173.98    7.40
  -2   3  -2  362.76   13.20
  -2   3  -2  357.36   13.60
   2  -3   2  305.67   12.20
   2  -3   2  329.57   12.30
  -3   3  -2   37.20    6.20
  -3   3  -2   34.00    5.50
  -3   3  -2   29.10    4.80
   3  -3   2   27.70    4.90
  -4   3  -2   26.00    5.50
  -4   3  -2   30.20    6.20
  -4   3  -2   26.90    6.30
  -5   3  -2   28.60    5.70
  -5   3  -2   21.80    6.80
  -6   3  -2   40.30    8.30
  -6   3  -2   53.79   10.00
   6   2  -2   74.49   11.20
  -6  -2   2   85.59   13.70
   5   2  -2   30.80    7.20
  -5  -2   2   26.50    6.40
   4   2  -2   16.50    4.60
  -4  -2   2   13.70    4.20
  -4  -2   2    4.20    6.20
   3   2  -2  226.78   13.10
   3   2  -2  220.88   12.20
  -3  -2   2  227.38   12.60
  -3  -2   2  234.98   12.30
   2   2  -2  751.52   22.30
   2   2  -2  744.43   22.20
  -2  -2   2  753.32   21.90
  -2  -2   2  732.43   22.00
   1   2  -2   81.79    5.20
   1   2  -2   89.59    6.10
  -1  -2   2   93.79    6.00
  -1  -2   2   96.69    5.60
   0   2  -2   32.10    4.10
   0   2  -2   35.20    3.40
   0  -2   2   32.70    3.20
   0  -2   2   38.30    4.30
  -1   2  -2 9999.00  177.58
  -1   2  -2 9953.60  179.98
   1  -2   2 9375.46  169.58
   1  -2   2 9396.36  167.28
  -2   2  -2  101.49    6.80
  -2   2  -2  110.89    7.10
   2  -2   2   99.39    6.30
   2  -2   2   87.89    6.40
  -3   2  -2   45.50    6.00
  -3   2  -2   30.70    5.80
  -3   2  -2   44.00    6.70
   3  -2   2   46.60    6.50
  -4   2  -2   80.39    9.00
  -4   2  -2   77.89    8.30
  -4   2  -2   67.09    9.50
  -5   2  -2   37.70    8.20
  -6   2  -2   17.70    7.40
  -6   2  -2    8.50    6.80
   6   1  -2   55.09    8.80
  -6  -1   2   29.90    8.10
   5   1  -2   20.00    5.20
  -5  -1   2   17.40    6.60
   4   1  -2   36.50    6.00
  -4  -1   2   31.00    6.80
  -4  -1   2   37.70    6.20
   3   1  -2   47.70    5.30
   3   1  -2   66.49    8.90
  -3  -1   2   51.49    5.60
  -3  -1   2   62.69    8.20
   2   1  -2 1252.27   29.80
   2   1  -2 1276.67   31.60
  -2  -1   2 1283.97   31.80
  -2  -1   2 1301.77   30.20
   1   1  -2   41.50    3.90
   1   1  -2   39.40    3.70
  -1  -1   2   48.40    4.10
  -1  -1   2   45.10    3.70
   0   1  -2  634.24   15.80
   0  -1   2  557.14   11.60
   0  -1   2  660.63   16.80
   0  -1   2  631.84   11.90
  -1   1  -2   45.60    4.30
  -1   1  -2   36.90    3.20
   1  -1   2   48.10    4.20
   1  -1   2   37.80    3.20
  -2   1  -2  719.23   21.10
  -2   1  -2  680.63   20.70
  -2   1  -2  671.33   20.00
   2  -1   2  630.04   18.40
  -3   1  -2  231.58   12.70
  -3   1  -2  226.08   12.30
  -3   1  -2  242.28   12.70
   3  -1   2  210.08   11.50
  -4   1  -2   53.39    7.90
  -4   1  -2   45.00    8.30
  -4   1  -2   55.69    8.40
  -5   1  -2   35.50    7.40
  -5   1  -2   36.70    8.70
  -6   1  -2   10.00    7.40
  -6   1  -2    8.60    6.40
  -6   0   2   80.79   14.20
   5   0  -2   83.79    8.50
  -5   0   2   76.79    9.40
  -5   0   2   67.59   11.30
   4   0  -2   46.20    6.80
  -4   0   2   56.49    6.70
  -4   0   2   43.50    7.70
   3   0  -2   58.79    7.60
   3   0  -2   66.99    5.30
  -3   0   2   67.09    7.00
  -3   0   2   60.39    5.10
   2   0  -2   35.80    3.50
   2   0  -2   33.70    5.10
  -2   0   2   48.60    4.50
  -2   0   2   36.10    5.20
   1   0  -2  860.71   21.10
   1   0  -2  845.72   18.40
  -1   0   2  858.51   18.70
  -1   0   2  882.41   20.10
   0   0  -2  481.75    9.80
   0   0  -2  490.35   12.70
   0   0   2  478.75   12.70
   0   0   2  502.65   10.00
  -1   0  -2 1220.08   29.00
  -1   0  -2 1248.18   26.30
  -1   0  -2 1246.98   28.90
   1   0   2 1220.58   25.90
  -2   0  -2   95.09    6.60
  -2   0  -2  111.19    7.90
  -2   0  -2  104.89    7.70
   2   0   2   97.49    7.20
   2   0   2   96.99    6.80
  -3   0  -2  569.64   21.60
  -3   0  -2  618.64   28.80
  -3   0  -2  563.14   20.70
   3   0   2  519.35   19.50
   3   0   2  531.95   19.70
  -4   0  -2   60.69    8.50
  -4   0  -2   57.89    8.90
  -5   0  -2    6.60    4.50
  -5   0  -2    5.40    5.70
  -6   0  -2    2.90    6.30
  -6   0  -2    8.80    6.30
  -6   1   2    2.50    4.80
  -6   1   2   -3.40    8.20
  -6   1   2   -6.50    4.90
  -5   1   2  280.27   13.00
  -5   1   2  287.47   14.10
  -5   1   2  297.97   18.80
   4  -1  -2  215.28   10.00
  -4   1   2  232.18   10.30
  -4   1   2  247.58   15.20
   3  -1  -2   -0.90    2.90
  -3   1   2    6.30    2.40
  -3   1   2    7.20    3.30
   2  -1  -2  138.09    8.20
   2  -1  -2  135.19    4.80
  -2   1   2  137.09    8.00
  -2   1   2  145.19    4.90
   1  -1  -2  543.65   14.70
   1  -1  -2  553.74   11.70
  -1   1   2  572.74   12.30
   0  -1  -2   40.40    3.50
   0  -1  -2   38.60    3.00
   0  -1  -2   44.30    3.90
   0   1   2   37.50    3.30
  -1  -1  -2  266.87    9.60
  -1  -1  -2  286.07   11.30
   1   1   2  295.37   10.10
   1   1   2  280.97   11.20
  -2  -1  -2  390.16   14.50
  -2  -1  -2  367.46   15.10
   2   1   2  340.57   13.60
   2   1   2  376.36   15.10
  -3  -1  -2  387.16   17.80
  -3  -1  -2  375.46   16.50
   3   1   2  360.16   16.50
   3   1   2  347.77   15.80
  -4  -1  -2  210.38   13.90
   4   1   2  198.38   13.50
  -5  -1  -2   34.30    7.70
  -5  -1  -2   30.60    7.90
  -6  -1  -2   23.60    8.00
  -6  -1  -2   37.30   10.10
  -6   2   2    3.60    4.50
  -6   2   2   -0.10    6.70
  -6   2   2    6.80    5.40
  -5   2   2   82.79   11.60
  -5   2   2   81.69    6.60
  -5   2   2   87.99    7.00
  -4   2   2  254.27    8.90
  -4   2   2  275.47   16.20
  -4   2   2  275.77    9.80
   3  -2  -2    8.70    3.30
  -3   2   2    9.50    1.40
  -3   2   2    4.60    3.30
  -3   2   2   11.30    1.60
   2  -2  -2   60.69    5.90
  -2   2   2   65.29    6.10
   1  -2  -2  366.96   12.10
   1  -2  -2  357.16    9.00
   1  -2  -2  363.06    8.90
  -1   2   2  368.36   12.20
   0  -2  -2 1154.08   26.00
   0  -2  -2 1181.68   26.70
   0   2   2 1297.87   30.70
   0   2   2 1213.48   28.00
  -1  -2  -2   32.80    5.00
  -1  -2  -2   23.50    4.10
   1   2   2   29.20    4.90
   1   2   2   23.60    4.30
  -2  -2  -2  274.07   13.60
  -2  -2  -2  269.07   12.60
   2   2   2  262.17   12.60
   2   2   2  265.47   13.20
  -3  -2  -2   52.59    7.90
   3   2   2   50.39    8.00
  -4  -2  -2  105.69   10.50
   4   2   2  103.59   10.10
  -5  -2  -2   58.29   10.80
   5   2   2   42.30    7.80
  -6  -2  -2   59.89   11.00
  -6  -2  -2   49.99    9.90
  -6   3   2   21.00    8.10
  -5   3   2   33.20    8.00
  -4   3   2  110.19   10.70
  -3   3   2  519.05   20.60
   2  -3  -2    8.30    3.10
  -2   3   2   13.40    3.70
   1  -3  -2  650.23   15.50
   1  -3  -2  644.14   19.00
  -1   3   2  660.73   19.10
  -1   3   2  673.63   16.20
   0  -3  -2   90.39    5.80
   0  -3  -2   77.59    5.80
   0   3   2   87.39    6.40
   0   3   2   79.99    6.00
  -1  -3  -2  530.75   18.10
  -1  -3  -2  516.15   18.50
  -1  -3  -2  530.45   17.40
   1   3   2  526.75   18.70
  -2  -3  -2    0.70    3.00
  -2  -3  -2   -0.10    2.00
   2   3   2    1.00    2.40
   2   3   2    3.40    3.10
  -3  -3  -2   39.50    8.20
   3   3   2   39.00    9.00
  -4  -3  -2   36.30    8.90
   4   3   2   24.20    6.80
  -5  -3  -2   18.80    6.80
   5   3   2   26.90    7.90
  -6  -3  -2   -3.00    5.70
   6   3   2   17.40    7.60
  -6   4   2   23.50    7.80
  -5   4   2    9.60    5.70
  -4   4   2   54.99    9.50
  -3   4   2  297.87   17.60
   2  -4  -2  662.83   22.20
  -2   4   2  715.73   23.10
   1  -4  -2  261.07    9.50
  -1   4   2  295.07   10.70
  -1   4   2  283.07   12.60
   0  -4  -2  315.87   12.90
   0  -4  -2  324.17   12.90
   0   4   2  325.57   13.80
   0   4   2  328.27   13.40
  -1  -4  -2   20.60    4.90
  -1  -4  -2   33.40    6.90
  -1  -4  -2   16.00    4.50
   1   4   2   18.80    5.00
  -2  -4  -2   56.29    8.40
   2   4   2   61.89    9.50
   2   4   2   56.39    8.20
  -3  -4  -2   90.49    9.30
   3   4   2   89.99   12.40
  -4  -4  -2   40.20    8.30
   4   4   2   36.90    8.30
  -5  -4  -2   57.69   11.40
   5   4   2   74.79   12.80
  -6   5   2    3.80    7.90
  -5   5   2    7.30    5.30
  -4   5   2   67.19   10.20
  -3   5   2   50.79    7.50
   2  -5  -2   97.09    4.90
  -2   5   2   87.69    8.20
  -2   5   2   95.49    4.80
   1  -5  -2    1.70    3.00
   1  -5  -2    3.70    2.00
  -1   5   2   -1.20    2.20
  -1   5   2   -0.20    1.70
   0  -5  -2  699.73   22.40
   0  -5  -2  709.03   22.90
   0   5   2  735.43   23.80
   0   5   2  766.52   24.80
  -1  -5  -2  387.16   17.30
  -1  -5  -2  384.66   18.20
  -1  -5  -2  385.86   16.70
   1   5   2  411.76   18.70
   2   5   2   77.69   10.10
  -3  -5  -2   13.60    4.90
   3   5   2   29.00    6.90
  -4  -5  -2  113.09   14.30
   4   5   2  111.99   15.60
  -5  -5  -2   16.30    7.40
   5   5   2   34.90   10.30
  -5   6   2   19.40    6.50
  -4   6   2   32.50    7.90
  -3   6   2  155.48   12.40
   2  -6  -2   11.60    3.10
  -2   6   2   16.30    4.60
  -2   6   2   14.40    3.60
   1  -6  -2   18.40    4.40
  -1   6   2   12.60    3.80
  -1   6   2   23.40    5.30
   0  -6  -2  102.49    8.40
   0   6   2  111.59    9.10
   0   6   2  124.39   10.00
   1   6   2  846.32   29.90
  -2  -6  -2   36.20    7.10
   2   6   2   32.80    8.20
  -3  -6  -2   11.50    5.70
   3   6   2   16.00    5.80
  -4  -6  -2   83.89   13.90
   4   6   2   78.49   14.60
  -5  -6  -2   21.90    9.30
   5   6   2   20.00    8.30
  -5   7   2   36.10    8.90
  -4   7   2   19.80    6.60
  -3   7   2   69.69   10.20
   2  -7  -2   67.49    6.10
  -2   7   2   77.09    6.70
  -2   7   2   79.19   10.50
   1  -7  -2  150.38    9.80
  -1   7   2  181.28   11.50
  -1   7   2  181.98   13.10
   0   7   2  361.26   18.40
   0   7   2  396.26   19.50
  -1  -7  -2   20.20    7.20
   1   7   2   11.60    4.70
  -2  -7  -2  363.66   20.50
   2   7   2  400.06   22.30
  -3  -7  -2   47.60    8.70
   3   7   2   54.49    9.90
  -4  -7  -2   -0.70    4.50
   4   7   2    0.20    6.10
  -5   8   2   40.30   10.40
  -4   8   2   12.00    6.40
   3  -8  -2   28.30    3.00
  -3   8   2   30.20    6.90
   2  -8  -2   79.99    7.60
  -2   8   2   95.99    8.40
  -2   8   2   95.89   12.20
   1  -8  -2  160.58   11.00
  -1   8   2  172.48   13.80
  -1   8   2  199.98   12.60
   0   8   2   18.50    5.40
   0   8   2   32.10    6.80
  -1  -8  -2   16.10    6.10
   1   8   2   23.70    6.70
  -2  -8  -2  154.48   14.60
   2   8   2  140.99   14.50
  -3  -8  -2   95.39   14.60
   3   8   2  140.79   15.00
  -4  -8  -2   21.70    7.90
   4   8   2   18.10    7.40
  -4   9   2   26.90    7.40
   3  -9  -2   -2.40    3.10
  -3   9   2   10.30    5.60
   2  -9  -2   84.49    9.00
  -2   9   2  113.29   12.00
  -2   9   2  116.29    9.50
  -1   9   2   47.00    9.90
  -1   9   2   37.50    7.50
   0  -9  -2   23.20    8.20
   0   9   2   26.70    7.20
  -1  -9  -2   54.19   10.60
   1   9   2   84.09   12.40
  -2  -9  -2    9.90    6.00
   2   9   2   10.20    5.90
  -3  -9  -2   19.30    7.50
   3   9   2   20.20    8.40
  -4  10   2   66.09   12.40
  -3  10   2   30.00    6.70
  -3  10   2   29.50    6.00
  -2  10   2   51.29    8.20
  -2  10   2   52.99   16.70
  -1  10   2    9.20    5.40
  -1  10   2    4.40    5.30
   0 -10  -2  208.78   19.40
   0  10   2  161.78   15.00
   1  10   2   50.19   11.50
  -2 -10  -2   46.40   11.50
   2  10   2   75.99   13.10
  -3 -10  -2   15.20    7.30
   3  10   2   26.10   10.50
  -3  11   2   83.29    8.80
  -3  11   2   86.19   14.00
  -2  11   2   15.70    7.00
  -2  11   2    1.70    4.80
  -1  11   2   72.49   10.70
  -1  11   2   62.69   13.70
   0 -11  -2   54.99   12.50
   0  11   2   89.09   13.10
  -1 -11  -2   11.00    6.10
   1  11   2   22.60   11.30
  -2 -11  -2   28.90   10.90
   2  11   2   18.50    7.70
   1 -12  -2   36.60   10.10
  -1  12   2   30.30    8.60
  -1  12   2   35.00    9.40
   0 -12  -2   29.40    9.40
   2  12  -3   41.90   13.60
  -2 -12   3   10.30    6.80
   1  12  -3   17.40    8.50
  -1 -12   3   -7.30    6.70
   0 -12   3   59.29   13.00
  -1  12  -3   63.29   13.30
   1 -12   3   50.69   12.10
  -2  12  -3   -3.20    7.90
  -2  12  -3   -2.30    6.60
   3  11  -3   10.10    7.60
  -3 -11   3   16.30    7.30
   2  11  -3   34.60    9.60
  -2 -11   3   16.20    8.50
   1  11  -3   22.20    9.20
  -1 -11   3   36.40   10.30
   0  11  -3   -5.50    6.40
   0 -11   3    8.20    6.60
  -1  11  -3   66.49   11.60
  -1  11  -3   54.89   10.50
  -2  11  -3   60.59   11.40
  -2  11  -3   50.89   10.30
  -3  11  -3   30.00    9.20
  -3  11  -3   36.10    9.70
   3  10  -3   -2.30    6.00
  -3 -10   3    5.30    5.70
   2  10  -3  105.39   17.20
  -2 -10   3   64.89   12.00
   1  10  -3  129.09   14.20
  -1 -10   3  120.59   15.30
   0  10  -3   15.80    6.80
   0 -10   3    7.20    5.30
  -1  10  -3   18.10    6.70
  -1  10  -3   12.70    5.80
  -2  10  -3  147.59   13.90
  -2  10  -3  147.79   12.80
  -3  10  -3   22.90    5.90
  -3  10  -3   20.00    7.20
  -4  10  -3   14.30    7.20
  -4  10  -3    6.10    7.50
   4   9  -3   26.80    9.20
  -4  -9   3   27.60    9.60
   3   9  -3   13.00    6.20
  -3  -9   3    9.90    4.50
   2   9  -3   64.29   12.90
  -2  -9   3   31.80    7.30
   1   9  -3   85.79   13.70
  -1  -9   3   62.69   10.00
   0   9  -3   67.79   11.20
   0  -9   3   53.59   10.50
  -1   9  -3   46.20    8.80
  -1   9  -3   73.29   11.00
  -2   9  -3   33.40    7.90
  -2   9  -3   38.40    7.50
  -3   9  -3   65.99   10.30
  -4   9  -3   13.90    8.10
  -4   9  -3   12.00    6.40
  -5   9  -3    4.00    7.60
   5   8  -3   57.19   12.60
  -5  -8   3   30.00    9.60
   4   8  -3   47.00   10.20
  -4  -8   3   41.00    9.80
   3   8  -3   -7.60    4.20
  -3  -8   3   -2.90    3.40
   2   8  -3   40.40    9.10
  -2  -8   3   45.80    8.30
   1   8  -3   43.60    9.10
  -1  -8   3   40.10    7.40
   0   8  -3   78.39   12.00
   0  -8   3   58.89   10.30
  -1   8  -3    6.30    4.20
  -1   8  -3    3.80    4.10
  -2   8  -3   12.60    5.20
  -2   8  -3   10.30    4.60
  -3   8  -3   67.99    9.50
  -3   8  -3   69.69   10.20
  -4   8  -3   54.59    9.60
  -4   8  -3   51.19    8.10
  -5   8  -3    5.10    7.30
  -5   8  -3   25.00    8.40
   5   7  -3    6.50    8.30
  -5  -7   3   17.40    7.20
   4   7  -3  109.79   15.20
  -4  -7   3  113.99   15.50
   3   7  -3  152.78   14.60
  -3  -7   3  153.78   13.10
   2   7  -3  114.59   11.50
  -2  -7   3   92.19    9.20
   1   7  -3   25.10    7.30
  -1  -7   3   13.40    4.30
   0   7  -3  290.67   16.00
   0  -7   3  273.47   15.40
   0  -7   3  241.28   15.90
  -1   7  -3   73.19    8.10
  -1   7  -3   77.59    7.70
   1  -7   3   67.49    8.40
  -2   7  -3   40.30    7.00
   2  -7   3   22.70    5.80
  -3   7  -3   58.19    8.10
  -3   7  -3   65.69    9.30
   3  -7   3   53.89    8.00
  -4   7  -3   62.09    7.70
  -4   7  -3   50.49    8.10
  -5   7  -3   12.60    6.60
   5   6  -3   36.70    9.30
  -5  -6   3   16.70    6.60
   4   6  -3   97.99   13.40
  -4  -6   3   80.19   12.40
   3   6  -3  660.13   28.50
  -3  -6   3  652.63   26.90
   2   6  -3    7.70    3.50
  -2  -6   3   11.20    4.50
   1   6  -3  478.45   21.10
  -1  -6   3  417.56   17.00
  -1  -6   3  416.36   18.10
   0   6  -3  262.37   12.80
   0   6  -3  266.87   14.60
   0  -6   3  215.08   12.50
  -1   6  -3  115.19    8.30
  -1   6  -3  126.19    9.50
   1  -6   3  136.99    9.60
   1  -6   3  118.89    9.20
  -2   6  -3   76.09    7.60
  -2   6  -3   86.89    7.90
   2  -6   3   68.99    7.40
   2  -6   3   71.09    7.20
  -3   6  -3   56.79    8.30
  -3   6  -3   58.49    8.00
   3  -6   3   49.20    7.00
  -4   6  -3   96.19    9.30
  -4   6  -3   66.29    9.70
  -4   6  -3   74.19   10.60
  -5   6  -3   21.60    7.10
  -5   6  -3   12.70    5.00
   6   5  -3  -10.40    6.50
  -6  -5   3    2.50    7.60
   5   5  -3   -2.40    5.10
  -5  -5   3    1.80    6.00
   4   5  -3  232.98   16.80
  -4  -5   3  233.68   16.30
   3   5  -3    4.00    3.90
  -3  -5   3   -0.20    2.90
   2   5  -3   -1.20    4.10
   2   5  -3   10.00    4.10
  -2  -5   3    4.60    3.00
   1   5  -3  386.56   17.20
  -1  -5   3  392.26   16.20
  -1  -5   3  387.96   15.10
  -1  -5   3  384.66   16.90
   0   5  -3  752.72   24.40
   0   5  -3  763.22   22.30
   0  -5   3  727.73   23.50
   0  -5   3  704.33   20.70
  -1   5  -3  105.89    8.20
  -1   5  -3  108.29    7.30
   1  -5   3   91.19    6.90
   1  -5   3   90.19    7.50
  -2   5  -3   11.70    3.50
   2  -5   3   16.60    4.20
  -3   5  -3   24.30    5.70
  -3   5  -3   19.80    4.70
   3  -5   3    8.80    4.70
  -4   5  -3   43.50    7.70
  -4   5  -3   50.49    7.40
  -4   5  -3   46.10    8.00
  -5   5  -3   15.60    7.40
  -5   5  -3   39.70    8.80
  -6   5  -3   22.80    7.40
  -6   5  -3   16.20    6.80
   6   4  -3    5.30    7.40
  -6  -4   3   27.40    7.80
   5   4  -3   36.80    8.80
  -5  -4   3   48.20   11.10
   4   4  -3   23.30    6.50
  -4  -4   3   18.00    5.20
   3   4  -3   11.70    5.10
   2   4  -3  398.26   17.60
   2   4  -3  418.16   17.30
  -2  -4   3  388.06   16.30
  -2  -4   3  387.26   17.10
   1   4  -3   27.90    5.50
   1   4  -3   29.20    5.10
  -1  -4   3   22.30    4.30
  -1  -4   3   31.80    5.10
   0   4  -3  206.78   10.80
   0   4  -3  214.28    9.20
   0  -4   3  207.58    8.50
   0  -4   3  207.68   10.70
  -1   4  -3 1039.00   28.40
  -1   4  -3 1036.20   25.40
   1  -4   3  904.51   22.50
   1  -4   3  886.51   24.80
  -2   4  -3    8.20    2.90
  -2   4  -3    2.50    2.20
   2  -4   3    3.30    2.80
   2  -4   3    5.70    2.70
  -3   4  -3   79.39    7.90
  -3   4  -3   76.39    7.70
   3  -4   3   71.69    9.60
   3  -4   3   51.89    6.60
  -4   4  -3   14.00    6.30
  -4   4  -3   15.40    4.90
  -4   4  -3   17.50    5.30
  -5   4  -3   45.30    8.90
  -5   4  -3   37.90    7.90
  -6   4  -3    8.90    6.70
  -6   4  -3   30.40    8.10
   6   3  -3   36.60   10.00
  -6  -3   3   15.00    7.10
   5   3  -3   28.40    6.90
  -5  -3   3   10.40    5.70
  -4  -3   3   13.70    5.70
   3   3  -3  374.56   17.20
  -3  -3   3  344.67   16.00
  -3  -3   3  352.16   16.60
   2   3  -3 1015.60   28.70
   2   3  -3 1059.19   29.80
  -2  -3   3 1027.70   28.40
   1   3  -3  264.57   10.80
   1   3  -3  260.07   11.90
  -1  -3   3  240.98   11.10
  -1  -3   3  245.08    9.90
   0   3  -3   19.10    3.60
   0  -3   3   15.60    2.50
   0  -3   3   14.20    2.30
   0  -3   3   13.70    3.10
  -1   3  -3  894.31   24.50
  -1   3  -3  881.41   20.80
   1  -3   3  830.12   20.10
   1  -3   3  878.51   23.60
  -2   3  -3 1826.72   42.70
  -2   3  -3 1755.52   40.30
   2  -3   3 1679.93   38.10
   2  -3   3 1648.14   39.80
  -3   3  -3   15.60    3.90
  -3   3  -3   12.30    5.90
  -3   3  -3   11.30    3.40
   3  -3   3   10.70    3.90
  -4   3  -3   25.80    6.10
  -4   3  -3   31.20    6.60
  -5   3  -3  111.69   11.90
  -5   3  -3  122.29   12.50
  -6   3  -3   10.10    7.30
  -6   3  -3   13.00    8.20
   6   2  -3  113.79   12.20
  -6  -2   3   85.59   14.50
   5   2  -3    0.60    4.20
  -5  -2   3    5.30    5.30
   4   2  -3   76.39    9.30
  -4  -2   3   73.89    9.20
  -4  -2   3   77.89   10.10
   3   2  -3  230.78   12.20
   3   2  -3  244.08   13.50
  -3  -2   3  216.68   12.60
  -3  -2   3  222.18   11.90
   2   2  -3  240.58   11.40
   2   2  -3  248.28   11.50
  -2  -2   3  231.68   10.90
  -2  -2   3  225.38   10.60
   1   2  -3   53.99    4.30
   1   2  -3   56.69    5.20
  -1  -2   3   51.99    4.80
  -1  -2   3   48.40    4.20
   0   2  -3  111.99    6.80
   0  -2   3   95.39    6.20
   0  -2   3  102.09    3.90
   0  -2   3   97.99    4.20
  -1   2  -3  401.06   10.90
  -1   2  -3  414.86   14.50
   1  -2   3  352.76   11.20
   1  -2   3  387.06   13.40
  -2   2  -3 1015.20   28.60
  -2   2  -3 1052.69   26.30
   2  -2   3  990.50   25.10
   2  -2   3 1007.00   27.70
  -3   2  -3   59.79    8.20
  -3   2  -3   67.99    7.20
  -3   2  -3   62.19    7.60
   3  -2   3   51.49    6.90
  -4   2  -3    7.30    4.90
  -4   2  -3    5.20    4.20
  -5   2  -3   33.50    7.40
  -5   2  -3   21.40    6.60
  -6   2  -3    0.70    7.40
  -6   2  -3   -1.40    6.20
   6   1  -3   28.40    7.00
  -6  -1   3   36.80   10.60
   5   1  -3  226.08   14.00
  -5  -1   3  232.48   17.00
   4   1  -3    3.40    3.30
  -4  -1   3    3.00    3.50
   3   1  -3  175.48    9.50
   3   1  -3  192.38   11.70
  -3  -1   3  160.38    9.20
  -3  -1   3  186.78   11.40
   2   1  -3   58.59    5.60
   2   1  -3   47.00    4.50
  -2  -1   3   52.09    5.30
  -2  -1   3   45.30    4.60
   1   1  -3  159.88    7.50
   1   1  -3  162.88    6.80
  -1  -1   3  155.78    7.40
  -1  -1   3  167.98    6.80
   0   1  -3    1.80    2.00
   0  -1   3    1.40    1.80
  -1   1  -3   39.70    5.30
   1  -1   3   39.60    4.40
   1  -1   3   38.40    2.90
  -2   1  -3   38.80    6.00
  -2   1  -3   39.70    6.00
  -2   1  -3   31.80    4.60
   2  -1   3   38.90    4.90
  -3   1  -3  184.68   12.20
  -3   1  -3  188.08   11.40
  -3   1  -3  186.48   11.80
   3  -1   3  157.38   10.40
  -4   1  -3  104.59   10.80
  -4   1  -3  129.19   11.50
  -5   1  -3   -5.30    3.50
  -5   1  -3    8.20    5.40
  -6   1  -3   30.50    8.10
  -6   1  -3   44.90   10.10
   6   0  -3   16.50    6.40
  -6   0   3   15.50    7.10
   5   0  -3  173.58   10.90
  -5   0   3  167.28   14.50
  -5   0   3  165.28   12.10
   4   0  -3  286.87   12.70
  -4   0   3  285.57   12.50
  -4   0   3  276.97   16.40
   3   0  -3   41.70    4.30
   3   0  -3   46.80    7.70
  -3   0   3   38.80    4.90
  -3   0   3   44.70    6.60
   2   0  -3   46.00    5.90
  -2   0   3   38.80    3.90
  -2   0   3   55.99    7.10
   1   0  -3 2736.93   52.79
   1   0  -3 2721.33   52.99
  -1   0   3 2742.03   54.39
   0   0  -3  308.37    7.40
   0   0  -3  316.87   11.00
   0   0   3  312.17   10.90
   0   0   3  322.87    7.80
  -1   0  -3    2.70    2.00
  -1   0  -3    2.60    1.80
  -1   0  -3    1.50    1.40
  -2   0  -3   96.99    7.90
  -2   0  -3   86.79    7.80
  -2   0  -3   96.49    6.60
   2   0   3   85.39    6.20
  -3   0  -3  352.46   15.50
  -3   0  -3  343.17   17.00
  -3   0  -3  347.17   17.00
   3   0   3  355.26   15.70
  -4   0  -3  127.49   11.40
  -4   0  -3  140.19   11.40
  -5   0  -3    5.70    5.20
  -5   0  -3   15.10    6.10
  -6   0  -3   63.39   11.70
  -6   0  -3   60.29   11.20
  -6   1   3   13.90    9.50
  -6   1   3   14.40    6.60
  -6   1   3   21.80    6.10
  -5   1   3    0.90    3.90
  -5   1   3   -7.90    3.90
   4  -1  -3  244.68   10.00
  -4   1   3  245.58    9.90
  -4   1   3  259.17   15.50
   3  -1  -3  212.78   12.30
   3  -1  -3  230.28    8.10
  -3   1   3  210.48   12.10
   2  -1  -3  151.88    8.60
   2  -1  -3  147.59    5.50
  -2   1   3  152.18    5.40
  -2   1   3  150.98    8.50
   1  -1  -3  238.78    7.70
   1  -1  -3  234.08    8.80
  -1   1   3  231.88    8.80
  -1   1   3  235.78    7.80
   0  -1  -3  246.28    9.80
   0  -1  -3  259.67    8.90
   0  -1  -3  253.07    9.80
   0   1   3  244.48    8.20
  -1  -1  -3    6.00    2.00
  -1  -1  -3    7.90    3.10
  -1  -1  -3    6.50    3.20
   1   1   3    8.20    2.50
  -2  -1  -3   75.19    6.30
  -2  -1  -3   84.29    8.00
   2   1   3   64.19    5.90
   2   1   3   75.29    6.90
  -3  -1  -3  580.74   21.30
   3   1   3  557.84   22.10
   3   1   3  519.65   20.40
  -4  -1  -3   43.90    7.60
  -4  -1  -3   43.40    8.30
  -5  -1  -3   31.50    9.30
  -5  -1  -3   36.40    7.70
  -6  -1  -3   14.00    8.90
  -6  -1  -3    9.60    6.00
  -6   2   3   28.70    8.50
  -5   2   3   40.30    8.90
  -5   2   3   57.89    4.70
  -4   2   3   62.19   10.10
  -3   2   3  319.57   15.30
   2  -2  -3  331.17   13.40
  -2   2   3  371.26   14.50
   1  -2  -3  885.91   20.10
   1  -2  -3  880.61   20.20
   1  -2  -3  900.71   22.70
  -1   2   3  847.92   21.60
   0  -2  -3  157.88    8.00
   0  -2  -3  158.78    7.10
   0   2   3  150.08    7.50
   0   2   3  151.68    7.90
  -1  -2  -3    3.60    1.90
  -1  -2  -3    5.10    2.40
  -1  -2  -3    5.80    3.20
   1   2   3    4.80    2.80
  -2  -2  -3  237.68   11.70
  -2  -2  -3  254.87   13.90
   2   2   3  247.08   12.60
   2   2   3  260.97   13.90
  -3  -2  -3   17.70    4.40
  -4  -2  -3   39.00    7.90
   4   2   3   44.70    8.40
  -5  -2  -3   26.90    7.50
  -5  -2  -3   26.70    7.60
  -6  -2  -3    3.90    5.50
  -6  -2  -3   21.30    9.40
  -6   3   3    7.20    6.20
  -5   3   3  105.39   14.10
  -3   3   3   20.90    5.40
   2  -3  -3  311.07   13.70
  -2   3   3  347.67   14.50
   1  -3  -3  215.28   10.10
   1  -3  -3  208.98    8.10
  -1   3   3  220.28   10.20
   0  -3  -3  929.01   24.00
   0  -3  -3  899.21   24.60
   0   3   3  948.51   25.50
   0   3   3  938.91   25.40
  -1  -3  -3  275.07   12.00
  -1  -3  -3  272.17   12.60
  -1  -3  -3  283.67   13.60
   1   3   3  273.97   13.60
  -2  -3  -3   10.90    3.50
  -2  -3  -3    8.20    3.40
   2   3   3    6.70    3.80
   2   3   3   11.50    4.20
  -3  -3  -3   82.39   12.20
   3   3   3   88.89    9.90
  -4  -3  -3   64.69   10.20
   4   3   3   76.59   11.80
  -5  -3  -3    8.40    5.70
   5   3   3    7.00    6.10
  -6  -3  -3   -2.40    6.20
  -6  -3  -3    3.50    6.20
  -6   4   3   14.60    8.20
  -5   4   3   32.30    8.10
  -4   4   3    6.50    4.70
  -3   4   3  167.18   11.90
   2  -4  -3  139.29    9.60
  -2   4   3  144.59    9.60
   1  -4  -3    7.00    2.30
  -1   4   3    5.00    2.70
  -1   4   3    4.20    2.00
   0  -4  -3  455.45   16.40
   0  -4  -3  428.26   15.90
   0   4   3  468.95   17.20
   0   4   3  472.35   17.50
  -1  -4  -3  834.02   26.90
  -1  -4  -3  835.52   27.10
  -1  -4  -3  838.92   25.60
   1   4   3  872.51   28.50
  -2  -4  -3    5.40    2.70
   2   4   3    3.10    2.80
  -3  -4  -3    2.00    3.10
   3   4   3    5.50    3.10
  -4  -4  -3  142.29   12.90
   4   4   3  140.69   13.50
   5   4   3   80.39   18.30
  -6   5   3   25.80    7.80
  -5   5   3    4.50    6.30
  -4   5   3    9.00    5.30
  -3   5   3  182.28   12.80
   2  -5  -3    0.00    1.50
  -2   5   3   -2.20    2.30
   1  -5  -3  137.69    9.20
   1  -5  -3  121.49    7.40
  -1   5   3  139.29    9.80
  -1   5   3  143.19    8.30
   0  -5  -3   73.69    7.40
   0  -5  -3   83.59    7.10
   0   5   3   89.89    7.90
   0   5   3   89.69    8.50
  -1  -5  -3  421.66   19.40
   1   5   3  460.85   20.40
  -2  -5  -3  384.46   18.60
   2   5   3  418.16   21.50
  -3  -5  -3    7.40    3.90
   3   5   3   -1.60    2.80
  -4  -5  -3   52.59    9.70
   4   5   3   72.19   12.70
  -5  -5  -3   36.10    9.40
   5   5   3   55.19   12.60
  -5   6   3    3.20    5.20
  -4   6   3  158.58   14.00
  -3   6   3  166.98   13.40
   2  -6  -3  118.19    6.30
  -2   6   3  133.39   11.10
  -2   6   3  158.68    8.10
   1  -6  -3   82.79    6.80
  -1   6   3   88.99    7.80
  -1   6   3  101.39    9.80
   0  -6  -3  138.79   10.00
   0   6   3  182.98   12.00
  -1  -6  -3  173.48   13.60
  -2  -6  -3   59.89    9.30
   2   6   3   85.49   12.70
  -3  -6  -3  294.17   18.20
   3   6   3  314.07   20.70
  -4  -6  -3   11.10    5.90
  -5  -6  -3    7.20    6.60
   5   6   3    1.80    5.80
  -5   7   3   76.79   12.10
  -4   7   3   42.20    8.50
  -3   7   3   -1.70    3.60
   2  -7  -3  150.18    8.30
  -2   7   3  151.68    8.80
  -2   7   3  168.18   12.90
  -1   7   3  127.29   10.00
  -1   7   3  128.19   11.20
   0   7   3   12.30    5.40
   0   7   3   16.80    6.00
  -1  -7  -3   45.90    9.60
   1   7   3   37.40    8.20
  -2  -7  -3   61.99    9.60
   2   7   3   97.19   13.80
  -3  -7  -3   97.59   13.30
   3   7   3  170.98   21.50
  -4  -7  -3    8.30    6.30
   4   7   3   10.60    7.80
  -5   8   3   65.79   12.30
  -4   8   3   53.89   10.50
  -3   8   3    0.20    4.10
   2  -8  -3   28.70    5.10
  -2   8   3   34.00    5.80
  -2   8   3   42.30    9.30
   1  -8  -3   61.79    8.50
  -1   8   3  104.79   14.70
  -1   8   3  104.99   11.80
   0  -8  -3   13.80    6.40
   0   8   3   23.20    6.80
   0   8   3   15.50    5.70
  -1  -8  -3   -3.40    4.30
   1   8   3   -0.20    3.80
  -2  -8  -3  101.89   14.10
   2   8   3  110.59   14.80
   3   8   3   17.10    8.10
  -4  -8  -3    8.60    6.60
   4   8   3    5.30    5.50
  -4   9   3   12.20    5.50
  -3   9   3  148.29   14.20
  -2   9   3   46.00    6.80
  -2   9   3   49.60    9.60
  -1   9   3   55.89   10.70
   0  -9  -3  134.69   14.70
   0   9   3  133.59   13.10
  -1  -9  -3   51.69   11.10
   1   9   3   64.09   11.60
   2   9   3   33.50   10.00
  -3  -9  -3   15.10    8.00
   3   9   3   16.90    7.90
  -3  10   3  123.19   16.30
  -2  10   3   54.49   11.10
  -2  10   3   69.29    9.00
  -1  10   3   57.29   16.80
  -1  10   3   69.99   11.20
   0  10   3   53.09   10.60
  -1 -10  -3   76.19   14.50
   1  10   3   67.39   12.50
  -2 -10  -3   59.69   13.10
   2  10   3   72.09   14.30
  -2  11   3   34.60    8.80
  -1  11   3   22.80    7.40
  -1  11   3   28.80    8.70
   0 -11  -3   20.50    8.30
   0  11   3   25.60    8.70
  -1 -11  -3   15.70    8.30
   1  11   3   58.29   13.40
   2  12  -4   38.80   12.20
  -2 -12   4   20.40    9.10
   1  12  -4   11.30   10.50
  -1 -12   4   28.40    8.60
   0  12  -4   16.10    9.50
   0 -12   4   17.40    9.20
  -1  12  -4   25.10    8.20
   1 -12   4    9.60    8.40
  -2  12  -4   48.40   10.70
  -2  12  -4   36.30    9.50
   3  11  -4   16.40    9.20
  -3 -11   4   -3.70    6.30
   2  11  -4   25.80   10.80
  -2 -11   4   17.30    8.00
  -1 -11   4  103.89   15.00
   0  11  -4   35.20    9.70
   0 -11   4   25.90    7.40
  -1  11  -4    0.90    6.10
  -1  11  -4    3.20    4.60
  -2  11  -4   31.40    8.80
  -2  11  -4   29.90    9.30
  -3  11  -4   48.90   10.60
  -3  11  -4   54.59   10.40
   3  10  -4   40.40    9.40
  -3 -10   4   33.10    8.10
   2  10  -4   92.39   14.60
  -2 -10   4   97.49   13.90
   1  10  -4    6.90    6.50
  -1 -10   4   10.60    6.00
   0  10  -4   68.19   11.80
   0 -10   4   45.30   10.10
  -1  10  -4   40.30    7.90
  -1  10  -4   29.10    7.90
  -2  10  -4   22.00    7.90
  -2  10  -4   24.30    7.20
  -3  10  -4   41.90    8.80
  -3  10  -4   15.00    6.30
  -4  10  -4   45.90   11.30
  -4  10  -4   23.80    9.70
   4   9  -4   29.30   10.00
  -4  -9   4   43.90   11.30
   3   9  -4   35.90   14.00
  -3  -9   4   20.10    6.20
   2   9  -4   -1.20    4.10
  -2  -9   4   -0.50    4.50
   1   9  -4   12.00    6.40
  -1  -9   4   19.50    6.40
   0   9  -4    6.10    4.70
   0  -9   4    9.20    5.00
  -1   9  -4   19.80    6.70
  -1   9  -4   17.00    5.00
  -2   9  -4  112.99   12.40
  -2   9  -4  112.09   11.40
  -3   9  -4   21.50    6.00
  -3   9  -4   13.10    5.50
  -4   9  -4    2.80    5.70
  -4   9  -4   -3.40    6.10
   4   8  -4   34.50    9.50
   3   8  -4  135.49   18.00
  -3  -8   4  116.69   12.70
   2   8  -4   19.80    6.10
  -2  -8   4   17.40    5.90
   1   8  -4  287.37   18.70
  -1  -8   4  321.97   17.90
   0   8  -4   30.80    7.60
  -1   8  -4   74.99    9.90
  -1   8  -4   88.29   11.90
  -2   8  -4    6.80    5.50
  -2   8  -4   26.50    6.40
  -3   8  -4   44.60    8.70
  -3   8  -4   48.70    8.90
  -4   8  -4   42.50    8.60
  -4   8  -4   30.80    7.50
  -5   8  -4   20.10    7.90
  -5   8  -4   21.20    7.10
   5   7  -4   26.40    8.30
  -5  -7   4   31.70    9.20
   4   7  -4   19.60    8.10
  -4  -7   4    7.70    5.80
   3   7  -4   88.39   12.90
  -3  -7   4   79.99   10.90
   2   7  -4  451.35   23.30
  -2  -7   4  388.36   19.20
   1   7  -4   97.89   10.20
  -1  -7   4  117.39    9.80
   0  -7   4  417.06   17.00
   0  -7   4  424.46   19.20
  -1   7  -4  158.58   10.60
  -1   7  -4  160.88   12.10
   1  -7   4  149.29   10.30
  -2   7  -4    7.60    3.80
  -2   7  -4   17.30    4.60
  -3   7  -4   27.20    6.40
  -3   7  -4   37.40    6.70
  -4   7  -4   67.09    9.80
  -4   7  -4   58.19    9.60
  -5   7  -4    1.40    5.90
  -5   7  -4    3.50    5.50
   5   6  -4    5.70    7.00
  -5  -6   4   -2.00    5.40
   4   6  -4   80.59   12.20
  -4  -6   4   81.39   12.60
   3   6  -4   85.99   11.90
  -3  -6   4   70.69    9.60
   2   6  -4   36.30    8.10
  -2  -6   4   35.60    6.90
   1   6  -4   74.19    9.60
  -1  -6   4   88.39    7.80
  -1  -6   4   82.59    8.10
   0   6  -4  407.86   18.40
   0  -6   4  413.46   15.60
   0  -6   4  378.56   18.30
   0  -6   4  427.86   17.40
  -1   6  -4   13.60    4.50
  -1   6  -4   15.60    4.10
   1  -6   4   15.70    4.00
   1  -6   4   17.40    5.40
  -2   6  -4    3.90    3.00
  -2   6  -4    5.00    3.40
   2  -6   4   -0.20    3.60
   2  -6   4    3.00    3.90
  -3   6  -4  186.58   13.50
  -3   6  -4  198.58   12.90
  -4   6  -4   25.00    6.60
  -5   6  -4   24.00    7.20
  -5   6  -4   10.60    6.30
   5   5  -4   48.20    8.90
  -5  -5   4   28.40    9.10
   4   5  -4  108.89   13.80
  -4  -5   4   85.09   11.30
   3   5  -4   22.70    6.80
  -3  -5   4   15.00    4.50
   2   5  -4    2.70    3.70
   2   5  -4    7.60    4.50
  -2  -5   4    2.50    2.60
   1   5  -4  113.19    9.60
  -1  -5   4   86.49    7.10
  -1  -5   4   83.19    8.10
  -1  -5   4   86.59    7.10
   0   5  -4  294.27   14.50
   0  -5   4  282.97   11.40
   0  -5   4  288.97   12.80
   0  -5   4  287.27   14.10
  -1   5  -4  199.78   11.80
  -1   5  -4  180.58    9.10
   1  -5   4  162.18    8.70
   1  -5   4  181.48   10.70
  -2   5  -4   88.69    7.40
  -2   5  -4   82.59    8.20
   2  -5   4   63.29    6.10
   2  -5   4   51.59    7.00
  -3   5  -4   24.20    5.30
  -3   5  -4   26.90    6.00
   3  -5   4   16.00    5.50
  -4   5  -4   48.90    8.50
  -5   5  -4   14.60    6.20
  -5   5  -4   16.70    6.40
  -6   5  -4   -0.80    6.70
  -6   5  -4  -10.40    5.70
   6   4  -4   15.00    7.80
  -6  -4   4   24.20    8.60
   5   4  -4   92.59   11.80
  -5  -4   4   76.39   12.50
   4   4  -4   37.40    8.00
  -4  -4   4   42.70    8.10
   3   4  -4   40.70    6.90
  -3  -4   4   23.40    5.40
   2   4  -4  159.68   11.10
  -2  -4   4  159.98    9.90
  -2  -4   4  178.18   11.20
   1   4  -4  290.47   13.80
   1   4  -4  278.37   12.10
  -1  -4   4  286.47   11.80
   0   4  -4  127.29    8.90
   0  -4   4  127.09    6.50
   0  -4   4  120.19    8.60
   0  -4   4  133.99    7.30
  -1   4  -4  287.57   13.70
  -1   4  -4  290.87   10.40
   1  -4   4  260.67   12.70
   1  -4   4  273.87    9.90
  -2   4  -4 1603.24   41.80
  -2   4  -4 1640.54   37.80
   2  -4   4 1374.06   32.70
   2  -4   4 1327.17   39.00
  -3   4  -4    7.40    3.60
  -3   4  -4    5.40    3.00
   3  -4   4   13.50    4.20
   3  -4   4    0.90    3.80
  -4   4  -4   37.10    7.10
  -5   4  -4   38.70    7.90
  -5   4  -4   39.60    8.30
  -6   4  -4   23.10    6.90
  -6   4  -4    9.60    7.60
   6   3  -4   76.49   10.90
  -6  -3   4   87.99   14.80
   5   3  -4   29.60    7.40
  -5  -3   4   28.00    8.90
  -4  -3   4   -0.70    2.90
   3   3  -4  142.59   10.50
  -3  -3   4  138.99   10.60
  -3  -3   4  161.58   10.90
   2   3  -4  226.88   11.50
   2   3  -4  212.28   11.80
  -2  -3   4  206.38   11.50
  -2  -3   4  210.78   10.50
   1   3  -4  620.24   17.70
   1   3  -4  609.34   20.30
  -1  -3   4  598.24   19.80
  -1  -3   4  606.34   17.10
   0   3  -4    4.60    2.40
   0  -3   4    8.20    2.00
   0  -3   4    4.00    3.20
   0  -3   4    6.30    1.60
  -1   3  -4  675.33   21.90
   1  -3   4  609.74   19.90
   1  -3   4  601.24   15.00
  -2   3  -4   31.10    5.60
  -2   3  -4   35.40    4.70
   2  -3   4   30.30    6.30
   2  -3   4   32.80    4.40
  -3   3  -4  134.09   10.30
  -3   3  -4  132.39    9.70
  -3   3  -4  138.19   11.20
   3  -3   4  126.39    9.00
  -4   3  -4   43.60    8.70
  -4   3  -4   27.20    6.00
  -5   3  -4   71.59   10.60
  -5   3  -4   66.49   10.40
  -6   3  -4   25.70    8.10
  -6   3  -4   10.50    7.20
   6   2  -4   22.80    7.70
  -6  -2   4    7.80    7.30
   5   2  -4   84.09   10.30
  -5  -2   4   68.99   11.60
   4   2  -4  141.19   10.80
  -4  -2   4  109.89   10.40
  -4  -2   4  117.69   10.50
   3   2  -4  106.79    9.40
   3   2  -4  108.39    8.70
  -3  -2   4   93.19    8.10
  -3  -2   4  110.59    8.90
   2   2  -4  348.47   14.20
   2   2  -4  335.37   13.80
  -2  -2   4  305.77   13.10
  -2  -2   4  295.97   12.40
   1   2  -4  201.68    8.10
   1   2  -4  203.68   10.10
  -1  -2   4  196.48    8.60
  -1  -2   4  198.88    9.80
   0   2  -4  165.58    9.10
   0  -2   4  162.18    4.40
   0  -2   4  163.68    4.50
   0  -2   4  149.99    8.50
  -1   2  -4  362.76   15.10
  -1   2  -4  383.36   10.00
   1  -2   4  325.27   13.60
   1  -2   4  354.96    9.50
  -2   2  -4    4.40    3.00
  -2   2  -4    3.10    1.90
   2  -2   4    3.80    2.90
   2  -2   4    1.10    2.00
  -3   2  -4   58.49    8.10
  -3   2  -4   38.80    6.90
  -3   2  -4   55.19    7.30
   3  -2   4   68.89    7.00
  -4   2  -4   82.29   10.90
  -4   2  -4   97.39    9.70
  -5   2  -4   21.50    6.10
  -5   2  -4   29.00    8.20
  -6   2  -4   11.30    6.90
  -6   2  -4   16.50    7.30
   6   1  -4   28.50    7.20
  -6  -1   4   27.10    8.30
   5   1  -4    5.30    4.60
  -5  -1   4    2.80    5.70
  -5  -1   4    0.90    5.40
   4   1  -4  444.06   17.70
  -4  -1   4  436.26   20.80
  -4  -1   4  417.86   17.80
   3   1  -4  494.95   17.20
   3   1  -4  461.65   19.00
  -3  -1   4  481.85   16.90
  -3  -1   4  480.35   19.40
   2   1  -4   14.50    3.10
   2   1  -4   16.00    3.50
  -2  -1   4   13.60    3.50
  -2  -1   4   11.80    3.10
   1   1  -4   67.69    5.40
   1   1  -4   65.09    4.40
  -1  -1   4   67.09    4.20
  -1  -1   4   66.49    5.40
   0   1  -4  165.18    8.70
   0  -1   4  142.29    7.90
  -1   1  -4    3.70    2.20
  -1   1  -4    1.70    1.40
   1  -1   4    5.30    2.10
   1  -1   4    3.60    1.40
  -2   1  -4  355.36   12.90
  -2   1  -4  355.46   16.30
   2  -1   4  355.56   12.60
  -3   1  -4  180.78   12.40
  -3   1  -4  168.78   10.90
   3  -1   4  148.99   10.00
  -4   1  -4   41.00    7.20
  -4   1  -4   70.99   10.50
  -5   1  -4   50.59    8.80
  -5   1  -4   59.59    9.90
  -6   1  -4   14.60    7.80
  -6   1  -4   12.50    7.70
   6   0  -4   20.10    6.30
  -6   0   4   17.10    8.10
   5   0  -4   11.90    4.20
  -5   0   4   14.30    5.80
  -5   0   4   13.10    5.80
   4   0  -4   67.99    6.10
  -4   0   4   70.19   10.90
  -4   0   4   70.99    6.50
   3   0  -4  173.58   11.40
   3   0  -4  200.18    9.00
  -3   0   4  191.88    9.00
  -3   0   4  204.88   12.00
   2   0  -4   48.00    5.20
   2   0  -4   54.09    4.50
  -2   0   4   42.60    4.10
  -2   0   4   54.49    6.50
   1   0  -4  364.66   12.30
   1   0  -4  377.46   11.50
  -1   0   4  355.76   11.90
  -1   0   4  364.66   12.20
   0   0  -4  130.99    7.50
   0   0  -4  129.29    4.40
   0   0   4  132.39    7.60
   0   0   4  135.79    4.60
  -1   0  -4  317.27   13.80
  -1   0  -4  327.87   14.10
  -1   0  -4  323.17   10.00
  -2   0  -4  157.98    8.40
  -2   0  -4  137.39   10.00
  -2   0  -4  133.99    9.80
   2   0   4  131.99    7.80
  -3   0  -4  180.68   10.80
  -3   0  -4  168.98   12.10
   3   0   4  145.39   10.00
  -4   0  -4   14.00    4.80
  -4   0  -4   27.90    6.30
  -5   0  -4   17.00    5.40
  -5   0  -4   21.40    6.80
  -6   0  -4   13.40    7.20
  -6   0  -4   42.60   16.70
  -6   1   4   15.80    4.80
  -6   1   4    2.60    7.00
   5  -1  -4  115.79    7.30
  -5   1   4   85.59   11.30
  -5   1   4   94.39    7.40
   4  -1  -4   19.90    3.40
  -4   1   4   25.80    5.80
  -4   1   4   15.30    3.30
   3  -1  -4   58.49    8.80
   3  -1  -4   64.49    4.40
  -3   1   4   48.30    7.10
   2  -1  -4 1182.88   25.80
   2  -1  -4 1188.28   30.80
  -2   1   4 1223.98   31.00
   1  -1  -4  137.69    6.80
   1  -1  -4  133.19    6.70
  -1   1   4  136.59    6.80
  -1   1   4  133.69    6.50
   0  -1  -4  868.01   23.40
   0  -1  -4  841.32   19.30
   0  -1  -4  841.12   23.30
   0   1   4  924.21   22.30
  -1  -1  -4    6.60    3.70
  -1  -1  -4    7.50    2.20
  -1  -1  -4    6.20    2.90
  -1  -1  -4    4.40    1.80
  -2  -1  -4  193.98   12.30
  -2  -1  -4  190.28   10.00
  -2  -1  -4  171.08   12.10
   2   1   4  165.48    9.10
  -3  -1  -4   73.09   12.30
  -3  -1  -4   74.29    7.40
   3   1   4   60.29    8.50
  -4  -1  -4   41.80    8.20
  -4  -1  -4   52.69    9.00
  -5  -1  -4    1.40    3.90
  -5  -1  -4    4.10    5.90
  -6  -1  -4    0.80    8.20
  -6  -1  -4   12.80    7.20
  -6   2   4   23.90    8.60
  -5   2   4   67.09   10.40
  -4   2   4   14.40    4.90
  -3   2   4  155.78   10.70
   2  -2  -4  252.87    7.50
   2  -2  -4  237.28   11.50
   2  -2  -4  247.68    7.40
  -2   2   4  262.37   12.30
   1  -2  -4 1740.33   36.80
   1  -2  -4 1684.13   37.90
   1  -2  -4 1695.73   36.50
  -1   2   4 1697.33   37.60
   0  -2  -4  291.87   10.20
   0  -2  -4  278.17   12.10
   0  -2  -4  279.47   12.10
   0   2   4  331.17   11.90
  -1  -2  -4  150.38    7.90
  -1  -2  -4  148.09    8.50
  -1  -2  -4  148.09   10.00
   1   2   4  137.09    9.30
  -2  -2  -4    9.70    5.10
  -2  -2  -4    8.40    2.90
   2   2   4    8.90    3.50
   2   2   4    6.50    3.50
  -3  -2  -4   89.49    8.50
   3   2   4   80.89   11.60
  -4  -2  -4   56.19    9.00
  -4  -2  -4   63.69   11.20
  -5  -2  -4   17.80    6.50
  -5  -2  -4   26.30    5.90
  -6  -2  -4   15.50    7.60
  -6   3   4   14.80    6.70
  -5   3   4   32.40    7.90
  -4   3   4   58.19    9.80
   2  -3  -4   56.39    7.20
   2  -3  -4   49.80    2.90
   2  -3  -4   55.29    2.80
  -2   3   4   75.69    8.80
   1  -3  -4  156.98    8.80
   1  -3  -4  152.48    7.60
   1  -3  -4  144.09    7.30
  -1   3   4  168.58    9.40
   0  -3  -4    5.20    2.30
   0  -3  -4    0.00    2.00
   0   3   4    0.20    1.80
   0   3   4   -0.70    1.40
  -1  -3  -4  622.94   20.10
  -1  -3  -4  628.04   22.80
  -1  -3  -4  631.04   20.80
   1   3   4  628.54   22.50
  -2  -3  -4  242.98   12.60
   2   3   4  245.58   14.10
   2   3   4  269.47   15.40
  -3  -3  -4   38.80    7.10
   3   3   4   62.59   10.10
  -4  -3  -4   56.49    9.80
   4   3   4   42.30    7.60
  -5  -3  -4   34.40    8.00
  -5  -3  -4   43.50   14.10
  -6   4   4   32.30   10.30
  -5   4   4   -1.20    5.20
  -4   4   4   44.90    8.20
  -3   4   4   40.50    6.60
   2  -4  -4  148.49    5.60
   2  -4  -4  158.18    5.60
  -2   4   4  170.88   10.80
   1  -4  -4    1.70    3.10
   1  -4  -4    3.30    1.90
   1  -4  -4    1.70    2.20
  -1   4   4    7.20    2.70
   0  -4  -4  139.79    9.40
   0  -4  -4  175.88   14.30
   0   4   4  142.89    9.70
   0   4   4  145.39    9.50
  -1  -4  -4  179.68   12.10
  -1  -4  -4  145.99   10.50
  -1  -4  -4  174.78   10.60
   1   4   4  155.38   11.40
  -2  -4  -4  397.56   18.10
   2   4   4  419.06   20.40
  -3  -4  -4   24.70    5.70
   3   4   4   22.10    6.80
  -4  -4  -4   18.40    5.90
   4   4   4   21.10    7.00
  -5  -4  -4   42.50   10.30
   5   4   4   69.09   11.50
  -5   5   4  103.09   13.00
  -4   5   4   56.39   10.40
  -3   5   4  101.99   12.60
   2  -5  -4  118.69    5.80
  -2   5   4  109.89    9.30
   1  -5  -4   92.89    7.00
  -1   5   4  106.89    7.80
  -1   5   4  116.39    9.50
   0  -5  -4  226.68   12.40
   0   5   4  256.17   14.00
   0   5   4  256.77   13.70
  -1  -5  -4  489.55   21.60
   1   5   4  485.85   21.40
  -2  -5  -4   13.50    5.30
   2   5   4   11.30    5.10
  -3  -5  -4  185.48   14.30
   3   5   4  219.08   16.80
  -4  -5  -4   49.80    8.20
   4   5   4   68.09   13.10
  -5  -5  -4   10.10    5.50
   5   5   4   11.90    8.50
  -5   6   4   78.09   11.90
  -4   6   4  127.79   13.00
  -3   6   4   23.20    6.60
   2  -6  -4   48.10    4.50
   2  -6  -4   42.90    4.40
  -2   6   4   65.79    9.50
   1  -6  -4  157.38    9.50
  -1   6   4  181.18   10.80
  -1   6   4  180.48   12.60
   0  -6  -4  246.98   14.40
   0   6   4  271.17   15.30
   0   6   4  298.77   16.30
  -1  -6  -4   23.10    6.60
   1   6   4   39.20    8.00
  -2  -6  -4   40.30    7.80
   2   6   4   64.19   12.30
  -3  -6  -4  113.79   11.60
   3   6   4  130.89   13.90
   4   6   4   85.19   12.90
  -5   7   4   -5.20    5.50
  -4   7   4   71.09   14.10
  -3   7   4   78.39   11.80
   2  -7  -4    7.90    3.00
  -2   7   4   11.10    4.40
   1  -7  -4  172.98   10.90
  -1   7   4  193.38   12.00
  -1   7   4  186.08   14.10
   0   7   4   38.80    8.70
  -1  -7  -4   22.40    7.10
   1   7   4   26.80    7.10
  -2  -7  -4   75.79   11.50
   2   7   4   85.69   13.20
  -3  -7  -4    8.60    5.50
   3   7   4   26.30    9.30
  -4  -7  -4   14.40    7.40
   4   7   4   14.40    6.70
  -4   8   4   30.30    8.60
  -3   8   4  137.69   13.60
   2  -8  -4   79.59    7.60
  -2   8   4   92.99   12.50
  -1   8   4   76.69   12.50
  -1   8   4   77.89   10.60
   0  -8  -4    2.50    4.60
   0   8   4    2.40    4.20
  -1  -8  -4  251.77   19.00
   1   8   4  312.17   20.30
  -2  -8  -4   51.59   10.40
   2   8   4   50.39   11.50
  -3  -8  -4   35.00    8.50
   3   8   4   57.99   11.50
  -4   9   4   23.60    7.70
  -3   9   4   31.10    8.40
  -2   9   4  179.88   11.90
  -2   9   4  213.18   17.40
  -1   9   4   30.50    8.30
  -1   9   4   31.60    7.10
   0  -9  -4  185.88   17.10
   0   9   4  226.58   16.60
  -1  -9  -4   78.49   14.60
   1   9   4  101.59   15.10
  -2  -9  -4    8.00    7.00
   2   9   4   18.00    8.90
  -3  -9  -4   13.00    7.70
   3   9   4   17.10    9.70
  -3  10   4   29.90    9.30
  -2  10   4   13.90    6.90
  -2  10   4   20.20    6.80
  -1  10   4   54.79   10.80
  -1  10   4   60.69   10.50
   0 -10  -4   54.59   11.30
   0  10   4   69.39   12.30
  -1 -10  -4   59.79   11.70
   1  10   4   68.29   13.30
  -2 -10  -4    0.00    6.30
   2  10   4   -9.60    6.10
  -1  11   4   55.89   13.20
  -1  11   4   20.00    7.80
   0 -11  -4   21.60    8.60
   0  11   4   25.50    8.30
   1  12  -5   13.20    7.70
  -1 -12   5   21.30    8.70
   0  12  -5   72.89   13.50
   0 -12   5   42.60   13.00
  -1  12  -5   10.90   10.30
  -2  12  -5   -2.90    6.60
  -2  12  -5    0.60    8.20
   3  11  -5    6.50    7.90
  -3 -11   5    9.80    7.00
   2  11  -5    3.80    8.10
  -2 -11   5   18.40    6.20
   1  11  -5   22.00    7.70
  -1 -11   5   28.70    8.60
   0  11  -5    6.30    7.10
   0 -11   5   23.10    8.40
  -1  11  -5   23.50    6.80
   1 -11   5   10.70    7.00
  -2  11  -5   27.80    9.00
  -2  11  -5   33.50    8.60
  -3  11  -5    1.00    7.60
  -3  11  -5    5.60    8.80
   3  10  -5   25.30    9.50
  -3 -10   5   11.70    6.90
  -2 -10   5    9.10    5.70
   1  10  -5   51.29   10.90
  -1 -10   5   41.70    9.60
   0  10  -5   13.20    7.20
   0 -10   5    2.60    5.10
  -1  10  -5   26.90    6.90
  -1  10  -5   33.00    6.60
  -2  10  -5    5.20    5.60
  -2  10  -5    0.60    5.70
  -3  10  -5   -0.90    5.80
  -3  10  -5    2.70    6.30
  -4  10  -5    9.20    7.70
  -4  10  -5   14.50    8.10
   4   9  -5   11.90    7.60
  -4  -9   5    6.50    6.90
   3   9  -5  127.79   24.60
  -3  -9   5  122.59   13.30
   2   9  -5  187.58   16.60
  -2  -9   5  194.08   15.30
   1   9  -5   25.10    8.00
  -1  -9   5   22.30    6.50
   0   9  -5    1.70    4.50
   0  -9   5   10.00    6.20
  -1   9  -5   64.29   10.50
  -1   9  -5   62.49    9.00
  -2   9  -5   62.59   11.20
  -2   9  -5   75.29   10.40
  -3   9  -5   44.10    8.50
  -3   9  -5   21.30    6.60
  -4   9  -5    6.10    6.20
  -4   9  -5   -3.60    5.90
   4   8  -5   15.50    7.40
   3   8  -5   28.10    8.30
  -3  -8   5   20.30    5.40
   2   8  -5  530.75   26.50
  -2  -8   5  448.26   21.90
   1   8  -5   48.90    9.20
  -1  -8   5   59.09    9.10
   0   8  -5  169.88   14.20
   0  -8   5  163.88   12.60
  -1   8  -5   39.10    6.30
  -1   8  -5   21.90    7.00
  -2   8  -5   93.79    9.50
  -2   8  -5   90.09   12.10
  -3   8  -5   57.59    8.60
  -3   8  -5   43.80    7.40
  -4   8  -5   12.30    6.60
  -4   8  -5   17.20    6.40
  -5   8  -5    5.40    7.30
  -5   8  -5   10.20    7.90
   5   7  -5   48.70   11.00
  -5  -7   5   27.50    9.30
   4   7  -5    7.60    6.00
  -4  -7   5   -2.60    3.90
   3   7  -5  148.49   13.90
  -3  -7   5  141.29   12.80
   2   7  -5    0.00    4.40
  -2  -7   5    1.10    3.60
   1   7  -5   62.99   10.00
  -1  -7   5   65.29    8.60
   0   7  -5  209.38   14.30
   0  -7   5  219.08   12.80
   0  -7   5  185.58   11.00
  -1   7  -5  168.98   10.70
  -1   7  -5  168.28   12.50
   1  -7   5  139.89   10.00
  -2   7  -5   19.60    5.50
  -2   7  -5   20.10    5.00
  -3   7  -5   12.00    5.10
  -3   7  -5    6.30    4.30
  -4   7  -5   13.80    6.20
  -4   7  -5   29.50    7.20
  -5   7  -5   14.20    7.60
  -5   7  -5   -8.40    5.20
   5   6  -5   10.90    7.10
  -5  -6   5    3.10    5.10
   4   6  -5   89.09   13.80
  -4  -6   5   70.29   11.60
   3   6  -5    2.10    4.10
  -3  -6   5    0.00    3.90
   2   6  -5    9.70    4.10
  -2  -6   5   10.20    3.60
   1   6  -5  353.56   19.70
  -1  -6   5  283.07   13.80
  -1  -6   5  353.26   14.70
   0   6  -5   13.10    5.40
   0  -6   5   18.00    4.60
   0  -6   5   18.40    4.10
  -1   6  -5   42.10    7.10
  -1   6  -5   33.70    5.40
   1  -6   5   38.00    5.40
  -2   6  -5  131.09    9.10
  -2   6  -5  152.68   11.70
   2  -6   5  125.19    8.90
  -3   6  -5   19.70    5.50
  -3   6  -5   16.60    6.00
  -4   6  -5   59.59    9.10
  -4   6  -5   50.69    8.10
  -5   6  -5    7.10    7.40
  -5   6  -5    9.40    6.40
   5   5  -5   72.59   11.80
  -5  -5   5   73.89   17.80
   4   5  -5  105.29   13.70
  -4  -5   5   77.59   10.70
   3   5  -5   14.40    5.70
  -3  -5   5    7.60    4.10
   2   5  -5  127.29   10.20
  -2  -5   5  137.09    9.80
   1   5  -5  622.34   23.70
  -1  -5   5  591.54   18.60
  -1  -5   5  589.94   19.30
   0   5  -5  309.17   15.50
   0  -5   5  285.77   12.10
   0  -5   5  293.87   11.00
   0  -5   5  299.47   14.80
  -1   5  -5    9.40    4.00
  -1   5  -5    8.00    2.60
   1  -5   5    5.70    2.20
   1  -5   5    9.80    4.20
  -2   5  -5   98.69    9.30
  -2   5  -5   90.69    7.10
   2  -5   5   82.79    7.20
  -3   5  -5  438.56   18.10
   3  -5   5  368.56   16.20
  -4   5  -5   19.30    6.00
  -4   5  -5   22.90    6.00
  -5   5  -5   11.00    7.80
  -5   5  -5    5.50    5.60
   6   4  -5   28.10    8.70
  -6  -4   5    0.30    6.90
   5   4  -5  159.58   13.80
  -5  -4   5  136.39   13.60
   4   4  -5   22.00    6.50
  -4  -4   5   22.10    6.40
  -3  -4   5  127.39   11.10
   2   4  -5   54.69    8.30
  -2  -4   5   47.60    6.50
  -2  -4   5   50.59    7.00
   1   4  -5   29.90    4.60
   1   4  -5   35.30    6.70
  -1  -4   5   42.00    5.30
  -1  -4   5   39.80    6.30
   0   4  -5  134.19    9.50
   0  -4   5  117.19    9.00
   0  -4   5  123.69    6.40
   0  -4   5  134.89    6.10
  -1   4  -5  157.58    6.90
  -1   4  -5  171.28   11.00
   1  -4   5  141.79    6.40
   1  -4   5  134.39    9.80
  -2   4  -5   81.69    8.70
  -2   4  -5   81.69    6.20
   2  -4   5   70.09    7.80
   2  -4   5   67.69    6.20
  -3   4  -5  211.18   14.00
  -3   4  -5  209.68   11.70
   3  -4   5  179.78   10.90
  -4   4  -5   37.90    7.40
  -4   4  -5   37.30    7.10
  -5   4  -5   15.90    6.70
  -5   4  -5   22.50    6.40
  -6   4  -5   -3.60    6.60
   6   3  -5   31.10    7.60
  -6  -3   5   35.60   10.10
   5   3  -5   24.40    7.30
  -5  -3   5   43.30    8.90
   4   3  -5  426.46   22.00
  -4  -3   5  395.66   19.80
   3   3  -5   21.40    5.50
  -3  -3   5   12.80    4.00
  -3  -3   5   16.60    5.70
   2   3  -5  110.79    8.90
   2   3  -5  110.59    8.10
  -2  -3   5   81.59    8.10
  -2  -3   5  101.59    7.30
   1   3  -5    5.60    2.90
   1   3  -5   13.00    3.00
  -1  -3   5    6.20    3.40
  -1  -3   5    8.70    2.30
   0   3  -5  142.39    9.60
   0  -3   5  146.29    5.30
   0  -3   5  140.89    4.90
   0  -3   5  126.09    8.80
  -1   3  -5  158.98   10.70
  -1   3  -5  157.38    5.80
   1  -3   5  137.59   10.40
   1  -3   5  140.99    5.90
  -2   3  -5   67.49    5.40
  -2   3  -5   70.39    7.60
   2  -3   5   60.49    5.00
   2  -3   5   53.89    7.80
  -3   3  -5   12.10    3.70
  -3   3  -5    9.60    4.00
   3  -3   5   10.10    4.20
  -4   3  -5   66.19    9.50
  -4   3  -5   61.19    9.30
  -5   3  -5   55.49   10.40
  -5   3  -5   95.89   12.50
  -6   3  -5   11.60    7.40
  -6   3  -5    4.50    7.20
   6   2  -5   21.20    7.30
  -6  -2   5   21.40    8.60
   5   2  -5   18.00    6.60
  -5  -2   5    6.20    5.40
   4   2  -5  190.58   11.90
  -4  -2   5  199.48   14.20
  -4  -2   5  197.08   12.50
   3   2  -5  705.73   26.90
   3   2  -5  684.63   23.40
  -3  -2   5  740.33   25.10
   2   2  -5    9.40    2.80
   2   2  -5   16.20    3.70
  -2  -2   5   14.70    3.80
  -2  -2   5   12.70    3.20
   1   2  -5    2.30    1.60
   1   2  -5    1.40    2.20
  -1  -2   5    2.60    2.40
   0   2  -5 1015.40   28.70
   0  -2   5  872.41   25.20
  -1   2  -5  418.26   10.10
  -1   2  -5  429.46   17.80
   1  -2   5  385.16    9.50
   1  -2   5  396.46   17.60
  -2   2  -5   15.20    4.10
  -2   2  -5    8.70    2.60
   2  -2   5    9.70    4.40
   2  -2   5   10.90    3.00
  -3   2  -5   21.60    6.90
  -3   2  -5   16.70    3.80
   3  -2   5   17.10    5.50
  -4   2  -5   79.19   11.20
  -4   2  -5   93.99    9.90
  -5   2  -5   41.60    9.10
  -5   2  -5   33.40    7.50
  -6   2  -5   14.00    7.50
  -6   2  -5   20.00    8.80
   6   1  -5   11.50    6.60
  -6  -1   5   13.20    6.70
   5   1  -5    0.40    4.00
  -5  -1   5    0.20    5.00
  -5  -1   5   -4.30    6.40
   4   1  -5   17.90    4.30
  -4  -1   5   10.40    5.30
  -4  -1   5   18.70    7.00
   3   1  -5  721.33   22.40
   3   1  -5  716.63   24.60
  -3  -1   5  718.73   22.40
  -3  -1   5  750.42   25.20
   2   1  -5  540.55   17.90
   2   1  -5  533.95   17.70
  -2  -1   5  547.85   17.80
  -2  -1   5  544.45   17.90
   1   1  -5    9.20    3.10
   1   1  -5    7.80    2.30
  -1  -1   5    9.90    2.80
  -1  -1   5   11.30    2.80
   0   1  -5   31.20    4.90
   0  -1   5   33.10    4.60
  -1   1  -5  232.68    7.00
  -1   1  -5  236.48   12.70
   1  -1   5  208.28    6.70
   1  -1   5  203.08   11.50
  -2   1  -5  104.69    9.00
  -2   1  -5   88.39    6.10
  -2   1  -5   82.29    8.30
   2  -1   5   91.19    6.00
  -3   1  -5   39.80    7.70
  -3   1  -5   39.60    6.10
   3  -1   5   38.20    6.10
  -4   1  -5  120.09   11.20
  -4   1  -5  121.99   12.20
  -5   1  -5   35.70    8.10
  -5   1  -5   31.50    7.50
  -6   1  -5   18.50    8.50
  -6   1  -5   13.50    7.30
   6   0  -5   33.20    6.20
  -6   0   5    3.80    6.80
   5   0  -5    8.00    3.80
  -5   0   5   12.10    6.50
  -5   0   5    9.70    5.10
   4   0  -5   75.69    6.60
  -4   0   5   67.19    6.60
  -4   0   5   80.79    8.80
   3   0  -5   29.30    4.30
   3   0  -5   29.80    5.60
  -3   0   5   30.00    6.40
  -3   0   5   32.40    5.00
   2   0  -5  653.73   20.20
   2   0  -5  657.73   19.10
  -2   0   5  634.84   19.50
  -2   0   5  636.54   18.60
   1   0  -5  480.55   16.10
   1   0  -5  493.15   14.10
  -1   0   5  468.95   13.10
  -1   0   5  441.76   15.00
   0   0  -5  134.59    8.80
   0   0  -5  129.29    4.70
   0   0   5  125.19    8.20
  -1   0  -5  156.38    6.60
  -1   0  -5  151.38   11.60
  -1   0  -5  144.49    6.50
  -1   0  -5  158.68   10.50
  -2   0  -5   95.89    6.70
  -2   0  -5  106.99    9.40
  -2   0  -5  108.29    9.50
   2   0   5   97.59    6.90
  -3   0  -5  138.29   12.00
  -3   0  -5  141.39    9.90
   3   0   5  122.49    9.60
  -4   0  -5   -4.10    4.00
  -4   0  -5   -0.60    3.80
  -5   0  -5    2.30    5.20
  -5   0  -5   15.90    7.00
  -6   0  -5   13.40    7.80
  -6   0  -5    2.20    9.10
  -6   1   5   41.30    9.00
   5  -1  -5   62.59    5.50
  -5   1   5   51.19    9.40
  -5   1   5   59.89    5.60
   4  -1  -5  139.59    6.80
  -4   1   5  125.49    6.40
  -4   1   5  140.69   11.90
   3  -1  -5  321.97   10.90
  -3   1   5  306.47   15.20
  -3   1   5  299.37   10.20
   2  -1  -5   39.90    5.60
   2  -1  -5   33.30    4.20
  -2   1   5   41.60    4.80
  -2   1   5   52.09    6.60
   1  -1  -5  636.44   18.50
   1  -1  -5  581.34   16.80
  -1   1   5  616.24   18.80
  -1   1   5  630.14   17.10
   0  -1  -5  208.58   10.80
   0  -1  -5  198.28   10.50
   0  -1  -5  203.38    7.50
   0   1   5  226.78    8.70
  -1  -1  -5  413.56   17.70
  -1  -1  -5  393.76   12.90
  -1  -1  -5  388.06   17.30
  -1  -1  -5  407.76   13.00
  -2  -1  -5  198.68   10.20
  -2  -1  -5  213.78   13.50
   2   1   5  217.58   11.20
  -3  -1  -5   53.49    9.70
  -3  -1  -5   58.29    7.90
   3   1   5   35.30    7.00
  -4  -1  -5   25.70    6.10
  -4  -1  -5   23.70    7.40
  -5  -1  -5   17.60    5.10
  -5  -1  -5   13.00    5.70
  -6   2   5   31.80    8.20
  -5   2   5   58.29   10.10
  -4   2   5   27.10    6.50
  -3   2   5   72.29    7.80
   2  -2  -5  322.27   10.60
   2  -2  -5  304.77   15.30
  -2   2   5  331.77   14.10
   1  -2  -5  318.57   12.40
   1  -2  -5  334.57   12.50
   1  -2  -5  311.67   12.10
  -1   2   5  350.26   12.90
   0  -2  -5   -0.70    2.30
   0  -2  -5    3.50    2.40
   0  -2  -5    2.60    2.20
   0   2   5    4.30    2.10
  -1  -2  -5  177.28    9.40
  -1  -2  -5  173.38    8.90
  -1  -2  -5  177.78   11.60
  -1  -2  -5  179.68   12.00
  -2  -2  -5  438.86   17.10
  -3  -2  -5   18.50    5.70
  -3  -2  -5   28.20    6.10
  -4  -2  -5    8.20    5.50
  -4  -2  -5    6.80    4.80
  -5  -2  -5   35.80    7.30
  -6   3   5   -2.00    6.90
  -5   3   5  110.69   14.60
  -4   3   5    4.80    4.60
  -3   3   5   -1.10    3.10
   2  -3  -5  277.07   13.30
   2  -3  -5  276.07   10.10
   2  -3  -5  242.88    9.50
  -2   3   5  271.97   13.10
   1  -3  -5   13.30    3.00
   1  -3  -5    9.60    2.70
   1  -3  -5   10.70    3.30
  -1   3   5    7.40    3.10
   0  -3  -5  108.69    7.10
   0  -3  -5  129.59    9.10
   0  -3  -5  113.49    8.60
   0   3   5  126.49    8.20
  -1  -3  -5   33.80    5.90
  -1  -3  -5   27.90    6.90
  -1  -3  -5   29.00    5.00
  -1  -3  -5   19.10    5.50
  -2  -3  -5  195.08   11.80
  -2  -3  -5  219.98   12.20
   2   3   5  226.58   14.60
  -3  -3  -5  302.67   19.40
  -3  -3  -5  320.17   16.80
   3   3   5  304.57   18.70
  -4  -3  -5    1.00    3.90
  -4  -3  -5   -0.80    4.40
  -5  -3  -5    4.00    5.90
  -5  -3  -5   17.00    6.60
  -6   4   5   21.20    9.10
  -5   4   5   59.29   16.60
  -4   4   5    4.50    3.90
  -3   4   5  383.96   18.40
   2  -4  -5  143.09    6.60
  -2   4   5  121.19    9.30
   1  -4  -5  207.18   10.30
   1  -4  -5  209.98   10.50
   1  -4  -5  167.18   10.40
  -1   4   5  202.08   11.40
   0  -4  -5  130.69    8.70
   0  -4  -5  133.79   10.20
   0  -4  -5  133.09    9.60
   0   4   5  135.59    9.70
  -1  -4  -5  131.59    9.40
  -1  -4  -5  149.19   10.60
   1   4   5  139.99   11.30
  -2  -4  -5  112.69   11.30
   2   4   5  153.48   12.80
  -3  -4  -5   59.19    9.10
   3   4   5   59.99   10.20
  -4  -4  -5  177.88   14.50
   4   4   5  205.78   17.60
  -5  -4  -5    3.80    6.60
  -5  -4  -5   23.90    8.70
  -5   5   5   25.50    7.00
  -4   5   5  380.56   21.10
  -3   5   5   46.00    7.40
   2  -5  -5    3.20    2.10
   2  -5  -5    5.10    2.00
  -2   5   5    8.70    4.00
   1  -5  -5  209.88   10.90
   1  -5  -5  187.98   10.30
  -1   5   5  212.88   13.00
   0  -5  -5  173.18   11.70
   0   5   5  171.38   11.70
   0   5   5  186.08   12.00
   1   5   5  100.49   12.70
  -2  -5  -5   17.00    5.60
   2   5   5    6.70    4.30
  -3  -5  -5   37.30    8.30
   3   5   5   44.60   10.10
  -4  -5  -5   70.79   11.50
   4   5   5   87.19   14.80
  -5   6   5    5.20    6.50
  -4   6   5  111.49   13.50
  -3   6   5  124.89   14.20
   2  -6  -5    6.70    2.50
   2  -6  -5    2.00    2.50
  -2   6   5    7.40    3.70
  -1   6   5   37.30    7.90
   0   6   5  158.68   12.10
   0   6   5  156.98   12.40
  -1  -6  -5    2.40    3.50
   1   6   5   14.80    5.50
  -2  -6  -5    8.70    4.50
   2   6   5   12.00    6.20
  -3  -6  -5   72.29   11.20
   3   6   5   99.29   15.40
  -4  -6  -5   11.80    6.80
   4   6   5   14.80    7.00
  -5   7   5   38.90    9.70
  -4   7   5    0.90    4.90
  -3   7   5   53.09    9.20
   2  -7  -5  262.97   11.70
   2  -7  -5  258.57   11.30
  -2   7   5  299.27   18.00
   1  -7  -5   75.69    9.60
  -1   7   5   75.79    7.60
  -1   7   5   97.59   13.10
   0  -7  -5   68.69   12.30
   0   7   5   79.29   11.00
  -1  -7  -5  137.49   17.80
   1   7   5  101.39   13.60
  -2  -7  -5   64.39   10.50
   2   7   5   94.99   14.70
  -3  -7  -5   38.20    8.70
   3   7   5   31.50    9.10
  -4  -7  -5    8.70    5.90
   4   7   5   32.80    9.70
  -4   8   5   32.90    8.20
   2  -8  -5  198.68   11.10
   2  -8  -5  204.08   11.20
  -2   8   5  219.68   16.30
  -1   8   5   80.19   11.60
  -1   8   5   91.99   10.10
   0  -8  -5   79.29   13.60
   0   8   5   77.99   11.80
  -1  -8  -5   66.79   12.70
   1   8   5   83.79   13.70
  -2  -8  -5   80.19   14.10
   2   8   5  108.59   16.80
  -3  -8  -5   49.80   10.80
   3   8   5   60.29   13.10
  -3   9   5   73.89   12.00
   2  -9  -5   12.10    4.70
  -2   9   5    6.80    5.10
  -1   9   5   55.49   11.60
  -1   9   5   70.99    9.70
   0  -9  -5   48.40   10.30
   0   9   5   57.19   10.50
  -1  -9  -5   35.60   11.70
   1   9   5   56.69   12.40
  -2  -9  -5    1.10    5.70
   2   9   5   22.50    8.90
   2 -10  -5   10.00    5.50
  -2  10   5   10.00    7.10
  -1  10   5   10.40    6.70
  -1  10   5    6.10    8.30
   0 -10  -5   49.50   12.10
   0  10   5   71.89   12.30
  -1 -10  -5   91.59   16.20
   1  10   5   95.99   15.70
   1  12  -6   10.70    7.60
  -1 -12   6   21.40    8.20
   0  12  -6   18.10    9.70
   0 -12   6   10.10    8.70
  -1  12  -6   21.70   10.60
   1 -12   6   35.30   11.80
  -2  12  -6   -8.50    8.90
  -2  12  -6   12.50    7.80
   2  11  -6    2.00    6.50
   1  11  -6   13.50    6.90
  -1 -11   6   10.20    6.70
   0 -11   6   17.10    7.50
  -1  11  -6    4.40    7.50
   1 -11   6    0.00    7.00
  -2  11  -6   29.10    8.40
  -2  11  -6   28.00    8.80
  -3  11  -6   10.10    8.60
   3  10  -6   28.90    9.40
  -3 -10   6   17.20    7.40
   2  10  -6   66.79   12.00
  -2 -10   6   80.49   12.10
   1  10  -6   13.00    5.90
  -1 -10   6   10.50    6.60
   0  10  -6   74.89   13.70
   0 -10   6   79.29   11.80
  -1  10  -6   15.50    7.80
   1 -10   6   29.00    7.80
  -2  10  -6   35.20    8.90
  -2  10  -6   32.20    7.80
  -3  10  -6    5.80    6.50
  -3  10  -6    1.70    6.60
   4   9  -6   11.40    7.00
  -4  -9   6    8.90    6.90
   3   9  -6   33.50   10.10
  -3  -9   6   28.70    7.40
   2   9  -6  109.39   15.70
  -2  -9   6   72.39   10.60
   1   9  -6  222.88   17.90
  -1  -9   6  248.48   15.90
   0   9  -6   18.30    7.60
   0  -9   6    6.80    4.40
  -1   9  -6  132.19   13.20
  -1   9  -6  125.39   11.20
  -2   9  -6   58.19    8.90
  -2   9  -6   81.19   12.40
  -3   9  -6    6.20    5.90
  -3   9  -6   20.90    7.10
  -4   9  -6   -6.40    6.30
  -4   9  -6    2.50    6.30
   4   8  -6   -7.80    6.50
   3   8  -6   53.59   10.20
  -3  -8   6   39.20    8.40
   2   8  -6  159.68   14.90
  -2  -8   6  168.78   12.80
   1   8  -6   53.29   10.50
  -1  -8   6   43.40    8.20
   0   8  -6    5.50    3.80
   0  -8   6    4.00    3.90
  -1   8  -6   88.59   12.20
  -1   8  -6  108.79    9.50
  -2   8  -6   49.40    8.30
  -2   8  -6   32.60    7.80
  -3   8  -6    2.90    4.70
  -3   8  -6    7.70    6.20
  -4   8  -6   34.00    8.30
  -4   8  -6   28.90    7.70
   5   7  -6    7.00    7.70
  -5  -7   6    5.10    6.80
   4   7  -6   20.20    7.90
  -4  -7   6   26.50    7.80
   3   7  -6   47.70   10.20
  -3  -7   6   27.00    6.90
   2   7  -6   24.90    7.00
  -2  -7   6   24.50    6.10
   1   7  -6    6.00    3.90
  -1  -7   6    5.20    3.60
  -1  -7   6   11.60    5.20
   0   7  -6   63.29   10.20
   0  -7   6   70.59    7.20
   0  -7   6   56.59    7.50
  -1   7  -6   43.20    8.40
  -1   7  -6   47.10    6.20
   1  -7   6   54.89    6.70
  -2   7  -6   94.99    8.30
  -2   7  -6   59.99    9.80
   2  -7   6   53.79    7.30
  -3   7  -6  115.99   12.30
  -3   7  -6   77.49    9.60
  -4   7  -6    5.10    5.60
  -4   7  -6   -0.50    5.30
  -5   7  -6   -0.60    5.80
  -5   7  -6   16.20    9.20
  -5  -6   6   59.19   11.60
   4   6  -6   80.69   12.70
  -4  -6   6   62.79   10.40
   3   6  -6    8.70    5.70
  -3  -6   6    8.90    4.30
   2   6  -6    5.50    4.70
  -2  -6   6    2.20    3.10
   1   6  -6  215.98   14.10
  -1  -6   6  234.18   11.90
  -1  -6   6  231.38   14.70
   0   6  -6  212.48   14.40
   0  -6   6  196.18    9.30
   0  -6   6  203.18   10.90
  -1   6  -6    8.00    2.70
  -1   6  -6    0.40    3.00
   1  -6   6    5.70    3.00
  -2   6  -6   65.09    9.70
  -2   6  -6   88.79    7.60
  -3   6  -6  328.17   15.70
  -4   6  -6   11.20    5.40
  -4   6  -6   10.60    6.30
  -5   6  -6    7.30    5.80
  -5   6  -6    2.00    6.60
   5   5  -6  164.38   15.40
   4   5  -6   66.29   10.70
  -4  -5   6   50.99    9.90
   3   5  -6   22.70    6.60
  -3  -5   6   19.20    4.70
   2   5  -6   86.19   11.50
   2   5  -6   81.09    8.90
  -2  -5   6   77.79    7.60
   1   5  -6  324.47   17.60
  -1  -5   6  308.97   12.70
  -1  -5   6  330.57   12.80
   0   5  -6  306.07   16.30
   0  -5   6  318.47   12.00
   0  -5   6  324.87   11.00
  -1   5  -6   -0.30    2.10
  -1   5  -6    1.10    3.10
   1  -5   6    6.10    2.30
  -2   5  -6   95.59    6.80
  -2   5  -6  113.59   10.60
  -3   5  -6   23.30    5.80
  -3   5  -6   38.80    5.90
   3  -5   6   24.60    5.40
  -4   5  -6   89.99    9.50
  -4   5  -6   68.19   10.90
  -5   5  -6   -4.00    6.60
  -5   5  -6   -2.40    5.80
   5   4  -6   30.40    9.30
  -5  -4   6   47.50   10.40
   4   4  -6  187.68   14.80
  -4  -4   6  181.38   13.70
   3   4  -6  169.68   12.90
  -3  -4   6  190.18   12.40
   2   4  -6    2.90    3.10
   2   4  -6    4.30    3.40
  -2  -4   6    5.60    3.00
   1   4  -6  221.58   13.40
  -1  -4   6  202.28    9.00
  -1  -4   6  205.48   13.20
   0   4  -6    2.70    3.60
   0  -4   6    4.90    3.40
   0  -4   6    2.90    1.70
  -1   4  -6   80.09    8.40
   1  -4   6   78.39    4.50
  -2   4  -6   26.80    7.90
  -2   4  -6   31.30    4.40
   2  -4   6   25.60    3.90
  -3   4  -6   38.50    5.70
  -3   4  -6   26.70    5.90
   3  -4   6   18.10    5.30
  -4   4  -6   53.79   10.10
  -4   4  -6   54.99    7.90
  -5   4  -6   32.30    8.90
  -5   4  -6   17.90    8.00
   6   3  -6   35.20    8.80
  -6  -3   6   27.60    9.00
   5   3  -6   46.40    8.70
  -5  -3   6   20.10    6.90
   4   3  -6   29.20    6.00
  -4  -3   6   46.10    9.00
   3   3  -6  620.44   24.20
  -3  -3   6  608.34   22.30
   2   3  -6  254.97   12.10
   2   3  -6  249.38   13.70
  -2  -3   6  245.78   11.50
  -2  -3   6  257.27   13.90
   1   3  -6    8.90    4.10
   1   3  -6    8.30    2.50
  -1  -3   6   11.20    2.40
  -1  -3   6    4.30    3.10
   0   3  -6  177.98   11.60
   0  -3   6  172.28   10.90
  -1   3  -6  262.27    7.20
  -1   3  -6  280.97   15.40
   1  -3   6  236.98    6.50
   1  -3   6  235.08   13.30
  -2   3  -6    0.30    2.60
  -2   3  -6    3.30    1.90
   2  -3   6    2.10    2.50
  -3   3  -6   40.90    6.80
  -3   3  -6   46.10    6.70
  -4   3  -6   83.99   12.50
  -4   3  -6   64.89    9.00
  -5   3  -6   26.90    7.60
  -5   3  -6   46.80    9.70
   6   2  -6   11.00    6.70
  -6  -2   6   14.40    7.40
   5   2  -6   14.30    5.70
  -5  -2   6   23.60    6.70
   4   2  -6   46.40    8.00
  -4  -2   6   42.00    7.50
   3   2  -6   80.69    7.80
  -3  -2   6   83.59    8.40
  -3  -2   6   74.99    9.20
   2   2  -6  114.19    8.90
   2   2  -6  113.59    7.80
  -2  -2   6  121.89    8.00
   1   2  -6    6.00    1.90
   1   2  -6    3.50    2.40
  -1  -2   6    7.00    3.40
  -1  -2   6    7.90    2.50
   0   2  -6  326.27   15.40
   0  -2   6  286.47   13.70
  -1   2  -6  253.57   14.20
   1  -2   6  195.58   11.90
  -2   2  -6   82.99    8.30
  -2   2  -6   87.09    5.60
   2  -2   6   72.69    5.30
  -3   2  -6   22.80    4.80
  -3   2  -6   20.20    5.90
  -4   2  -6   35.40    7.20
  -4   2  -6   46.80    9.00
  -5   2  -6   32.60    7.00
  -5   2  -6   36.80    9.10
  -6  -1   6   20.30    9.00
   5   1  -6   -7.60    4.00
  -5  -1   6   -4.10    6.90
  -5  -1   6    1.70    4.80
   4   1  -6  121.79    9.70
  -4  -1   6  118.79   10.90
  -4  -1   6  121.29   11.00
   3   1  -6   77.79    6.90
   3   1  -6   81.99   10.40
  -3  -1   6   74.69    7.70
  -3  -1   6   67.99    8.30
   2   1  -6   93.49    7.60
   2   1  -6   92.59    7.00
  -2  -1   6  100.79    7.70
  -2  -1   6   95.79    7.10
   1   1  -6  744.13   18.20
   1   1  -6  725.03   23.40
  -1  -1   6  706.03   22.20
   0   1  -6   94.49    8.00
  -1   1  -6  595.14   13.00
  -1   1  -6  572.14   22.50
  -1   1  -6  594.64   13.10
   1  -1   6  524.05   20.90
  -2   1  -6   12.70    4.70
   2  -1   6    5.20    2.80
  -3   1  -6   19.60    4.60
  -3   1  -6   22.10    6.10
   3  -1   6   22.80    5.20
  -4   1  -6   27.70    8.30
  -4   1  -6   25.50    6.30
  -5   1  -6   32.20    6.60
  -5   1  -6   31.50    8.20
   6   0  -6    9.90    5.20
  -6   0   6   18.10    7.20
   5   0  -6   75.49    7.30
  -5   0   6   71.89   11.60
  -5   0   6   61.19    8.40
   4   0  -6   52.19    6.00
  -4   0   6   58.89    9.00
  -4   0   6   47.70    6.50
   3   0  -6   74.99    6.40
  -3   0   6   72.59    7.60
  -3   0   6   55.99    6.20
   2   0  -6  575.84   19.10
   2   0  -6  601.84   19.20
  -2   0   6  611.34   19.00
  -2   0   6  572.54   18.70
   1   0  -6   93.09    5.60
   1   0  -6   98.69    7.60
  -1   0   6   85.09    7.10
  -1   0   6   92.19    5.20
   0   0  -6  812.12   25.90
   0   0  -6  800.92   17.50
   0   0   6  780.22   25.20
  -1   0  -6  235.78    7.90
  -1   0  -6  228.68   13.50
  -1   0  -6  221.18   13.20
  -1   0  -6  199.28    8.50
  -2   0  -6  205.18    9.50
   2   0   6  189.68   10.00
  -3   0  -6   10.70    5.10
  -3   0  -6    3.30    3.80
   3   0   6   10.60    4.90
  -4   0  -6   33.90    7.50
  -4   0  -6   10.20    6.10
  -5   0  -6   10.80    5.70
  -5   0  -6   22.40    7.60
  -6   1   6    0.30    6.40
  -5   1   6   48.80   10.00
   4  -1  -6   34.30    4.10
  -4   1   6   26.70    3.90
  -4   1   6   38.60    7.70
   3  -1  -6   95.79    6.30
  -3   1   6  108.09    9.20
  -3   1   6  109.29    6.70
   2  -1  -6   33.40    5.90
   2  -1  -6   27.30    4.80
  -2   1   6   29.80    5.00
  -2   1   6   29.70    5.00
   1  -1  -6   88.59    5.80
   1  -1  -6   94.09    7.00
  -1   1   6   76.69    5.60
  -1   1   6   83.99    7.30
   0  -1  -6   62.89    4.20
   0  -1  -6   48.80    7.00
   0  -1  -6   75.59   10.50
  -1  -1  -6   -0.90    3.20
  -1  -1  -6   -0.60    1.50
  -1  -1  -6    1.40    1.70
  -1  -1  -6    4.00    3.20
  -2  -1  -6  424.26   15.60
  -2  -1  -6  415.36   20.60
   2   1   6  435.26   16.70
  -3  -1  -6  167.68   14.10
  -3  -1  -6  167.18   10.90
   3   1   6  145.79   13.30
  -4  -1  -6   -3.90    4.80
  -4  -1  -6    4.60    4.30
  -5  -1  -6   20.90    6.10
  -5  -1  -6   10.80    6.90
  -6   2   6    7.20    7.70
  -5   2   6   59.49   10.00
  -4   2   6   -4.70    3.60
   3  -2  -6   16.30    2.80
  -3   2   6   25.30    8.30
   2  -2  -6   53.99    6.90
   2  -2  -6   50.69    4.80
   2  -2  -6   46.00    4.60
  -2   2   6   59.89    6.10
   1  -2  -6  252.77   11.90
   1  -2  -6  250.47   11.80
   1  -2  -6  233.38   10.60
  -1   2   6  252.77   11.10
   0  -2  -6   14.80    4.10
   0  -2  -6   22.30    3.80
   0  -2  -6   16.10    5.10
   0   2   6   25.00    4.60
  -1  -2  -6  102.49    9.80
  -1  -2  -6  120.49    7.60
  -1  -2  -6  109.69    7.40
  -2  -2  -6  147.19   12.80
  -2  -2  -6  161.18   10.00
  -2  -2  -6  142.29    9.20
  -3  -2  -6  138.89   13.40
  -4  -2  -6    7.00    5.40
  -4  -2  -6   20.40    7.10
  -5  -2  -6   10.90    6.60
  -5  -2  -6    7.00    6.20
  -5   3   6  102.49   14.10
  -4   3   6  124.49   12.40
  -3   3   6   13.90    4.90
   2  -3  -6  221.28    9.40
   2  -3  -6  220.08    9.30
   2  -3  -6  203.28   14.70
  -2   3   6  237.68   12.60
   1  -3  -6  193.98   10.30
   1  -3  -6  186.48   10.60
   1  -3  -6  196.98   11.60
  -1   3   6  203.68   10.90
   0  -3  -6   93.99    8.60
   0  -3  -6   96.29    9.00
   0  -3  -6   98.99    7.00
   0   3   6  106.79    7.90
  -1  -3  -6  177.68   10.80
  -1  -3  -6  185.48   16.20
  -2  -3  -6  239.38   15.40
  -2  -3  -6  285.97   14.30
  -2  -3  -6  300.27   18.20
  -3  -3  -6   28.40    7.00
  -3  -3  -6   33.60    7.70
  -4  -3  -6   69.89    9.60
  -4  -3  -6   95.09   15.30
  -5  -3  -6    6.10    7.30
  -5  -3  -6   29.10    9.50
  -5   4   6    6.70    6.20
  -4   4   6  161.78   13.80
  -3   4   6  276.57   15.80
   2  -4  -6   10.90    2.70
   2  -4  -6    7.30    2.50
   1  -4  -6   87.29    7.20
   1  -4  -6  107.89    9.60
   1  -4  -6   97.99    7.60
  -1   4   6  102.19    8.90
   0  -4  -6  251.67   12.30
   0  -4  -6  258.37   14.60
   0  -4  -6  236.08   14.00
   0   4   6  302.47   14.90
  -1  -4  -6  168.18   12.90
  -1  -4  -6  164.38   11.30
  -2  -4  -6   20.10    6.60
  -2  -4  -6   12.60    5.50
  -3  -4  -6   58.49   11.00
  -3  -4  -6   73.09   10.50
  -4  -4  -6   62.09   12.20
  -4  -4  -6   62.49   10.20
  -5   5   6   -3.50    6.60
  -4   5   6   21.00    6.50
  -3   5   6  186.28   13.90
   2  -5  -6   88.59    6.70
   2  -5  -6   93.39    6.40
  -2   5   6  102.89   10.10
   1  -5  -6   46.00    6.90
   1  -5  -6   54.89    8.50
  -1   5   6   58.39    8.80
   0  -5  -6  189.88   12.80
  -1  -5  -6   42.40    7.30
  -2  -5  -6    4.10    4.30
   2   5   6    5.80    4.10
  -3  -5  -6   43.20    7.90
   3   5   6   42.40    9.50
  -4  -5  -6   29.00    8.50
  -4  -5  -6   18.60    6.00
  -5   6   6   34.00    9.10
  -4   6   6   92.89   15.30
  -3   6   6   49.30    9.50
   2  -6  -6  117.49    8.10
   2  -6  -6  139.29    8.10
  -2   6   6  140.99   12.20
   1  -6  -6  143.79   10.90
   1  -6  -6  158.18   11.00
  -1   6   6  170.18   13.00
   0  -6  -6   67.19   11.00
   0  -6  -6   51.99    9.90
  -1  -6  -6   -2.40    3.50
   1   6   6    1.20    3.90
  -2  -6  -6  231.88   16.00
   2   6   6  223.48   17.50
  -3  -6  -6   36.00    7.50
   3   6   6   46.10    9.80
  -4  -6  -6   21.40    8.10
  -4  -6  -6   40.50   10.20
  -4   7   6    0.70    5.20
  -3   7   6   40.40    8.10
   2  -7  -6   25.30    5.10
   2  -7  -6   43.60    6.00
  -2   7   6   36.30    8.10
   1  -7  -6  344.87   17.10
  -1   7   6  385.66   20.90
   0  -7  -6   40.90    9.70
   0   7   6   32.30    7.60
  -1  -7  -6  220.88   16.60
   1   7   6  242.38   17.50
  -2  -7  -6   53.99   10.20
   2   7   6   58.59   11.80
  -3  -7  -6   27.50    9.20
   3   7   6   12.90    8.50
  -4   8   6   -0.90    5.80
  -3   8   6    2.50    5.40
   2  -8  -6  103.79    8.10
   2  -8  -6   64.19    9.40
  -2   8   6  117.99   16.50
   1  -8  -6   19.60    5.90
  -1   8   6   28.10    7.80
   0  -8  -6   78.59   13.80
   0   8   6   80.09   12.20
  -1  -8  -6   42.00    9.50
   1   8   6   53.09   10.90
  -2  -8  -6   25.80   10.20
   2   8   6   46.20   11.40
  -3  -8  -6   -0.80    4.80
   3   8   6    5.10    8.40
  -3   9   6   16.20    7.80
   2  -9  -6   23.30    5.60
  -2   9   6   18.30    7.60
   1  -9  -6   71.09   11.50
  -1   9   6   69.59   11.70
   0  -9  -6   40.40   10.70
   0   9   6   34.70    8.90
  -1  -9  -6    9.30    5.90
   1   9   6   37.00    9.50
  -2  -9  -6   37.70    9.80
   2   9   6   34.40   10.00
   1 -10  -6    5.10    5.80
  -1  10   6   14.50    6.60
   0 -10  -6    0.20    6.40
   0  10   6    1.90    6.10
   1  12  -7   22.30    9.80
  -1 -12   7    2.70    7.70
   0  12  -7   30.00    9.60
   0 -12   7   37.50    9.60
  -1  12  -7    7.50    7.80
   1 -12   7    6.80    8.40
   2  11  -7   61.79   13.60
  -2 -11   7   30.50   10.00
   1  11  -7   69.59   13.20
  -1 -11   7   69.39   12.00
   0  11  -7    1.80    5.80
   0 -11   7    2.10    6.30
  -1  11  -7   -1.10    7.50
   1 -11   7   23.00    8.30
  -2  11  -7   14.40    7.90
  -2  11  -7   10.60    9.10
   3  10  -7    5.50    8.00
  -3 -10   7   22.40    9.30
   2  10  -7   15.40    6.30
  -2 -10   7   29.20    8.50
  -1 -10   7  120.19   12.30
   0  10  -7   29.70    9.10
   0 -10   7   28.80    7.90
  -1  10  -7   57.49   11.60
   1 -10   7  123.59   13.00
  -2  10  -7    9.30    6.00
  -2  10  -7   17.40    7.80
  -3  10  -7   13.10    6.60
  -3  10  -7    6.40    7.30
   4   9  -7   -1.30    8.50
  -4  -9   7    9.40    6.90
   3   9  -7   14.90    8.20
  -3  -9   7   12.80    6.90
   2   9  -7   74.49   12.60
  -2  -9   7   90.79   12.40
   1   9  -7    4.90    4.70
  -1  -9   7    7.20    4.80
   0   9  -7   41.30    8.90
   0  -9   7   34.90    7.20
  -1   9  -7   84.79   13.10
   1  -9   7   59.49   10.40
  -2   9  -7   46.00    9.30
  -2   9  -7   74.29    9.60
  -3   9  -7   -0.20    5.30
  -3   9  -7   -8.70    5.50
  -4   9  -7   -0.10    6.60
  -4   9  -7    4.50    6.50
   4   8  -7   -2.70    6.60
  -4  -8   7   15.50   10.30
   3   8  -7   49.60    9.40
  -3  -8   7   61.09   10.10
   2   8  -7   30.50    7.40
  -2  -8   7   25.10    6.20
   1   8  -7    9.00    5.50
  -1  -8   7    5.90    4.70
   0   8  -7   26.50    6.40
   0  -8   7   39.30    7.10
  -1   8  -7   19.10    6.10
   1  -8   7   18.50    5.80
   1  -8   7    6.90    5.20
  -2   8  -7   35.70    7.40
  -2   8  -7   38.30    8.30
  -3   8  -7   35.40    7.20
  -3   8  -7   13.20    7.30
  -4   8  -7   15.50    6.40
  -4   8  -7   -2.90    6.80
   4   7  -7   40.50   10.10
  -4  -7   7   35.80    8.20
   3   7  -7   59.79   10.80
  -3  -7   7   62.99    9.80
   2   7  -7    6.40    5.60
  -2  -7   7   -0.60    3.80
   1   7  -7   75.69   11.80
  -1  -7   7   84.19    7.90
  -1  -7   7   75.39    8.30
   0   7  -7  132.89   12.20
   0  -7   7  132.89    9.60
  -1   7  -7   45.00    9.10
   1  -7   7   40.50    5.70
   1  -7   7   47.20    6.60
  -2   7  -7   41.40    8.70
  -2   7  -7   33.80    5.90
   2  -7   7   20.00    5.90
  -3   7  -7   44.60    9.90
  -4   7  -7   32.00    7.80
  -4   7  -7   41.60    9.50
   5   6  -7   24.30    8.90
  -5  -6   7   14.20    8.30
   4   6  -7  137.39   14.60
  -4  -6   7  119.29   12.30
   3   6  -7   12.60    6.10
  -3  -6   7    1.70    4.20
   2   6  -7  115.49   11.90
  -2  -6   7   79.99    8.50
   1   6  -7   90.79   10.10
  -1  -6   7   86.79    7.60
  -1  -6   7   78.49    7.10
   0   6  -7   13.90    5.50
   0  -6   7   12.20    2.80
   0  -6   7    8.10    3.20
  -1   6  -7   45.00    8.90
   1  -6   7   34.80    4.60
  -2   6  -7   89.69    7.00
  -2   6  -7  110.09   11.00
   2  -6   7   82.39    8.00
  -3   6  -7   61.89   10.40
  -3   6  -7   61.49    7.30
   3  -6   7   29.70    9.00
  -4   6  -7   32.30    9.00
  -4   6  -7   42.40    6.50
  -5   6  -7   -0.20    6.10
  -5   6  -7    4.00    7.70
   5   5  -7  101.29   13.90
   4   5  -7   18.80    6.80
  -4  -5   7   20.50    6.40
   3   5  -7  203.98   15.40
  -3  -5   7  181.08   12.30
   2   5  -7   18.60    5.70
   2   5  -7   -2.40    4.60
  -2  -5   7    9.60    3.30
   1   5  -7  161.98   12.80
  -1  -5   7  172.28    8.80
  -1  -5   7  171.58    8.80
   0   5  -7   49.50    8.60
   0  -5   7   47.10    4.30
   0  -5   7   35.00    4.10
  -1   5  -7   19.80    6.20
   1  -5   7   12.30    2.70
  -2   5  -7   57.09    5.10
  -2   5  -7   45.30    8.80
   2  -5   7   38.50    5.10
  -3   5  -7  103.29   11.30
  -3   5  -7   95.29    8.30
   3  -5   7   51.29    7.20
  -4   5  -7   -7.30    3.80
  -4   5  -7    7.00    6.30
  -5   5  -7    9.20    6.80
  -5   5  -7    4.40    5.70
   5   4  -7   18.40    7.50
  -5  -4   7   36.80    9.00
   4   4  -7   37.10    7.80
  -4  -4   7   40.40    7.60
   3   4  -7  102.09   10.60
  -3  -4   7   89.49    8.80
   2   4  -7  496.05   18.40
   2   4  -7  502.25   22.60
  -2  -4   7  436.56   16.40
   1   4  -7   22.60    6.20
  -1  -4   7   23.20    3.40
  -1  -4   7   19.40    3.20
   0   4  -7   46.20    7.80
   0  -4   7   48.80    2.90
   0  -4   7   49.80    3.00
  -1   4  -7  128.79   11.20
   1  -4   7  106.79    4.10
  -2   4  -7   69.49    5.30
  -2   4  -7   49.80    8.50
   2  -4   7   61.89    5.00
  -3   4  -7   12.50    6.40
  -3   4  -7   21.60    4.70
  -4   4  -7   25.50    6.20
  -4   4  -7   28.00    6.90
  -5   4  -7   12.80    6.50
  -5   4  -7    7.80    7.00
   5   3  -7   11.20    6.10
  -5  -3   7   25.70    7.10
   4   3  -7   13.50    6.00
  -4  -3   7   12.90    4.20
   3   3  -7    8.90    5.40
  -3  -3   7    7.60    4.30
   2   3  -7  458.65   20.30
   2   3  -7  497.35   17.40
  -2  -3   7  486.75   17.10
   1   3  -7  352.66   17.00
   1   3  -7  320.97   10.80
   0   3  -7   40.20    7.00
  -1   3  -7   75.99   12.10
  -2   3  -7   15.60    4.90
  -2   3  -7   19.20    3.10
   2  -3   7   19.70    3.20
  -3   3  -7   30.80    7.10
  -3   3  -7   28.20    5.10
   3  -3   7   30.50    5.30
  -4   3  -7   53.39    9.70
  -4   3  -7   63.69    9.00
  -5   3  -7   11.20    8.30
  -5   3  -7   28.30    7.70
   5   2  -7   62.19    9.40
  -5  -2   7   51.89    9.90
   4   2  -7   23.90    6.60
  -4  -2   7   33.50    7.60
   3   2  -7  142.19   10.90
  -3  -2   7  165.48   10.70
  -3  -2   7  148.49   11.70
   2   2  -7    1.80    2.90
   2   2  -7    0.40    3.30
  -2  -2   7    0.10    3.60
  -2  -2   7   -1.50    2.30
   1   2  -7  252.47   10.40
   1   2  -7  247.68   13.70
  -1  -2   7  254.47    8.30
  -1  -2   7  251.97   13.60
   0   2  -7  506.75   21.10
   0  -2   7  424.16   18.30
  -1   2  -7   77.39    8.40
  -2   2  -7   53.09    4.50
  -2   2  -7   52.89    8.30
   2  -2   7   44.70    4.70
  -3   2  -7   32.10    8.00
  -3   2  -7   42.90    6.10
   3  -2   7   26.30    5.40
  -4   2  -7   49.10    8.20
  -4   2  -7   54.19   10.90
  -5   2  -7    3.70    5.20
   6   1  -7    8.70    9.40
  -6  -1   7   21.50    9.40
   5   1  -7   28.50    6.20
  -5  -1   7   40.50    8.70
  -5  -1   7    0.30    8.40
   4   1  -7  158.68   11.00
  -4  -1   7  138.59   12.00
  -4  -1   7  143.59   11.60
   3   1  -7  249.58   13.50
  -3  -1   7  256.27   14.60
  -3  -1   7  242.08   13.20
   2   1  -7  151.18    9.20
   2   1  -7  153.28   10.10
  -2  -1   7  157.88    8.70
   1   1  -7   22.10    5.30
   1   1  -7   20.20    3.20
  -1  -1   7   15.50    4.60
   0   1  -7  471.25   19.80
   0  -1   7  436.36   18.60
  -1   1  -7  256.07   15.40
  -2   1  -7  131.49    7.30
  -2   1  -7  129.29   11.60
   2  -1   7  130.19    7.60
  -3   1  -7   25.70    6.20
  -3   1  -7   36.20    6.00
   3  -1   7   23.10    7.20
  -4   1  -7   25.10    7.70
  -4   1  -7   19.30    5.70
  -5   1  -7   19.10    7.00
  -5   1  -7   10.30    5.80
   6   0  -7   16.30    9.70
  -6   0   7    6.90    7.80
   5   0  -7   25.80    5.30
  -5   0   7   23.40    6.80
  -5   0   7   28.90    8.30
   4   0  -7   53.29    6.50
  -4   0   7   40.70    8.00
  -4   0   7   39.90    6.30
   3   0  -7   55.59    7.10
  -3   0   7   64.59    8.80
  -3   0   7   58.49    7.20
   2   0  -7   42.40    5.90
   2   0  -7   41.90    6.20
  -2   0   7   41.10    5.40
  -2   0   7   44.30    6.30
   1   0  -7  200.78    8.40
   1   0  -7  213.28   12.10
  -1   0   7  198.78    8.00
   0   0  -7  145.79    5.90
   0   0  -7  152.68   10.90
   0   0  -7  147.89    5.60
   0   0   7  128.99   10.30
  -1   0  -7  102.29    5.10
  -1   0  -7  110.29   10.30
  -1   0  -7   81.09    5.70
  -2   0  -7   85.69    6.50
  -2   0  -7   68.59    9.80
  -3   0  -7   75.19   11.10
  -3   0  -7   85.69    7.90
   3   0   7   85.99    9.50
  -4   0  -7    6.80    5.30
  -4   0  -7   -2.20    4.50
  -5   0  -7   18.30    7.40
  -5   0  -7   27.00    8.30
  -5   1   7   -4.80    5.80
   4  -1  -7  103.49    6.70
  -4   1   7   95.49    7.00
  -4   1   7  107.99   11.20
   3  -1  -7    5.70    3.30
  -3   1   7    0.40    3.20
  -3   1   7   -3.20    3.20
   2  -1  -7   11.60    3.90
  -2   1   7   13.70    4.30
  -2   1   7   15.00    4.10
   1  -1  -7  208.18    9.60
   1  -1  -7  219.78   12.00
  -1   1   7  221.88    9.60
  -1   1   7  220.08   14.30
   0  -1  -7    5.60    3.40
   0  -1  -7    0.50    1.90
   0  -1  -7    6.30    2.20
   0  -1  -7    3.80    3.80
  -1  -1  -7   58.19    4.80
  -1  -1  -7   42.00    4.50
  -2  -1  -7   38.20    5.50
  -2  -1  -7   41.10    5.70
  -2  -1  -7   27.30    7.10
  -3  -1  -7   91.49   13.00
  -3  -1  -7  104.79    8.70
  -4  -1  -7   85.69   14.10
  -4  -1  -7   76.79    9.80
  -5  -1  -7    3.20    6.80
  -5  -1  -7    5.30    5.70
  -5   2   7   55.29   10.20
  -4   2   7   96.99   12.20
   3  -2  -7   20.00    3.70
   3  -2  -7   18.10    3.70
  -3   2   7   22.20    5.50
   2  -2  -7  506.75   17.40
   2  -2  -7  496.25   18.80
   2  -2  -7  496.95   17.20
  -2   2   7  506.55   18.50
   1  -2  -7   93.79    8.00
   1  -2  -7   93.99    7.00
  -1   2   7   89.59    6.90
   0  -2  -7  140.89   10.80
   0  -2  -7  123.99    9.90
   0  -2  -7  119.49    7.00
  -1  -2  -7  103.79    7.30
  -1  -2  -7   89.39    9.50
  -1  -2  -7   85.99    7.00
  -2  -2  -7  127.99    9.40
  -2  -2  -7  119.59   12.10
  -2  -2  -7  136.99    9.30
  -3  -2  -7  105.99   14.30
  -3  -2  -7   79.29   10.70
  -4  -2  -7   17.80    6.40
  -4  -2  -7   33.90   11.70
  -5  -2  -7   37.40    9.10
  -5  -2  -7   54.39   13.10
  -5   3   7   58.29   14.60
  -4   3   7    7.50    5.40
   3  -3  -7  531.85   13.80
  -3   3   7  632.34   24.40
   2  -3  -7   65.69    5.80
   2  -3  -7   57.49    6.80
  -2   3   7   56.69    7.40
   1  -3  -7    5.40    4.20
   1  -3  -7   -5.00    2.10
   1  -3  -7   -0.10    3.20
  -1   3   7    1.70    2.20
   0  -3  -7  173.38   12.20
  -1  -3  -7  119.99    9.20
  -1  -3  -7  130.19    9.10
  -1  -3  -7  131.19   11.90
  -2  -3  -7  123.19   12.40
  -2  -3  -7  103.79    9.00
  -3  -3  -7   13.50    5.60
  -3  -3  -7   11.60    4.60
  -4  -3  -7    8.70    5.40
  -4  -3  -7    5.40    5.80
  -5   4   7    1.50    7.00
  -4   4   7   43.50    8.80
  -3   4   7  120.99   11.10
   2  -4  -7  141.29    8.20
   2  -4  -7  141.19    9.10
  -2   4   7  138.69   11.00
   1  -4  -7   -0.80    3.20
   1  -4  -7    0.80    2.80
  -1   4   7    5.20    3.40
   0  -4  -7   17.50    6.00
  -1  -4  -7  125.89   11.90
  -1  -4  -7  112.09    9.60
  -2  -4  -7    3.60    3.60
  -2  -4  -7    8.50    4.20
  -3  -4  -7   14.10    5.40
  -3  -4  -7    3.80    4.90
  -4  -4  -7   43.80    9.80
  -4  -4  -7   46.30    9.20
  -5   5   7   16.20    7.90
  -4   5   7   30.00    7.90
  -3   5   7   17.20    5.30
   2  -5  -7   70.09    6.50
   2  -5  -7   74.69    6.70
  -2   5   7   69.49    9.70
   1  -5  -7  293.57   14.80
   1  -5  -7  268.47   14.80
  -1   5   7  344.57   17.30
   0  -5  -7   83.19   12.00
   0  -5  -7   77.29   10.80
  -1  -5  -7   72.59   10.00
  -1  -5  -7   65.29   11.70
  -2  -5  -7   42.30    9.40
  -2  -5  -7   30.70    7.20
  -3  -5  -7   61.69    9.60
  -3  -5  -7   50.29   11.00
  -4  -5  -7   17.10    9.00
  -4  -5  -7   25.10    7.80
  -4   6   7   13.90    7.20
  -3   6   7   60.99   10.20
   2  -6  -7   67.59    7.60
   2  -6  -7   62.79    6.70
  -2   6   7   73.99   11.00
   1  -6  -7  255.37   14.60
  -1   6   7  266.47   16.60
   0  -6  -7   94.99   10.40
   0  -6  -7  113.29   12.10
  -1  -6  -7   34.50    7.80
  -1  -6  -7   48.50    9.10
  -2  -6  -7   89.69   12.40
  -2  -6  -7   70.09   11.90
  -3  -6  -7   68.69   11.00
  -3  -6  -7   53.39   12.60
  -4   7   7   40.20   10.10
  -3   7   7    4.00    7.20
   2  -7  -7   82.09    8.80
   2  -7  -7   86.19    7.40
  -2   7   7   96.59   12.30
   1  -7  -7   17.20    5.60
  -1   7   7   33.70    7.90
   0  -7  -7   68.39   12.90
   0  -7  -7   56.19   10.00
  -1  -7  -7  105.29   15.60
  -1  -7  -7   50.49    9.00
  -2  -7  -7   52.89   12.60
  -2  -7  -7   35.30    8.90
  -3  -7  -7   16.80    6.70
  -3  -7  -7   22.50    8.90
  -3   8   7   36.30   10.10
   2  -8  -7   27.60    5.20
   1  -8  -7   28.00    6.70
  -1   8   7   23.50    7.40
   0  -8  -7   21.40    8.10
   0  -8  -7   21.80    6.60
  -1  -8  -7   25.70    8.70
  -1  -8  -7   32.80    8.60
  -2  -8  -7   67.09   13.60
  -2  -8  -7   75.39   12.70
   2  -9  -7   44.90    7.40
  -2   9   7   31.00    9.90
   1  -9  -7   47.20    8.60
  -1   9   7   42.40    9.30
   0  -9  -7   22.70    7.10
   0  -9  -7   11.60    7.80
  -1  -9  -7   16.60    6.50
  -1  -9  -7   -1.20    6.20
   2  11  -8   -0.80    7.50
  -2 -11   8   15.30    8.30
   1  11  -8   26.50    7.70
  -1 -11   8   36.50    9.30
   0  11  -8   86.79   13.70
   0 -11   8   97.29   12.80
  -1  11  -8   -6.70    7.20
   1 -11   8    2.50    8.60
  -2  11  -8    8.90    7.50
   2 -11   8   14.70    8.90
   3  10  -8    9.00    9.40
   2  10  -8   15.70    7.90
  -2 -10   8    8.70    6.50
   1  10  -8   49.80   12.50
  -1 -10   8   69.79    9.90
   0  10  -8   21.00    8.80
   0 -10   8   21.30    7.30
   1 -10   8   -2.60    7.00
  -2  10  -8   11.10   11.80
  -2  10  -8   14.80    7.10
  -3  10  -8    9.00    6.80
  -3  10  -8    0.50    6.80
   3   9  -8   38.30   10.80
  -3  -9   8   30.30    9.00
   2   9  -8   12.10    7.10
  -2  -9   8    5.20    5.60
   1   9  -8   -1.10    4.60
  -1  -9   8   -0.60    4.60
   0   9  -8   -9.10    4.30
   0  -9   8    1.60    5.50
  -1   9  -8   71.89   12.50
   1  -9   8   71.39    9.30
  -2   9  -8   22.10    7.00
  -2   9  -8   25.60    6.70
  -3   9  -8    5.00    7.10
  -3   9  -8    6.80    6.10
   4   8  -8    1.60    7.50
  -4  -8   8    2.40   11.90
   3   8  -8   53.19   12.90
  -3  -8   8   70.19   11.10
   2   8  -8   26.70    8.70
  -2  -8   8   21.00    6.10
   1   8  -8   -2.20    4.60
  -1  -8   8    6.20    4.30
   0   8  -8   57.39   10.30
   0  -8   8   73.09    8.80
   0  -8   8   52.19    7.40
  -1   8  -8  144.59   14.50
   1  -8   8  148.49   11.00
   1  -8   8  111.69   10.30
  -2   8  -8   12.60    4.70
  -2   8  -8   12.30    6.50
   2  -8   8    4.80    6.60
  -3   8  -8   13.20    5.70
  -3   8  -8   28.40    7.90
  -4   8  -8    3.10   13.00
  -4   8  -8   11.40    7.40
   4   7  -8   93.89   13.90
  -4  -7   8   79.59   11.30
   3   7  -8   73.29   12.40
  -3  -7   8   53.39    8.00
   2   7  -8    7.70    4.80
  -2  -7   8    7.00    4.40
   1   7  -8   49.10    9.90
  -1  -7   8   34.50    5.80
  -1  -7   8   37.70    6.00
   0   7  -8   87.59   12.40
   0  -7   8   80.09    7.50
   0  -7   8  103.89    8.50
  -1   7  -8   76.99   12.20
   1  -7   8   81.09    8.30
   1  -7   8   93.99    7.80
  -2   7  -8   22.20    5.00
  -2   7  -8   29.00    7.80
   2  -7   8   18.90    7.60
  -3   7  -8   32.30    6.00
  -3   7  -8   22.80    7.90
  -4   7  -8    7.80    7.50
  -4   7  -8    0.90    6.00
   5   6  -8   23.30    9.50
  -5  -6   8   29.40   10.00
   4   6  -8   20.50    7.60
  -4  -6   8   23.90    7.20
   3   6  -8  132.39   13.80
  -3  -6   8  129.79   11.20
   2   6  -8  249.68   17.30
  -2  -6   8  241.08   12.30
  -2  -6   8  238.48   13.30
   1   6  -8    6.70    4.80
  -1  -6   8   11.50    3.50
  -1  -6   8    1.40    3.90
   0   6  -8   32.20    7.50
   0  -6   8   31.10    4.20
   0  -6   8   24.10    3.90
  -1   6  -8    8.70    5.00
   1  -6   8    3.20    2.70
   1  -6   8    2.60    3.10
  -2   6  -8   75.19   12.50
  -2   6  -8   53.89    5.70
   2  -6   8   47.10    6.20
  -3   6  -8   15.90    4.60
  -3   6  -8   20.20    7.60
   3  -6   8   -0.70    5.50
  -4   6  -8   20.30    6.10
  -4   6  -8   11.00    7.50
   5   5  -8   80.69   12.20
  -5  -5   8   81.19   13.00
   4   5  -8   17.60    6.60
  -4  -5   8   12.90    5.30
   3   5  -8   13.60    6.20
  -3  -5   8    0.30    3.70
   2   5  -8  551.04   21.10
   2   5  -8  585.64   25.80
  -2  -5   8  588.04   19.90
   1   5  -8  194.28   14.50
  -1  -5   8  194.98    8.40
  -1  -5   8  187.98    8.70
   0   5  -8   11.00    5.10
   0  -5   8    8.20    2.20
   0  -5   8    7.60    1.90
  -1   5  -8   31.80    7.10
   1  -5   8   45.10    3.60
   1  -5   8   28.80    2.90
  -2   5  -8  116.09    6.40
  -2   5  -8  133.19   13.30
  -3   5  -8   43.80    6.10
  -3   5  -8   38.60    8.30
  -4   5  -8    7.80    5.10
  -4   5  -8    3.40    6.40
  -5   5  -8   -1.30    8.40
  -5   5  -8   19.50    6.50
   5   4  -8   36.60    9.10
  -5  -4   8   28.30    7.90
   4   4  -8   18.40    6.70
  -4  -4   8    9.70    6.40
   3   4  -8   14.20    6.20
  -3  -4   8   15.70    5.00
   2   4  -8   17.30    5.10
   2   4  -8   27.80    5.50
  -2  -4   8   22.00    4.50
   1   4  -8  216.68   14.90
  -1  -4   8  207.48    8.60
  -1  -4   8  219.18    8.10
   0   4  -8   30.60    6.70
  -1   4  -8   31.90    7.00
  -2   4  -8   81.49   11.80
  -2   4  -8   97.49    6.00
   2  -4   8   84.79    5.60
  -3   4  -8   43.50    5.40
  -3   4  -8   55.99   10.20
   3  -4   8   50.39    6.70
  -4   4  -8    8.40    6.30
  -4   4  -8   17.70    6.30
  -5   4  -8    2.10    6.10
  -5   4  -8   17.10    9.30
   5   3  -8   46.00    9.20
  -5  -3   8   44.70    9.70
   4   3  -8   -2.10    4.50
  -4  -3   8   -0.10    3.90
   3   3  -8   52.79    8.40
  -3  -3   8   55.09    7.80
   2   3  -8   44.90    6.00
   2   3  -8   34.00    7.40
  -2  -3   8   37.20    5.60
   1   3  -8  179.48   15.90
  -1  -3   8  139.39    5.70
   0   3  -8  425.16   20.60
  -1   3  -8   31.90    7.60
  -2   3  -8   70.69   10.10
  -2   3  -8   73.49    5.60
  -3   3  -8   14.70    6.70
  -3   3  -8   19.50    4.40
   3  -3   8    3.40    4.80
  -4   3  -8   26.30    9.10
  -5   3  -8   22.60    6.60
  -5   3  -8    0.10    7.00
   5   2  -8   33.30    7.90
  -5  -2   8   22.50    7.30
   4   2  -8  169.88   14.00
  -4  -2   8  166.98   12.60
   3   2  -8   35.00    6.80
  -3  -2   8   53.79    8.10
   2   2  -8   54.99    6.30
   2   2  -8   44.10    7.30
  -2  -2   8   50.99    6.10
   1   2  -8  488.35   13.30
   1   2  -8  492.85   21.20
  -1  -2   8  465.25   11.50
  -1   2  -8  240.28   15.90
  -2   2  -8   42.80    8.80
  -3   2  -8   89.09   13.10
  -3   2  -8   96.59    7.50
   3  -2   8   91.89    9.50
  -4   2  -8    6.50    5.80
  -4   2  -8   26.10    6.20
  -5   2  -8   16.00    6.10
  -5   2  -8   18.00    7.30
   5   1  -8    0.60    5.20
  -5  -1   8    5.40    5.60
   4   1  -8  114.49   10.50
  -4  -1   8  151.58   12.50
   3   1  -8   57.19    7.70
  -3  -1   8   75.49    9.50
  -3  -1   8   57.99    8.00
   2   1  -8   73.59    7.10
   2   1  -8   77.09    8.10
  -2  -1   8   65.39    6.50
  -2  -1   8   62.29    8.60
   1   1  -8   -0.90    1.90
   1   1  -8   -1.50    2.70
  -1  -1   8   -0.70    2.20
   0   1  -8  169.68   12.70
  -1   1  -8   65.69    9.70
  -2   1  -8    4.20    4.00
  -2   1  -8    3.40    2.10
  -2   1  -8    2.40    2.30
  -3   1  -8  115.69   12.90
  -3   1  -8  100.89    8.20
   3  -1   8  127.29   15.90
  -4   1  -8   71.29   12.00
  -4   1  -8   92.89    9.90
  -5   1  -8   11.50    6.10
  -5   1  -8    0.50    6.60
   5   0  -8   48.60    6.50
  -5   0   8   31.30    9.80
   4   0  -8   46.40    6.80
  -4   0   8   51.39    7.90
  -4   0   8   61.59   10.00
   3   0  -8   18.60    4.70
  -3   0   8   19.90    5.40
   2   0  -8    4.80    3.30
   2   0  -8    0.40    3.00
  -2   0   8    0.20    2.60
  -2   0   8    0.90    4.00
   1   0  -8    3.10    2.30
   1   0  -8   -0.50    2.70
  -1   0   8    1.70    3.80
  -1   0   8    1.10    2.10
   0   0  -8  240.98    7.40
   0   0  -8  229.48    7.50
   0   0  -8  269.07   15.60
  -1   0  -8    8.00    5.10
  -1   0  -8    3.80    2.00
  -2   0  -8   56.89    9.00
  -2   0  -8   71.59    6.00
  -2   0  -8   61.09    5.80
  -3   0  -8   30.20    7.50
  -3   0  -8   43.40    5.90
   3   0   8   28.50    7.40
  -4   0  -8   31.10    6.60
  -4   0  -8   20.90   11.90
  -5   0  -8    5.60    7.10
  -5   0  -8   12.90    6.20
  -5   1   8  103.29   13.20
   4  -1  -8  125.39    8.00
  -4   1   8  142.69    9.00
  -4   1   8  146.49   13.30
   3  -1  -8  138.69    9.40
  -3   1   8  136.39   10.00
  -3   1   8  146.09   13.70
   2  -1  -8    7.00    3.80
   2  -1  -8    4.90    3.20
  -2   1   8    1.80    2.80
   1  -1  -8  257.87   14.10
   1  -1  -8  278.57   11.30
  -1   1   8  275.27   11.10
  -1   1   8  241.98   14.60
   0  -1  -8  123.99    6.60
   0  -1  -8  133.79   12.50
   0  -1  -8  123.79    7.20
  -1  -1  -8   72.59    5.70
  -1  -1  -8   75.29    5.50
  -1  -1  -8   75.89   10.50
  -2  -1  -8  132.19    8.90
  -2  -1  -8  110.79   12.40
  -2  -1  -8  119.09    8.20
  -3  -1  -8   87.59    8.60
  -3  -1  -8   55.79    9.00
  -4  -1  -8   20.70    6.00
  -4  -1  -8   13.90    5.90
  -4   2   8    2.80    4.70
   3  -2  -8  149.19    8.70
   3  -2  -8  146.39    8.80
  -3   2   8  187.58   12.50
   2  -2  -8  435.56   18.10
   2  -2  -8  433.16   17.40
   2  -2  -8  469.35   17.80
  -2   2   8  461.05   17.60
   1  -2  -8    9.70    3.40
   1  -2  -8    7.80    3.90
   1  -2  -8    5.50    4.40
  -1   2   8   10.80    3.40
   0  -2  -8   61.09    6.60
   0  -2  -8   49.30    5.60
   0  -2  -8   64.99   10.30
  -1  -2  -8  189.58    9.80
  -1  -2  -8  200.28   10.40
  -1  -2  -8  199.08   14.80
  -2  -2  -8   64.29   10.80
  -2  -2  -8   64.99    7.80
  -2  -2  -8   67.59    7.60
  -3  -2  -8    1.90    4.00
  -3  -2  -8   -8.40    3.60
  -4  -2  -8   32.20    9.50
  -4  -2  -8   26.90    7.60
  -5   3   8    0.90    6.50
  -4   3   8   19.80    6.30
   3  -3  -8   57.89    5.10
   3  -3  -8   58.09    5.50
  -3   3   8   65.59    8.70
   2  -3  -8  269.77   13.60
   2  -3  -8  285.17   13.30
  -2   3   8  286.27   16.70
   1  -3  -8   81.19    7.80
   1  -3  -8   71.39    7.60
   1  -3  -8   96.59    9.70
  -1   3   8   87.39    8.00
   0  -3  -8   54.89    7.90
   0  -3  -8   62.29    7.10
   0  -3  -8   66.99   10.00
  -1  -3  -8  146.09   12.90
  -1  -3  -8  145.59    9.90
  -1  -3  -8  139.39    9.40
  -2  -3  -8   27.10    7.80
  -2  -3  -8   44.30    7.00
  -3  -3  -8   -3.20    3.80
  -3  -3  -8   -2.50    4.80
  -4  -3  -8   11.90    6.40
  -4  -3  -8    1.20    5.40
  -5   4   8    0.10    6.30
  -4   4   8   65.89   10.10
  -3   4   8  101.79   12.10
   2  -4  -8   29.50    6.20
   2  -4  -8   30.20    5.60
  -2   4   8   56.09    8.70
   1  -4  -8  127.99   10.30
  -1   4   8  147.39   12.50
   0  -4  -8  183.48   13.20
   0  -4  -8  159.48   12.40
  -1  -4  -8   37.80    9.00
  -2  -4  -8    5.40    4.20
  -2  -4  -8    5.10    5.50
  -3  -4  -8   85.49   13.80
  -3  -4  -8  108.89   11.30
  -4  -4  -8   16.00    6.80
  -4  -4  -8    3.30    7.50
  -3   5   8   11.50    5.10
   2  -5  -8   33.90    5.70
   2  -5  -8   35.50    6.50
  -2   5   8   45.70    8.90
   1  -5  -8   40.60    8.80
  -1   5   8   45.00    8.30
   0  -5  -8  413.76   21.20
   0  -5  -8  446.76   21.70
  -1  -5  -8   46.70    9.40
  -1  -5  -8   27.80    7.40
  -2  -5  -8  104.09   11.40
  -2  -5  -8  119.69   16.00
  -3  -5  -8   38.90    9.10
  -3  -5  -8   33.50    7.90
  -4   6   8   69.89   12.10
  -3   6   8   -5.30    5.70
   2  -6  -8    6.30    6.30
   2  -6  -8    8.30    4.30
  -2   6   8   18.50    6.50
   1  -6  -8  145.59   12.10
  -1   6   8  181.48   14.40
   0  -6  -8   12.10    6.00
   0  -6  -8    6.10    4.90
  -1  -6  -8   55.49    9.60
  -1  -6  -8   63.49   10.30
  -2  -6  -8   56.39   11.90
  -2  -6  -8   40.40    8.60
  -3  -6  -8   32.30    9.80
  -3   7   8   45.80    9.90
   2  -7  -8   39.40    7.00
  -2   7   8   46.70    9.20
   1  -7  -8   16.80    5.90
  -1   7   8   28.20    7.80
   0  -7  -8   45.30    9.40
   0  -7  -8   52.79   10.60
  -1  -7  -8   11.80    6.10
  -1  -7  -8   30.90    8.30
  -2  -7  -8   27.80    9.90
  -2  -7  -8   33.40   10.30
   2  -8  -8    5.40    5.00
  -2   8   8   11.70    7.80
   1  -8  -8   24.70    6.70
   0  -8  -8    8.90    6.00
  -1  -8  -8    7.40    6.40
  -1  -8  -8    2.30    6.40
   1  11  -9   26.30   10.40
  -1 -11   9   34.60   10.40
   0  11  -9   -3.90    6.50
   0 -11   9   -2.30    8.20
  -1  11  -9   18.40    9.10
   1 -11   9   29.70    9.60
   2  10  -9    8.00    8.30
  -2 -10   9   17.00    8.80
   1  10  -9    6.50    6.50
  -1 -10   9   22.30    7.30
   0  10  -9   26.30    9.10
   0 -10   9   46.10    8.30
  -1  10  -9    6.80    7.20
   1 -10   9    3.00    6.90
  -2  10  -9    3.00    7.50
   2 -10   9   -2.50    8.10
   3   9  -9   31.50    9.50
  -3  -9   9   27.70    7.60
   2   9  -9   19.70    7.10
  -2  -9   9    9.90    6.80
   1   9  -9   -7.70    6.10
  -1  -9   9    0.60    4.90
   0  -9   9   34.50    6.90
  -1   9  -9   38.90   14.10
   1  -9   9   23.60    8.70
   1  -9   9   42.80    7.90
  -2   9  -9   11.10    7.70
   2  -9   9  -13.60    6.90
  -3   9  -9   -6.60    5.90
  -3   9  -9    3.80    7.50
   3   8  -9  162.48   17.00
  -3  -8   9  161.08   13.60
   2   8  -9   10.80    6.60
  -2  -8   9   11.80    5.30
   1   8  -9    0.30    5.20
  -1  -8   9   -0.40    3.70
  -1  -8   9   11.00    6.30
   0   8  -9   35.60    8.40
   0  -8   9   37.40    6.40
   0  -8   9   24.80    6.80
  -1   8  -9   17.50    7.30
   1  -8   9   29.80    5.60
   1  -8   9   38.60    6.40
  -2   8  -9   15.90    6.50
   2  -8   9   -1.10    8.80
  -3   8  -9   11.90    8.10
  -3   8  -9   10.90    7.30
   4   7  -9   96.09   14.70
  -4  -7   9   59.49    9.80
   3   7  -9   31.20    7.60
  -3  -7   9   24.90    7.00
   2   7  -9  135.79   14.20
  -2  -7   9  108.99    9.20
   1   7  -9    2.70    4.60
  -1  -7   9   -0.60    3.50
  -1  -7   9    2.70    5.00
   0   7  -9   32.80    9.00
   0  -7   9   52.09    5.60
  -1   7  -9   53.49   10.60
   1  -7   9   51.09    5.70
   1  -7   9   49.80    6.10
  -2   7  -9   27.30    7.80
   2  -7   9    4.80    5.10
  -3   7  -9    0.90    4.60
  -3   7  -9    8.80    6.60
   3  -7   9   -9.10    8.20
  -4   7  -9   19.10    9.40
  -4   7  -9   12.90    6.70
   4   6  -9   11.60    7.10
  -4  -6   9    5.90    6.10
   3   6  -9   53.49   11.70
  -3  -6   9   42.40    6.60
   2   6  -9   91.09   13.50
  -2  -6   9  103.29    9.00
  -2  -6   9   74.19    8.80
   1   6  -9  241.38   17.50
  -1  -6   9  199.48    9.40
  -1  -6   9  204.48    9.60
   0   6  -9    8.00    5.10
   0  -6   9    3.50    2.30
  -1   6  -9   27.70    7.20
  -2   6  -9   28.00    8.20
   2  -6   9   29.50    4.60
  -3   6  -9   19.10    4.80
  -3   6  -9    7.60    6.50
   3  -6   9    9.30    6.90
  -4   6  -9   -4.80    5.20
  -4   6  -9    2.50    6.80
   4   5  -9   16.20    6.80
  -4  -5   9   -0.30    5.20
   3   5  -9    6.50    4.10
  -3  -5   9    3.20    4.70
   2   5  -9    4.90    7.20
   2   5  -9    4.20    4.60
  -2  -5   9   11.20    3.60
   1   5  -9  275.77   18.20
  -1  -5   9  238.38    8.60
  -1  -5   9  252.17    9.30
   0   5  -9   59.09    9.50
  -1   5  -9    1.40    4.10
  -2   5  -9   60.09   10.30
  -3   5  -9   14.30    3.80
  -3   5  -9   12.60    6.30
   3  -5   9    4.90    5.50
  -4   5  -9   -5.10    5.90
   5   4  -9   -0.70    6.90
   4   4  -9   75.29   11.20
  -4  -4   9   48.30    8.40
   3   4  -9    3.30    4.90
  -3  -4   9   -1.90    3.90
   2   4  -9  155.18   10.60
   2   4  -9  173.28   13.80
  -2  -4   9  174.88   10.00
   1   4  -9   21.00    6.50
  -1  -4   9   17.70    2.30
  -1  -4   9   12.80    2.30
   0   4  -9   35.60    7.70
  -1   4  -9  123.69   12.80
  -2   4  -9   46.70    9.70
  -3   4  -9   48.60    9.90
  -3   4  -9   33.50    4.60
   3  -4   9   28.40    6.10
  -4   4  -9   11.70    7.40
  -4   4  -9   -2.80    5.00
   5   3  -9   70.49   11.60
  -5  -3   9   67.79   11.40
   4   3  -9   33.80    7.50
  -4  -3   9   24.50    7.80
   3   3  -9  127.09   12.20
  -3  -3   9   86.99    9.20
   2   3  -9  178.68   10.30
   2   3  -9  184.28   14.20
   1   3  -9  116.09   11.50
   0   3  -9   53.89    9.60
  -1   3  -9  144.69   13.30
  -2   3  -9   56.89    9.90
  -3   3  -9   49.80    5.40
  -3   3  -9   64.29   11.70
   3  -3   9   57.09    7.00
  -4   3  -9    5.10    5.60
  -4   3  -9    7.70    6.10
   5   2  -9   19.10    7.20
  -5  -2   9   17.40    7.20
   4   2  -9   32.80    7.30
  -4  -2   9   29.50    7.50
   3   2  -9   36.10    7.40
  -3  -2   9   24.40    5.90
   2   2  -9   13.10    4.40
   2   2  -9    9.50    4.90
  -2  -2   9   23.50    4.70
   1   2  -9    0.30    3.90
   0   2  -9  179.98   13.40
  -1   2  -9   25.70    6.30
  -2   2  -9   48.30    9.00
  -3   2  -9   20.40    4.50
  -3   2  -9   22.00    7.30
   3  -2   9   17.00    5.60
  -4   2  -9   31.60    9.80
   5   1  -9   32.40   11.20
  -5  -1   9   14.40    6.70
   4   1  -9   10.20    5.10
  -4  -1   9   15.00    5.80
   3   1  -9   71.69    9.70
  -3  -1   9  105.29    9.10
   2   1  -9    9.00    4.20
   2   1  -9    6.50    4.40
  -2  -1   9   11.60    3.80
   1   1  -9   51.99    8.70
  -1  -1   9   57.09    3.90
   0   1  -9  150.58   13.10
  -1   1  -9    8.90    5.80
  -2   1  -9    8.90    5.20
  -2   1  -9    1.20    2.50
  -3   1  -9   38.40    9.10
  -3   1  -9   20.90    4.80
  -4   1  -9   53.49   12.00
  -4   1  -9   37.70    6.50
   5   0  -9   34.40    6.40
  -5   0   9   33.00    9.40
   4   0  -9  114.89    9.90
  -4   0   9   82.29    9.90
  -4   0   9  101.09   12.10
   3   0  -9  133.89   10.70
  -3   0   9  122.19   12.20
  -3   0   9  184.98   13.30
   2   0  -9   22.30    5.80
   2   0  -9    7.60    4.30
  -2   0   9   17.10    4.40
   1   0  -9  228.88    9.20
  -1   0   9  235.98    9.30
   0   0  -9   82.59    9.30
   0   0  -9   89.49    3.90
  -1   0  -9   97.99    4.20
  -1   0  -9   97.69    4.40
  -1   0  -9  104.69   11.30
  -2   0  -9   10.70    5.40
  -2   0  -9   21.70    3.80
  -2   0  -9   23.30    4.00
  -3   0  -9   51.29    7.20
  -3   0  -9   51.29   10.70
  -3   0  -9   57.09    7.60
  -4   0  -9   41.30    7.60
  -4   0  -9   28.20    9.30
   4  -1  -9  134.59    9.20
  -4   1   9  151.78   13.60
   3  -1  -9   10.70    4.50
  -3   1   9    2.50    5.80
  -3   1   9    9.70    4.90
   2  -1  -9  630.44   23.00
   2  -1  -9  557.74   20.30
  -2   1   9  513.25   22.50
  -2   1   9  587.14   19.00
   1  -1  -9   46.40    5.40
  -1   1   9   46.90    5.60
   0  -1  -9   -4.20    2.10
   0  -1  -9    2.10    2.30
   0  -1  -9    1.70    2.70
  -1  -1  -9  117.99    6.40
  -1  -1  -9  130.69   12.10
  -1  -1  -9  110.39    6.60
  -2  -1  -9   83.79    6.90
  -2  -1  -9   74.69    7.30
  -2  -1  -9   57.89   10.40
  -3  -1  -9   39.80    8.40
  -3  -1  -9   45.90    6.60
  -4  -1  -9    6.20    5.70
  -4  -1  -9    4.00    6.10
  -5   2   9   33.60    8.80
   4  -2  -9   -3.40    5.00
   4  -2  -9    0.60    3.40
  -4   2   9    1.10    5.40
   3  -2  -9   50.59    6.80
   3  -2  -9   65.79    7.10
  -3   2   9   71.69    8.80
   2  -2  -9   92.89    9.20
   2  -2  -9  108.29    9.30
  -2   2   9   93.89    8.30
   1  -2  -9   92.69   10.40
  -1   2   9  120.99    8.80
   0  -2  -9    2.00    3.20
   0  -2  -9    4.60    4.20
   0  -2  -9   -1.80    3.20
  -1  -2  -9    7.80    3.40
  -1  -2  -9    4.20    4.40
  -1  -2  -9   10.50    3.70
  -2  -2  -9   61.39    6.40
  -2  -2  -9   72.69    7.50
  -2  -2  -9   65.49   11.80
  -3  -2  -9    6.90    5.80
  -3  -2  -9   11.70    5.00
  -4  -2  -9   -6.60    5.30
  -4  -2  -9    6.20    7.30
  -4   3   9    9.70    5.90
   3  -3  -9   37.80    5.60
   3  -3  -9   26.30    5.40
  -3   3   9   41.30    7.90
   2  -3  -9   26.10    6.90
   2  -3  -9   32.80    5.90
  -2   3   9   33.80    6.10
   1  -3  -9   62.09    8.80
   1  -3  -9   63.69    9.50
  -1   3   9   71.99    7.90
   0  -3  -9  194.08   11.20
   0  -3  -9  198.68   14.40
   0  -3  -9  212.48   12.40
  -1  -3  -9   36.60    6.40
  -1  -3  -9   31.50    6.10
  -1  -3  -9   39.30    8.60
  -2  -3  -9   39.70    8.50
  -3  -3  -9    8.70    4.60
  -3  -3  -9    2.90    5.70
  -4   4   9   29.10    7.50
   3  -4  -9   -6.90    3.50
   3  -4  -9   -1.70    3.00
  -3   4   9   -3.40    4.90
   2  -4  -9   58.59    7.60
   2  -4  -9   50.39    7.60
  -2   4   9   75.29    9.80
   1  -4  -9   94.49    9.20
  -1   4   9   79.49    9.70
   0  -4  -9  188.08   14.20
  -1  -4  -9  105.39   10.00
  -1  -4  -9   72.49   11.40
  -2  -4  -9   20.60    6.70
  -2  -4  -9   19.90    5.80
  -3  -4  -9   49.00    7.60
  -3  -4  -9   43.60   11.10
  -4   5   9   33.20    8.20
  -3   5   9  102.19   12.30
   2  -5  -9    4.20    3.90
   2  -5  -9    0.50    5.20
  -2   5   9   -3.10    4.40
   1  -5  -9   78.19   10.70
  -1   5   9   85.69   10.70
   0  -5  -9   38.00    7.30
   0  -5  -9   27.10    6.90
  -1  -5  -9   58.09   10.10
  -1  -5  -9   55.49    9.70
  -2  -5  -9   29.90   10.40
  -2  -5  -9   39.80    7.70
  -3  -5  -9   21.10    7.70
  -3  -5  -9   37.80   11.00
  -3   6   9   60.99   12.20
   2  -6  -9   38.30    6.30
  -2   6   9   48.20    9.10
   1  -6  -9   19.60    6.00
  -1   6   9   32.00    7.70
   0  -6  -9   37.90    8.30
   0  -6  -9   16.60    6.80
  -1  -6  -9   25.20    7.80
  -1  -6  -9   41.10   10.30
  -2  -6  -9   14.80    8.10
  -2  -6  -9   22.80    6.50
   2  -7  -9   -2.00    4.70
   1  -7  -9   23.10    7.10
  -1   7   9   23.10    6.70
   0  -7  -9   32.10    8.70
   0  -7  -9   41.80    9.30
  -1  -7  -9   16.20    7.90
  -1  -7  -9   15.60    7.90
   1  10 -10   23.10    8.10
  -1 -10  10   18.90    7.30
   0  10 -10   -0.10    5.80
  -1  10 -10    6.70    9.00
   1 -10  10   26.50    8.30
   2   9 -10    9.90    7.30
  -2  -9  10   22.20    7.30
   1   9 -10   -0.20    6.40
  -1  -9  10   10.20    5.50
   0   9 -10   32.20    8.40
   0  -9  10   27.00   10.60
   0  -9  10   45.30    7.10
  -1   9 -10   34.20   11.10
   1  -9  10   28.70    7.10
  -2   9 -10   -8.50    8.00
   2  -9  10   -3.70    8.00
   3   8 -10   36.30   10.50
  -3  -8  10   32.90    7.60
   2   8 -10   34.70    9.50
  -2  -8  10   33.90    8.30
   1   8 -10   86.09   14.40
  -1  -8  10   70.39    7.80
  -1  -8  10   74.19   10.30
   0  -8  10   14.90    5.00
   0  -8  10    4.90    5.40
  -1   8 -10   14.10    7.00
   1  -8  10   23.50    5.60
   1  -8  10   25.30    5.30
  -2   8 -10    0.90    6.70
   2  -8  10    3.20    6.60
   2  -8  10  -12.40    7.00
  -3   8 -10  -17.80    7.20
  -3   8 -10   11.20    5.30
   3   7 -10   24.50    9.00
  -3  -7  10   22.30    6.50
   2   7 -10    3.70    6.00
  -2  -7  10    7.00    8.50
  -2  -7  10   12.60    5.10
   1   7 -10  196.88   17.20
  -1  -7  10  174.78    9.60
  -1  -7  10  172.88    9.40
   0   7 -10   41.00    9.00
   0  -7  10   65.49    4.90
  -1   7 -10    2.50    4.90
  -3   7 -10    7.40    8.00
  -3   7 -10    6.60    4.70
   4   6 -10   28.70    9.10
  -4  -6  10   16.80    8.70
   3   6 -10   28.50    7.40
  -3  -6  10   36.90    6.60
   2   6 -10   15.00    6.80
  -2  -6  10   13.00    4.40
  -2  -6  10    2.00    9.70
   1   6 -10    0.20    4.00
  -1  -6  10   -3.70    3.40
  -1  -6  10    0.00    3.30
   0   6 -10   57.29   10.10
  -1   6 -10   41.90    9.60
  -2   6 -10   10.70    7.10
  -3   6 -10   22.00    4.20
  -3   6 -10   23.00    8.80
   3  -6  10   21.30    8.30
  -4   6 -10    3.10    5.60
   4   5 -10    2.60    6.10
  -4  -5  10   -0.40    5.90
   3   5 -10   -7.70    6.00
   2   5 -10   47.60    9.60
  -2  -5  10   46.90    6.20
  -2  -5  10   43.80    7.00
   1   5 -10   13.40    5.60
  -1  -5  10    3.90    1.50
   0   5 -10   31.80    7.70
  -1   5 -10  159.28   15.60
  -2   5 -10   60.69   11.40
  -3   5 -10   -0.50    5.80
  -3   5 -10    3.90    3.30
   3  -5  10   -1.90    6.70
  -4   5 -10   -0.50    7.50
  -4   5 -10    1.70    5.10
   4   4 -10   13.80    7.00
  -4  -4  10    6.50    5.90
   3   4 -10  123.19   13.10
  -3  -4  10  107.69    9.10
   2   4 -10   68.19   10.40
   2   4 -10   53.59    6.60
  -2  -4  10   63.59    6.60
   1   4 -10   63.79   10.50
   0   4 -10  107.79   12.10
  -1   4 -10   20.60    7.80
  -2   4 -10   85.29   13.20
  -3   4 -10   10.10    3.50
  -4   4 -10   21.40    5.20
  -4   4 -10   13.60    6.90
   4   3 -10  -13.50    6.10
  -4  -3  10    4.80    5.60
   3   3 -10  125.79   12.80
  -3  -3  10  106.89    9.80
   2   3 -10   55.39    9.70
   2   3 -10   65.29    7.00
  -2  -3  10   61.89    6.40
   1   3 -10   63.09   10.70
   0   3 -10    6.60    5.30
  -1   3 -10   42.20    8.40
  -2   3 -10   36.00    8.20
  -3   3 -10    8.10    3.00
  -4   3 -10   16.20    8.60
  -4   3 -10   14.80    5.40
   4   2 -10   34.60    7.50
  -4  -2  10   37.20    8.10
   3   2 -10   18.50    5.70
  -3  -2  10   22.40    5.60
   2   2 -10   17.40    6.20
   2   2 -10   17.60    4.70
  -2  -2  10   22.60    4.30
   1   2 -10   -3.70    3.70
   0   2 -10    6.90    3.90
  -1   2 -10   76.19   11.20
  -2   2 -10    3.40    5.50
  -3   2 -10   30.60    4.20
  -3   2 -10   27.60    4.10
  -4   2 -10    4.80    6.30
  -4   2 -10   21.20    5.50
   5   1 -10   17.50    7.30
  -5  -1  10    5.00   12.20
   4   1 -10  137.89   12.50
  -4  -1  10  128.39   12.60
   3   1 -10  101.79   10.80
  -3  -1  10   79.59    8.60
   2   1 -10   83.69    8.20
   2   1 -10   82.69   10.80
  -2  -1  10   93.49    7.10
   1   1 -10    0.30    3.40
   0   1 -10  223.98   16.50
  -1   1 -10   30.30    7.70
  -2   1 -10   17.60    6.90
  -3   1 -10   37.30    5.80
  -3   1 -10   54.59   11.10
  -3   1 -10   47.60    6.00
  -4   1 -10   13.30    8.20
   4   0 -10   41.00    7.60
  -4   0  10   40.60    8.60
   3   0 -10   10.30    6.60
   2   0 -10   83.59   10.90
   2   0 -10  101.19    8.80
  -2   0  10   96.09    7.50
   1   0 -10  450.75   21.50
   1   0 -10  421.06   13.00
   0   0 -10   16.70    5.50
  -1   0 -10   17.10    6.60
  -2   0 -10   77.29    5.30
  -2   0 -10   72.69    5.70
  -2   0 -10   74.99   12.80
  -3   0 -10   22.60    6.70
  -3   0 -10   24.10    5.40
  -4   0 -10    8.30    8.50
  -4   0 -10    7.40    5.90
   4  -1 -10    6.20    5.00
  -4   1  10   11.30    6.00
   3  -1 -10   15.20    5.00
  -3   1  10   11.80    5.00
   2  -1 -10   96.39   10.00
   2  -1 -10   79.49    9.00
  -2   1  10   75.09    7.60
   1  -1 -10  220.48   10.60
   1  -1 -10  233.18   15.90
  -1   1  10  217.98   10.20
   0  -1 -10   24.80    3.90
   0  -1 -10   35.60    4.00
   0  -1 -10   25.50    7.30
  -1  -1 -10   15.10    6.30
  -1  -1 -10   16.50    3.30
  -1  -1 -10    6.00    2.80
  -2  -1 -10   74.19    6.60
  -2  -1 -10   61.59   11.80
  -2  -1 -10   69.89    7.20
  -3  -1 -10    8.50    4.70
  -3  -1 -10    8.40    6.20
   4  -2 -10    0.20    3.70
  -4   2  10   10.50    6.20
   3  -2 -10   59.49    7.90
   3  -2 -10   57.29    7.60
  -3   2  10   72.19    8.90
  -2   2  10   78.29    8.50
   1  -2 -10   16.20    5.70
  -1   2  10   17.10    4.90
   0  -2 -10   81.39    7.20
   0  -2 -10   75.09   11.20
   0  -2 -10   81.39    6.70
  -1  -2 -10  114.19    8.20
  -1  -2 -10  134.49    8.50
  -1  -2 -10  116.89   13.00
  -2  -2 -10    6.90    6.00
  -2  -2 -10    9.50    5.00
  -2  -2 -10    9.60    4.10
  -3  -2 -10   19.20    6.80
  -3  -2 -10    3.50    6.00
  -4   3  10   53.49    9.60
   3  -3 -10   20.20    5.40
  -3   3  10   27.10    6.60
   2  -3 -10   11.60    6.40
  -2   3  10   -1.60    4.10
   1  -3 -10   33.50    6.50
  -1   3  10   34.60    6.60
   0  -3 -10   28.40    5.70
   0  -3 -10   19.80    5.70
   0  -3 -10   47.00    9.50
  -1  -3 -10  223.28   12.50
  -1  -3 -10  239.48   17.40
  -1  -3 -10  238.48   13.20
  -2  -3 -10   30.20    7.70
  -2  -3 -10   22.60    8.70
  -3  -3 -10   32.20    9.90
  -3  -3 -10   30.00    7.20
   3  -4 -10   36.20    5.60
  -3   4  10   38.00    8.60
  -2   4  10   16.30    5.90
   1  -4 -10   15.40    5.50
  -1   4  10   15.40    6.30
   0  -4 -10  159.28   11.90
   0  -4 -10  120.29   12.20
  -1  -4 -10    8.20    5.30
  -1  -4 -10    4.90    4.80
  -2  -4 -10   24.40    7.70
  -2  -4 -10   27.30    7.60
   3  -5 -10   29.30    5.00
  -3   5  10   40.50    8.00
  -2   5  10   66.69    8.80
   1  -5 -10   57.69    9.70
  -1   5  10   36.90    8.20
   0  -5 -10   31.20    7.50
   0  -5 -10    8.60    5.30
  -1  -5 -10   34.90    6.70
  -2  -5 -10   22.00    6.10
  -2  -5 -10    5.40    7.30
   2  -6 -10   27.50    6.60
  -2   6  10   14.70    7.30
   1  -6 -10    1.50    4.80
   0  -6 -10   26.30    7.40
   0  -6 -10    6.90    5.90
  -1  -6 -10   16.80    7.00
  -1  -6 -10    8.00    5.90
   2   9 -11   -3.00    7.70
  -2  -9  11   -4.20    7.00
   1   9 -11   27.80    9.60
  -1  -9  11   45.30    7.30
   0   9 -11   -0.50    7.10
   0  -9  11    1.00    5.50
  -1   9 -11   11.10    8.60
   2   8 -11   17.70    8.30
  -2  -8  11    7.40    6.60
   1   8 -11   29.70    9.70
  -1  -8  11   30.60    5.80
   0   8 -11  180.38   16.40
  -1   8 -11    2.80    7.50
  -2   8 -11    4.90    8.00
   3   7 -11   10.10    7.80
  -3  -7  11    8.30    6.80
   2   7 -11    0.10    6.70
  -2  -7  11   -3.10    5.40
   1   7 -11    5.00    6.80
  -1  -7  11   11.30    5.80
   0   7 -11   97.59   14.50
  -1   7 -11   21.80    8.50
  -2   7 -11   -5.20    6.70
  -3   7 -11   20.60    9.80
   3   6 -11   56.39   12.20
  -3  -6  11   72.89    9.00
   2   6 -11   -2.40    4.80
  -2  -6  11   -1.90    6.30
  -2  -6  11   -4.40    4.50
   1   6 -11   41.80    8.20
   0   6 -11   12.30    6.30
  -2   6 -11   30.30    8.10
  -3   6 -11    8.50    8.30
  -4  -5  11   53.89    9.60
   3   5 -11   33.80    7.90
  -3  -5  11   33.40    7.30
   2   5 -11   59.99   11.00
  -2  -5  11   55.79    6.00
  -2  -5  11   56.49    6.60
   1   5 -11   32.80    8.10
   0   5 -11   25.80    8.80
  -1   5 -11   58.89   11.50
  -2   5 -11   53.59   10.80
  -3   5 -11    2.00    6.60
   4   4 -11    0.70    6.90
  -4  -4  11    6.70    6.90
   3   4 -11    8.50    6.50
  -3  -4  11   11.90    6.30
   2   4 -11   48.00    9.50
  -2  -4  11   41.20    5.30
   1   4 -11    2.80    4.90
   0   4 -11    0.90    3.60
  -1   4 -11   78.39   13.40
  -2   4 -11   21.30   10.70
  -3   4 -11   21.50    8.90
   4   3 -11   -2.30    6.00
  -4  -3  11    8.50    7.00
   3   3 -11    6.00    5.10
  -3  -3  11   12.30    5.40
   2   3 -11   86.29    6.90
   2   3 -11   79.49   10.80
  -2  -3  11   76.99    6.30
   1   3 -11   -1.40    4.90
   0   3 -11   30.70    8.50
  -1   3 -11   19.80    7.80
  -3   3 -11    3.80    7.30
   4   2 -11   16.70    7.70
  -4  -2  11   30.70    8.10
   3   2 -11  116.39   12.50
  -3  -2  11  105.79    9.90
   2   2 -11  117.39    7.90
   2   2 -11  107.09   11.50
  -2  -2  11  114.29    7.20
   1   2 -11   31.30    6.80
   0   2 -11   33.70    8.00
  -1   2 -11   31.30    9.30
  -2   2 -11   56.49   17.80
  -3   2 -11    5.30    6.60
   4   1 -11   43.50    8.80
  -4  -1  11   34.60    7.80
   3   1 -11   88.79   11.60
  -3  -1  11  126.49   10.40
   2   1 -11   -4.80    4.40
   2   1 -11    2.20    4.30
  -2  -1  11   -0.50    3.70
   1   1 -11  360.26   21.30
   0   1 -11   22.30    7.50
  -1   1 -11    3.50    4.10
  -3   1 -11   28.80    4.50
  -3   1 -11   49.20   10.50
   4   0 -11   53.89    9.20
  -4   0  11   67.49   10.50
   3   0 -11   -7.10    4.50
  -3   0  11    5.10    5.60
   2   0 -11   37.40    8.20
   2   0 -11   42.60    6.90
  -2   0  11   32.70    5.50
   1   0 -11   58.99    9.60
   0   0 -11  132.09   13.20
  -1   0 -11   10.70    6.10
  -2   0 -11    7.30    5.40
  -3   0 -11   43.60    9.60
  -3   0 -11   16.80    4.70
   4  -1 -11    6.20    5.90
  -4   1  11  -11.30    6.40
   3  -1 -11   22.20    6.70
  -3   1  11   11.10    5.60
   2  -1 -11   55.89    8.80
  -2   1  11   59.49    7.70
   1  -1 -11   46.10    8.80
   1  -1 -11   35.10    5.00
   0  -1 -11   26.80    7.00
  -1  -1 -11   85.09   13.30
  -2  -1 -11    8.50    4.00
  -2  -1 -11    2.10    4.90
  -2  -1 -11   15.30    7.70
  -3  -1 -11   10.90    5.40
  -3  -1 -11   -2.40    6.60
   4  -2 -11   14.90    9.60
  -4   2  11    8.10    7.00
   3  -2 -11   34.70    7.70
  -3   2  11   58.19    8.80
   2  -2 -11    3.70    5.10
  -2   2  11    4.00    4.80
   1  -2 -11   40.00    8.60
   0  -2 -11   47.70    9.60
   0  -2 -11   45.40    5.80
   0  -2 -11   49.60    5.30
  -1  -2 -11   58.49    6.50
  -1  -2 -11   66.89    7.10
  -1  -2 -11   71.99   13.10
  -2  -2 -11   50.59    6.40
  -2  -2 -11   40.90   10.00
   3  -3 -11   39.50    7.10
  -3   3  11   34.60    8.50
   2  -3 -11  112.59   11.10
  -2   3  11  115.49   10.80
   1  -3 -11    1.70    4.60
   0  -3 -11   34.80    6.60
   0  -3 -11   42.10    8.80
   0  -3 -11   40.30    7.30
  -1  -3 -11   37.90    6.10
  -2  -3 -11   18.90    6.80
   3  -4 -11   62.19    7.40
  -3   4  11   63.09    9.90
   2  -4 -11   49.70    8.20
  -2   4  11   39.90    8.20
   1  -4 -11   36.70    7.20
   1  -4 -11   42.70    8.30
   0  -4 -11   30.20    6.60
   0  -4 -11   22.50    6.80
  -1  -4 -11   13.00    6.80
  -1  -4 -11   16.30    5.80
   2  -5 -11   -2.80    5.50
  -2   5  11   -2.70    6.40
   1  -5 -11    3.10    6.60
   1  -5 -11   15.80    5.60
   0  -5 -11   38.40    7.80
   0  -5 -11   31.20    7.50
  -1  -5 -11   24.80    7.60
  -1  -5 -11   18.00    8.30
   1   8 -12   12.30    8.30
   0   8 -12   10.80    7.40
  -1   8 -12   22.50    8.20
   2   7 -12   -4.30    6.70
  -2  -7  12   -3.50    6.10
   1   7 -12   19.20    8.50
   0   7 -12   16.20    8.90
  -1   7 -12    6.50    6.80
  -2   7 -12    4.10    8.00
   3   6 -12   26.60    8.90
  -3  -6  12   22.70    7.80
   2   6 -12   54.59    9.80
   1   6 -12    8.20    6.50
   0   6 -12   51.39   11.00
  -1   6 -12   17.70    8.10
  -2   6 -12    9.20    7.20
   3   5 -12    1.30    6.40
  -3  -5  12    1.90    6.70
   0   5 -12   22.30    7.60
  -1   5 -12    8.50    6.60
  -2   5 -12    9.10    6.80
   3   4 -12   42.10   10.20
  -3  -4  12   37.40    7.10
   2   4 -12   12.80    7.40
   1   4 -12   11.80    6.20
   0   4 -12    0.80    6.20
  -1   4 -12    8.00    6.30
  -2   4 -12   16.20    8.40
  -3   4 -12   13.90    7.90
   3   3 -12   61.59   10.70
  -3  -3  12   68.99    7.90
   2   3 -12   62.79   11.10
   1   3 -12   30.90    8.40
   0   3 -12   -0.30    5.50
  -1   3 -12   88.29   13.80
  -2   3 -12   10.50    7.70
  -3   3 -12    5.40    8.20
   3   2 -12   40.30    8.70
  -3  -2  12   23.10    6.10
   2   2 -12   37.60    8.70
   1   2 -12   46.40   10.30
   0   2 -12  169.78   17.10
  -1   2 -12   13.60    9.40
  -2   2 -12    7.80    6.50
  -3   2 -12   22.40    9.20
   3   1 -12    5.90    6.10
  -3  -1  12   13.40    6.70
   2   1 -12   11.70    4.90
   2   1 -12    7.30    5.60
  -2  -1  12    9.20    4.30
   1   1 -12   59.89   10.20
   0   1 -12  107.69   15.70
  -1   1 -12   14.00    8.90
  -2   1 -12    3.00    5.40
   3   0 -12   -4.90    5.90
   2   0 -12   49.10    9.20
  -2   0  12   34.80    5.60
   1   0 -12   45.20    8.60
   0   0 -12   16.00    5.20
  -1   0 -12   42.80   10.30
  -2   0 -12   70.39   13.20
   3  -1 -12   23.80    7.10
  -3   1  12   44.60    8.30
   2  -1 -12   20.20    7.30
  -2   1  12   18.00    6.30
   1  -1 -12   -9.20    3.30
   1  -1 -12   -4.10    3.80
   1  -1 -12   -0.10    5.40
   0  -1 -12   13.50    6.10
  -1  -1 -12   29.60    8.20
  -2  -1 -12   70.69   12.10
   3  -2 -12    1.50    6.10
  -3   2  12   17.60    7.90
   2  -2 -12   22.00    7.20
  -2   2  12   28.60    7.20
   1  -2 -12    7.60    4.50
   1  -2 -12    9.80    6.50
   0  -2 -12    7.80    4.00
   0  -2 -12    6.10    5.30
  -1  -2 -12   66.29   11.20
  -1  -2 -12   68.79    6.60
  -2  -2 -12   10.30    6.00
  -2  -2 -12   -0.30    7.10
   2  -3 -12   56.29   10.10
  -2   3  12   51.89    8.10
   1  -3 -12   45.80    8.30
   1  -3 -12   41.50    8.80
   0  -3 -12   17.50    5.50
  -1  -3 -12   12.50    5.40
  -1  -3 -12   15.70    6.70
   1  -4 -12   27.40    7.70
   1  -4 -12   26.70    6.90
   0  -4 -12   -3.50    5.60
   0  -4 -12   11.10    6.00
   0   7 -13    4.60    7.80
   1   6 -13   29.80   11.10
   0   6 -13   15.50    9.30
  -1   6 -13    9.30    9.70
   2   5 -13    2.70    7.10
   1   5 -13   31.20    9.50
   0   5 -13   -9.60    6.60
  -1   5 -13   35.90   11.60
   2   4 -13   62.09   12.20
   1   4 -13   30.00    8.70
   0   4 -13   13.30    7.30
  -1   4 -13    5.00    7.00
  -2   4 -13    9.50    8.80
   1   3 -13    0.30    7.60
   0   3 -13  116.89   18.50
  -1   3 -13   18.20    8.00
  -2   3 -13    9.30    7.90
   2   2 -13    8.80    6.50
   0   2 -13   25.10    8.00
  -1   2 -13   60.99   12.10
  -2   2 -13    4.70    8.20
   2   1 -13    8.00    7.10
   1   1 -13   35.20    8.80
   0   1 -13   23.30    8.70
  -1   1 -13   11.70    8.00
   2   0 -13   37.20    8.80
   1   0 -13    7.60    6.40
   0   0 -13   14.90    8.30
  -1   0 -13   13.70    7.30
   2  -1 -13   43.80    8.80
   1  -1 -13   43.70    9.40
   0  -1 -13    5.70    6.80
  -1  -1 -13   13.20    6.80
   1  -2 -13   14.60    7.90
   0  -2 -13   15.20    6.80
   0   0   0    0.00    0.00

_computing_structure_solution     'SHELXT 2014/5 (Sheldrick, 2014)'
;
_shelx_hkl_checksum                11296
_olex2_submission_special_instructions  'No special instructions were received'
