 
data_OAV-499_auto_a
 
_audit_creation_method            'SHELXL-2019/3'
_shelx_SHELXL_version_number      '2019/3'
_chemical_name_systematic         ?
_chemical_name_common             ?
_chemical_melting_point           ?
_chemical_formula_moiety          ?
_chemical_formula_sum
 'C21 H26 Eu N15 O10' 
_chemical_formula_weight          800.53

loop_
 _atom_type_symbol
 _atom_type_description
 _atom_type_scat_dispersion_real
 _atom_type_scat_dispersion_imag
 _atom_type_scat_source
 'C'  'C'   0.0033   0.0016
 'International Tables Vol C Tables 4.2.6.8 and 6.1.1.4'
 'H'  'H'   0.0000   0.0000
 'International Tables Vol C Tables 4.2.6.8 and 6.1.1.4'
 'N'  'N'   0.0061   0.0033
 'International Tables Vol C Tables 4.2.6.8 and 6.1.1.4'
 'O'  'O'   0.0106   0.0060
 'International Tables Vol C Tables 4.2.6.8 and 6.1.1.4'
 'Eu'  'Eu'  -0.1578   3.6682
 'International Tables Vol C Tables 4.2.6.8 and 6.1.1.4'
 
_space_group_crystal_system       triclinic
_space_group_IT_number            2
_space_group_name_H-M_alt         'P -1'
_space_group_name_Hall            '-P 1'
 
_shelx_space_group_comment
;
The symmetry employed for this shelxl refinement is uniquely defined
by the following loop, which should always be used as a source of
symmetry information in preference to the above space-group names.
They are only intended as comments.
;
 
loop_
 _space_group_symop_operation_xyz
 'x, y, z'
 '-x, -y, -z'
 
_cell_length_a                    5.99930(10)
_cell_length_b                    15.8706(4)
_cell_length_c                    16.3137(3)
_cell_angle_alpha                 102.853(2)
_cell_angle_beta                  97.633(2)
_cell_angle_gamma                 96.888(2)
_cell_volume                      1482.86(5)
_cell_formula_units_Z             2
_cell_measurement_temperature     295(2)
_cell_measurement_reflns_used     ?
_cell_measurement_theta_min       ?
_cell_measurement_theta_max       ?
 
_exptl_crystal_description        ?
_exptl_crystal_colour             ?
_exptl_crystal_density_meas       ?
_exptl_crystal_density_method     ?
_exptl_crystal_density_diffrn     1.793          
_exptl_crystal_F_000              800
_exptl_transmission_factor_min    ?
_exptl_transmission_factor_max    ?
_exptl_crystal_size_max           ?
_exptl_crystal_size_mid           ?
_exptl_crystal_size_min           ?
_exptl_absorpt_coefficient_mu     2.195
_shelx_estimated_absorpt_T_min    ?
_shelx_estimated_absorpt_T_max    ?
_exptl_absorpt_correction_type    ?
_exptl_absorpt_correction_T_min   ?
_exptl_absorpt_correction_T_max   ?
_exptl_absorpt_process_details    ?
_exptl_absorpt_special_details    ?
_diffrn_ambient_temperature       295(2)
_diffrn_radiation_wavelength      0.71073
_diffrn_radiation_type            MoK\a
_diffrn_source                    ?
_diffrn_measurement_device_type   ?
_diffrn_measurement_method        ?
_diffrn_detector_area_resol_mean  ?
_diffrn_reflns_number             13183
_diffrn_reflns_av_unetI/netI      0.0384
_diffrn_reflns_av_R_equivalents   0.0244
_diffrn_reflns_limit_h_min        -8
_diffrn_reflns_limit_h_max        8
_diffrn_reflns_limit_k_min        -21
_diffrn_reflns_limit_k_max        15
_diffrn_reflns_limit_l_min        -22
_diffrn_reflns_limit_l_max        19
_diffrn_reflns_theta_min          2.073
_diffrn_reflns_theta_max          29.084
_diffrn_reflns_theta_full         25.242
_diffrn_measured_fraction_theta_max   0.833
_diffrn_measured_fraction_theta_full  0.999
_diffrn_reflns_Laue_measured_fraction_max    0.833
_diffrn_reflns_Laue_measured_fraction_full   0.999
_diffrn_reflns_point_group_measured_fraction_max   0.833
_diffrn_reflns_point_group_measured_fraction_full  0.999
_reflns_number_total              6624
_reflns_number_gt                 6122
_reflns_threshold_expression      'I > 2\s(I)'
_reflns_Friedel_coverage          0.000
_reflns_Friedel_fraction_max      .
_reflns_Friedel_fraction_full     .
 
_reflns_special_details
;
 Reflections were merged by SHELXL according to the crystal
 class for the calculation of statistics and refinement.
 
 _reflns_Friedel_fraction is defined as the number of unique
 Friedel pairs measured divided by the number that would be
 possible theoretically, ignoring centric projections and
 systematic absences.
;
 
_computing_data_collection        ?
_computing_cell_refinement        ?
_computing_data_reduction         ?
_computing_structure_solution     'SHELXT 2018/2 (Sheldrick, 2018)'
_computing_structure_refinement 'SHELXL-2019/2 (Sheldrick, 2019)'
_computing_molecular_graphics     ?
_computing_publication_material   ?
_refine_special_details           ?
_refine_ls_structure_factor_coef  Fsqd
_refine_ls_matrix_type            full
_refine_ls_weighting_scheme       calc
_refine_ls_weighting_details
'w=1/[\s^2^(Fo^2^)+(0.0249P)^2^+0.3091P] where P=(Fo^2^+2Fc^2^)/3'
_atom_sites_solution_primary      ?
_atom_sites_solution_secondary    ?
_atom_sites_solution_hydrogens    mixed
_refine_ls_hydrogen_treatment     mixed
_refine_ls_extinction_method      none
_refine_ls_extinction_coef        .
_refine_ls_number_reflns          6624
_refine_ls_number_parameters      451
_refine_ls_number_restraints      0
_refine_ls_R_factor_all           0.0294
_refine_ls_R_factor_gt            0.0256
_refine_ls_wR_factor_ref          0.0564
_refine_ls_wR_factor_gt           0.0551
_refine_ls_goodness_of_fit_ref    1.043
_refine_ls_restrained_S_all       1.043
_refine_ls_shift/su_max           0.001
_refine_ls_shift/su_mean          0.000
 
loop_
 _atom_site_label
 _atom_site_type_symbol
 _atom_site_fract_x
 _atom_site_fract_y
 _atom_site_fract_z
 _atom_site_U_iso_or_equiv
 _atom_site_adp_type
 _atom_site_occupancy
 _atom_site_site_symmetry_order  
 _atom_site_calc_flag
 _atom_site_refinement_flags_posn
 _atom_site_refinement_flags_adp
 _atom_site_refinement_flags_occupancy
 _atom_site_disorder_assembly
 _atom_site_disorder_group
Eu1 Eu -0.08775(2) 0.28284(2) 0.82099(2) 0.01833(5) Uani 1 1 d . . . . .
O1 O 0.2532(3) 0.39379(14) 0.88622(13) 0.0286(4) Uani 1 1 d . . . . .
H5 H 0.263(6) 0.415(2) 0.934(2) 0.043 Uiso 1 1 d . U . . .
H6 H 0.356(6) 0.369(2) 0.873(2) 0.043 Uiso 1 1 d . U . . .
O3 O -0.2163(3) 0.14094(13) 0.83633(12) 0.0280(4) Uani 1 1 d . . . . .
O4 O -0.1441(3) 0.01004(13) 0.84908(13) 0.0334(5) Uani 1 1 d . . . . .
O5 O 0.1572(3) 0.19614(12) 0.75194(11) 0.0245(4) Uani 1 1 d . . . . .
O6 O 0.5051(3) 0.26658(13) 0.81233(11) 0.0265(4) Uani 1 1 d . . . . .
O7 O -0.2255(3) 0.41824(13) 0.80364(11) 0.0321(5) Uani 1 1 d . . . . .
O8 O -0.3326(4) 0.50615(15) 0.72112(13) 0.0422(5) Uani 1 1 d . . . . .
O9 O -0.6349(5) 0.55717(19) 0.83122(18) 0.0536(7) Uani 1 1 d . . . . .
H1D H -0.681(8) 0.518(3) 0.844(3) 0.080 Uiso 1 1 d . U . . .
H1E H -0.575(8) 0.545(3) 0.800(3) 0.080 Uiso 1 1 d . U . . .
O10 O -0.1825(4) 0.35168(15) 0.95980(12) 0.0332(5) Uani 1 1 d . . . . .
H1 H -0.288(6) 0.332(2) 0.976(2) 0.050 Uiso 1 1 d . U . . .
H1A H -0.080(6) 0.370(2) 0.997(2) 0.050 Uiso 1 1 d . U . . .
O11 O 0.2251(5) 0.43786(19) 1.05585(15) 0.0492(7) Uani 1 1 d . . . . .
H1C H 0.313(8) 0.422(3) 1.075(3) 0.074 Uiso 1 1 d . U . . .
H1B H 0.206(7) 0.484(3) 1.087(3) 0.074 Uiso 1 1 d . U . . .
N1 N 0.1674(4) 0.38619(15) 0.59328(14) 0.0273(5) Uani 1 1 d . . . . .
N2 N 0.3862(5) 0.0373(2) 0.33395(15) 0.0474(7) Uani 1 1 d . . . . .
H2A H 0.289224 0.014509 0.288260 0.057 Uiso 1 1 calc R U . . .
N3 N 0.7285(4) 0.17019(16) 0.59727(13) 0.0276(5) Uani 1 1 d . . . . .
N4 N 0.0617(4) 0.35400(15) 0.70310(13) 0.0270(5) Uani 1 1 d . . . . .
N5 N 0.3749(4) 0.24794(15) 0.99003(14) 0.0265(5) Uani 1 1 d . . . . .
N6 N 0.5279(4) 0.12843(15) 0.54911(13) 0.0260(5) Uani 1 1 d . . . . .
N7 N 0.1765(4) 0.22284(15) 0.93935(13) 0.0248(5) Uani 1 1 d . . . . .
N8 N 0.4368(4) 0.17423(14) 1.00885(13) 0.0232(5) Uani 1 1 d . . . . .
N9 N 0.2386(4) 0.42843(16) 0.46968(14) 0.0319(5) Uani 1 1 d . . . . .
N10 N 0.3250(4) 0.0624(2) 0.41180(15) 0.0480(8) Uani 1 1 d . . . . .
N11 N 0.3813(4) 0.40879(16) 0.41302(14) 0.0318(5) Uani 1 1 d . . . . .
H11 H 0.385314 0.430983 0.369608 0.038 Uiso 1 1 calc R U . . .
N12 N 0.6827(3) 0.20090(15) 0.67335(12) 0.0232(5) Uani 1 1 d . . . . .
N13 N 0.9258(4) 0.12605(16) 1.11189(14) 0.0286(5) Uani 1 1 d . . . . .
H13 H 1.016959 0.090148 1.121397 0.034 Uiso 1 1 calc R U . . .
N14 N 0.7301(4) 0.10269(15) 1.05533(14) 0.0272(5) Uani 1 1 d . . . . .
N16 N 0.1988(4) 0.33467(16) 0.64856(14) 0.0304(5) Uani 1 1 d . . . . .
C1 C 0.6475(4) 0.17651(17) 1.06158(16) 0.0234(5) Uani 1 1 d . . . . .
C2 C 0.7817(5) 0.24760(19) 1.12012(17) 0.0326(6) Uani 1 1 d . . . . .
H2 H 0.756053 0.305293 1.134469 0.039 Uiso 1 1 calc R U . . .
C3 C 0.9627(5) 0.2114(2) 1.15172(18) 0.0319(6) Uani 1 1 d . . . . .
C4 C 0.2814(4) 0.10353(18) 0.96993(17) 0.0264(6) Uani 1 1 d . . . . .
H4 H 0.285971 0.045790 0.972498 0.032 Uiso 1 1 calc R U . . .
C5 C 0.1156(4) 0.13550(17) 0.92586(15) 0.0215(5) Uani 1 1 d . . . . .
C6 C 1.1696(6) 0.2516(3) 1.2171(2) 0.0590(10) Uani 1 1 d . . . . .
H6A H 1.181044 0.314164 1.229875 0.088 Uiso 1 1 calc R U . . .
H6B H 1.302745 0.234648 1.195294 0.088 Uiso 1 1 calc R U . . .
H6C H 1.157631 0.231800 1.268048 0.088 Uiso 1 1 calc R U . . .
C7 C -0.0983(4) 0.09078(18) 0.86668(16) 0.0236(5) Uani 1 1 d . . . . .
C10 C 0.3649(4) 0.21561(17) 0.75179(15) 0.0212(5) Uani 1 1 d . . . . .
C11 C -0.2192(5) 0.45036(19) 0.73911(17) 0.0305(6) Uani 1 1 d . . . . .
C12 C -0.0560(5) 0.41693(18) 0.68381(16) 0.0264(6) Uani 1 1 d . . . . .
C13 C 0.0113(5) 0.43771(19) 0.61303(17) 0.0303(6) Uani 1 1 d . . . . .
H13A H -0.039797 0.478441 0.584878 0.036 Uiso 1 1 calc R U . . .
C14 C 0.5221(5) 0.09324(19) 0.46100(16) 0.0283(6) Uani 1 1 d . . . . .
C15 C 0.7057(5) 0.0889(2) 0.41797(17) 0.0355(7) Uani 1 1 d . . . . .
H15 H 0.859121 0.107269 0.440406 0.043 Uiso 1 1 calc R U . . .
C16 C 0.6100(5) 0.0512(2) 0.33459(18) 0.0360(7) Uani 1 1 d . . . . .
C17 C 0.2914(4) 0.38090(19) 0.52458(16) 0.0269(6) Uani 1 1 d . . . . .
C18 C 0.5157(5) 0.3515(2) 0.43097(17) 0.0318(6) Uani 1 1 d . . . . .
C19 C 0.4605(5) 0.3319(2) 0.50491(18) 0.0316(6) Uani 1 1 d . . . . .
H19 H 0.523135 0.294367 0.534604 0.038 Uiso 1 1 calc R U . . .
C20 C 0.7115(6) 0.0280(3) 0.2563(2) 0.0574(10) Uani 1 1 d . . . . .
H20A H 0.874290 0.042268 0.270459 0.086 Uiso 1 1 calc R U . . .
H20B H 0.656404 0.060250 0.216618 0.086 Uiso 1 1 calc R U . . .
H20C H 0.669832 -0.033539 0.231074 0.086 Uiso 1 1 calc R U . . .
C21 C 0.6837(5) 0.3207(2) 0.3765(2) 0.0466(8) Uani 1 1 d . . . . .
H21A H 0.649672 0.258257 0.355812 0.070 Uiso 1 1 calc R U . . .
H21B H 0.834029 0.336372 0.409472 0.070 Uiso 1 1 calc R U . . .
H21C H 0.676070 0.347498 0.329196 0.070 Uiso 1 1 calc R U . . .
C22 C 0.3561(4) 0.13294(19) 0.59464(16) 0.0268(6) Uani 1 1 d . . . . .
H22 H 0.203316 0.109594 0.575953 0.032 Uiso 1 1 calc R U . . .
C23 C 0.4571(4) 0.17946(17) 0.67425(15) 0.0217(5) Uani 1 1 d . . . . .
 
loop_
 _atom_site_aniso_label
 _atom_site_aniso_U_11
 _atom_site_aniso_U_22
 _atom_site_aniso_U_33
 _atom_site_aniso_U_23
 _atom_site_aniso_U_13
 _atom_site_aniso_U_12
Eu1 0.01982(7) 0.01979(8) 0.01659(7) 0.00529(5) 0.00320(5) 0.00598(5)
O1 0.0303(10) 0.0288(12) 0.0268(10) 0.0048(9) 0.0056(9) 0.0074(9)
O3 0.0225(9) 0.0297(11) 0.0345(10) 0.0162(9) -0.0003(8) 0.0050(8)
O4 0.0318(10) 0.0229(11) 0.0412(11) 0.0046(9) -0.0064(9) 0.0065(8)
O5 0.0194(9) 0.0290(11) 0.0270(9) 0.0076(8) 0.0045(7) 0.0084(7)
O6 0.0222(9) 0.0336(12) 0.0231(9) 0.0018(8) 0.0056(8) 0.0092(8)
O7 0.0469(12) 0.0319(12) 0.0257(9) 0.0148(9) 0.0116(9) 0.0172(9)
O8 0.0603(14) 0.0457(14) 0.0375(11) 0.0260(11) 0.0192(11) 0.0323(11)
O9 0.0641(18) 0.0383(16) 0.0613(18) 0.0100(14) 0.0188(13) 0.0143(13)
O10 0.0363(12) 0.0398(13) 0.0228(10) 0.0060(9) 0.0066(9) 0.0039(10)
O11 0.0561(16) 0.0476(17) 0.0337(13) -0.0087(11) -0.0052(11) 0.0166(13)
N1 0.0347(12) 0.0283(13) 0.0245(11) 0.0148(10) 0.0057(10) 0.0101(10)
N2 0.0392(15) 0.072(2) 0.0205(12) -0.0069(13) -0.0004(11) 0.0083(14)
N3 0.0239(11) 0.0363(15) 0.0202(10) 0.0020(10) 0.0020(9) 0.0060(10)
N4 0.0357(12) 0.0265(13) 0.0235(11) 0.0102(10) 0.0083(10) 0.0117(10)
N5 0.0311(12) 0.0212(13) 0.0275(11) 0.0081(10) 0.0001(10) 0.0060(9)
N6 0.0270(11) 0.0300(14) 0.0191(10) 0.0023(10) 0.0014(9) 0.0065(10)
N7 0.0271(11) 0.0239(13) 0.0236(11) 0.0072(9) 0.0008(9) 0.0060(9)
N8 0.0254(11) 0.0198(12) 0.0243(11) 0.0063(9) -0.0008(9) 0.0068(9)
N9 0.0384(13) 0.0365(15) 0.0279(12) 0.0166(11) 0.0083(11) 0.0138(11)
N10 0.0334(14) 0.075(2) 0.0241(12) -0.0093(13) 0.0012(11) 0.0065(14)
N11 0.0377(13) 0.0381(15) 0.0254(11) 0.0163(11) 0.0074(10) 0.0100(11)
N12 0.0227(10) 0.0290(13) 0.0183(10) 0.0037(9) 0.0050(9) 0.0076(9)
N13 0.0261(11) 0.0304(14) 0.0304(12) 0.0106(11) -0.0006(10) 0.0090(10)
N14 0.0249(11) 0.0254(13) 0.0300(12) 0.0070(10) -0.0022(10) 0.0054(9)
N16 0.0395(13) 0.0309(14) 0.0282(12) 0.0179(11) 0.0069(11) 0.0128(11)
C1 0.0256(13) 0.0228(15) 0.0224(12) 0.0076(11) 0.0011(11) 0.0054(11)
C2 0.0373(16) 0.0221(16) 0.0335(15) 0.0016(12) -0.0041(13) 0.0060(12)
C3 0.0320(15) 0.0300(17) 0.0304(14) 0.0069(13) -0.0043(12) 0.0034(12)
C4 0.0290(14) 0.0194(14) 0.0300(14) 0.0070(11) -0.0010(12) 0.0050(11)
C5 0.0242(12) 0.0215(14) 0.0204(12) 0.0060(10) 0.0045(10) 0.0071(10)
C6 0.048(2) 0.053(3) 0.061(2) 0.0022(19) -0.0213(19) 0.0044(18)
C7 0.0231(13) 0.0271(15) 0.0228(12) 0.0074(11) 0.0062(11) 0.0075(11)
C10 0.0230(13) 0.0223(14) 0.0222(12) 0.0093(11) 0.0049(11) 0.0099(10)
C11 0.0398(16) 0.0288(16) 0.0252(13) 0.0101(12) 0.0035(12) 0.0094(13)
C12 0.0339(14) 0.0232(15) 0.0245(13) 0.0097(11) 0.0035(12) 0.0080(11)
C13 0.0386(15) 0.0325(17) 0.0251(13) 0.0136(12) 0.0048(12) 0.0144(13)
C14 0.0320(14) 0.0315(16) 0.0193(12) 0.0021(11) 0.0018(12) 0.0069(12)
C15 0.0341(15) 0.0428(19) 0.0265(14) 0.0020(13) 0.0063(13) 0.0044(14)
C16 0.0440(17) 0.0384(19) 0.0253(14) 0.0055(13) 0.0073(13) 0.0074(14)
C17 0.0297(14) 0.0288(16) 0.0236(13) 0.0110(12) 0.0016(11) 0.0040(12)
C18 0.0313(14) 0.0341(18) 0.0302(14) 0.0096(13) 0.0041(12) 0.0039(12)
C19 0.0335(15) 0.0340(17) 0.0331(15) 0.0165(13) 0.0054(13) 0.0121(13)
C20 0.064(2) 0.073(3) 0.0293(16) -0.0013(17) 0.0191(17) 0.003(2)
C21 0.0416(18) 0.056(2) 0.0480(19) 0.0147(18) 0.0161(16) 0.0164(16)
C22 0.0224(13) 0.0331(17) 0.0244(13) 0.0050(12) 0.0034(11) 0.0062(11)
C23 0.0193(12) 0.0247(14) 0.0228(12) 0.0071(11) 0.0035(10) 0.0084(10)
 
_geom_special_details
;
 All esds (except the esd in the dihedral angle between two l.s. planes)
 are estimated using the full covariance matrix.  The cell esds are taken
 into account individually in the estimation of esds in distances, angles
 and torsion angles; correlations between esds in cell parameters are only
 used when they are defined by crystal symmetry.  An approximate (isotropic)
 treatment of cell esds is used for estimating esds involving l.s. planes.
;
 
loop_
 _geom_bond_atom_site_label_1
 _geom_bond_atom_site_label_2
 _geom_bond_distance
 _geom_bond_site_symmetry_2
 _geom_bond_publ_flag
Eu1 O5 2.3571(18) . ?
Eu1 O3 2.3696(18) . ?
Eu1 O6 2.4073(17) 1_455 ?
Eu1 O7 2.4525(19) . ?
Eu1 O10 2.457(2) . ?
Eu1 O1 2.478(2) . ?
Eu1 N12 2.586(2) 1_455 ?
Eu1 N4 2.638(2) . ?
Eu1 N7 2.741(2) . ?
Eu1 H6 2.77(3) . ?
O1 H5 0.77(3) . ?
O1 H6 0.80(4) . ?
O3 C7 1.264(3) . ?
O4 C7 1.237(3) . ?
O5 C10 1.248(3) . ?
O6 C10 1.264(3) . ?
O7 C11 1.270(3) . ?
O8 C11 1.241(3) . ?
O9 H1D 0.73(4) . ?
O9 H1E 0.66(5) . ?
O10 H1 0.78(3) . ?
O10 H1A 0.78(4) . ?
O11 H1C 0.68(4) . ?
O11 H1B 0.82(5) . ?
N1 C13 1.340(4) . ?
N1 N16 1.355(3) . ?
N1 C17 1.418(3) . ?
N2 C16 1.333(4) . ?
N2 N10 1.357(3) . ?
N2 H2A 0.8600 . ?
N3 N12 1.307(3) . ?
N3 N6 1.353(3) . ?
N4 N16 1.303(3) . ?
N4 C12 1.358(3) . ?
N5 N7 1.318(3) . ?
N5 N8 1.354(3) . ?
N6 C22 1.347(3) . ?
N6 C14 1.416(3) . ?
N7 C5 1.351(3) . ?
N8 C4 1.344(3) . ?
N8 C1 1.423(3) . ?
N9 C17 1.324(3) . ?
N9 N11 1.353(3) . ?
N10 C14 1.310(4) . ?
N11 C18 1.340(4) . ?
N11 H11 0.8600 . ?
N12 C23 1.358(3) . ?
N13 C3 1.343(4) . ?
N13 N14 1.350(3) . ?
N13 H13 0.8600 . ?
N14 C1 1.315(3) . ?
C1 C2 1.390(4) . ?
C2 C3 1.381(4) . ?
C2 H2 0.9300 . ?
C3 C6 1.497(4) . ?
C4 C5 1.363(3) . ?
C4 H4 0.9300 . ?
C5 C7 1.493(4) . ?
C6 H6A 0.9600 . ?
C6 H6B 0.9600 . ?
C6 H6C 0.9600 . ?
C10 C23 1.475(3) . ?
C11 C12 1.483(4) . ?
C12 C13 1.366(4) . ?
C13 H13A 0.9300 . ?
C14 C15 1.383(4) . ?
C15 C16 1.373(4) . ?
C15 H15 0.9300 . ?
C16 C20 1.479(4) . ?
C17 C19 1.379(4) . ?
C18 C19 1.382(4) . ?
C18 C21 1.486(4) . ?
C19 H19 0.9300 . ?
C20 H20A 0.9600 . ?
C20 H20B 0.9600 . ?
C20 H20C 0.9600 . ?
C21 H21A 0.9600 . ?
C21 H21B 0.9600 . ?
C21 H21C 0.9600 . ?
C22 C23 1.362(4) . ?
C22 H22 0.9300 . ?
 
loop_
 _geom_angle_atom_site_label_1
 _geom_angle_atom_site_label_2
 _geom_angle_atom_site_label_3
 _geom_angle
 _geom_angle_site_symmetry_1
 _geom_angle_site_symmetry_3
 _geom_angle_publ_flag
O5 Eu1 O3 76.53(6) . . ?
O5 Eu1 O6 133.12(6) . 1_455 ?
O3 Eu1 O6 72.07(6) . 1_455 ?
O5 Eu1 O7 133.56(6) . . ?
O3 Eu1 O7 141.70(6) . . ?
O6 Eu1 O7 69.66(6) 1_455 . ?
O5 Eu1 O10 144.87(7) . . ?
O3 Eu1 O10 91.80(7) . . ?
O6 Eu1 O10 70.46(7) 1_455 . ?
O7 Eu1 O10 74.16(6) . . ?
O5 Eu1 O1 87.29(7) . . ?
O3 Eu1 O1 134.09(6) . . ?
O6 Eu1 O1 139.29(7) 1_455 . ?
O7 Eu1 O1 78.27(7) . . ?
O10 Eu1 O1 77.27(7) . . ?
O5 Eu1 N12 73.98(6) . 1_455 ?
O3 Eu1 N12 75.24(6) . 1_455 ?
O6 Eu1 N12 65.00(6) 1_455 1_455 ?
O7 Eu1 N12 89.96(7) . 1_455 ?
O10 Eu1 N12 135.46(7) . 1_455 ?
O1 Eu1 N12 140.73(6) . 1_455 ?
O5 Eu1 N4 70.44(6) . . ?
O3 Eu1 N4 137.69(7) . . ?
O6 Eu1 N4 113.50(6) 1_455 . ?
O7 Eu1 N4 63.12(7) . . ?
O10 Eu1 N4 130.25(7) . . ?
O1 Eu1 N4 70.42(7) . . ?
N12 Eu1 N4 70.84(7) 1_455 . ?
O5 Eu1 N7 70.97(6) . . ?
O3 Eu1 N7 63.38(6) . . ?
O6 Eu1 N7 120.94(6) 1_455 . ?
O7 Eu1 N7 139.56(7) . . ?
O10 Eu1 N7 74.17(7) . . ?
O1 Eu1 N7 70.75(6) . . ?
N12 Eu1 N7 130.43(7) 1_455 . ?
N4 Eu1 N7 125.48(7) . . ?
O5 Eu1 H6 71.2(8) . . ?
O3 Eu1 H6 124.5(7) . . ?
O6 Eu1 H6 155.5(8) 1_455 . ?
O7 Eu1 H6 91.6(8) . . ?
O10 Eu1 H6 89.8(8) . . ?
O1 Eu1 H6 16.2(8) . . ?
N12 Eu1 H6 132.9(7) 1_455 . ?
N4 Eu1 H6 68.1(7) . . ?
N7 Eu1 H6 63.9(7) . . ?
Eu1 O1 H5 116(3) . . ?
Eu1 O1 H6 103(3) . . ?
H5 O1 H6 115(4) . . ?
C7 O3 Eu1 127.14(16) . . ?
C10 O5 Eu1 128.31(17) . . ?
C10 O6 Eu1 124.44(16) . 1_655 ?
C11 O7 Eu1 125.84(18) . . ?
H1D O9 H1E 108(6) . . ?
Eu1 O10 H1 121(3) . . ?
Eu1 O10 H1A 116(3) . . ?
H1 O10 H1A 112(3) . . ?
H1C O11 H1B 110(5) . . ?
C13 N1 N16 111.5(2) . . ?
C13 N1 C17 128.0(2) . . ?
N16 N1 C17 120.5(2) . . ?
C16 N2 N10 114.0(2) . . ?
C16 N2 H2A 123.0 . . ?
N10 N2 H2A 123.0 . . ?
N12 N3 N6 105.8(2) . . ?
N16 N4 C12 109.99(19) . . ?
N16 N4 Eu1 135.06(16) . . ?
C12 N4 Eu1 113.91(16) . . ?
N7 N5 N8 105.5(2) . . ?
C22 N6 N3 111.6(2) . . ?
C22 N6 C14 129.7(2) . . ?
N3 N6 C14 118.5(2) . . ?
N5 N7 C5 109.8(2) . . ?
N5 N7 Eu1 138.09(16) . . ?
C5 N7 Eu1 109.34(15) . . ?
C4 N8 N5 111.7(2) . . ?
C4 N8 C1 127.3(2) . . ?
N5 N8 C1 121.0(2) . . ?
C17 N9 N11 102.5(2) . . ?
C14 N10 N2 102.2(2) . . ?
C18 N11 N9 113.6(2) . . ?
C18 N11 H11 123.2 . . ?
N9 N11 H11 123.2 . . ?
N3 N12 C23 110.1(2) . . ?
N3 N12 Eu1 136.42(16) . 1_655 ?
C23 N12 Eu1 113.41(16) . 1_655 ?
C3 N13 N14 112.8(2) . . ?
C3 N13 H13 123.6 . . ?
N14 N13 H13 123.6 . . ?
C1 N14 N13 103.0(2) . . ?
N4 N16 N1 105.9(2) . . ?
N14 C1 C2 114.3(2) . . ?
N14 C1 N8 117.3(2) . . ?
C2 C1 N8 128.4(2) . . ?
C3 C2 C1 102.9(3) . . ?
C3 C2 H2 128.6 . . ?
C1 C2 H2 128.6 . . ?
N13 C3 C2 107.1(2) . . ?
N13 C3 C6 121.9(3) . . ?
C2 C3 C6 131.0(3) . . ?
N8 C4 C5 104.4(2) . . ?
N8 C4 H4 127.8 . . ?
C5 C4 H4 127.8 . . ?
N7 C5 C4 108.6(2) . . ?
N7 C5 C7 119.8(2) . . ?
C4 C5 C7 131.5(2) . . ?
C3 C6 H6A 109.5 . . ?
C3 C6 H6B 109.5 . . ?
H6A C6 H6B 109.5 . . ?
C3 C6 H6C 109.5 . . ?
H6A C6 H6C 109.5 . . ?
H6B C6 H6C 109.5 . . ?
O4 C7 O3 125.2(2) . . ?
O4 C7 C5 119.6(2) . . ?
O3 C7 C5 115.1(2) . . ?
O5 C10 O6 125.4(2) . . ?
O5 C10 C23 118.5(2) . . ?
O6 C10 C23 116.2(2) . . ?
O8 C11 O7 125.7(3) . . ?
O8 C11 C12 119.9(2) . . ?
O7 C11 C12 114.4(2) . . ?
N4 C12 C13 108.1(2) . . ?
N4 C12 C11 119.1(2) . . ?
C13 C12 C11 132.8(2) . . ?
N1 C13 C12 104.5(2) . . ?
N1 C13 H13A 127.8 . . ?
C12 C13 H13A 127.8 . . ?
N10 C14 C15 113.8(2) . . ?
N10 C14 N6 119.0(2) . . ?
C15 C14 N6 127.1(2) . . ?
C16 C15 C14 104.3(3) . . ?
C16 C15 H15 127.8 . . ?
C14 C15 H15 127.8 . . ?
N2 C16 C15 105.6(3) . . ?
N2 C16 C20 122.4(3) . . ?
C15 C16 C20 131.9(3) . . ?
N9 C17 C19 113.7(2) . . ?
N9 C17 N1 116.8(2) . . ?
C19 C17 N1 129.4(2) . . ?
N11 C18 C19 106.0(3) . . ?
N11 C18 C21 122.3(2) . . ?
C19 C18 C21 131.7(3) . . ?
C17 C19 C18 104.1(2) . . ?
C17 C19 H19 127.9 . . ?
C18 C19 H19 127.9 . . ?
C16 C20 H20A 109.5 . . ?
C16 C20 H20B 109.5 . . ?
H20A C20 H20B 109.5 . . ?
C16 C20 H20C 109.5 . . ?
H20A C20 H20C 109.5 . . ?
H20B C20 H20C 109.5 . . ?
C18 C21 H21A 109.5 . . ?
C18 C21 H21B 109.5 . . ?
H21A C21 H21B 109.5 . . ?
C18 C21 H21C 109.5 . . ?
H21A C21 H21C 109.5 . . ?
H21B C21 H21C 109.5 . . ?
N6 C22 C23 104.3(2) . . ?
N6 C22 H22 127.8 . . ?
C23 C22 H22 127.8 . . ?
N12 C23 C22 108.2(2) . . ?
N12 C23 C10 118.8(2) . . ?
C22 C23 C10 132.6(2) . . ?
 
_refine_diff_density_max    0.810
_refine_diff_density_min   -0.559
_refine_diff_density_rms    0.084

_shelx_res_file
;
TITL OAV-499_auto_a.res in P-1
    OAV-499_auto_a.res
    created by SHELXL-2019/3 at 15:35:22 on 21-Dec-2023
REM Old TITL OAV-499_auto in P1
REM SHELXT solution in P-1: R1 0.068, Rweak 0.013, Alpha 0.054
REM <I/s>   0.000 for    0 systematic absences,  Orientation as input
REM Formula found by SHELXT:  C33 N5 O8 Cd
CELL  0.71073   5.9993  15.8706  16.3137  102.853   97.633   96.888
ZERR   2  0.0001   0.0004   0.0003    0.002    0.002    0.002
LATT  1
SFAC C H N O Eu
UNIT 42 52 30 20 2
ACTA
TEMP 22
L.S. 10
BOND $H
OMIT 0
LIST 4
FMAP 2
PLAN 20
WGHT    0.024900    0.309100
FVAR       0.32383
EU1   5   -0.087746    0.282841    0.820988    11.00000    0.01982    0.01979 =
         0.01659    0.00529    0.00320    0.00598
O1    4    0.253199    0.393787    0.886216    11.00000    0.03033    0.02878 =
         0.02683    0.00476    0.00565    0.00742
H5    2    0.262718    0.415121    0.933745    11.00000   -1.50000
H6    2    0.356183    0.368971    0.873459    11.00000   -1.50000
O3    4   -0.216309    0.140936    0.836333    11.00000    0.02253    0.02973 =
         0.03452    0.01624   -0.00027    0.00499
O4    4   -0.144105    0.010039    0.849084    11.00000    0.03184    0.02285 =
         0.04116    0.00457   -0.00638    0.00653
O5    4    0.157160    0.196142    0.751941    11.00000    0.01937    0.02898 =
         0.02702    0.00761    0.00455    0.00837
O6    4    0.505063    0.266583    0.812326    11.00000    0.02222    0.03356 =
         0.02311    0.00182    0.00556    0.00924
O7    4   -0.225468    0.418238    0.803638    11.00000    0.04694    0.03185 =
         0.02568    0.01481    0.01164    0.01724
O8    4   -0.332635    0.506147    0.721120    11.00000    0.06028    0.04570 =
         0.03749    0.02600    0.01921    0.03233
O9    4   -0.634870    0.557172    0.831220    11.00000    0.06409    0.03835 =
         0.06128    0.00996    0.01883    0.01427
H1D   2   -0.680670    0.518172    0.843952    11.00000   -1.50000
H1E   2   -0.575251    0.545092    0.800342    11.00000   -1.50000
O10   4   -0.182536    0.351684    0.959800    11.00000    0.03633    0.03982 =
         0.02276    0.00596    0.00656    0.00388
H1    2   -0.288056    0.331908    0.976155    11.00000   -1.50000
H1A   2   -0.079959    0.369997    0.996541    11.00000   -1.50000
O11   4    0.225076    0.437865    1.055848    11.00000    0.05611    0.04757 =
         0.03369   -0.00866   -0.00524    0.01655
H1C   2    0.312540    0.422130    1.075103    11.00000   -1.50000
H1B   2    0.205752    0.484122    1.086640    11.00000   -1.50000
N1    3    0.167365    0.386189    0.593283    11.00000    0.03469    0.02831 =
         0.02451    0.01482    0.00566    0.01014
N2    3    0.386210    0.037347    0.333955    11.00000    0.03922    0.07209 =
         0.02051   -0.00690   -0.00035    0.00834
AFIX  43
H2A   2    0.289224    0.014509    0.288260    11.00000   -1.20000
AFIX   0
N3    3    0.728544    0.170189    0.597272    11.00000    0.02392    0.03630 =
         0.02017    0.00204    0.00204    0.00596
N4    3    0.061657    0.354000    0.703102    11.00000    0.03574    0.02653 =
         0.02346    0.01018    0.00835    0.01175
N5    3    0.374867    0.247945    0.990026    11.00000    0.03111    0.02121 =
         0.02753    0.00815    0.00013    0.00603
N6    3    0.527862    0.128426    0.549105    11.00000    0.02702    0.03004 =
         0.01907    0.00229    0.00140    0.00645
N7    3    0.176475    0.222844    0.939346    11.00000    0.02712    0.02391 =
         0.02355    0.00724    0.00079    0.00595
N8    3    0.436755    0.174226    1.008847    11.00000    0.02539    0.01978 =
         0.02430    0.00631   -0.00082    0.00679
N9    3    0.238627    0.428435    0.469677    11.00000    0.03838    0.03646 =
         0.02794    0.01661    0.00828    0.01380
N10   3    0.324960    0.062431    0.411802    11.00000    0.03339    0.07499 =
         0.02406   -0.00929    0.00123    0.00655
N11   3    0.381276    0.408794    0.413018    11.00000    0.03773    0.03810 =
         0.02542    0.01626    0.00739    0.01004
AFIX  43
H11   2    0.385314    0.430983    0.369608    11.00000   -1.20000
AFIX   0
N12   3    0.682679    0.200898    0.673349    11.00000    0.02267    0.02905 =
         0.01834    0.00374    0.00499    0.00756
N13   3    0.925775    0.126053    1.111887    11.00000    0.02611    0.03040 =
         0.03041    0.01063   -0.00063    0.00897
AFIX  43
H13   2    1.016959    0.090148    1.121397    11.00000   -1.20000
AFIX   0
N14   3    0.730140    0.102694    1.055330    11.00000    0.02490    0.02538 =
         0.02999    0.00701   -0.00224    0.00536
N16   3    0.198822    0.334666    0.648560    11.00000    0.03947    0.03093 =
         0.02821    0.01787    0.00689    0.01281
C1    1    0.647463    0.176509    1.061583    11.00000    0.02563    0.02284 =
         0.02243    0.00758    0.00111    0.00540
C2    1    0.781740    0.247603    1.120122    11.00000    0.03726    0.02208 =
         0.03352    0.00161   -0.00408    0.00604
AFIX  43
H2    2    0.756053    0.305293    1.134469    11.00000   -1.20000
AFIX   0
C3    1    0.962734    0.211398    1.151716    11.00000    0.03201    0.02995 =
         0.03040    0.00692   -0.00431    0.00343
C4    1    0.281387    0.103525    0.969932    11.00000    0.02900    0.01938 =
         0.02999    0.00696   -0.00098    0.00496
AFIX  43
H4    2    0.285971    0.045790    0.972498    11.00000   -1.20000
AFIX   0
C5    1    0.115583    0.135505    0.925858    11.00000    0.02423    0.02149 =
         0.02043    0.00599    0.00446    0.00715
C6    1    1.169584    0.251608    1.217095    11.00000    0.04750    0.05313 =
         0.06132    0.00220   -0.02130    0.00439
AFIX 137
H6A   2    1.181044    0.314164    1.229875    11.00000   -1.50000
H6B   2    1.302745    0.234648    1.195294    11.00000   -1.50000
H6C   2    1.157631    0.231800    1.268048    11.00000   -1.50000
AFIX   0
C7    1   -0.098350    0.090782    0.866682    11.00000    0.02306    0.02708 =
         0.02282    0.00743    0.00619    0.00745
C10   1    0.364913    0.215612    0.751792    11.00000    0.02298    0.02234 =
         0.02219    0.00927    0.00488    0.00994
C11   1   -0.219206    0.450359    0.739111    11.00000    0.03979    0.02879 =
         0.02524    0.01013    0.00353    0.00944
C12   1   -0.056022    0.416935    0.683814    11.00000    0.03395    0.02322 =
         0.02446    0.00967    0.00347    0.00800
C13   1    0.011256    0.437707    0.613031    11.00000    0.03861    0.03247 =
         0.02512    0.01356    0.00476    0.01441
AFIX  43
H13A  2   -0.039797    0.478441    0.584878    11.00000   -1.20000
AFIX   0
C14   1    0.522126    0.093240    0.461002    11.00000    0.03202    0.03154 =
         0.01933    0.00211    0.00177    0.00686
C15   1    0.705698    0.088881    0.417966    11.00000    0.03408    0.04280 =
         0.02653    0.00199    0.00630    0.00441
AFIX  43
H15   2    0.859121    0.107269    0.440406    11.00000   -1.20000
AFIX   0
C16   1    0.610025    0.051242    0.334587    11.00000    0.04398    0.03839 =
         0.02533    0.00551    0.00732    0.00744
C17   1    0.291353    0.380899    0.524579    11.00000    0.02968    0.02876 =
         0.02360    0.01102    0.00158    0.00402
C18   1    0.515650    0.351488    0.430971    11.00000    0.03134    0.03415 =
         0.03022    0.00961    0.00409    0.00390
C19   1    0.460531    0.331929    0.504913    11.00000    0.03348    0.03395 =
         0.03306    0.01651    0.00536    0.01209
AFIX  43
H19   2    0.523135    0.294367    0.534604    11.00000   -1.20000
AFIX   0
C20   1    0.711548    0.028017    0.256315    11.00000    0.06435    0.07317 =
         0.02935   -0.00130    0.01911    0.00260
AFIX 137
H20A  2    0.874290    0.042268    0.270459    11.00000   -1.50000
H20B  2    0.656404    0.060250    0.216618    11.00000   -1.50000
H20C  2    0.669832   -0.033539    0.231074    11.00000   -1.50000
AFIX   0
C21   1    0.683720    0.320679    0.376549    11.00000    0.04155    0.05595 =
         0.04799    0.01473    0.01606    0.01638
AFIX 137
H21A  2    0.649672    0.258257    0.355812    11.00000   -1.50000
H21B  2    0.834029    0.336372    0.409472    11.00000   -1.50000
H21C  2    0.676070    0.347498    0.329196    11.00000   -1.50000
REM #####
REM #####
REM #####
REM #####
REM #####
REM #####
REM #####
AFIX   0
C22   1    0.356147    0.132942    0.594639    11.00000    0.02240    0.03314 =
         0.02437    0.00505    0.00337    0.00624
AFIX  43
H22   2    0.203316    0.109594    0.575953    11.00000   -1.20000
AFIX   0
C23   1    0.457137    0.179460    0.674253    11.00000    0.01934    0.02474 =
         0.02282    0.00714    0.00346    0.00843
REM #####
HKLF 4




REM  OAV-499_auto_a.res in P-1
REM wR2 = 0.0564, GooF = S = 1.043, Restrained GooF = 1.043 for all data
REM R1 = 0.0256 for 6122 Fo > 4sig(Fo) and 0.0294 for all 6624 data
REM 451 parameters refined using 0 restraints

END

WGHT      0.0249      0.3091

REM Highest difference peak  0.810,  deepest hole -0.559,  1-sigma level  0.084
Q1    1   0.0264  0.2991  0.7918  11.00000  0.05    0.81
Q2    1  -0.1533  0.2616  0.8634  11.00000  0.05    0.62
Q3    1  -0.2163  0.2813  0.7761  11.00000  0.05    0.58
Q4    1   0.0423  0.2834  0.8674  11.00000  0.05    0.53
Q5    1  -0.1057  0.3342  0.8729  11.00000  0.05    0.48
Q6    1  -0.0747  0.2319  0.7750  11.00000  0.05    0.47
Q7    1   0.8941  0.2377  1.1336  11.00000  0.05    0.43
Q8    1   0.8022  0.3843  0.3797  11.00000  0.05    0.40
Q9    1   0.5618  0.1867  0.6821  11.00000  0.05    0.40
Q10   1   0.4728  0.0456  0.3216  11.00000  0.05    0.37
Q11   1  -0.0963  0.4013  0.8727  11.00000  0.05    0.37
Q12   1   0.5557  0.1760  1.0364  11.00000  0.05    0.36
Q13   1   0.5633  0.2840  0.7903  11.00000  0.05    0.34
Q14   1   0.4032  0.1424  0.6496  11.00000  0.05    0.33
Q15   1   0.5517  0.3611  0.4738  11.00000  0.05    0.32
Q16   1   0.2504  0.3953  0.4922  11.00000  0.05    0.32
Q17   1   0.2110  0.3675  0.6280  11.00000  0.05    0.32
Q18   1   0.0682  0.3378  0.7446  11.00000  0.05    0.32
Q19   1   0.6222  0.1379  0.5705  11.00000  0.05    0.32
Q20   1   0.7265  0.2947  0.3900  11.00000  0.05    0.32
;
_shelx_res_checksum   73910

_shelx_hkl_file
;
  -8   1  -1   21.41    4.49
  -8   1   0  105.15    9.34
  -8   2  -1   56.54    7.11
  -8   2   0    5.75    3.37
  -8   2   1   82.43    8.27
  -8   3  -1   -0.99    2.63
  -8   3   0   70.59    7.69
  -8   3   1   32.75    5.35
  -8   4  -1   82.14    8.32
  -8   4   0   11.81    3.27
  -8   4   1   29.85    5.35
  -8   5   0   52.53    6.80
  -7  -7  -1   21.92    4.93
  -7  -6  -2   16.18    4.10
  -7  -6  -1  115.70    9.58
  -7  -6   0   80.56    7.77
  -7  -5  -3    3.44    2.21
  -7  -5  -2  107.78    9.42
  -7  -5  -1   73.70    8.00
  -7  -5   0   16.36    4.34
  -7  -5   1   59.71    6.51
  -7  -4  -3   72.85    7.90
  -7  -4  -2   41.17    5.64
  -7  -4  -1   55.57    6.82
  -7  -4   0  114.08    9.16
  -7  -4   1    6.05    2.87
  -7  -4   2   21.26    3.92
  -7  -3  -4   96.17    9.20
  -7  -3  -3   25.91    6.84
  -7  -3  -2   44.34    6.12
  -7  -3  -1   88.93    8.01
  -7  -3   0    6.45    2.84
  -7  -3   1   78.48    7.34
  -7  -3   2   52.56    5.85
  -7  -3   3    3.19    2.26
  -7  -2  -4   14.89    4.12
  -7  -2  -3  140.28   10.57
  -7  -2  -2   59.80    7.05
  -7  -2  -1    3.22    2.27
  -7  -2   0  101.22    8.32
  -7  -2   1   51.22    5.80
  -7  -2   2   24.91    4.29
  -7  -2   3  134.64    8.63
  -7  -1  -5    2.77    2.96
  -7  -1  -4  148.62   11.05
  -7  -1  -3   79.94    8.14
  -7  -1  -2    5.12    3.29
  -7  -1  -1  100.15    8.53
  -7  -1   0   15.63    3.57
  -7  -1   1   79.07    7.09
  -7  -1   2  100.59    7.67
  -7  -1   3   11.88    2.77
  -7  -1   4   87.18    6.67
  -7   0  -5   98.19    9.20
  -7   0  -4   40.70    6.16
  -7   0  -3   56.34    6.76
  -7   0  -2  127.27    9.77
  -7   0  -1   12.33    3.79
  -7   0   0  123.89    9.11
  -7   0   1  146.97    9.65
  -7   0   2    7.62    2.99
  -7   0   3  132.07    8.66
  -7   0   4  159.25    8.99
  -7   1  -5    1.72    2.60
  -7   1  -4   45.62    6.42
  -7   1  -3  166.82   11.44
  -7   1  -2   -2.29    3.07
  -7   1  -1  130.05    9.61
  -7   1   0  125.28    9.26
  -7   1   1    1.30    2.30
  -7   1   2  257.34   12.66
  -7   1   3    8.52    2.81
  -7   1   4   52.73    5.39
  -7   2  -5  122.26   10.24
  -7   2  -4   11.94    3.75
  -7   2  -3    4.27    2.91
  -7   2  -2  105.70    8.93
  -7   2  -1   29.83    4.95
  -7   2   0   62.01    6.70
  -7   2   1  256.36   13.16
  -7   2   2   30.20    4.30
  -7   2   3   85.26    7.00
  -7   3  -5   60.14    7.16
  -7   3  -4   12.82    4.04
  -7   3  -3   76.64    7.84
  -7   3  -2    8.56    3.35
  -7   3  -1   39.69    5.74
  -7   3   0  158.41   10.57
  -7   3   1    4.35    2.54
  -7   3   2  104.70    8.20
  -7   3   3   78.45    6.87
  -7   4  -5   67.32    7.49
  -7   4  -4  138.36   10.67
  -7   4  -3    1.94    2.23
  -7   4  -2  110.64    9.22
  -7   4  -1  111.50    9.07
  -7   4   0    3.07    2.78
  -7   4   1  172.18   10.73
  -7   4   2  134.72    9.34
  -7   5  -5  190.82   12.81
  -7   5  -4   17.11    4.24
  -7   5  -3  170.11   11.70
  -7   5  -2   83.64    8.21
  -7   5  -1   20.33    4.22
  -7   5   0  187.00   11.67
  -7   5   1   34.02    5.24
  -7   6  -5   17.83    4.55
  -7   6  -4  260.83   15.02
  -7   6  -3   14.28    3.92
  -7   6  -2   27.91    5.09
  -7   6  -1  158.72   10.99
  -7   6   0    5.04    3.22
  -7   7  -4    9.53    3.79
  -7   7  -3   84.41    8.29
  -7   7  -2  110.83    9.47
  -7   7  -1    7.54    3.34
  -7   8  -4   77.92    8.37
  -7   8  -3  137.90   10.78
  -7   8  -2    1.04    2.95
  -6 -11  -1   33.65    5.96
  -6 -11   0   45.14    6.24
  -6 -10  -2   60.38    7.21
  -6 -10  -1   47.69    6.20
  -6 -10   0   22.20    4.93
  -6 -10   1  111.38    8.89
  -6  -9  -3   97.90    9.59
  -6  -9  -2    2.66    2.95
  -6  -9  -1   37.42    5.58
  -6  -9   0  110.31    8.95
  -6  -9   1    2.59    2.48
  -6  -9   2   58.46    5.98
  -6  -8  -4   62.10    7.43
  -6  -8  -3    7.86    3.21
  -6  -8  -2   72.77    7.73
  -6  -8  -1  100.41    8.76
  -6  -8   0    3.63    3.01
  -6  -8   1   64.71    6.63
  -6  -8   2  135.99    9.55
  -6  -8   3    1.36    1.92
  -6  -7  -5   57.60    7.27
  -6  -7  -4    4.34    2.11
  -6  -7  -3   65.81    7.49
  -6  -7  -2   85.65    7.91
  -6  -7  -1    7.68    3.11
  -6  -7   0  134.35    9.30
  -6  -7   1   32.59    4.55
  -6  -7   2   23.97    3.84
  -6  -7   3  122.85    7.92
  -6  -7   4   57.95    5.25
  -6  -6  -5    0.09    2.83
  -6  -6  -4   94.96    8.81
  -6  -6  -3   75.65    7.71
  -6  -6  -2   24.79    4.69
  -6  -6  -1  144.56   10.03
  -6  -6   0   43.80    5.41
  -6  -6   1   69.42    6.42
  -6  -6   2   59.86    5.60
  -6  -6   3   10.89    2.66
  -6  -6   4   62.99    5.27
  -6  -6   5   60.00    4.90
  -6  -5  -6    8.19    2.68
  -6  -5  -5  109.93    9.51
  -6  -5  -4   19.85    4.35
  -6  -5  -3   28.50    5.00
  -6  -5  -2  143.50   10.07
  -6  -5  -1    7.76    2.88
  -6  -5   0   71.29    6.76
  -6  -5   1  102.07    7.58
  -6  -5   2   15.44    3.40
  -6  -5   3  157.69    8.71
  -6  -5   4  203.81    9.47
  -6  -5   5    6.70    2.12
  -6  -4  -7   19.14    4.78
  -6  -4  -6  102.91    9.29
  -6  -4  -5   20.48    4.58
  -6  -4  -4   85.64    8.24
  -6  -4  -3  137.99    9.95
  -6  -4  -2   19.81    4.04
  -6  -4  -1   62.64    6.46
  -6  -4   0   99.38    7.63
  -6  -4   1   20.07    3.42
  -6  -4   2   74.09    6.13
  -6  -4   3   39.96    4.29
  -6  -4   4   39.91    4.19
  -6  -4   5  198.60    8.76
  -6  -4   6   68.92    4.66
  -6  -3  -7  104.98    9.42
  -6  -3  -6    8.52    3.22
  -6  -3  -5   80.30    7.94
  -6  -3  -4   55.32    6.74
  -6  -3  -3    5.49    2.74
  -6  -3  -2  164.10   10.40
  -6  -3  -1   89.99    7.45
  -6  -3   0   23.15    3.72
  -6  -3   1   81.65    6.63
  -6  -3   2   14.01    2.98
  -6  -3   3   92.69    6.50
  -6  -3   4  170.82    8.48
  -6  -3   5   56.17    4.57
  -6  -3   6   74.04    4.83
  -6  -2  -8   77.06    8.44
  -6  -2  -7   24.73    4.90
  -6  -2  -6  107.58    9.43
  -6  -2  -5   42.85    5.93
  -6  -2  -4   65.44    7.01
  -6  -2  -3  170.15   10.76
  -6  -2  -2   18.96    3.82
  -6  -2  -1   91.20    7.53
  -6  -2   0  113.35    8.02
  -6  -2   1   19.77    4.53
  -6  -2   2  133.81    8.18
  -6  -2   3   71.03    5.65
  -6  -2   4   10.25    2.34
  -6  -2   5  288.23   10.77
  -6  -2   6  191.31    8.05
  -6  -1  -8   29.73    5.23
  -6  -1  -7  164.43   11.69
  -6  -1  -6   14.90    3.92
  -6  -1  -5   43.13    5.91
  -6  -1  -4  173.70   11.11
  -6  -1  -3    0.98    2.16
  -6  -1  -2  137.76    9.39
  -6  -1  -1   68.45    6.43
  -6  -1   0   -1.57    1.95
  -6  -1   1  184.69    9.82
  -6  -1   2  105.35    7.14
  -6  -1   3   74.36    5.80
  -6  -1   4  162.46    8.28
  -6  -1   5  220.94    9.39
  -6  -1   6   82.85    5.29
  -6   0  -8  112.18    9.74
  -6   0  -7    3.92    2.33
  -6   0  -6  176.52   11.77
  -6   0  -5  122.91    9.57
  -6   0  -4    0.57    2.46
  -6   0  -3  156.44   10.19
  -6   0  -2   95.37    7.72
  -6   0  -1   54.00    5.75
  -6   0   0  133.05    8.56
  -6   0   1  150.42    8.86
  -6   0   2   22.38    3.47
  -6   0   3  228.40   10.40
  -6   0   4   51.10    4.65
  -6   0   5    3.37    2.01
  -6   1  -9   91.17    9.07
  -6   1  -8   -0.09    2.16
  -6   1  -7  129.13   10.27
  -6   1  -6   28.51    5.31
  -6   1  -5   28.69    5.00
  -6   1  -4  236.78   12.93
  -6   1  -3   42.77    5.59
  -6   1  -2   41.02    5.19
  -6   1  -1  108.67    7.98
  -6   1   0   35.34    4.60
  -6   1   1  196.25   10.27
  -6   1   2  180.89    9.51
  -6   1   3   10.13    2.75
  -6   1   4  255.04   10.80
  -6   2  -9   18.63    4.55
  -6   2  -8   69.26    7.60
  -6   2  -7    9.28    2.98
  -6   2  -6   48.62    6.20
  -6   2  -5  141.28   10.19
  -6   2  -4    7.67    3.38
  -6   2  -3  119.67    8.87
  -6   2  -2  144.54    9.61
  -6   2  -1   98.87    7.66
  -6   2   0   91.24    7.13
  -6   2   1  178.52    9.90
  -6   2   2    0.55    1.76
  -6   2   3  334.46   13.10
  -6   2   4   53.37    4.90
  -6   3  -9  112.45    9.89
  -6   3  -8   18.78    4.07
  -6   3  -7   25.64    4.65
  -6   3  -6  246.66   13.85
  -6   3  -5    3.79    2.79
  -6   3  -4   84.59    7.68
  -6   3  -3   48.57    5.78
  -6   3  -2   44.56    5.46
  -6   3  -1  167.01   10.06
  -6   3   0  105.31    7.77
  -6   3   1    2.94    1.84
  -6   3   2  257.38   11.80
  -6   3   3  105.10    7.22
  -6   4  -9    2.70    2.13
  -6   4  -8  145.87   11.02
  -6   4  -7  172.23   11.88
  -6   4  -6    0.71    2.42
  -6   4  -5  164.65   11.04
  -6   4  -4  159.59   10.65
  -6   4  -3   34.17    5.09
  -6   4  -2  116.43    8.60
  -6   4  -1  290.04   13.65
  -6   4   0   -0.05    1.56
  -6   4   1  135.95    8.64
  -6   4   2  116.11    7.94
  -6   5  -9  140.45   11.06
  -6   5  -8   31.75    5.63
  -6   5  -7    2.51    2.40
  -6   5  -6  240.59   13.82
  -6   5  -5   51.77    6.42
  -6   5  -4   38.22    5.40
  -6   5  -3  192.65   11.50
  -6   5  -2    2.08    2.35
  -6   5  -1  267.86   13.16
  -6   5   0  265.85   12.81
  -6   5   1   61.56    5.94
  -6   6  -9   11.70    3.73
  -6   6  -8   38.33    5.87
  -6   6  -7  143.18   10.78
  -6   6  -6   20.90    4.43
  -6   6  -5   69.32    7.54
  -6   6  -4  122.03    9.41
  -6   6  -3   46.60    5.93
  -6   6  -2  276.09   13.82
  -6   6  -1   91.15    7.66
  -6   6   0   29.19    4.53
  -6   7  -9   45.49    6.65
  -6   7  -8  224.12   13.93
  -6   7  -7   -1.94    2.61
  -6   7  -6   76.94    7.92
  -6   7  -5   76.88    7.88
  -6   7  -4   21.91    4.64
  -6   7  -3  272.21   14.06
  -6   7  -2   26.60    4.62
  -6   7  -1   75.43    7.10
  -6   8  -8    1.00    2.26
  -6   8  -7  166.07   11.86
  -6   8  -6   93.46    8.63
  -6   8  -5    4.61    2.57
  -6   8  -4   82.00    8.03
  -6   8  -3   88.17    8.13
  -6   8  -2  102.73    8.66
  -6   9  -8  171.62   12.40
  -6   9  -7   21.37    4.46
  -6   9  -6   76.73    8.04
  -6   9  -5  201.17   12.75
  -6   9  -4    9.65    3.66
  -6   9  -3  133.54   10.08
  -6  10  -7   79.40    8.42
  -6  10  -6  139.77   10.98
  -6  10  -5   14.12    3.76
  -6  11  -6    3.32    2.10
  -5 -14   0   72.05    7.82
  -5 -14   1    9.40    3.62
  -5 -14   2   75.91    7.63
  -5 -13  -2   17.20    3.60
  -5 -13  -1   56.44    6.89
  -5 -13   0   -0.79    2.49
  -5 -13   1   52.37    6.57
  -5 -13   2   66.21    6.95
  -5 -13   3    9.33    3.36
  -5 -12  -3   73.02    8.00
  -5 -12  -2   71.40    9.90
  -5 -12  -1    4.60    2.84
  -5 -12   0   44.01    6.00
  -5 -12   1   48.90    6.08
  -5 -12   2    4.80    2.81
  -5 -12   3  121.45    8.56
  -5 -12   4   10.47    2.76
  -5 -11  -4  134.96   10.94
  -5 -11  -3   58.92    7.12
  -5 -11  -2    7.55    3.25
  -5 -11  -1   78.02    7.74
  -5 -11   0   43.12    5.74
  -5 -11   1   26.68    3.07
  -5 -11   2  120.42    8.52
  -5 -11   3   13.20    2.87
  -5 -11   4   38.14    4.52
  -5 -11   5  169.96    8.98
  -5 -10  -5  151.12   11.46
  -5 -10  -4   10.15    3.31
  -5 -10  -3   61.06    7.14
  -5 -10  -2  142.49   10.36
  -5 -10  -1   26.88    4.73
  -5 -10   0   88.02    7.71
  -5 -10   1  156.10   10.05
  -5 -10   2   12.39    3.18
  -5 -10   3   80.00    6.45
  -5 -10   4  106.41    7.11
  -5 -10   5    2.23    1.52
  -5 -10   6  251.79   10.08
  -5  -9  -6   92.77    9.06
  -5  -9  -5    2.87    2.55
  -5  -9  -4   75.52    7.98
  -5  -9  -3   78.38    7.65
  -5  -9  -2    5.19    2.67
  -5  -9  -1  118.80    8.95
  -5  -9   0  141.71    9.34
  -5  -9   1    4.53    2.44
  -5  -9   2  151.72    8.98
  -5  -9   3  110.33    7.29
  -5  -9   4   19.76    3.37
  -5  -9   5  254.84   10.36
  -5  -9   6   26.33    3.23
  -5  -8  -7   90.36    9.09
  -5  -8  -6    0.14    2.53
  -5  -8  -5  115.26    9.67
  -5  -8  -4   93.18   11.69
  -5  -8  -3   14.90    3.70
  -5  -8  -2   61.63    6.47
  -5  -8  -1   99.10    7.90
  -5  -8   0   12.25    3.30
  -5  -8   1  101.89    7.44
  -5  -8   2   -1.98    1.81
  -5  -8   3   11.71    2.71
  -5  -8   4  298.63   11.55
  -5  -8   5    1.92    1.64
  -5  -8   6  255.23    9.37
  -5  -8   7  221.74    7.88
  -5  -7  -7   19.42    4.76
  -5  -7  -6  150.79   11.09
  -5  -7  -5   47.04    6.27
  -5  -7  -4   21.61    4.87
  -5  -7  -3   68.05    6.91
  -5  -7  -2   40.96    5.29
  -5  -7  -1  182.03   10.47
  -5  -7   0  279.87   10.95
  -5  -7   0  273.70   12.59
  -5  -7   1   25.09    3.35
  -5  -7   1   26.92    3.87
  -5  -7   2   51.56    4.11
  -5  -7   2   48.17    4.88
  -5  -7   3  172.74    7.01
  -5  -7   3  167.70    8.60
  -5  -7   4   -0.28    1.55
  -5  -7   5  179.77    7.94
  -5  -7   6  195.30    7.74
  -5  -7   7  198.76    7.03
  -5  -6  -8   47.62    6.57
  -5  -6  -7  215.92   13.30
  -5  -6  -6   43.65    6.19
  -5  -6  -5   18.02    4.20
  -5  -6  -4  113.54    8.99
  -5  -6  -3   32.04    4.87
  -5  -6  -2  148.07    9.49
  -5  -6  -1  165.35    7.71
  -5  -6  -1  162.12    8.53
  -5  -6  -1  161.35    9.66
  -5  -6   0    7.69    2.00
  -5  -6   0    6.53    2.01
  -5  -6   0    8.56    2.70
  -5  -6   1  168.54    8.25
  -5  -6   1  175.76    7.90
  -5  -6   1  167.67    9.09
  -5  -6   2  168.39    8.53
  -5  -6   2  186.58    7.57
  -5  -6   2  186.30    9.21
  -5  -6   3   32.47    3.71
  -5  -6   3   37.55    2.91
  -5  -6   4  281.80    7.75
  -5  -6   4  270.90   10.38
  -5  -6   5   86.83    5.22
  -5  -6   6   42.14    3.34
  -5  -6   7  386.63   10.22
  -5  -6   8   30.06    1.92
  -5  -5  -9   60.09    7.39
  -5  -5  -8  117.04    9.92
  -5  -5  -7   17.71    4.23
  -5  -5  -6   50.34    6.26
  -5  -5  -5  115.80    9.08
  -5  -5  -4   -0.31    2.26
  -5  -5  -3  127.75    8.91
  -5  -5  -2  125.84    8.52
  -5  -5  -2  121.69    7.41
  -5  -5  -1   23.76    3.32
  -5  -5  -1   24.46    3.84
  -5  -5   0  504.22   17.11
  -5  -5   0  504.22   15.04
  -5  -5   1  230.93   10.58
  -5  -5   1  243.11    9.18
  -5  -5   2   22.33    3.39
  -5  -5   2   27.81    2.80
  -5  -5   3  215.07    9.26
  -5  -5   3  199.49    6.84
  -5  -5   4    3.38    1.60
  -5  -5   5  183.70    7.60
  -5  -5   6  321.63    9.76
  -5  -5   7   25.18    2.31
  -5  -4  -9  136.45   10.74
  -5  -4  -8    2.28    3.01
  -5  -4  -7  147.32   10.68
  -5  -4  -6   97.54    8.47
  -5  -4  -5    1.35    2.37
  -5  -4  -4  129.20    9.06
  -5  -4  -3  175.69   10.26
  -5  -4  -2   24.83    3.43
  -5  -4  -2   24.72    3.78
  -5  -4  -1  168.71    8.27
  -5  -4  -1  198.25   11.69
  -5  -4   0    6.63    1.98
  -5  -4   0    9.07    2.30
  -5  -4   1  135.73    6.45
  -5  -4   1  140.65    7.96
  -5  -4   2  826.50   18.31
  -5  -4   2  815.56   21.38
  -5  -4   3   -0.06    0.78
  -5  -4   3    0.49    1.34
  -5  -4   4  116.70    6.27
  -5  -4   5  318.89   10.30
  -5  -4   6    6.07    3.21
  -5  -4   7  229.57    7.07
  -5  -3 -10   74.08    7.97
  -5  -3  -9   25.31    4.91
  -5  -3  -8  128.53   10.06
  -5  -3  -7   20.44    4.26
  -5  -3  -6   44.64    5.71
  -5  -3  -5  146.30    9.84
  -5  -3  -4  191.44   10.89
  -5  -3  -3  310.33   12.57
  -5  -3  -3  292.03   13.31
  -5  -3  -2  322.46   12.13
  -5  -3  -2  323.52   13.59
  -5  -3  -1    4.42    2.09
  -5  -3  -1   10.50    2.27
  -5  -3   0  231.32    9.04
  -5  -3   0  225.35   10.49
  -5  -3   1  612.46   15.55
  -5  -3   1  615.45   18.15
  -5  -3   2    4.03    1.74
  -5  -3   2    3.16    1.17
  -5  -3   3  446.79   13.84
  -5  -3   4  195.65    8.14
  -5  -3   5   93.64    5.14
  -5  -3   6  400.01   11.04
  -5  -3   7   75.79    3.77
  -5  -2 -11   33.97    5.83
  -5  -2 -10   82.50    8.52
  -5  -2  -9  225.40   13.58
  -5  -2  -8   14.34    3.82
  -5  -2  -7   26.37    4.64
  -5  -2  -6  130.32    9.35
  -5  -2  -5   17.75    3.69
  -5  -2  -4  318.44   14.13
  -5  -2  -3  293.36   13.07
  -5  -2  -3  276.49   11.52
  -5  -2  -2   13.05    2.34
  -5  -2  -2   16.45    3.15
  -5  -2  -1  152.02    7.57
  -5  -2  -1  157.20    8.79
  -5  -2   0  310.81   10.64
  -5  -2   0  330.26   12.74
  -5  -2   1   96.66    6.37
  -5  -2   2  409.64   13.54
  -5  -2   3  172.76    7.92
  -5  -2   4   97.77    5.61
  -5  -2   5  131.74    6.17
  -5  -2   6   32.08    2.87
  -5  -1 -11   47.76    6.44
  -5  -1 -10  128.66   10.63
  -5  -1  -9   15.94    4.15
  -5  -1  -8   82.93    7.83
  -5  -1  -7  103.68    8.56
  -5  -1  -6   12.31    3.64
  -5  -1  -5  282.93   13.52
  -5  -1  -4  127.09    8.60
  -5  -1  -3   57.08    5.01
  -5  -1  -3   54.75    5.59
  -5  -1  -2  449.08   14.54
  -5  -1  -2  475.13   16.55
  -5  -1  -1   94.67    5.82
  -5  -1  -1   83.20    6.35
  -5  -1   0   72.64    5.76
  -5  -1   1  264.42   10.84
  -5  -1   2   -0.58    1.34
  -5  -1   3  308.30   11.01
  -5  -1   4  245.64    9.27
  -5  -1   5    0.76    1.32
  -5  -1   6  135.58    5.96
  -5   0 -11   56.78    6.94
  -5   0 -10   15.19    4.25
  -5   0  -9  172.44   11.52
  -5   0  -8  129.88    9.80
  -5   0  -7   36.61    5.26
  -5   0  -6  345.63   15.34
  -5   0  -5   92.78    7.62
  -5   0  -4  128.59    7.81
  -5   0  -4  136.83    8.86
  -5   0  -3  459.23   15.13
  -5   0  -3  430.35   16.14
  -5   0  -2   19.06    3.22
  -5   0  -2   15.67    2.65
  -5   0  -1   95.16    6.70
  -5   0   0  322.41   12.50
  -5   0   1    4.97    1.92
  -5   0   2  149.32    7.70
  -5   0   3  310.55   11.13
  -5   0   4   42.99    3.78
  -5   0   5  104.25    5.62
  -5   1 -12   40.95    6.06
  -5   1 -11   -0.86    2.90
  -5   1 -10   99.93    8.99
  -5   1  -9   34.15    5.39
  -5   1  -8   24.41    4.53
  -5   1  -7  304.45   14.69
  -5   1  -6  133.02    9.29
  -5   1  -5  492.10   18.22
  -5   1  -4  214.58   10.19
  -5   1  -4  201.28   10.83
  -5   1  -3    3.29    2.01
  -5   1  -2  287.61   12.36
  -5   1  -1  257.14   11.31
  -5   1   0  196.27    9.49
  -5   1   1  422.65   14.24
  -5   1   2  254.66   10.38
  -5   1   3  143.68    7.33
  -5   1   4  496.72   14.49
  -5   2 -12  118.47   10.22
  -5   2 -11  129.60   10.40
  -5   2 -10   45.20    5.96
  -5   2  -9   44.60    6.05
  -5   2  -8  257.04   13.69
  -5   2  -7   29.58    4.93
  -5   2  -6  536.69   19.58
  -5   2  -5  318.44   14.20
  -5   2  -4    5.67    4.39
  -5   2  -3  122.69    8.14
  -5   2  -2  327.23   13.33
  -5   2  -1   48.65    4.90
  -5   2   0  138.10    7.91
  -5   2   1    8.03    2.10
  -5   2   2  194.66    9.07
  -5   2   3  260.24   10.29
  -5   2   4   95.82    5.86
  -5   3 -12  247.55   14.71
  -5   3 -11   12.11    3.58
  -5   3 -10   93.76    8.65
  -5   3  -9  344.61   16.40
  -5   3  -8    2.70    2.58
  -5   3  -7  271.57   13.71
  -5   3  -6   84.42    7.38
  -5   3  -5   84.83    7.25
  -5   3  -4  397.40   15.66
  -5   3  -3  163.33    9.42
  -5   3  -2   78.20    6.40
  -5   3  -1  167.13    9.10
  -5   3   0   12.76    2.62
  -5   3   1  320.20   12.37
  -5   3   2  228.68    9.99
  -5   3   3   -0.36    1.81
  -5   4 -12   18.57    4.65
  -5   4 -11  225.13   13.70
  -5   4 -10  123.88    9.89
  -5   4  -9   50.44    6.42
  -5   4  -8  409.04   17.62
  -5   4  -7   50.91    6.04
  -5   4  -6  210.42   11.67
  -5   4  -5  564.08   19.76
  -5   4  -4   45.83    5.24
  -5   4  -3   75.93    6.53
  -5   4  -2  353.18   14.14
  -5   4  -1    0.84    1.94
  -5   4   0  159.91    8.77
  -5   4   1  299.26   12.08
  -5   4   2   10.52    2.55
  -5   5 -12  171.00   12.20
  -5   5 -11   26.72    4.67
  -5   5 -10   47.39    6.53
  -5   5  -9  300.34   15.25
  -5   5  -8   30.39    4.91
  -5   5  -7  303.25   14.70
  -5   5  -6   56.07    6.15
  -5   5  -5   61.27    6.18
  -5   5  -4  491.45   17.99
  -5   5  -3  254.78   12.55
  -5   5  -2  126.63    8.26
  -5   5  -1  376.00   14.58
  -5   5   0  249.86   11.32
  -5   5   1  100.62    6.92
  -5   6 -12   44.48    6.42
  -5   6 -11  157.24   11.50
  -5   6 -10  128.54   10.16
  -5   6  -9    8.79    3.38
  -5   6  -8  325.94   15.67
  -5   6  -7   51.27    6.15
  -5   6  -6   13.10    3.33
  -5   6  -5   48.31    5.55
  -5   6  -4  120.40    8.56
  -5   6  -3  176.44   10.21
  -5   6  -2  379.68   15.11
  -5   6  -1    5.22    2.42
  -5   6   0  149.00    8.79
  -5   7 -12  128.01   10.52
  -5   7 -11  244.82   14.32
  -5   7 -10   80.22    8.06
  -5   7  -9  177.20   11.77
  -5   7  -8   31.21    4.99
  -5   7  -7   72.58    7.19
  -5   7  -6  112.37    8.80
  -5   7  -5   32.44    4.78
  -5   7  -4  182.51   10.71
  -5   7  -3  238.94   12.08
  -5   7  -2   53.59    5.62
  -5   7  -1  451.15   16.67
  -5   8 -12   90.53    8.96
  -5   8 -11   74.09    7.90
  -5   8 -10  356.33   17.37
  -5   8  -9    1.20    2.36
  -5   8  -8  134.17   10.10
  -5   8  -7  268.56   14.22
  -5   8  -6    4.90    2.30
  -5   8  -5   53.64    5.99
  -5   8  -4  171.64   10.48
  -5   8  -3    7.79    2.81
  -5   8  -2  365.34   15.30
  -5   9 -12   44.69    6.66
  -5   9 -11  189.79   12.63
  -5   9 -10   -0.75    2.98
  -5   9  -9  341.98   16.81
  -5   9  -8  175.14   11.72
  -5   9  -7   -0.59    2.63
  -5   9  -6  272.13   14.12
  -5   9  -5  146.15   10.02
  -5   9  -4   22.78    4.17
  -5   9  -3  262.99   13.28
  -5  10 -11    1.91    2.14
  -5  10 -10  240.04   14.43
  -5  10  -9   47.92    6.40
  -5  10  -8    6.01    3.06
  -5  10  -7  150.63   10.77
  -5  10  -6  215.23   12.71
  -5  10  -5  128.40    9.60
  -5  11 -11  133.25   10.95
  -5  11 -10   16.78    3.85
  -5  11  -9  108.50    9.52
  -5  11  -8  238.64   14.02
  -5  11  -7  131.01   10.23
  -5  11  -6  108.96    9.10
  -5  12 -10   68.50    7.81
  -5  12  -9  127.87   10.63
  -5  12  -8    5.78    3.15
  -4 -17   2    6.61    3.75
  -4 -16   0    7.93    2.89
  -4 -16   1   42.53    5.87
  -4 -16   2  133.87   10.45
  -4 -15  -2   74.87    7.31
  -4 -15  -1   20.35    4.32
  -4 -15  -1   24.74    4.64
  -4 -15   0   25.88    5.24
  -4 -15   0   27.59    4.62
  -4 -15   1   99.49    8.90
  -4 -15   1  117.82    9.47
  -4 -15   2    4.47    2.94
  -4 -15   2    1.63    2.11
  -4 -15   3  121.32    9.13
  -4 -15   3  105.13    9.12
  -4 -15   4   41.78    6.02
  -4 -15   5   -0.29    2.16
  -4 -15   6  139.81   10.63
  -4 -15   7   52.43    6.83
  -4 -14  -3   66.29    7.68
  -4 -14  -2    5.13    2.37
  -4 -14  -2    2.05    2.46
  -4 -14  -1   68.54    7.61
  -4 -14  -1   72.89    7.15
  -4 -14   0   75.27    7.82
  -4 -14   0   86.77    7.91
  -4 -14   1    5.51    3.05
  -4 -14   1    4.09    2.63
  -4 -14   2  158.09   10.39
  -4 -14   2  157.52   10.62
  -4 -14   3   45.51    5.50
  -4 -14   3   55.67    6.59
  -4 -14   4   13.73    3.40
  -4 -14   4   21.81    4.38
  -4 -14   5   32.09    4.28
  -4 -14   5   32.47    5.17
  -4 -14   6   12.22    2.94
  -4 -14   6   17.42    3.86
  -4 -14   7  125.03    9.85
  -4 -14   8   48.63    6.43
  -4 -14   9    3.67    3.00
  -4 -13  -4   35.74    5.77
  -4 -13  -3    2.28    2.89
  -4 -13  -2   56.78    6.73
  -4 -13  -2   52.23    5.83
  -4 -13  -1   31.61    5.15
  -4 -13  -1   27.46    4.40
  -4 -13   0   17.45    4.20
  -4 -13   0   11.94    3.29
  -4 -13   1  208.12   11.85
  -4 -13   1  194.58   11.51
  -4 -13   2    7.47    2.93
  -4 -13   2   14.75    3.63
  -4 -13   3  111.82    8.14
  -4 -13   3  133.03    9.52
  -4 -13   4  101.90    7.53
  -4 -13   4  120.07    9.10
  -4 -13   5    2.44    2.03
  -4 -13   5    1.54    2.40
  -4 -13   6  126.49    7.69
  -4 -13   6  114.36    9.16
  -4 -13   7   77.31    5.69
  -4 -13   7   77.50    7.71
  -4 -13   8   19.31    3.96
  -4 -12  -5   46.11    6.82
  -4 -12  -4   34.69    5.79
  -4 -12  -3  174.46   11.86
  -4 -12  -2   39.38    5.92
  -4 -12  -1   18.82    3.95
  -4 -12  -1   17.86    3.68
  -4 -12   0  171.41   10.78
  -4 -12   0  192.38   10.94
  -4 -12   1    2.10    1.82
  -4 -12   1    2.75    2.13
  -4 -12   2  121.37    8.34
  -4 -12   2  139.44    9.50
  -4 -12   3   83.99    6.83
  -4 -12   3   87.72    7.60
  -4 -12   4    2.64    2.07
  -4 -12   4    0.76    2.68
  -4 -12   5  112.75    7.19
  -4 -12   5  101.40    8.21
  -4 -12   6    7.39    2.17
  -4 -12   6    7.26    2.88
  -4 -12   7   36.13    3.81
  -4 -12   7   46.49    5.83
  -4 -11  -6   58.86    7.25
  -4 -11  -5   95.26    8.89
  -4 -11  -4  168.70   11.47
  -4 -11  -3   47.42    6.70
  -4 -11  -2  101.34    8.55
  -4 -11  -1  216.23   11.98
  -4 -11   0   14.48    3.55
  -4 -11   1  189.92   10.54
  -4 -11   1  221.96   11.49
  -4 -11   2   86.46    6.89
  -4 -11   2   81.45    6.96
  -4 -11   3    4.85    2.32
  -4 -11   3    3.26    1.94
  -4 -11   4  372.16   13.69
  -4 -11   4  357.05   15.39
  -4 -11   5   98.40    6.36
  -4 -11   6   15.05    2.68
  -4 -11   7  133.28    6.74
  -4 -11   8    7.09    1.91
  -4 -10  -7    3.95    1.81
  -4 -10  -6   73.43    7.87
  -4 -10  -5  244.96   13.92
  -4 -10  -4    2.26    2.98
  -4 -10  -3  214.66   12.35
  -4 -10  -2  127.30    9.19
  -4 -10  -1   41.00    5.24
  -4 -10   0  161.78    9.65
  -4 -10   1   10.74    2.89
  -4 -10   2  125.49    7.89
  -4 -10   3  220.11   10.24
  -4 -10   4   80.88    5.83
  -4 -10   5  142.87    7.44
  -4 -10   6  135.41    6.78
  -4 -10   7   27.41    2.90
  -4 -10   8  151.56    6.07
  -4 -10   9  174.78    5.69
  -4  -9  -8   12.31    3.61
  -4  -9  -7   64.51    7.24
  -4  -9  -6   37.99    5.59
  -4  -9  -5   11.68    3.79
  -4  -9  -4  155.09   10.32
  -4  -9  -3   52.24    4.52
  -4  -9  -3   58.23    6.17
  -4  -9  -2   90.31    5.95
  -4  -9  -2   88.48    7.43
  -4  -9  -1  255.70   10.55
  -4  -9  -1  255.15   12.33
  -4  -9   0    0.57    1.23
  -4  -9   0    1.31    2.19
  -4  -9   1  239.13   11.19
  -4  -9   2  116.20    7.60
  -4  -9   3    3.14    1.73
  -4  -9   4  330.36   11.84
  -4  -9   5  201.03    8.48
  -4  -9   6    4.51    1.50
  -4  -9   7  376.47   10.76
  -4  -9   8  174.26    6.04
  -4  -9   8  178.75    5.27
  -4  -9   9    6.74    0.83
  -4  -9   9    8.99    1.12
  -4  -8  -9   11.11    3.54
  -4  -8  -8  190.17   12.53
  -4  -8  -7   12.92    3.67
  -4  -8  -6   31.12    5.15
  -4  -8  -5  156.91   10.51
  -4  -8  -4   37.82    3.55
  -4  -8  -4   44.15    5.56
  -4  -8  -3   44.66    3.98
  -4  -8  -3   47.07    5.39
  -4  -8  -2  231.75    9.42
  -4  -8  -2  248.65   12.06
  -4  -8  -1   39.07    3.80
  -4  -8  -1   37.82    4.73
  -4  -8   0  156.49    7.84
  -4  -8   0  141.40    8.46
  -4  -8   1   39.41    4.04
  -4  -8   1   35.92    4.15
  -4  -8   2    8.79    2.05
  -4  -8   2    9.59    2.49
  -4  -8   3  273.97   10.73
  -4  -8   4   47.53    4.04
  -4  -8   5   36.11    3.51
  -4  -8   6  335.57   10.20
  -4  -8   7   56.37    3.44
  -4  -8   8   83.64    3.55
  -4  -7 -10   22.12    4.66
  -4  -7  -9  163.39   11.70
  -4  -7  -8   40.49    6.19
  -4  -7  -7  140.33   10.32
  -4  -7  -6   93.18    8.18
  -4  -7  -5    5.05    2.58
  -4  -7  -4  314.15   10.17
  -4  -7  -4  335.98   14.69
  -4  -7  -3  345.02   11.08
  -4  -7  -3  368.42   15.06
  -4  -7  -2   30.21    3.21
  -4  -7  -2   30.43    4.17
  -4  -7  -1  151.62    7.21
  -4  -7  -1  151.61    8.75
  -4  -7   0   35.61    3.57
  -4  -7   0   31.65    3.98
  -4  -7   1    1.74    1.65
  -4  -7   1    0.52    1.70
  -4  -7   2  335.36   11.95
  -4  -7   2  317.80   11.74
  -4  -7   3   37.10    3.88
  -4  -7   3   33.83    3.51
  -4  -7   4   32.25    3.70
  -4  -7   4   39.75    3.60
  -4  -7   5  296.43    9.63
  -4  -7   6    4.74    1.36
  -4  -7   7   97.81    4.19
  -4  -7   8  381.06    8.03
  -4  -6 -11   55.98    7.04
  -4  -6 -10  116.76    9.71
  -4  -6  -9   -2.20    2.17
  -4  -6  -8  152.90   10.79
  -4  -6  -7  231.13   12.88
  -4  -6  -6    9.63    3.32
  -4  -6  -5  162.02    6.13
  -4  -6  -5  156.64    9.94
  -4  -6  -4   28.99    2.69
  -4  -6  -4   30.78    4.35
  -4  -6  -3  216.07    7.86
  -4  -6  -3  205.88   10.70
  -4  -6  -2  246.36    8.77
  -4  -6  -2  251.29   11.51
  -4  -6  -1    5.01    1.76
  -4  -6  -1    6.26    2.37
  -4  -6   0  107.71    5.94
  -4  -6   0  123.40    7.30
  -4  -6   1  356.86   11.81
  -4  -6   1  365.14   12.77
  -4  -6   2   76.94    5.23
  -4  -6   2   69.71    5.08
  -4  -6   3  108.17    6.41
  -4  -6   3  115.48    6.16
  -4  -6   4  117.32    6.91
  -4  -6   4  118.99    5.89
  -4  -6   5   56.17    4.80
  -4  -6   5   53.89    3.67
  -4  -6   6  201.44    6.73
  -4  -6   7  158.72    5.07
  -4  -5 -11   82.71    8.65
  -4  -5 -10   11.51    3.54
  -4  -5  -9  217.20   12.94
  -4  -5  -8  134.30    9.81
  -4  -5  -7   31.24    5.11
  -4  -5  -6  305.05    7.74
  -4  -5  -6  290.05   13.84
  -4  -5  -5   11.06    1.56
  -4  -5  -5   15.24    3.39
  -4  -5  -4  203.00    6.84
  -4  -5  -4  197.97   10.55
  -4  -5  -3  497.28   12.62
  -4  -5  -3  509.92   17.30
  -4  -5  -2   29.74    3.05
  -4  -5  -2   31.39    3.96
  -4  -5  -1  230.98    8.31
  -4  -5  -1  226.42   10.23
  -4  -5   0  226.79    8.52
  -4  -5   0  226.48    9.83
  -4  -5   1    5.24    1.58
  -4  -5   1    6.81    2.14
  -4  -5   2  333.20   11.29
  -4  -5   2  328.81   11.22
  -4  -5   3  191.58    8.48
  -4  -5   3  196.56    7.92
  -4  -5   3  200.85    6.47
  -4  -5   4   52.20    4.73
  -4  -5   4   57.16    2.76
  -4  -5   4   49.48    3.61
  -4  -5   5  294.61   11.29
  -4  -5   5  302.65    8.88
  -4  -5   5  284.24    5.71
  -4  -5   6  158.76    8.28
  -4  -5   6  152.68    5.43
  -4  -5   7   50.64    2.45
  -4  -4 -12   81.83    8.43
  -4  -4 -11   24.07    4.66
  -4  -4 -10  305.70   15.63
  -4  -4  -9   37.36    5.48
  -4  -4  -8   87.34    7.79
  -4  -4  -7  334.72   15.05
  -4  -4  -6   42.51    5.25
  -4  -4  -5  127.61    8.48
  -4  -4  -4  145.15    5.22
  -4  -4  -4  142.18    8.71
  -4  -4  -3  109.55    4.75
  -4  -4  -3   98.84    7.03
  -4  -4  -2  593.02   14.11
  -4  -4  -2  583.66   17.95
  -4  -4  -1  442.41   12.03
  -4  -4  -1  452.82   14.77
  -4  -4   0   71.88    4.44
  -4  -4   0   69.97    4.53
  -4  -4   0   74.04    5.35
  -4  -4   1  452.45   12.91
  -4  -4   1  432.44   11.97
  -4  -4   1  460.04   13.89
  -4  -4   2  192.17    8.01
  -4  -4   2  188.19    7.91
  -4  -4   2  188.77    6.55
  -4  -4   3   40.98    3.73
  -4  -4   3   39.49    3.37
  -4  -4   3   41.40    2.53
  -4  -4   4  654.44   17.81
  -4  -4   4  652.97   15.64
  -4  -4   4  672.77   12.54
  -4  -4   5   27.91    3.31
  -4  -4   5   26.03    2.40
  -4  -4   6   46.01    2.73
  -4  -4   7  290.79    6.67
  -4  -3 -13   41.31    6.56
  -4  -3 -12   43.18    6.00
  -4  -3 -11  133.03   10.33
  -4  -3 -10   -1.05    2.36
  -4  -3  -9  202.54   12.12
  -4  -3  -8  270.53   13.59
  -4  -3  -7    6.51    2.79
  -4  -3  -6  469.89   17.40
  -4  -3  -5  395.48   14.41
  -4  -3  -5  369.42   14.75
  -4  -3  -4   65.97    5.34
  -4  -3  -4   58.33    5.52
  -4  -3  -3  169.59    8.97
  -4  -3  -3  169.80    8.31
  -4  -3  -2   98.77    5.90
  -4  -3  -2   88.68    6.20
  -4  -3  -1    3.34    1.54
  -4  -3  -1   -0.31    1.50
  -4  -3   0  641.29   15.90
  -4  -3   0  647.67   17.62
  -4  -3   1  194.38    7.06
  -4  -3   1  208.21    8.55
  -4  -3   2  264.32    7.77
  -4  -3   2  277.53    9.67
  -4  -3   3  682.70   13.68
  -4  -3   3  676.60   16.42
  -4  -3   4   -0.15    0.90
  -4  -3   5  385.17   10.03
  -4  -3   6  561.40   12.18
  -4  -2 -13  121.60   10.04
  -4  -2 -12  118.22    9.89
  -4  -2 -11    2.05    2.76
  -4  -2 -10  140.19   10.12
  -4  -2  -9   98.40    8.30
  -4  -2  -8   29.97    4.73
  -4  -2  -7  351.49   15.01
  -4  -2  -6   27.54    4.10
  -4  -2  -5  104.51    7.41
  -4  -2  -5  108.39    7.05
  -4  -2  -4   59.06    5.38
  -4  -2  -4   55.65    4.95
  -4  -2  -3    1.37    1.32
  -4  -2  -3    3.49    1.94
  -4  -2  -2  143.93    7.08
  -4  -2  -2  137.22    7.69
  -4  -2  -1  692.03   17.25
  -4  -2  -1  704.25   18.93
  -4  -2   0   72.67    4.33
  -4  -2   0   65.07    4.84
  -4  -2   1   54.69    4.20
  -4  -2   1   48.20    3.23
  -4  -2   2  197.68    6.33
  -4  -2   2  216.57    8.21
  -4  -2   3   27.49    2.77
  -4  -2   4  817.50   17.88
  -4  -2   5  161.95    5.89
  -4  -2   6  191.56    5.94
  -4  -1 -14   70.46    8.09
  -4  -1 -13   79.88    8.32
  -4  -1 -12   53.42    6.58
  -4  -1 -11  182.12   11.76
  -4  -1 -10   92.51    8.28
  -4  -1  -9  101.12    8.28
  -4  -1  -8  296.14   13.87
  -4  -1  -7   29.87    4.39
  -4  -1  -6  141.19    8.82
  -4  -1  -5  284.73   12.31
  -4  -1  -5  279.90   11.57
  -4  -1  -4    4.48    1.55
  -4  -1  -4    3.96    1.93
  -4  -1  -3  122.90    7.80
  -4  -1  -3  117.08    7.18
  -4  -1  -2  354.20   12.64
  -4  -1  -2  340.73   11.42
  -4  -1  -1    1.90    1.22
  -4  -1  -1    0.74    1.50
  -4  -1   0  444.72   11.98
  -4  -1   0  425.30   13.34
  -4  -1   1  185.25    6.57
  -4  -1   1  187.25    7.89
  -4  -1   2   27.22    2.95
  -4  -1   3  280.32    9.18
  -4  -1   4  103.99    4.99
  -4  -1   5  433.59   11.03
  -4   0 -14   40.32    6.13
  -4   0 -13   78.70    8.06
  -4   0 -12  324.72   16.20
  -4   0 -11    1.87    2.27
  -4   0 -10   68.64    7.02
  -4   0  -9  328.36   14.94
  -4   0  -8   21.62    4.00
  -4   0  -7  165.32    9.77
  -4   0  -6  172.28    9.65
  -4   0  -5    9.68    2.59
  -4   0  -5    9.52    2.21
  -4   0  -4  287.36   11.86
  -4   0  -4  276.41   10.99
  -4   0  -3  129.98    7.52
  -4   0  -3  130.78    6.94
  -4   0  -2   67.15    4.70
  -4   0  -2   71.48    5.39
  -4   0  -1  512.34   14.02
  -4   0  -1  548.58   15.80
  -4   0   0  105.75    6.01
  -4   0   1   33.79    3.31
  -4   0   2  338.92   10.72
  -4   0   3    1.33    1.16
  -4   0   4  111.53    5.56
  -4   0   5  695.63   15.66
  -4   1 -14   77.41    8.14
  -4   1 -13  153.25   11.19
  -4   1 -12    0.05    2.34
  -4   1 -11  134.51    9.93
  -4   1 -10  132.82    9.57
  -4   1  -9    2.02    2.15
  -4   1  -8  238.32   12.05
  -4   1  -7  264.49   12.36
  -4   1  -6   89.05    6.49
  -4   1  -6   80.27    6.58
  -4   1  -5  176.80    8.80
  -4   1  -5  172.23    9.26
  -4   1  -4   20.14    3.19
  -4   1  -4   25.32    3.28
  -4   1  -3   55.45    4.55
  -4   1  -3   53.61    4.81
  -4   1  -2  687.25   17.57
  -4   1  -2  685.68   18.89
  -4   1  -1   45.25    4.14
  -4   1   0  873.60   21.14
  -4   1   1  491.30   14.07
  -4   1   2   13.11    2.18
  -4   1   3  194.55    7.59
  -4   1   4  478.30   12.75
  -4   2 -15  147.04   11.52
  -4   2 -14  266.59   15.22
  -4   2 -13   25.46    5.02
  -4   2 -12  148.42   10.65
  -4   2 -11  150.71   10.40
  -4   2 -10   43.31    5.57
  -4   2  -9  306.02   14.18
  -4   2  -8  101.50    7.73
  -4   2  -7    0.27    1.85
  -4   2  -6  240.25   10.86
  -4   2  -6  236.86   11.32
  -4   2  -5  126.75    7.38
  -4   2  -5  118.20    7.61
  -4   2  -4   47.70    4.32
  -4   2  -4   41.22    4.52
  -4   2  -3  333.85   12.50
  -4   2  -2   37.55    4.05
  -4   2  -1  470.31   14.53
  -4   2   0  248.25    9.71
  -4   2   1  153.05    7.23
  -4   2   2  470.15   13.50
  -4   2   3  229.31    8.51
  -4   3 -15   53.22    7.02
  -4   3 -14   19.12    4.46
  -4   3 -13  298.27   15.62
  -4   3 -12  157.65   10.94
  -4   3 -11  110.99    8.87
  -4   3 -10  195.58   11.50
  -4   3  -9   11.25    3.06
  -4   3  -8  184.17   10.48
  -4   3  -7  355.60   14.50
  -4   3  -6   39.16    4.62
  -4   3  -6   34.25    4.15
  -4   3  -5  439.50   15.52
  -4   3  -4  930.91   24.26
  -4   3  -3   36.06    4.15
  -4   3  -2  604.95   17.57
  -4   3  -1  318.24   11.65
  -4   3   0  159.30    7.72
  -4   3   1  691.21   18.04
  -4   3   2  195.84    8.19
  -4   3   3   85.92    5.18
  -4   4 -15   91.09    8.82
  -4   4 -14  146.99   11.11
  -4   4 -13   33.45    5.50
  -4   4 -12   87.75    8.22
  -4   4 -11  404.51   17.39
  -4   4 -10    4.07    2.85
  -4   4  -9  124.83    8.92
  -4   4  -8  166.53    9.90
  -4   4  -7   20.99    3.61
  -4   4  -6  457.86   16.34
  -4   4  -5  412.12   15.03
  -4   4  -4   16.97    3.01
  -4   4  -3  802.03   21.67
  -4   4  -2  109.28    6.80
  -4   4  -1  112.01    6.67
  -4   4   0  565.63   16.41
  -4   4   1   13.69    2.47
  -4   4   2  340.07   11.57
  -4   5 -15   41.85    6.15
  -4   5 -14    0.35    2.44
  -4   5 -13   35.48    5.52
  -4   5 -12  144.01   10.36
  -4   5 -11    5.26    2.77
  -4   5 -10  139.00    9.55
  -4   5  -9    2.70    2.48
  -4   5  -8  182.87   10.47
  -4   5  -7  412.72   15.85
  -4   5  -6   24.75    3.78
  -4   5  -5  135.42    8.29
  -4   5  -4  823.80   22.68
  -4   5  -3   38.65    4.26
  -4   5  -2  502.49   16.07
  -4   5  -1  180.47    8.77
  -4   5   0    0.29    1.57
  -4   5   1  278.89   10.78
  -4   6 -15   53.03    6.68
  -4   6 -14   23.07    4.92
  -4   6 -13  138.59   10.44
  -4   6 -12   41.10    5.83
  -4   6 -11  161.92   10.76
  -4   6 -10  152.33   10.11
  -4   6  -9   10.66    3.20
  -4   6  -8   61.39    6.12
  -4   6  -7   14.25    3.37
  -4   6  -6  150.43    9.09
  -4   6  -5  357.92   14.16
  -4   6  -4   21.94    3.47
  -4   6  -3  341.61   13.23
  -4   6  -2   92.66    6.47
  -4   6  -1    6.38    2.00
  -4   6   0  167.53    8.50
  -4   7 -15  143.14   11.10
  -4   7 -14   18.74    4.30
  -4   7 -13   78.93    8.00
  -4   7 -12  193.18   12.12
  -4   7 -11   34.71    5.06
  -4   7 -10  112.71    8.75
  -4   7  -9  227.62   12.25
  -4   7  -8    0.92    1.89
  -4   7  -7  325.67   14.16
  -4   7  -6  520.09   18.11
  -4   7  -5   24.75    3.85
  -4   7  -4  228.04   10.96
  -4   7  -3  135.57    8.16
  -4   7  -2   84.67    6.32
  -4   7  -1  224.55   10.34
  -4   8 -15   19.64    4.50
  -4   8 -14  177.44   12.16
  -4   8 -13  159.28   11.32
  -4   8 -12    3.03    2.54
  -4   8 -11  136.23    9.95
  -4   8 -10  311.85   14.96
  -4   8  -9   28.26    4.47
  -4   8  -8  157.22    9.96
  -4   8  -7  112.59    8.24
  -4   8  -6   38.07    4.81
  -4   8  -5  575.50   19.17
  -4   8  -4  130.23    8.33
  -4   8  -3    5.63    2.47
  -4   8  -2  237.06   11.07
  -4   9 -15   86.92    8.74
  -4   9 -14  110.49    9.61
  -4   9 -13   29.47    5.29
  -4   9 -12  217.76   13.06
  -4   9 -11   86.13    8.08
  -4   9 -10   51.07    6.19
  -4   9  -9  660.95   22.67
  -4   9  -8   22.06    4.23
  -4   9  -7   58.25    6.07
  -4   9  -6  455.85   17.30
  -4   9  -5    4.86    2.81
  -4   9  -4  144.67    9.00
  -4  10 -15  134.55   11.05
  -4  10 -14   53.99    6.99
  -4  10 -13  141.59   10.78
  -4  10 -12   47.39    6.45
  -4  10 -11   68.11    7.25
  -4  10 -10  280.73   14.53
  -4  10  -9   89.97    8.00
  -4  10  -8  276.54   13.85
  -4  10  -7  260.46   13.18
  -4  10  -6   19.56    3.98
  -4  10  -5  457.06   17.42
  -4  11 -14  140.04   11.00
  -4  11 -13    8.44    3.18
  -4  11 -12  158.26   11.34
  -4  11 -11  217.00   12.98
  -4  11 -10    3.91    2.73
  -4  11  -9  163.48   10.82
  -4  11  -8  302.82   14.80
  -4  11  -7   39.25    5.22
  -4  12 -14    8.78    3.84
  -4  12 -13   64.01    7.47
  -4  12 -12   66.71    7.51
  -4  12 -11   39.59    5.83
  -4  12 -10  100.01    8.79
  -4  12  -9   99.06    8.60
  -4  13 -13   59.06    7.22
  -4  13 -12   30.05    5.36
  -3 -19   5   53.72    7.12
  -3 -19   6   17.39    4.98
  -3 -18   3   48.70    6.67
  -3 -18   4   50.78    6.45
  -3 -18   5   -1.40    2.15
  -3 -18   6   31.30    5.45
  -3 -18   7   92.31    8.31
  -3 -17  -3   86.58    8.27
  -3 -17  -2    6.69    2.61
  -3 -17  -1   49.68    6.33
  -3 -17   0   92.75    8.37
  -3 -17   1    8.48    3.22
  -3 -17   1    9.84    2.46
  -3 -17   2   77.74    8.12
  -3 -17   2   72.90    7.54
  -3 -17   3   32.62    5.38
  -3 -17   3   42.28    5.76
  -3 -17   4    0.36    2.47
  -3 -17   4   10.48    3.32
  -3 -17   5   67.80    7.15
  -3 -17   6   81.54    7.74
  -3 -17   7    6.14    2.64
  -3 -16  -4   29.09    4.98
  -3 -16  -3    5.23    2.98
  -3 -16  -2   80.06    7.61
  -3 -16  -1   82.87    8.42
  -3 -16  -1   82.73    7.84
  -3 -16   0    1.31    2.10
  -3 -16   0   -0.04    2.65
  -3 -16   1   71.81    7.60
  -3 -16   1   71.17    7.24
  -3 -16   2   23.88    4.71
  -3 -16   2   27.42    4.73
  -3 -16   3    8.17    3.20
  -3 -16   3    2.21    1.94
  -3 -16   4   20.65    4.25
  -3 -16   4   25.56    4.45
  -3 -16   5   46.37    5.86
  -3 -16   5   37.27    5.55
  -3 -16   6   27.35    3.80
  -3 -16   6   41.34    5.95
  -3 -16   7  125.57    8.79
  -3 -16   7  128.88    9.95
  -3 -16   8    4.34    2.73
  -3 -16   9   73.14    7.82
  -3 -16  10  125.26   10.14
  -3 -15  -5   67.46    6.66
  -3 -15  -4   -0.53    2.13
  -3 -15  -3   84.12    8.68
  -3 -15  -3   61.32    6.57
  -3 -15  -2   51.53    6.80
  -3 -15  -2   58.30    6.42
  -3 -15  -1   14.07    3.60
  -3 -15  -1   13.58    3.61
  -3 -15   0   76.63    7.77
  -3 -15   0   64.47    6.56
  -3 -15   1   19.75    4.24
  -3 -15   1   30.23    4.73
  -3 -15   2    9.77    2.89
  -3 -15   2   10.51    2.92
  -3 -15   3   69.68    7.01
  -3 -15   3   65.16    6.82
  -3 -15   4   39.01    5.22
  -3 -15   4   38.36    5.42
  -3 -15   5   51.48    5.83
  -3 -15   5   42.87    5.75
  -3 -15   6  159.06    9.71
  -3 -15   6  154.91   10.67
  -3 -15   7    9.19    2.82
  -3 -15   8   75.31    7.48
  -3 -15   9   47.95    6.02
  -3 -15  10    6.36    2.71
  -3 -15  11  134.43   10.18
  -3 -15  12   67.97    7.34
  -3 -15  13   15.62    4.54
  -3 -14  -5   19.60    3.64
  -3 -14  -4   90.04    7.37
  -3 -14  -3   41.67    6.06
  -3 -14  -3   30.40    4.52
  -3 -14  -2   41.11    5.77
  -3 -14  -2   34.44    4.78
  -3 -14  -1  124.69    9.78
  -3 -14  -1  121.94    8.83
  -3 -14   0   13.41    3.95
  -3 -14   0   14.44    3.18
  -3 -14   1   14.50    3.92
  -3 -14   1    8.73    3.30
  -3 -14   2   37.98    5.23
  -3 -14   2   48.46    5.68
  -3 -14   3    4.98    2.43
  -3 -14   3    8.02    2.76
  -3 -14   4  102.11    7.93
  -3 -14   4  105.63    8.41
  -3 -14   5  180.45   10.22
  -3 -14   5  168.98   10.77
  -3 -14   6    5.46    2.28
  -3 -14   6    3.07    2.32
  -3 -14   7  130.71    9.49
  -3 -14   8  128.31    9.57
  -3 -14   9   71.58    7.22
  -3 -14  10   64.31    6.88
  -3 -14  11  129.45    9.75
  -3 -14  12   32.61    5.11
  -3 -14  13  141.46   10.28
  -3 -14  14    8.00    3.09
  -3 -13  -6   31.80    5.44
  -3 -13  -6   33.35    4.27
  -3 -13  -5  102.52    7.43
  -3 -13  -4    7.63    2.52
  -3 -13  -3   29.83    4.28
  -3 -13  -2  118.01    9.42
  -3 -13  -2  111.76    7.99
  -3 -13  -1    1.10    2.32
  -3 -13  -1   -0.22    1.94
  -3 -13   0  152.50   10.16
  -3 -13   0  150.51    9.46
  -3 -13   1   86.36    7.54
  -3 -13   1   85.63    7.17
  -3 -13   2    1.87    2.21
  -3 -13   2    4.01    2.53
  -3 -13   3  141.95    9.18
  -3 -13   3  147.64    9.58
  -3 -13   4  123.45    8.31
  -3 -13   4  113.46    8.44
  -3 -13   5   36.21    4.87
  -3 -13   5   33.99    5.04
  -3 -13   6  235.95   12.42
  -3 -13   7  113.52    8.63
  -3 -13   8   34.06    4.91
  -3 -13   9  165.16   10.55
  -3 -13  10    2.55    2.84
  -3 -13  11   37.01    3.81
  -3 -13  11   36.07    5.34
  -3 -13  12  229.55   12.82
  -3 -13  13    1.22    2.00
  -3 -13  14   40.40    5.53
  -3 -12  -7  101.04    9.31
  -3 -12  -6   88.41    8.63
  -3 -12  -6   83.92    6.37
  -3 -12  -5   34.36    4.22
  -3 -12  -4  134.78    8.27
  -3 -12  -3   74.74    6.27
  -3 -12  -2   -2.28    2.01
  -3 -12  -1  118.95    8.79
  -3 -12  -1  109.87    7.64
  -3 -12   0   53.82    5.87
  -3 -12   0   51.73    5.40
  -3 -12   1    4.49    2.60
  -3 -12   1    1.18    1.99
  -3 -12   2   50.57    5.39
  -3 -12   2   45.04    5.08
  -3 -12   3  100.01    7.32
  -3 -12   3  103.71    7.65
  -3 -12   4  105.71    7.85
  -3 -12   5  235.70   11.89
  -3 -12   6    0.94    2.24
  -3 -12   7  136.10    9.15
  -3 -12   8  143.62   14.10
  -3 -12   9    3.90    2.59
  -3 -12  10  222.68   12.06
  -3 -12  11   90.02    5.43
  -3 -12  11   72.53    6.98
  -3 -12  12    0.09    1.41
  -3 -12  12   -1.56    2.19
  -3 -12  13   78.56    7.36
  -3 -11  -8  114.65    9.89
  -3 -11  -7   59.21    7.04
  -3 -11  -7   65.90    5.34
  -3 -11  -6    3.29    2.57
  -3 -11  -6    6.12    2.37
  -3 -11  -5  129.16    9.77
  -3 -11  -5  137.28    7.97
  -3 -11  -4  103.48    7.01
  -3 -11  -3   84.13    6.37
  -3 -11  -2  233.17   10.84
  -3 -11  -1   28.32    3.94
  -3 -11   0   86.23    6.60
  -3 -11   1  380.47   14.63
  -3 -11   2  176.57    9.65
  -3 -11   3  171.94    9.55
  -3 -11   4  361.70   14.49
  -3 -11   5    2.19    2.04
  -3 -11   6  243.24   11.84
  -3 -11   7  106.76    7.76
  -3 -11   8   -2.58    2.37
  -3 -11   9  222.58    7.64
  -3 -11   9  208.59   11.19
  -3 -11  10   34.66    3.18
  -3 -11  10   39.58    2.82
  -3 -11  10   37.54    4.91
  -3 -11  11   55.29    4.07
  -3 -11  11   52.00    5.64
  -3 -11  12  130.98    6.27
  -3 -11  12  125.72    8.82
  -3 -11  13   38.85    3.50
  -3 -10  -9  100.48    9.18
  -3 -10  -8   21.94    4.45
  -3 -10  -7   51.86    6.42
  -3 -10  -7   39.81    3.95
  -3 -10  -6  127.66    9.72
  -3 -10  -6  148.43    7.74
  -3 -10  -5   67.76    5.30
  -3 -10  -5   82.12    7.53
  -3 -10  -5   72.96    5.55
  -3 -10  -4   61.27    4.97
  -3 -10  -4   69.84    5.47
  -3 -10  -3  160.06    8.23
  -3 -10  -3  160.70    8.50
  -3 -10  -2    8.86    2.27
  -3 -10  -2    8.66    2.47
  -3 -10  -1  203.39    9.43
  -3 -10  -1  214.02   10.03
  -3 -10   0  164.88    8.37
  -3 -10   0  138.86    8.16
  -3 -10   1   15.21    2.78
  -3 -10   1   18.35    3.18
  -3 -10   2  420.25   15.05
  -3 -10   3  514.65   17.10
  -3 -10   4   10.80    2.77
  -3 -10   5  352.35   13.92
  -3 -10   6  139.48    8.55
  -3 -10   7  149.10    8.89
  -3 -10   8  260.70   12.05
  -3 -10   9  130.04    8.51
  -3 -10   9  148.93    5.49
  -3 -10  10  196.05    7.25
  -3 -10  10  167.28    9.81
  -3 -10  10  191.52    5.64
  -3 -10  11  281.78    8.99
  -3 -10  11  265.87   12.62
  -3 -10  12   31.22    2.90
  -3  -9 -10   62.18    7.38
  -3  -9  -9   26.58    5.00
  -3  -9  -8   76.85    7.69
  -3  -9  -7   72.46    7.39
  -3  -9  -6    4.99    1.65
  -3  -9  -6    3.97    2.70
  -3  -9  -6    4.93    1.90
  -3  -9  -5   12.77    2.35
  -3  -9  -5   13.32    3.35
  -3  -9  -5   16.20    2.76
  -3  -9  -4  308.52   11.26
  -3  -9  -4  344.86   14.70
  -3  -9  -4  326.61   11.86
  -3  -9  -3   -0.56    1.50
  -3  -9  -3    1.71    1.54
  -3  -9  -2  166.63    7.95
  -3  -9  -2  166.60    8.38
  -3  -9  -1  179.47    8.40
  -3  -9  -1  190.57    9.08
  -3  -9   0   85.07    5.71
  -3  -9   0   77.68    5.77
  -3  -9   1  458.88   14.57
  -3  -9   1  436.11   14.81
  -3  -9   2  294.26   11.36
  -3  -9   2  272.50   11.43
  -3  -9   3   72.05    5.39
  -3  -9   3   61.95    5.37
  -3  -9   4  476.77   15.36
  -3  -9   4  449.45   15.50
  -3  -9   5  191.67    9.67
  -3  -9   6   86.12    6.40
  -3  -9   7  141.20    8.34
  -3  -9   8   12.81    2.83
  -3  -9   9  296.44    8.69
  -3  -9   9  286.28    7.39
  -3  -9   9  301.73    7.46
  -3  -9   9  270.21   12.20
  -3  -9  10  397.01    7.59
  -3  -9  10  436.22   10.84
  -3  -9  10  394.15    7.58
  -3  -9  11   12.45    1.85
  -3  -8 -11  174.13   12.19
  -3  -8 -10   21.88    4.96
  -3  -8  -9  100.38    8.88
  -3  -8  -8   62.14    6.79
  -3  -8  -7   19.32    2.55
  -3  -8  -7   22.43    4.32
  -3  -8  -6  205.93    8.28
  -3  -8  -6  232.74   12.20
  -3  -8  -5   27.82    3.07
  -3  -8  -5   19.97    3.76
  -3  -8  -5   24.21    2.97
  -3  -8  -4   57.32    4.27
  -3  -8  -4   62.88    6.02
  -3  -8  -4   65.24    4.78
  -3  -8  -3  179.91    7.81
  -3  -8  -3  189.23   10.04
  -3  -8  -3  190.49    8.51
  -3  -8  -2  120.81    6.39
  -3  -8  -2  118.64    7.66
  -3  -8  -2  119.63    6.72
  -3  -8  -1   10.85    2.23
  -3  -8  -1   17.36    2.72
  -3  -8   0  176.42    7.97
  -3  -8   0  171.97    8.52
  -3  -8   1  195.98    8.53
  -3  -8   1  170.45    8.44
  -3  -8   2  209.60    9.01
  -3  -8   2  201.85    9.26
  -3  -8   3  247.81   10.06
  -3  -8   3  244.60   10.40
  -3  -8   4    7.33    1.97
  -3  -8   4    1.87    1.56
  -3  -8   5   46.63    4.46
  -3  -8   5   55.13    4.95
  -3  -8   6  170.48    8.67
  -3  -8   6  164.94    8.64
  -3  -8   7    6.56    1.37
  -3  -8   7    1.85    1.48
  -3  -8   8  246.33    7.14
  -3  -8   8  234.32    6.42
  -3  -8   8  231.92   10.64
  -3  -8   9  179.69    5.84
  -3  -8   9  176.57    4.20
  -3  -8   9  175.18    4.19
  -3  -8  10   27.90    2.25
  -3  -7 -12  122.28   10.15
  -3  -7 -11   -1.91    2.70
  -3  -7 -10   83.58    8.11
  -3  -7  -9   18.54    4.06
  -3  -7  -8   14.35    3.63
  -3  -7  -7  379.89   11.05
  -3  -7  -7  420.15   16.90
  -3  -7  -6  141.12    6.23
  -3  -7  -6  158.61    9.78
  -3  -7  -5  119.34    5.74
  -3  -7  -5  120.61    8.26
  -3  -7  -4  172.66    7.17
  -3  -7  -4  176.27    9.65
  -3  -7  -3  277.72    9.52
  -3  -7  -3  285.93   12.08
  -3  -7  -3  298.24   10.43
  -3  -7  -2   21.58    2.53
  -3  -7  -2   18.45    3.19
  -3  -7  -2   22.25    2.87
  -3  -7  -1  479.56   13.55
  -3  -7  -1  468.90   15.12
  -3  -7  -1  468.94   14.16
  -3  -7   0  120.77    6.25
  -3  -7   0  131.38    7.13
  -3  -7   0  136.52    7.03
  -3  -7   1  413.96   12.69
  -3  -7   1  394.76   12.82
  -3  -7   1  412.26   13.31
  -3  -7   2  356.20   11.78
  -3  -7   2  357.42   11.56
  -3  -7   2  360.43   12.42
  -3  -7   3   15.56    2.52
  -3  -7   3   13.12    2.15
  -3  -7   3   17.43    2.86
  -3  -7   4  234.70    9.55
  -3  -7   4  222.63    7.97
  -3  -7   4  235.11    9.90
  -3  -7   5  101.36    6.25
  -3  -7   5   92.86    4.57
  -3  -7   5   94.29    6.21
  -3  -7   6   22.54    3.10
  -3  -7   6   17.94    1.88
  -3  -7   6   24.19    3.54
  -3  -7   7  257.58   10.73
  -3  -7   7  257.94    6.85
  -3  -7   8   55.03    2.66
  -3  -7   8   52.86    2.10
  -3  -7   8   52.27    2.08
  -3  -7   9   34.83    2.10
  -3  -6 -13   97.67    9.15
  -3  -6 -12   30.66    5.64
  -3  -6 -11  108.38    9.17
  -3  -6 -10   48.81    6.19
  -3  -6  -9    0.23    2.08
  -3  -6  -8  189.47    6.47
  -3  -6  -8  192.80   11.19
  -3  -6  -7   12.52    2.04
  -3  -6  -7   10.45    3.27
  -3  -6  -6  379.36   10.36
  -3  -6  -6  395.08   15.53
  -3  -6  -5  428.57   11.43
  -3  -6  -5  452.85   16.20
  -3  -6  -4   25.36    2.45
  -3  -6  -4   24.53    3.70
  -3  -6  -3  163.07    6.52
  -3  -6  -3  159.05    8.56
  -3  -6  -2  291.40    9.33
  -3  -6  -2  282.37   11.28
  -3  -6  -1   11.68    1.91
  -3  -6  -1   11.94    2.49
  -3  -6   0  598.31   15.30
  -3  -6   0  592.24   16.43
  -3  -6   0  602.35   16.19
  -3  -6   1  334.07   10.90
  -3  -6   1  357.45   11.49
  -3  -6   1  370.40   11.96
  -3  -6   2    1.25    1.23
  -3  -6   2    0.28    1.16
  -3  -6   2    1.68    1.50
  -3  -6   3  227.40    8.94
  -3  -6   3  226.10    7.99
  -3  -6   4  112.35    6.25
  -3  -6   4  113.03    5.11
  -3  -6   5  108.25    6.23
  -3  -6   5   97.57    4.33
  -3  -6   6  350.52   12.17
  -3  -6   6  341.46    8.37
  -3  -6   7  186.47    8.79
  -3  -6   7  202.17    4.94
  -3  -6   7  201.43    5.02
  -3  -6   8  119.38    7.12
  -3  -5 -14   32.39    5.73
  -3  -5 -13   36.67    5.65
  -3  -5 -12  133.41   10.27
  -3  -5 -11   25.75    4.51
  -3  -5 -10  109.21    8.77
  -3  -5  -9  178.32    5.23
  -3  -5  -9  170.76   10.64
  -3  -5  -8   84.61    3.57
  -3  -5  -8   75.88    6.91
  -3  -5  -7  236.23    6.79
  -3  -5  -7  226.08   11.52
  -3  -5  -6  804.85   16.47
  -3  -5  -6  808.94   23.29
  -3  -5  -5    1.26    0.91
  -3  -5  -5    1.00    1.78
  -3  -5  -4  215.18    6.99
  -3  -5  -4  225.14   10.32
  -3  -5  -3  276.79    8.32
  -3  -5  -3  277.54   11.23
  -3  -5  -2   77.79    4.22
  -3  -5  -2   67.26    5.16
  -3  -5  -1  398.85   11.03
  -3  -5  -1  400.92   12.93
  -3  -5   0  307.64    9.63
  -3  -5   0  321.32   10.83
  -3  -5   1  216.74    8.00
  -3  -5   1  215.06    8.25
  -3  -5   2  486.68   13.34
  -3  -5   2  475.46   12.80
  -3  -5   3  189.60    7.75
  -3  -5   3  176.88    6.62
  -3  -5   4  100.65    5.67
  -3  -5   4   99.02    4.42
  -3  -5   5  201.16    8.47
  -3  -5   5  206.85    6.14
  -3  -5   6   32.30    3.37
  -3  -5   6   32.58    1.91
  -3  -5   7  688.26   18.69
  -3  -5   8  626.33   17.95
  -3  -5   9   60.46    5.12
  -3  -4 -14   54.01    7.01
  -3  -4 -13  198.60   12.69
  -3  -4 -12    3.50    2.94
  -3  -4 -11  198.71   11.97
  -3  -4 -10  171.11   10.67
  -3  -4  -9   35.26    4.83
  -3  -4  -8  182.07    4.56
  -3  -4  -8  184.80   10.41
  -3  -4  -7   60.45    2.58
  -3  -4  -7   62.77    5.85
  -3  -4  -6   28.68    1.87
  -3  -4  -6   28.46    4.01
  -3  -4  -5 1013.08   18.95
  -3  -4  -5  989.15   25.59
  -3  -4  -4  175.69    5.69
  -3  -4  -4  196.79    9.30
  -3  -4  -3   60.65    3.24
  -3  -4  -3   65.74    5.12
  -3  -4  -2  343.59    9.32
  -3  -4  -2  365.57   12.24
  -3  -4  -1  305.56    8.88
  -3  -4  -1  314.96   10.84
  -3  -4   0  432.76   11.46
  -3  -4   0  441.03   12.79
  -3  -4   1  454.87   12.19
  -3  -4   1  473.98   12.78
  -3  -4   2   13.66    2.05
  -3  -4   2   12.80    1.96
  -3  -4   3  117.11    5.76
  -3  -4   3  117.24    4.97
  -3  -4   4  303.11   10.28
  -3  -4   4  313.23    8.26
  -3  -4   5    2.06    1.40
  -3  -4   5    2.03    0.77
  -3  -4   6  708.28   18.31
  -3  -4   6  704.12   12.68
  -3  -4   7  512.92   15.20
  -3  -4   8   21.19    2.74
  -3  -3 -15   84.72    8.58
  -3  -3 -14  115.55    9.73
  -3  -3 -13   10.90    3.69
  -3  -3 -12  250.25   13.63
  -3  -3 -11   26.23    4.53
  -3  -3 -10    1.68    2.01
  -3  -3  -9  720.93   22.71
  -3  -3  -8  213.49   10.96
  -3  -3  -7    9.70    2.70
  -3  -3  -6  303.25    6.32
  -3  -3  -6  294.40   12.26
  -3  -3  -5  121.94    3.76
  -3  -3  -5  131.45    7.58
  -3  -3  -4  486.99   10.37
  -3  -3  -4  515.38   15.73
  -3  -3  -3  331.97    8.21
  -3  -3  -3  344.99   12.00
  -3  -3  -2   51.14    2.88
  -3  -3  -2   43.96    3.94
  -3  -3  -1 1008.45   20.09
  -3  -3  -1 1054.19   23.11
  -3  -3   0  364.43    9.89
  -3  -3   0  384.25   11.35
  -3  -3   1  341.58    9.76
  -3  -3   1  338.86   10.11
  -3  -3   2  830.04   18.45
  -3  -3   2  831.08   17.82
  -3  -3   3  500.52   13.35
  -3  -3   3  513.86   11.94
  -3  -3   3  503.64   10.01
  -3  -3   4   73.88    4.64
  -3  -3   4   70.61    3.29
  -3  -3   5 1775.95   34.90
  -3  -3   5 1777.83   29.90
  -3  -3   6  122.54    6.43
  -3  -3   6  121.28    3.14
  -3  -2 -15  123.29   10.23
  -3  -2 -14    3.57    2.39
  -3  -2 -13   90.81    8.33
  -3  -2 -12   82.72    7.75
  -3  -2 -11    8.05    3.18
  -3  -2 -10  284.35   13.50
  -3  -2  -9   24.99    4.08
  -3  -2  -8  149.03    8.90
  -3  -2  -7  343.97   13.57
  -3  -2  -6   35.68    4.19
  -3  -2  -5  338.12   12.52
  -3  -2  -4  377.65   12.93
  -3  -2  -3    4.80    0.85
  -3  -2  -3    4.69    1.77
  -3  -2  -2  241.80    6.64
  -3  -2  -2  257.97    9.52
  -3  -2  -1  100.75    4.19
  -3  -2  -1  103.90    5.07
  -3  -2  -1   96.98    5.42
  -3  -2   0   19.71    1.96
  -3  -2   0   19.78    2.07
  -3  -2   0   25.31    2.72
  -3  -2   1  546.78   13.23
  -3  -2   1  578.54   13.93
  -3  -2   1  566.79   12.39
  -3  -2   2  392.34   10.92
  -3  -2   2  402.94    8.93
  -3  -2   2  411.80   10.60
  -3  -2   3  179.78    5.97
  -3  -2   4 1110.28   20.51
  -3  -2   5  155.10    4.53
  -3  -1 -16   36.22    5.80
  -3  -1 -15   25.13    4.88
  -3  -1 -14  139.84   10.45
  -3  -1 -13   53.69    6.45
  -3  -1 -12   75.30    7.25
  -3  -1 -11  327.36   14.78
  -3  -1 -10   31.41    4.42
  -3  -1  -9  242.32   11.73
  -3  -1  -8  571.32   18.50
  -3  -1  -7  111.12    7.32
  -3  -1  -7  109.66    7.00
  -3  -1  -6   87.77    5.98
  -3  -1  -6   81.85    6.09
  -3  -1  -5   92.22    6.16
  -3  -1  -5   97.27    6.08
  -3  -1  -4  115.17    6.61
  -3  -1  -4  122.00    6.51
  -3  -1  -3  691.13   17.44
  -3  -1  -3  738.49   18.63
  -3  -1  -2  295.30    9.55
  -3  -1  -2  295.42   10.23
  -3  -1  -1   17.70    2.10
  -3  -1  -1   13.63    2.15
  -3  -1   0  447.51   10.98
  -3  -1   0  440.30   12.12
  -3  -1   1  318.55    8.21
  -3  -1   1  339.83    9.69
  -3  -1   2   11.70    1.72
  -3  -1   3  590.67   13.03
  -3  -1   4   49.42    2.72
  -3  -1   5  824.45   15.52
  -3   0 -16   48.12    6.34
  -3   0 -15  177.42   11.98
  -3   0 -14   -2.49    2.69
  -3   0 -13  101.71    8.56
  -3   0 -12  157.20   10.21
  -3   0 -11    5.81    2.75
  -3   0 -10  310.97   13.82
  -3   0  -9   78.59    6.51
  -3   0  -8   10.38    2.57
  -3   0  -7  255.60   10.89
  -3   0  -7  232.01   10.62
  -3   0  -6  126.63    7.20
  -3   0  -6  125.17    7.38
  -3   0  -5  225.59    9.46
  -3   0  -5  235.06    9.93
  -3   0  -4  311.01   11.23
  -3   0  -4  297.95   10.53
  -3   0  -3  285.80   10.29
  -3   0  -3  268.92    9.45
  -3   0  -2  413.55   12.45
  -3   0  -2  415.32   11.66
  -3   0  -1  664.10   16.35
  -3   0  -1  656.26   15.13
  -3   0   0   26.81    2.26
  -3   0   0   31.21    2.93
  -3   0   1  114.87    5.21
  -3   0   2  382.36   10.12
  -3   0   3  254.13    7.46
  -3   0   4  938.18   18.21
  -3   1 -17   89.25    9.27
  -3   1 -16  137.09   10.63
  -3   1 -15    7.05    2.87
  -3   1 -14  167.66   11.18
  -3   1 -13   49.37    6.05
  -3   1 -12   -2.14    2.35
  -3   1 -11  782.36   23.98
  -3   1 -10   67.63    6.28
  -3   1  -9   34.09    4.36
  -3   1  -8  391.41   14.21
  -3   1  -8  353.37   13.82
  -3   1  -7    8.34    2.30
  -3   1  -7    7.17    2.39
  -3   1  -6  402.27   13.84
  -3   1  -6  392.32   13.40
  -3   1  -5  371.39   12.92
  -3   1  -5  390.54   12.75
  -3   1  -4    2.02    1.91
  -3   1  -4    1.52    1.13
  -3   1  -3 1924.46   36.99
  -3   1  -3 1958.26   38.06
  -3   1  -2  719.94   16.99
  -3   1  -2  743.62   18.11
  -3   1  -1    3.71    1.65
  -3   1  -1    3.38    1.22
  -3   1   0  368.34   10.76
  -3   1   1  683.36   15.78
  -3   1   2  146.24    5.78
  -3   1   3 1194.35   23.05
  -3   2 -17  172.81   12.18
  -3   2 -16   18.50    4.44
  -3   2 -15  198.26   12.45
  -3   2 -14   80.63    7.70
  -3   2 -13    8.48    2.88
  -3   2 -12  433.02   17.22
  -3   2 -11    5.49    2.51
  -3   2 -10  308.50   13.40
  -3   2  -9  447.65   16.04
  -3   2  -8  119.35    7.53
  -3   2  -8  130.08    7.96
  -3   2  -7  279.42   11.37
  -3   2  -7  284.16   11.67
  -3   2  -6  141.86    7.57
  -3   2  -6  153.35    8.08
  -3   2  -5    2.47    1.70
  -3   2  -5    5.31    2.17
  -3   2  -4  612.07   16.37
  -3   2  -4  620.31   17.04
  -3   2  -3  150.11    6.78
  -3   2  -3  155.96    7.36
  -3   2  -2  255.23    9.34
  -3   2  -1  677.43   16.71
  -3   2   0 1033.63   22.11
  -3   2   1  283.09    9.00
  -3   2   2 1286.01   25.30
  -3   2   3   23.64    2.34
  -3   3 -17   40.29    5.93
  -3   3 -16  183.61   12.25
  -3   3 -15   55.01    6.53
  -3   3 -14   63.22    6.77
  -3   3 -13  205.50   11.82
  -3   3 -12   30.42    4.56
  -3   3 -11  447.36   16.95
  -3   3 -10  530.86   18.20
  -3   3  -9   69.47    5.97
  -3   3  -8  505.73   16.67
  -3   3  -8  503.52   16.72
  -3   3  -7  424.07   14.45
  -3   3  -7  397.07   14.20
  -3   3  -6   19.75    2.90
  -3   3  -6   18.59    3.09
  -3   3  -5 1122.90   25.87
  -3   3  -5 1143.29   26.45
  -3   3  -4  253.29   10.01
  -3   3  -3  284.75   10.35
  -3   3  -2 1585.60   32.08
  -3   3  -1  273.47    9.54
  -3   3   0   43.18    3.55
  -3   3   1  787.92   18.12
  -3   3   2   17.04    2.19
  -3   4 -18   34.93    5.75
  -3   4 -17  129.97   10.40
  -3   4 -16    2.91    3.05
  -3   4 -15   99.33    8.71
  -3   4 -14  117.78    9.09
  -3   4 -13   -0.28    2.02
  -3   4 -12  298.40   13.86
  -3   4 -11   51.08    5.61
  -3   4 -10   59.60    5.74
  -3   4  -9  531.89   17.72
  -3   4  -8   36.34    4.29
  -3   4  -8   40.57    4.47
  -3   4  -7  179.87    9.02
  -3   4  -7  187.63    9.27
  -3   4  -6  295.85   11.58
  -3   4  -5  283.08   11.02
  -3   4  -4  839.80   21.12
  -3   4  -3 1035.97   23.98
  -3   4  -2   25.54    3.07
  -3   4  -1  869.01   20.48
  -3   4   0  424.86   12.49
  -3   4   1   22.16    2.68
  -3   5 -18   78.65    8.19
  -3   5 -17    0.05    2.57
  -3   5 -16  100.99    8.98
  -3   5 -15   46.28    6.08
  -3   5 -14   -4.12    2.60
  -3   5 -13  178.06   10.93
  -3   5 -12   42.79    5.26
  -3   5 -11   94.02    7.46
  -3   5 -10  444.81   16.37
  -3   5  -9    1.42    1.97
  -3   5  -8  646.70   19.54
  -3   5  -7  429.34   14.87
  -3   5  -6   14.05    2.77
  -3   5  -5  600.84   17.51
  -3   5  -4  726.10   19.38
  -3   5  -3   10.38    2.22
  -3   5  -2  538.34   15.41
  -3   5  -1  265.60    9.84
  -3   5   0  378.34   11.93
  -3   6 -18   36.10    5.86
  -3   6 -17  134.30   10.52
  -3   6 -16   33.02    5.88
  -3   6 -15   42.54    5.71
  -3   6 -14  460.28   18.70
  -3   6 -13   17.25    3.62
  -3   6 -12    2.37    1.89
  -3   6 -11  312.47   13.93
  -3   6 -10  109.70    7.76
  -3   6  -9  392.34   14.97
  -3   6  -8  130.15    8.06
  -3   6  -7   26.26    3.69
  -3   6  -6  432.68   14.78
  -3   6  -5  137.72    7.68
  -3   6  -4    3.81    1.82
  -3   6  -3  183.88    8.61
  -3   6  -2  406.44   13.18
  -3   6  -1  390.05   12.70
  -3   7 -18  125.22   10.39
  -3   7 -17   15.25    4.56
  -3   7 -16  118.73    9.60
  -3   7 -15  153.29   10.82
  -3   7 -14   49.55    6.23
  -3   7 -13  232.48   12.56
  -3   7 -12  224.62   12.02
  -3   7 -11    2.33    2.07
  -3   7 -10  290.30   13.11
  -3   7  -9  559.02   18.51
  -3   7  -8   39.61    4.53
  -3   7  -7  479.39   16.25
  -3   7  -6  111.53    7.22
  -3   7  -5  176.84    8.92
  -3   7  -4  623.72   18.14
  -3   7  -3  107.68    6.63
  -3   7  -2   38.96    4.00
  -3   8 -18    5.49    2.98
  -3   8 -17  100.63    8.98
  -3   8 -16  118.54    9.67
  -3   8 -15   41.86    5.81
  -3   8 -14  468.32   18.96
  -3   8 -13   85.26    7.62
  -3   8 -12    8.49    2.93
  -3   8 -11  191.31   10.87
  -3   8 -10   17.45    3.32
  -3   8  -9   91.97    7.08
  -3   8  -8  660.29   20.37
  -3   8  -7   31.41    4.12
  -3   8  -6  305.46   12.50
  -3   8  -5  448.00   15.29
  -3   8  -4   30.36    3.85
  -3   8  -3  500.23   15.91
  -3   9 -18   82.78    8.57
  -3   9 -17   35.03    5.86
  -3   9 -16   23.73    4.41
  -3   9 -15  314.05   15.70
  -3   9 -14   73.13    7.47
  -3   9 -13  328.91   15.38
  -3   9 -12  307.72   14.50
  -3   9 -11   20.05    3.75
  -3   9 -10  285.42   13.30
  -3   9  -9  190.33   10.47
  -3   9  -8    3.96    2.41
  -3   9  -7  739.67   21.81
  -3   9  -6  225.88   10.80
  -3   9  -5   17.63    3.22
  -3  10 -18   38.23    6.31
  -3  10 -17   29.22    5.18
  -3  10 -16  184.23   12.15
  -3  10 -15    5.34    3.16
  -3  10 -14   53.52    6.38
  -3  10 -13  459.56   18.68
  -3  10 -12   10.87    3.11
  -3  10 -11  188.22   11.05
  -3  10 -10   81.98    7.07
  -3  10  -9   27.59    4.29
  -3  10  -8  842.77   24.49
  -3  10  -7  177.54    9.87
  -3  10  -6   38.46    4.61
  -3  11 -17   98.06    9.10
  -3  11 -16    6.92    3.02
  -3  11 -15  110.38    9.28
  -3  11 -14  176.86   11.60
  -3  11 -13   14.31    3.59
  -3  11 -12  301.47   14.63
  -3  11 -11   94.84    7.95
  -3  11 -10   27.73    4.49
  -3  11  -9  144.15    9.42
  -3  11  -8    2.00    2.05
  -3  12 -17    1.02    3.02
  -3  12 -16   87.37    8.51
  -3  12 -15   70.75    7.62
  -3  12 -14   26.76    4.73
  -3  12 -13  211.24   12.61
  -3  12 -12   22.30    4.22
  -3  12 -11   73.58    7.20
  -3  13 -16   23.33    4.44
  -3  13 -15   88.86    8.51
  -3  13 -14  202.97   12.67
  -2 -20   5   25.36    5.21
  -2 -20   6   74.05    7.84
  -2 -20   7   -2.62    3.06
  -2 -19   3    6.80    3.38
  -2 -19   4   88.67    8.54
  -2 -19   5   34.97    5.80
  -2 -19   6    5.25    3.60
  -2 -19   7   89.88    8.25
  -2 -19   8   31.26    5.06
  -2 -18  -4    0.80    3.01
  -2 -18  -3   54.60    6.66
  -2 -18  -2  115.33    9.38
  -2 -18  -1   -1.32    2.03
  -2 -18   0   68.39    7.24
  -2 -18   1   83.35    8.51
  -2 -18   1   86.82    8.43
  -2 -18   2    4.24    2.38
  -2 -18   2    0.52    1.82
  -2 -18   3  105.68    9.16
  -2 -18   3  130.52   10.21
  -2 -18   4   54.09    6.49
  -2 -18   4   60.89    6.94
  -2 -18   5   51.99    6.46
  -2 -18   5   62.07    7.07
  -2 -18   6  162.10   10.76
  -2 -18   6  156.37   11.38
  -2 -18   7   18.53    3.95
  -2 -18   8   28.38    4.62
  -2 -18   9   76.94    6.89
  -2 -17  -5    4.26    2.76
  -2 -17  -4   39.83    5.73
  -2 -17  -3  125.54    9.55
  -2 -17  -2   -1.20    2.89
  -2 -17  -1   80.58    8.37
  -2 -17  -1   97.95    8.55
  -2 -17   0   23.45    4.68
  -2 -17   0   19.05    4.27
  -2 -17   1    1.21    2.24
  -2 -17   1    6.48    2.94
  -2 -17   2  154.23   11.07
  -2 -17   2  133.20   10.17
  -2 -17   3   38.30    5.88
  -2 -17   3   33.02    5.27
  -2 -17   4   33.57    5.26
  -2 -17   4   42.39    5.73
  -2 -17   5  154.99   10.40
  -2 -17   5  195.99   12.22
  -2 -17   6    5.99    2.96
  -2 -17   6    2.23    2.83
  -2 -17   7  163.07   10.12
  -2 -17   7  169.02   11.49
  -2 -17   8   93.26    7.50
  -2 -17   8   87.46    8.17
  -2 -17   9    0.61    2.21
  -2 -17   9    0.32    1.88
  -2 -17  10   88.91    8.36
  -2 -17  11  117.17    9.58
  -2 -17  12   10.24    3.28
  -2 -16  -5   57.39    6.29
  -2 -16  -4   78.26    7.47
  -2 -16  -3   21.74    4.77
  -2 -16  -3   17.76    3.89
  -2 -16  -2  160.52   11.54
  -2 -16  -2  136.12    9.64
  -2 -16  -1   26.77    5.02
  -2 -16  -1   28.33    4.75
  -2 -16   0   71.86    7.57
  -2 -16   0   61.23    6.59
  -2 -16   1   72.26    7.50
  -2 -16   1   81.12    7.50
  -2 -16   2    7.86    3.10
  -2 -16   2    5.11    2.55
  -2 -16   3   93.37    8.16
  -2 -16   3   92.76    8.15
  -2 -16   4  131.64    9.39
  -2 -16   4  139.48    9.91
  -2 -16   5    4.91    2.51
  -2 -16   5   11.84    3.28
  -2 -16   6  181.08   10.49
  -2 -16   6  205.02   12.12
  -2 -16   7   79.00    6.72
  -2 -16   7   70.16    7.16
  -2 -16   8    1.99    2.03
  -2 -16   8   11.89    3.51
  -2 -16   9  105.60    7.27
  -2 -16   9  115.60    9.23
  -2 -16  10   29.60    3.82
  -2 -16  10   24.53    4.50
  -2 -16  11   55.14    6.47
  -2 -16  12  267.93   12.72
  -2 -16  12  264.87   14.31
  -2 -16  13   28.48    4.44
  -2 -16  13   11.29    3.12
  -2 -16  14   42.89    5.72
  -2 -15  -6   63.65    6.24
  -2 -15  -5   60.52    7.39
  -2 -15  -5   55.58    5.87
  -2 -15  -4   34.06    5.76
  -2 -15  -4   23.24    4.07
  -2 -15  -3  204.90   12.96
  -2 -15  -3  202.42   11.39
  -2 -15  -2   15.93    4.39
  -2 -15  -2   15.26    3.40
  -2 -15  -1  113.98    9.27
  -2 -15  -1  105.25    8.14
  -2 -15   0  207.74   12.35
  -2 -15   0  192.72   11.25
  -2 -15   1    1.18    2.42
  -2 -15   1    1.89    2.28
  -2 -15   2  115.91    8.70
  -2 -15   2  114.41    8.64
  -2 -15   3  177.31   10.64
  -2 -15   3  177.92   10.86
  -2 -15   4    7.18    2.71
  -2 -15   4    2.87    2.28
  -2 -15   5  143.35    9.16
  -2 -15   5  165.25   10.56
  -2 -15   6   69.18    6.32
  -2 -15   6   75.96    7.29
  -2 -15   7   26.06    3.73
  -2 -15   7   28.58    4.71
  -2 -15   8  211.92   10.30
  -2 -15   8  224.95   12.49
  -2 -15   9  129.74    7.64
  -2 -15   9  129.49    9.43
  -2 -15  10   22.05    3.22
  -2 -15  10   20.88    4.23
  -2 -15  11   85.81    5.68
  -2 -15  11   81.94    7.66
  -2 -15  12    5.89    2.39
  -2 -15  12    7.60    2.83
  -2 -15  13  222.71   11.07
  -2 -15  13  179.20   11.50
  -2 -15  14   94.75    7.27
  -2 -15  14  111.56    8.97
  -2 -15  15    5.96    2.75
  -2 -15  16   91.57    8.24
  -2 -15  17   39.24    5.81
  -2 -14  -7  121.23   10.34
  -2 -14  -7  103.22    7.37
  -2 -14  -6    5.43    3.18
  -2 -14  -6    4.16    2.42
  -2 -14  -5   51.61    6.62
  -2 -14  -5   54.15    5.65
  -2 -14  -4  195.90   12.43
  -2 -14  -4  182.49   10.28
  -2 -14  -3    2.07    2.27
  -2 -14  -3    3.92    2.15
  -2 -14  -2  153.79   10.53
  -2 -14  -2  121.86    8.48
  -2 -14  -1   81.17    7.54
  -2 -14  -1   80.68    6.84
  -2 -14   0   24.82    4.37
  -2 -14   0   23.14    3.92
  -2 -14   1  189.76   11.06
  -2 -14   1  187.03   10.62
  -2 -14   2   33.44    4.87
  -2 -14   2   37.05    4.91
  -2 -14   3   31.37    4.32
  -2 -14   3   32.88    4.74
  -2 -14   4  382.96   15.25
  -2 -14   4  432.80   16.83
  -2 -14   5   64.97    5.82
  -2 -14   5   70.57    6.59
  -2 -14   6   39.31    4.46
  -2 -14   6   37.83    4.95
  -2 -14   7  248.21   11.06
  -2 -14   7  251.26   12.71
  -2 -14   8   71.92    5.64
  -2 -14   8   63.15    5.29
  -2 -14   8   70.39    6.82
  -2 -14   9   57.97    4.85
  -2 -14   9   46.93    5.67
  -2 -14   9   56.43    4.85
  -2 -14  10  254.29   10.08
  -2 -14  10  251.27   13.01
  -2 -14  11   -0.36    1.86
  -2 -14  11    5.33    2.08
  -2 -14  11   -2.78    2.87
  -2 -14  12  111.68    7.46
  -2 -14  12  108.51    8.71
  -2 -14  13  220.95   10.62
  -2 -14  13  197.43   11.67
  -2 -14  14    6.09    2.61
  -2 -14  14    6.45    2.87
  -2 -14  15  164.94    9.37
  -2 -14  15  167.62   10.90
  -2 -14  16   31.52    5.08
  -2 -14  17   12.83    3.73
  -2 -13  -8  128.39   10.51
  -2 -13  -7   -0.72    2.89
  -2 -13  -7    0.11    1.57
  -2 -13  -6   39.61    6.04
  -2 -13  -6   35.56    4.41
  -2 -13  -5  121.84    9.72
  -2 -13  -5  117.65    7.78
  -2 -13  -4   62.44    6.87
  -2 -13  -4   47.09    5.07
  -2 -13  -3  236.45   13.09
  -2 -13  -3  250.28   11.66
  -2 -13  -2  163.16   10.49
  -2 -13  -2  137.10    8.59
  -2 -13  -1    8.82    2.75
  -2 -13  -1   10.00    2.89
  -2 -13   0  242.73   12.24
  -2 -13   0  205.15   10.70
  -2 -13   1   11.00    2.95
  -2 -13   1    4.03    2.31
  -2 -13   2   69.97    6.29
  -2 -13   2   79.00    6.60
  -2 -13   3  291.94   12.83
  -2 -13   3  313.56   13.54
  -2 -13   4   15.37    3.24
  -2 -13   4   19.14    3.69
  -2 -13   5  156.98    8.75
  -2 -13   5  191.52   10.42
  -2 -13   6  138.67    8.00
  -2 -13   6  142.76    9.01
  -2 -13   7    2.68    1.70
  -2 -13   7    2.52    2.18
  -2 -13   8  147.43    7.72
  -2 -13   8  144.14    9.22
  -2 -13   8  150.15    7.64
  -2 -13   9  248.66    9.81
  -2 -13   9  244.69   12.23
  -2 -13   9  250.79    9.88
  -2 -13  10   35.52    3.51
  -2 -13  10   40.60    3.70
  -2 -13  10   34.64    4.81
  -2 -13  11  113.92    7.11
  -2 -13  11  102.80    5.48
  -2 -13  11   98.93    7.79
  -2 -13  12   44.52    4.52
  -2 -13  12   30.92    4.73
  -2 -13  13   53.31    5.03
  -2 -13  13   61.78    6.39
  -2 -13  14  349.50   13.54
  -2 -13  14  359.83   15.79
  -2 -13  15   81.83    6.39
  -2 -13  15   60.04    6.46
  -2 -13  16   53.77    6.19
  -2 -12  -9  104.47    9.26
  -2 -12  -8   14.90    3.96
  -2 -12  -8   14.41    2.78
  -2 -12  -7  118.70    9.51
  -2 -12  -7  100.81    6.68
  -2 -12  -6  145.31   10.43
  -2 -12  -6  144.02    8.16
  -2 -12  -5   90.65    8.05
  -2 -12  -5   88.68    6.46
  -2 -12  -4  175.82   11.06
  -2 -12  -4  174.90    9.18
  -2 -12  -3   21.43    4.10
  -2 -12  -3   19.72    3.32
  -2 -12  -2  153.11    9.70
  -2 -12  -2  128.90    7.98
  -2 -12  -1  312.74   13.79
  -2 -12  -1  274.57   12.03
  -2 -12   0    8.63    3.60
  -2 -12   0    1.47    1.61
  -2 -12   1  158.49    9.33
  -2 -12   1  148.23    8.69
  -2 -12   2  152.59    8.85
  -2 -12   2  150.81    8.78
  -2 -12   3   19.63    3.35
  -2 -12   3   24.89    3.84
  -2 -12   4  322.31   12.82
  -2 -12   4  376.75   14.36
  -2 -12   5  143.41    7.97
  -2 -12   5  156.37    9.03
  -2 -12   6    0.27    1.36
  -2 -12   6    3.60    2.18
  -2 -12   7  280.58   10.68
  -2 -12   7  259.67   12.10
  -2 -12   8  101.69    5.93
  -2 -12   8   98.06    5.70
  -2 -12   8   89.47    7.03
  -2 -12   9  105.57    5.83
  -2 -12   9  109.44    7.75
  -2 -12   9  105.14    5.81
  -2 -12  10  449.69   12.49
  -2 -12  10  407.34   16.00
  -2 -12  10  446.93   12.79
  -2 -12  11    7.28    1.65
  -2 -12  11   12.28    2.56
  -2 -12  11    9.64    1.68
  -2 -12  11   14.00    3.06
  -2 -12  12   63.29    5.11
  -2 -12  12   54.59    5.69
  -2 -12  13  219.63    9.83
  -2 -12  13  199.87   11.14
  -2 -12  14    1.19    2.06
  -2 -12  14   -1.95    2.79
  -2 -12  15  147.50    8.28
  -2 -12  15  138.40    9.26
  -2 -12  16  238.98   12.54
  -2 -11 -10   72.18    8.03
  -2 -11  -9   45.26    6.01
  -2 -11  -8  187.48   11.79
  -2 -11  -8  185.12    8.60
  -2 -11  -7   45.06    5.86
  -2 -11  -7   52.19    4.58
  -2 -11  -6  228.51   12.59
  -2 -11  -6  221.77    9.81
  -2 -11  -5  235.69   12.52
  -2 -11  -5  218.61    9.86
  -2 -11  -4    3.04    1.94
  -2 -11  -4   10.27    3.19
  -2 -11  -4    3.95    1.89
  -2 -11  -3  621.14   18.60
  -2 -11  -3  614.84   20.55
  -2 -11  -3  579.26   17.74
  -2 -11  -2  634.94   18.79
  -2 -11  -2  648.30   20.75
  -2 -11  -2  620.39   18.53
  -2 -11  -1   15.56    2.91
  -2 -11  -1   15.82    3.36
  -2 -11  -1   16.18    2.84
  -2 -11   0  361.86   13.10
  -2 -11   0  322.86   13.33
  -2 -11   0  306.56   12.35
  -2 -11   1  351.15   13.60
  -2 -11   1  330.20   12.86
  -2 -11   2   15.41    2.92
  -2 -11   2   18.53    3.13
  -2 -11   3  209.92    9.76
  -2 -11   3  211.17   10.08
  -2 -11   4  165.69    8.39
  -2 -11   4  191.83    9.57
  -2 -11   5   86.59    5.80
  -2 -11   5   89.52    6.54
  -2 -11   6  317.35   11.42
  -2 -11   6  354.17   13.50
  -2 -11   7   62.49    4.56
  -2 -11   7   58.10    5.41
  -2 -11   8  198.61    7.99
  -2 -11   8  198.38   10.07
  -2 -11   8  192.81    7.74
  -2 -11   9  293.26    9.49
  -2 -11   9  277.53    9.31
  -2 -11   9  272.62   12.12
  -2 -11  10    6.83    1.58
  -2 -11  10    5.76    1.78
  -2 -11  10    4.16    1.35
  -2 -11  10    2.43    1.71
  -2 -11  11  439.07   13.79
  -2 -11  11  436.93   11.62
  -2 -11  11  424.25   15.93
  -2 -11  12   44.99    3.10
  -2 -11  12   42.22    4.15
  -2 -11  12   42.08    4.89
  -2 -11  13   -0.34    1.84
  -2 -11  13    1.31    1.73
  -2 -11  14  259.95   10.75
  -2 -11  14  250.65   12.13
  -2 -11  15  103.66    7.77
  -2 -10 -11   24.43    4.72
  -2 -10 -10   47.52    6.41
  -2 -10  -9  225.72   12.89
  -2 -10  -9  217.17    8.64
  -2 -10  -8   22.66    4.31
  -2 -10  -8   16.26    2.49
  -2 -10  -7   99.74    6.80
  -2 -10  -7  123.55    9.10
  -2 -10  -7  124.38    6.65
  -2 -10  -6  168.01    8.74
  -2 -10  -6  190.82   11.18
  -2 -10  -6  185.23    8.40
  -2 -10  -5   45.74    4.47
  -2 -10  -5   54.42    5.72
  -2 -10  -5   54.13    4.62
  -2 -10  -4  165.74    8.41
  -2 -10  -4  173.20   10.02
  -2 -10  -4  144.01    7.62
  -2 -10  -3  129.69    7.33
  -2 -10  -3  128.29    8.35
  -2 -10  -3  114.02    6.75
  -2 -10  -2  170.76    8.30
  -2 -10  -2  159.09    9.20
  -2 -10  -2  143.89    7.74
  -2 -10  -1  398.65   13.38
  -2 -10  -1  383.60   14.36
  -2 -10  -1  352.34   12.78
  -2 -10   0  128.92    7.13
  -2 -10   0  122.87    7.61
  -2 -10   0  120.93    7.06
  -2 -10   1   88.28    5.09
  -2 -10   1   94.24    6.47
  -2 -10   1   84.65    5.94
  -2 -10   2  601.62   17.13
  -2 -10   2  531.81   16.47
  -2 -10   2  516.41   16.36
  -2 -10   3    6.17    1.88
  -2 -10   3    6.61    2.13
  -2 -10   3    4.16    1.73
  -2 -10   4  228.72   10.02
  -2 -10   4  209.15    9.01
  -2 -10   4  215.73    9.88
  -2 -10   5  771.61   20.63
  -2 -10   5  704.14   18.40
  -2 -10   5  699.11   20.08
  -2 -10   6    7.26    1.95
  -2 -10   6    7.94    2.46
  -2 -10   7  411.62   12.14
  -2 -10   7  409.65   14.47
  -2 -10   8  288.83    9.33
  -2 -10   8  293.20   12.04
  -2 -10   8  294.77    9.21
  -2 -10   9   40.41    3.04
  -2 -10   9   41.98    3.10
  -2 -10   9   41.11    4.46
  -2 -10  10  346.16   11.38
  -2 -10  10  356.00    9.70
  -2 -10  10  335.34   13.32
  -2 -10  11  328.36   11.16
  -2 -10  11  334.32    9.09
  -2 -10  11  327.24   13.24
  -2 -10  12  103.76    6.07
  -2 -10  12  102.63    4.33
  -2 -10  12   99.46    7.17
  -2 -10  13  125.82    4.63
  -2 -10  13  129.69    6.94
  -2 -10  13  121.44    7.89
  -2 -10  14   25.57    3.72
  -2  -9 -12   15.93    3.85
  -2  -9 -11   94.39    8.66
  -2  -9 -10  116.36    9.39
  -2  -9  -9   -0.20    2.28
  -2  -9  -9    3.44    1.45
  -2  -9  -8  131.83    7.58
  -2  -9  -8  138.09    9.49
  -2  -9  -8  137.27    6.45
  -2  -9  -7  270.23   10.96
  -2  -9  -7  282.11   13.40
  -2  -9  -7  295.10   10.16
  -2  -9  -6   55.30    4.73
  -2  -9  -6   61.38    6.05
  -2  -9  -6   60.52    4.47
  -2  -9  -5  344.64   12.25
  -2  -9  -5  344.19   14.30
  -2  -9  -5  358.40   11.80
  -2  -9  -4  119.83    6.74
  -2  -9  -4  118.84    7.95
  -2  -9  -4  122.35    6.58
  -2  -9  -3    2.46    1.51
  -2  -9  -3    1.07    1.73
  -2  -9  -3    0.89    1.38
  -2  -9  -2  609.55   16.72
  -2  -9  -2  591.22   18.36
  -2  -9  -2  571.23   16.35
  -2  -9  -1    1.05    1.30
  -2  -9  -1    1.18    1.52
  -2  -9  -1    1.84    1.40
  -2  -9   0  163.19    7.73
  -2  -9   0  152.78    8.17
  -2  -9   0  152.72    7.67
  -2  -9   1  600.82   16.52
  -2  -9   1  558.14   16.64
  -2  -9   1  525.80   15.94
  -2  -9   2    6.28    1.83
  -2  -9   2    5.59    2.08
  -2  -9   2    8.47    2.20
  -2  -9   3  339.78   11.87
  -2  -9   3  306.46   11.02
  -2  -9   3  316.28   11.71
  -2  -9   4  116.18    6.69
  -2  -9   4  101.24    5.79
  -2  -9   4  100.91    6.36
  -2  -9   5    9.48    2.15
  -2  -9   5    5.92    1.65
  -2  -9   5    8.10    2.36
  -2  -9   6  470.85   14.97
  -2  -9   6  456.83   12.70
  -2  -9   6  426.68   14.45
  -2  -9   7  142.18    7.79
  -2  -9   7  136.53    5.97
  -2  -9   7  133.96    7.56
  -2  -9   8  672.07   15.33
  -2  -9   8  670.82   19.14
  -2  -9   8  679.68   15.07
  -2  -9   9  446.45   12.65
  -2  -9   9  454.45   15.12
  -2  -9   9  452.58   10.98
  -2  -9  10  190.29    7.69
  -2  -9  10  201.03    9.63
  -2  -9  10  195.95    6.17
  -2  -9  11  149.13    5.04
  -2  -9  11  155.51    7.02
  -2  -9  11  149.58    8.36
  -2  -9  12  458.83   13.52
  -2  -9  12  459.56   10.09
  -2  -9  12  447.40   15.58
  -2  -9  13   -0.06    0.68
  -2  -9  13    2.09    1.77
  -2  -8 -13   -2.49    3.29
  -2  -8 -12  212.09   13.05
  -2  -8 -11   93.54    8.54
  -2  -8 -10   47.53    6.18
  -2  -8 -10   46.20    2.92
  -2  -8  -9  172.95    8.41
  -2  -8  -9  198.41   11.59
  -2  -8  -9  199.10    7.18
  -2  -8  -8  324.85   11.80
  -2  -8  -8  338.79   14.60
  -2  -8  -8  355.00   10.51
  -2  -8  -7  134.04    7.06
  -2  -8  -7  147.23    9.14
  -2  -8  -7  149.66    6.54
  -2  -8  -6  216.83    9.00
  -2  -8  -6  227.83   11.13
  -2  -8  -6  230.91    8.54
  -2  -8  -5  130.25    6.75
  -2  -8  -5  159.44    8.95
  -2  -8  -5  148.22    6.76
  -2  -8  -4   93.08    5.56
  -2  -8  -4   89.76    6.57
  -2  -8  -4   89.13    5.27
  -2  -8  -3  340.90   11.38
  -2  -8  -3  355.84   13.32
  -2  -8  -3  338.91   11.17
  -2  -8  -2   26.96    3.06
  -2  -8  -2   22.86    3.38
  -2  -8  -2   27.74    3.15
  -2  -8  -1  192.28    8.07
  -2  -8  -1  192.74    9.09
  -2  -8  -1  180.27    7.91
  -2  -8   0  576.76   15.41
  -2  -8   0  532.94   16.03
  -2  -8   0  527.69   15.18
  -2  -8   1  131.16    6.68
  -2  -8   1  130.07    6.95
  -2  -8   1  133.75    6.85
  -2  -8   2  578.15   15.73
  -2  -8   2  539.46   15.39
  -2  -8   2  553.25   15.70
  -2  -8   3  227.70    9.12
  -2  -8   3  218.98    8.62
  -2  -8   3  223.10    9.21
  -2  -8   4    2.25    1.35
  -2  -8   4    1.05    1.27
  -2  -8   4    0.80    1.45
  -2  -8   5  519.75   15.37
  -2  -8   5  535.09   13.76
  -2  -8   5  510.41   15.34
  -2  -8   6  200.28    8.83
  -2  -8   6  175.81    6.76
  -2  -8   6  191.58    8.67
  -2  -8   7  379.13   13.01
  -2  -8   7  372.99   10.04
  -2  -8   7  367.17   12.74
  -2  -8   8  684.31   18.95
  -2  -8   8  676.25   14.10
  -2  -8   8  646.30   18.38
  -2  -8   9   15.90    1.52
  -2  -8   9   14.04    2.06
  -2  -8   9   11.70    2.53
  -2  -8  10  361.07    8.27
  -2  -8  10  357.24   10.63
  -2  -8  10  350.02   12.82
  -2  -8  11  693.65   16.72
  -2  -8  11  673.95   12.94
  -2  -8  11  678.34   19.24
  -2  -8  12    0.99    0.61
  -2  -8  12    1.77    1.80
  -2  -7 -14   10.10    3.32
  -2  -7 -13  173.56   11.88
  -2  -7 -12   42.33    6.07
  -2  -7 -11   99.13    8.51
  -2  -7 -10  259.51   10.04
  -2  -7 -10  297.79   14.28
  -2  -7  -9   84.12    5.53
  -2  -7  -9   99.26    7.93
  -2  -7  -9  105.46    4.61
  -2  -7  -8  329.94   11.28
  -2  -7  -8  344.26   14.66
  -2  -7  -8  361.37    9.99
  -2  -7  -7  458.51   13.61
  -2  -7  -7  514.16   17.27
  -2  -7  -7  491.07   12.67
  -2  -7  -6   32.55    3.23
  -2  -7  -6   28.54    3.79
  -2  -7  -6   31.42    2.93
  -2  -7  -5  466.45   13.40
  -2  -7  -5  497.11   16.35
  -2  -7  -5  492.95   13.07
  -2  -7  -4  464.24   13.10
  -2  -7  -4  470.65   15.50
  -2  -7  -4  459.47   12.73
  -2  -7  -3   75.35    4.64
  -2  -7  -3   72.44    5.62
  -2  -7  -3   73.21    4.53
  -2  -7  -2  339.90   10.62
  -2  -7  -2  336.53   12.24
  -2  -7  -2  330.97   10.58
  -2  -7  -1  763.63   17.98
  -2  -7  -1  781.94   19.80
  -2  -7  -1  716.63   17.91
  -2  -7   0   10.34    2.01
  -2  -7   0   13.19    2.50
  -2  -7   0    9.29    1.99
  -2  -7   1  942.57   20.87
  -2  -7   1  893.69   21.19
  -2  -7   1  872.58   20.77
  -2  -7   2  220.37    8.38
  -2  -7   2  203.89    8.14
  -2  -7   2  198.32    8.24
  -2  -7   3  185.79    7.81
  -2  -7   3  179.12    7.28
  -2  -7   3  176.63    7.77
  -2  -7   4  631.25   16.56
  -2  -7   4  622.35   15.09
  -2  -7   4  608.37   16.50
  -2  -7   5  157.52    7.47
  -2  -7   5  160.30    6.22
  -2  -7   5  166.53    7.65
  -2  -7   6  243.68    9.57
  -2  -7   6  230.47    9.32
  -2  -7   7  523.83   15.42
  -2  -7   7  516.39   11.16
  -2  -7   7  531.55   15.32
  -2  -7   8   42.75    4.11
  -2  -7   8   41.06    2.89
  -2  -7   8   41.61    2.22
  -2  -7   8   41.11    3.94
  -2  -7   9  439.14   14.34
  -2  -7   9  438.54   11.30
  -2  -7   9  429.19    8.86
  -2  -7   9  448.67   14.06
  -2  -7  10  323.11   12.15
  -2  -7  10  313.82    9.46
  -2  -7  10  314.21    6.59
  -2  -7  10  326.77   11.78
  -2  -7  11   24.64    3.28
  -2  -6 -15   47.19    6.35
  -2  -6 -14  319.16   16.34
  -2  -6 -13   36.21    5.47
  -2  -6 -12   34.25    5.28
  -2  -6 -11  156.16   10.34
  -2  -6 -10    1.76    1.14
  -2  -6 -10    2.99    2.34
  -2  -6  -9  291.56    9.91
  -2  -6  -9  314.40   13.92
  -2  -6  -8  143.69    6.57
  -2  -6  -8  157.99    9.37
  -2  -6  -8  164.54    5.72
  -2  -6  -7   17.79    2.29
  -2  -6  -7   19.28    3.43
  -2  -6  -7   19.93    2.04
  -2  -6  -6  432.14   12.12
  -2  -6  -6  457.14   11.57
  -2  -6  -5  294.11    9.30
  -2  -6  -5  292.71   11.66
  -2  -6  -5  295.20    8.97
  -2  -6  -4  259.19    8.58
  -2  -6  -4  266.49   10.79
  -2  -6  -4  262.77    8.49
  -2  -6  -3   23.60    2.44
  -2  -6  -3   19.31    2.94
  -2  -6  -3   22.46    2.50
  -2  -6  -2  458.85   12.28
  -2  -6  -2  480.82   14.38
  -2  -6  -2  481.58   12.71
  -2  -6  -1   79.98    4.47
  -2  -6  -1   77.95    5.17
  -2  -6  -1   83.86    4.71
  -2  -6   0  430.63   11.93
  -2  -6   0  448.97   13.08
  -2  -6   0  447.76   12.41
  -2  -6   1    4.80    1.47
  -2  -6   1    6.43    2.06
  -2  -6   1    4.97    1.76
  -2  -6   2 1092.28   23.25
  -2  -6   2 1097.05   23.16
  -2  -6   2 1105.30   23.72
  -2  -6   3 1506.61   29.50
  -2  -6   3 1444.30   28.23
  -2  -6   3 1437.36   29.53
  -2  -6   4   11.78    2.09
  -2  -6   4    7.26    1.77
  -2  -6   5  422.97   12.62
  -2  -6   5  406.39   12.45
  -2  -6   6  187.26    8.01
  -2  -6   6  184.96    7.96
  -2  -6   7    8.84    1.98
  -2  -6   7   10.39    1.05
  -2  -6   7    8.41    1.30
  -2  -6   7   12.23    2.37
  -2  -6   8  398.81   13.05
  -2  -6   8  408.43   10.00
  -2  -6   8  407.92    7.79
  -2  -6   8  394.15   12.62
  -2  -6   9  322.68   11.68
  -2  -6   9  321.65    8.89
  -2  -6   9  325.65   11.29
  -2  -6  10   63.22    5.04
  -2  -5 -16   91.98    9.06
  -2  -5 -15  159.36   11.51
  -2  -5 -14    2.20    2.59
  -2  -5 -13  265.77   14.20
  -2  -5 -12  210.13   12.36
  -2  -5 -11    5.85    2.37
  -2  -5 -10  158.78    9.84
  -2  -5  -9  182.32    6.99
  -2  -5  -9  195.53   10.50
  -2  -5  -8  130.74    5.72
  -2  -5  -8  153.49    8.86
  -2  -5  -7  475.68   12.53
  -2  -5  -7  519.28   16.93
  -2  -5  -7  534.85   11.79
  -2  -5  -6  287.17    8.75
  -2  -5  -6  305.77   12.10
  -2  -5  -6  317.81    8.55
  -2  -5  -5   85.76    4.27
  -2  -5  -5   91.04    6.14
  -2  -5  -5   92.28    4.29
  -2  -5  -4 1070.34   21.50
  -2  -5  -4 1099.99   21.73
  -2  -5  -3  468.98   11.69
  -2  -5  -3  489.46   12.15
  -2  -5  -2  168.23    6.12
  -2  -5  -2  172.77    7.61
  -2  -5  -2  166.83    6.39
  -2  -5  -1 1034.77   21.00
  -2  -5  -1 1049.01   23.11
  -2  -5  -1 1033.35   21.52
  -2  -5   0   14.57    1.91
  -2  -5   0   16.14    2.28
  -2  -5   1 1138.91   23.24
  -2  -5   1 1177.12   23.88
  -2  -5   2  429.29   11.66
  -2  -5   2  438.45   12.07
  -2  -5   3   73.89    4.35
  -2  -5   3   67.03    4.30
  -2  -5   4 1068.99   22.75
  -2  -5   4 1051.95   22.83
  -2  -5   5  467.16   13.06
  -2  -5   5  457.41   13.00
  -2  -5   6  449.12   13.01
  -2  -5   6  446.59   12.89
  -2  -5   7  198.10    8.21
  -2  -5   7  200.55    5.64
  -2  -5   7  195.41    8.02
  -2  -5   8  395.79   12.59
  -2  -5   8  383.65    9.17
  -2  -5   9  158.46    7.73
  -2  -5  10  251.75   10.21
  -2  -5  11   10.46    2.25
  -2  -4 -16   44.05    6.09
  -2  -4 -15    2.38    2.81
  -2  -4 -14  375.58   17.17
  -2  -4 -13  107.08    8.72
  -2  -4 -12   38.20    2.71
  -2  -4 -12   40.36    5.43
  -2  -4 -11  153.82    9.78
  -2  -4 -10   50.24    5.45
  -2  -4  -9  416.65   15.54
  -2  -4  -8  324.08    9.00
  -2  -4  -8  366.13   13.80
  -2  -4  -7  205.45    6.54
  -2  -4  -7  201.13    9.68
  -2  -4  -6  369.54    9.40
  -2  -4  -6  401.46   13.64
  -2  -4  -5  762.01   15.88
  -2  -4  -5  802.74   20.54
  -2  -4  -5  809.34   16.12
  -2  -4  -4   42.96    2.64
  -2  -4  -4   38.46    3.80
  -2  -4  -4   44.61    2.85
  -2  -4  -3 1001.56   19.51
  -2  -4  -3 1045.92   23.25
  -2  -4  -3 1027.16   20.25
  -2  -4  -2  147.47    5.27
  -2  -4  -2  154.98    6.88
  -2  -4  -2  157.25    5.83
  -2  -4  -1  541.06   12.14
  -2  -4  -1  518.84   12.73
  -2  -4   0 1133.53   21.91
  -2  -4   0 1130.73   22.70
  -2  -4   1  601.49   13.80
  -2  -4   1  615.18   14.48
  -2  -4   2   68.41    3.86
  -2  -4   2   72.62    4.21
  -2  -4   3 1092.69   22.26
  -2  -4   3 1087.40   22.62
  -2  -4   4  304.76    9.44
  -2  -4   4  296.85    6.91
  -2  -4   4  301.56    9.50
  -2  -4   5  716.44   17.07
  -2  -4   5  726.58   12.75
  -2  -4   5  721.24   17.09
  -2  -4   6  860.08   19.75
  -2  -4   6  861.10   15.25
  -2  -4   7    2.25    1.46
  -2  -4   8 1077.91   24.21
  -2  -4   9  963.58   22.79
  -2  -4  10    3.07    1.33
  -2  -3 -17   71.32    7.84
  -2  -3 -16   10.11    3.50
  -2  -3 -15  200.62   12.42
  -2  -3 -14   37.87    5.52
  -2  -3 -13  178.69    5.75
  -2  -3 -13  182.44   11.11
  -2  -3 -12  485.93   10.89
  -2  -3 -12  457.33   17.82
  -2  -3 -11  320.18    8.00
  -2  -3 -11  291.82   13.42
  -2  -3 -10  221.79   11.06
  -2  -3  -9   87.47    6.62
  -2  -3  -8    1.43    0.73
  -2  -3  -8    4.20    2.02
  -2  -3  -7  395.37    9.06
  -2  -3  -7  402.19   13.92
  -2  -3  -6  466.94   10.04
  -2  -3  -6  480.46   14.95
  -2  -3  -5   28.76    1.84
  -2  -3  -5   28.95    3.48
  -2  -3  -4  991.56   18.19
  -2  -3  -4 1023.68   23.06
  -2  -3  -3  390.21    8.83
  -2  -3  -3  399.63   11.95
  -2  -3  -2 1212.75   21.88
  -2  -3  -2 1216.97   25.00
  -2  -3  -1 1682.57   29.44
  -2  -3  -1 1715.24   31.84
  -2  -3   0   33.76    2.34
  -2  -3   0   40.77    2.96
  -2  -3   1  479.92   11.28
  -2  -3   1  482.81   11.27
  -2  -3   2 1650.31   30.29
  -2  -3   2 1686.37   29.14
  -2  -3   3    2.12    1.12
  -2  -3   3    0.86    0.76
  -2  -3   4  799.14   17.67
  -2  -3   4  810.19   14.18
  -2  -3   5  980.39   21.01
  -2  -3   6  105.66    5.42
  -2  -3   7  486.52   13.56
  -2  -3   8   78.82    5.04
  -2  -2 -17   35.21    5.60
  -2  -2 -16  269.06   14.65
  -2  -2 -15   15.70    3.97
  -2  -2 -14   41.09    5.51
  -2  -2 -13  210.82    5.93
  -2  -2 -13  213.98   11.83
  -2  -2 -12   20.48    1.59
  -2  -2 -12   19.11    3.69
  -2  -2 -11  323.88    7.48
  -2  -2 -11  325.07   13.77
  -2  -2 -10   93.74    3.22
  -2  -2 -10   94.76    6.98
  -2  -2  -9   15.27    1.19
  -2  -2  -9   11.75    2.84
  -2  -2  -8  613.10   11.82
  -2  -2  -8  678.80   19.00
  -2  -2  -7  185.45    4.57
  -2  -2  -7  191.12    8.95
  -2  -2  -6   15.54    1.09
  -2  -2  -6   16.82    2.88
  -2  -2  -5  152.81    3.87
  -2  -2  -5  165.38    7.60
  -2  -2  -4  850.88   15.01
  -2  -2  -4  897.72   20.43
  -2  -2  -3  532.27   10.36
  -2  -2  -3  572.58   14.50
  -2  -2  -2  204.02    5.32
  -2  -2  -2  222.71    7.76
  -2  -2  -1    7.81    1.17
  -2  -2  -1    7.38    1.67
  -2  -2   0  904.04   17.27
  -2  -2   0  940.82   18.62
  -2  -2   1  644.31   13.54
  -2  -2   1  658.61   13.65
  -2  -2   2   46.18    2.88
  -2  -2   2   45.98    2.47
  -2  -2   3 1008.81   20.32
  -2  -2   3 1024.71   17.88
  -2  -2   4   14.01    1.98
  -2  -2   4   12.66    0.92
  -2  -2   5  203.63    7.35
  -2  -1 -18   66.04    7.46
  -2  -1 -17  191.66   12.47
  -2  -1 -16    4.19    3.08
  -2  -1 -15  230.48   12.94
  -2  -1 -14  217.82   12.15
  -2  -1 -13    3.41    0.81
  -2  -1 -13    1.72    2.52
  -2  -1 -12  207.12    5.29
  -2  -1 -12  205.09   10.97
  -2  -1 -11  363.63    7.56
  -2  -1 -11  352.01   14.20
  -2  -1 -10   91.54    2.73
  -2  -1 -10   84.32    6.43
  -2  -1  -9  328.05    6.27
  -2  -1  -9  350.55   13.05
  -2  -1  -8  125.88    7.34
  -2  -1  -7  672.98   18.46
  -2  -1  -6 1362.01   29.30
  -2  -1  -5   23.99    3.00
  -2  -1  -4  258.31    9.19
  -2  -1  -3 1661.82   26.78
  -2  -1  -3 1723.71   32.21
  -2  -1  -2  152.02    3.94
  -2  -1  -2  152.84    6.19
  -2  -1  -1 1152.97   20.16
  -2  -1  -1 1181.84   22.80
  -2  -1   0  963.79   17.76
  -2  -1   0  959.07   18.01
  -2  -1   0  993.42   19.13
  -2  -1   1   60.00    2.96
  -2  -1   1   54.47    2.36
  -2  -1   1   60.66    3.04
  -2  -1   2  499.06    9.04
  -2  -1   2  515.73   10.51
  -2  -1   3  641.87   11.98
  -2  -1   4  274.99    5.69
  -2   0 -18   35.73    5.55
  -2   0 -17    4.66    2.70
  -2   0 -16  240.64   13.48
  -2   0 -15   66.65    6.97
  -2   0 -14   42.33    5.49
  -2   0 -13  143.69    4.22
  -2   0 -13  139.05    9.13
  -2   0 -12   38.17    1.83
  -2   0 -12   38.06    4.73
  -2   0 -11  285.30    5.99
  -2   0 -11  276.42   12.23
  -2   0 -10  644.96   19.38
  -2   0  -9   50.10    5.11
  -2   0  -9   44.62    4.57
  -2   0  -8  535.11   16.38
  -2   0  -8  526.32   16.08
  -2   0  -7  731.32   19.19
  -2   0  -7  700.15   18.83
  -2   0  -6   53.52    4.34
  -2   0  -6   46.69    4.16
  -2   0  -5  574.19   15.23
  -2   0  -5  570.94   15.35
  -2   0  -4  905.21   20.43
  -2   0  -4  908.60   20.09
  -2   0  -3   59.97    3.98
  -2   0  -3   58.47    3.73
  -2   0  -2 2229.29   39.30
  -2   0  -2 2168.96   38.38
  -2   0  -1 1238.31   23.68
  -2   0  -1 1223.23   22.74
  -2   0   0  218.14    6.64
  -2   0   0  219.42    5.95
  -2   0   1  540.65   11.62
  -2   0   2  822.92   15.55
  -2   0   3  791.14   14.58
  -2   1 -19   62.30    7.61
  -2   1 -18   28.30    4.89
  -2   1 -17  155.78   10.90
  -2   1 -16   31.43    5.09
  -2   1 -15  170.57   10.75
  -2   1 -14  277.57    6.93
  -2   1 -14  286.36   13.61
  -2   1 -13   88.66    3.27
  -2   1 -13   94.04    7.39
  -2   1 -12  317.10    7.03
  -2   1 -12  331.62   13.71
  -2   1 -11  173.05    4.30
  -2   1 -11  194.21    9.87
  -2   1 -10   21.48    3.41
  -2   1  -9  728.30   20.29
  -2   1  -9  766.44   20.91
  -2   1  -8   97.10    6.28
  -2   1  -8   86.11    5.90
  -2   1  -7  311.86   11.28
  -2   1  -7  329.33   11.63
  -2   1  -6  827.62   20.13
  -2   1  -6  811.90   20.00
  -2   1  -5  770.04   18.53
  -2   1  -5  774.61   18.62
  -2   1  -4  301.00    9.90
  -2   1  -4  296.84    9.49
  -2   1  -3 1052.60   21.97
  -2   1  -3 1047.56   21.50
  -2   1  -2  223.92    7.13
  -2   1  -2  233.99    7.68
  -2   1  -1  605.03   13.05
  -2   1  -1  605.24   13.76
  -2   1   0  618.10   13.47
  -2   1   1   58.38    3.06
  -2   1   2  224.69    6.24
  -2   1  10  441.42   10.82
  -2   1  11  151.94    5.67
  -2   1  12  286.72    8.48
  -2   1  13   75.68    4.10
  -2   1  14  248.06    8.13
  -2   1  15   49.61    3.46
  -2   2 -19   63.28    7.42
  -2   2 -18  221.99   13.31
  -2   2 -17    2.31    2.46
  -2   2 -16   83.73    7.69
  -2   2 -15  131.85    9.32
  -2   2 -14    7.24    1.13
  -2   2 -14    9.14    2.77
  -2   2 -13  481.57   10.47
  -2   2 -13  474.04   17.34
  -2   2 -12  117.17    3.98
  -2   2 -12  122.12    8.04
  -2   2 -11    7.67    2.37
  -2   2 -10  822.72   22.17
  -2   2 -10  817.75   22.64
  -2   2  -9  134.45    7.57
  -2   2  -9  152.32    8.14
  -2   2  -8  164.75    8.12
  -2   2  -8  162.97    8.17
  -2   2  -7  162.67    7.77
  -2   2  -7  167.11    7.91
  -2   2  -6   36.95    3.66
  -2   2  -6   37.56    3.54
  -2   2  -5  625.94   16.09
  -2   2  -5  621.49   15.94
  -2   2  -4  628.23   15.32
  -2   2  -4  612.36   15.49
  -2   2  -3    7.03    1.70
  -2   2  -3    3.52    1.33
  -2   2  -2  422.01   11.22
  -2   2  -1  458.04   11.45
  -2   2   0  239.06    7.28
  -2   2   1  951.07   18.71
  -2   2   8  269.55    8.10
  -2   2   9  428.44   11.16
  -2   2  10  416.93   11.23
  -2   2  11   62.97    3.94
  -2   2  12  238.84    8.30
  -2   2  13  265.40    9.06
  -2   2  14   18.48    2.38
  -2   2  15  184.44    7.68
  -2   3 -20   47.05    6.65
  -2   3 -19  178.40   12.14
  -2   3 -18    8.45    3.22
  -2   3 -17  168.73   11.17
  -2   3 -16  120.49    9.13
  -2   3 -15   23.63    4.12
  -2   3 -14  296.67    8.26
  -2   3 -14  296.43   13.63
  -2   3 -13   39.92    4.76
  -2   3 -12  424.45   15.60
  -2   3 -11  831.36   22.86
  -2   3 -10  156.41    8.60
  -2   3 -10  134.61    7.82
  -2   3  -9  844.03   22.21
  -2   3  -9  819.98   21.63
  -2   3  -8 1084.02   25.85
  -2   3  -8 1098.10   25.61
  -2   3  -7    4.56    1.60
  -2   3  -7    5.92    1.90
  -2   3  -6  635.07   16.80
  -2   3  -6  631.42   16.71
  -2   3  -5  229.62    8.66
  -2   3  -5  225.22    8.65
  -2   3  -4   29.51    2.99
  -2   3  -4   26.11    2.75
  -2   3  -3 1354.29   27.00
  -2   3  -2  361.47   10.33
  -2   3  -1  153.92    6.06
  -2   3   0  710.22   15.67
  -2   3   1  332.71    9.10
  -2   3   6  611.38   14.31
  -2   3   7   25.33    2.49
  -2   3   8  491.01   12.80
  -2   3   9  446.63   12.23
  -2   3  10   -1.17    1.31
  -2   3  11  257.48    9.06
  -2   3  12  114.09    5.91
  -2   3  13   40.04    3.64
  -2   3  14  122.78    6.48
  -2   3  15  101.26    6.04
  -2   4 -20   36.45    5.57
  -2   4 -19    1.13    2.15
  -2   4 -18  280.45   14.84
  -2   4 -17   98.97    8.55
  -2   4 -16   14.75    3.86
  -2   4 -15  151.99    9.85
  -2   4 -14    6.56    2.70
  -2   4 -13  334.58   14.04
  -2   4 -12  373.30   14.43
  -2   4 -11    0.08    1.65
  -2   4 -10  449.18   15.59
  -2   4 -10  451.77   15.19
  -2   4  -9  567.49   17.38
  -2   4  -9  556.64   16.80
  -2   4  -8   53.38    4.64
  -2   4  -8   43.47    4.16
  -2   4  -7  152.66    7.70
  -2   4  -7  168.60    7.89
  -2   4  -6  183.63    8.05
  -2   4  -6  184.03    8.05
  -2   4  -5  635.31   16.41
  -2   4  -4 1449.60   29.24
  -2   4  -3  652.13   16.05
  -2   4  -2  521.49   13.45
  -2   4  -1 2043.87   37.27
  -2   4   0  138.23    5.77
  -2   4   5  173.29    6.73
  -2   4   6   97.87    5.06
  -2   4   7   62.59    4.20
  -2   4   8  470.41   13.06
  -2   4   9  183.40    7.60
  -2   4  10  218.47    8.57
  -2   4  11   86.01    5.36
  -2   4  12  158.36    7.54
  -2   4  13  301.54   11.03
  -2   4  14   20.79    3.04
  -2   4  15   79.11    5.71
  -2   5 -20    9.21    3.43
  -2   5 -19  132.11   10.22
  -2   5 -18   56.35    6.49
  -2   5 -17  122.98    9.40
  -2   5 -16  177.83   10.96
  -2   5 -15   51.49    5.73
  -2   5 -14  239.72   12.03
  -2   5 -13  221.72   11.13
  -2   5 -12    4.47    2.04
  -2   5 -11  631.47   19.10
  -2   5 -10  209.61   10.22
  -2   5 -10  220.76   10.03
  -2   5  -9    0.90    1.58
  -2   5  -9    1.98    1.33
  -2   5  -8  450.16   14.38
  -2   5  -7  160.81    7.81
  -2   5  -6   22.83    2.92
  -2   5  -5  444.42   13.22
  -2   5  -4   42.14    3.74
  -2   5  -3  540.49   14.37
  -2   5  -2  339.16   10.67
  -2   5  -1    4.22    1.72
  -2   5   4  237.55    8.38
  -2   5   5    8.19    1.71
  -2   5   6  352.95   11.13
  -2   5   7   93.31    5.34
  -2   5   8  165.17    7.38
  -2   5   9  306.55   10.82
  -2   5  10    2.80    1.50
  -2   5  11  213.67    9.20
  -2   5  12  177.80    8.49
  -2   5  13    2.26    1.64
  -2   5  14  157.06    8.39
  -2   6 -20  138.35   10.71
  -2   6 -19    1.47    2.24
  -2   6 -18  188.42   11.89
  -2   6 -17  251.79   13.43
  -2   6 -16   20.46    4.10
  -2   6 -15  196.62   11.13
  -2   6 -14  121.94    8.37
  -2   6 -13   -0.93    2.35
  -2   6 -12  383.83   14.67
  -2   6 -11   84.05    6.34
  -2   6 -10   29.18    3.82
  -2   6  -9  206.01    9.52
  -2   6  -8  221.75    9.64
  -2   6  -7  626.83   17.45
  -2   6  -6  285.44   10.60
  -2   6  -5   10.72    2.17
  -2   6  -4  196.89    8.23
  -2   6  -3  493.30   13.91
  -2   6  -2   68.63    4.60
  -2   6   3  209.08    8.12
  -2   6   4  303.13   10.29
  -2   6   5  221.52    8.83
  -2   6   6    3.54    1.41
  -2   6   7  557.36   15.64
  -2   6   8  258.60   10.05
  -2   6   9    2.88    1.60
  -2   6  10  419.41   13.90
  -2   6  11   85.44    6.11
  -2   6  12    9.27    2.18
  -2   7 -20   17.82    4.18
  -2   7 -19  161.93   11.29
  -2   7 -18   55.18    6.69
  -2   7 -17   72.67    7.20
  -2   7 -16  337.45   15.32
  -2   7 -15   75.25    6.95
  -2   7 -14  182.66   10.40
  -2   7 -13  441.44   16.44
  -2   7 -12   13.07    3.04
  -2   7 -11  138.54    8.20
  -2   7 -10  672.84   19.65
  -2   7  -9   57.60    5.03
  -2   7  -8  405.18   13.80
  -2   7  -7  611.55   17.43
  -2   7  -6   21.57    3.13
  -2   7  -5  855.16   21.06
  -2   7  -4  221.15    9.03
  -2   7   2   74.29    4.90
  -2   7   3  154.20    7.26
  -2   7   4  639.03   17.22
  -2   7   5   15.41    2.31
  -2   7   6  215.25    9.16
  -2   7   7  324.34   11.76
  -2   7   8   14.33    2.62
  -2   7   9  307.93   11.88
  -2   7  10  236.15   10.48
  -2   8 -20  148.62   11.04
  -2   8 -19   39.83    5.73
  -2   8 -18   53.25    6.56
  -2   8 -17  222.16   12.64
  -2   8 -16   29.16    4.71
  -2   8 -15  125.84    8.86
  -2   8 -14  123.06    8.56
  -2   8 -13   20.23    3.51
  -2   8 -12  376.76   14.92
  -2   8 -11   73.55    6.09
  -2   8 -10   31.53    3.89
  -2   8  -9  113.13    7.19
  -2   8  -8  275.57   11.29
  -2   8  -7  318.64   11.96
  -2   8  -6 1411.27   31.01
  -2   8  -5  228.00    9.59
  -2   8   1    7.52    1.75
  -2   8   2  363.54   12.17
  -2   8   3  149.01    7.53
  -2   8   4    1.85    1.39
  -2   8   5  314.20   11.60
  -2   8   6  366.71   12.94
  -2   8   7  101.72    6.58
  -2   8   8  357.52   13.29
  -2   9 -20    6.56    2.81
  -2   9 -19   85.42    8.32
  -2   9 -18   73.97    7.63
  -2   9 -17   -2.75    2.98
  -2   9 -16  273.79   13.80
  -2   9 -15  217.99   11.88
  -2   9 -14   20.29    3.68
  -2   9 -13  299.62   13.45
  -2   9 -12   35.09    4.54
  -2   9 -11  167.43    9.36
  -2   9 -10  139.08    8.27
  -2   9  -9   81.16    6.18
  -2   9  -8   47.69    4.66
  -2   9  -7  960.95   24.30
  -2   9  -6    3.92    2.00
  -2   9   1  818.66   20.82
  -2   9   2  228.97    9.77
  -2   9   3   35.18    3.84
  -2   9   4   94.00    6.24
  -2   9   5   88.07    6.16
  -2   9   6  319.12   12.44
  -2  10 -20  104.56    9.49
  -2  10 -19   50.61    6.47
  -2  10 -18   -2.85    3.58
  -2  10 -17  107.74    8.80
  -2  10 -16   48.86    5.93
  -2  10 -15    1.77    2.02
  -2  10 -14  278.73   13.42
  -2  10 -13    3.31    1.98
  -2  10 -12  195.85   10.54
  -2  10 -11  312.65   13.38
  -2  10 -10   -1.05    1.86
  -2  10  -9  416.82   15.09
  -2  10  -8  163.58    8.84
  -2  10   0  302.68   11.53
  -2  10   1   65.84    5.24
  -2  10   2  238.72   10.44
  -2  10   3  207.05    9.85
  -2  11 -19   26.34    4.90
  -2  11 -18  125.10    9.77
  -2  11 -17   12.47    3.92
  -2  11 -16   95.02    8.16
  -2  11 -15  179.05   10.94
  -2  11 -14   29.33    4.50
  -2  11 -13   24.23    4.16
  -2  11 -12  312.07   13.91
  -2  11 -11   82.85    6.76
  -2  11 -10  532.92   18.09
  -2  11   0    5.65    2.13
  -2  12 -19   85.99    8.31
  -2  12 -18    5.42    2.90
  -2  12 -17   73.52    7.46
  -2  12 -16   87.59    8.05
  -2  12 -15    7.07    2.85
  -2  12 -14  128.45    9.25
  -2  12 -13  230.35   12.25
  -2  13 -19    6.05    3.61
  -1 -21   7   73.42    8.33
  -1 -20   4    2.71    2.38
  -1 -20   5  103.03   10.31
  -1 -20   6   12.98    3.66
  -1 -20   7   -1.49    2.75
  -1 -20   8  113.42    9.20
  -1 -19   1   52.64    6.81
  -1 -19   2   59.13    7.18
  -1 -19   3   35.37    5.68
  -1 -19   4   83.53    8.23
  -1 -19   5   18.59    4.57
  -1 -19   6   90.48    8.44
  -1 -19   7   70.57    7.33
  -1 -19   8   18.23    4.49
  -1 -19   9   35.28    5.15
  -1 -19  13   22.84    4.61
  -1 -19  14    9.12    4.35
  -1 -18  -1   31.87    5.29
  -1 -18   0  123.01   10.17
  -1 -18   1    3.88    2.73
  -1 -18   2   57.52    7.01
  -1 -18   3  154.50   10.89
  -1 -18   4    6.42    2.77
  -1 -18   5  112.08    9.03
  -1 -18   6   35.45    5.28
  -1 -18   7   17.69    3.83
  -1 -18   8  111.16    8.60
  -1 -18   9   73.23    6.96
  -1 -18   9   70.97    7.49
  -1 -18  10    2.16    2.43
  -1 -18  10    6.58    2.91
  -1 -18  11  176.33   11.85
  -1 -18  12   32.46    5.38
  -1 -18  13   43.09    6.10
  -1 -18  14  111.84    9.64
  -1 -18  15    7.96    3.72
  -1 -17  -3  -10.09    3.42
  -1 -17  -2   57.81    7.01
  -1 -17  -1  119.35    9.74
  -1 -17   0    2.87    2.63
  -1 -17   1  120.73    9.68
  -1 -17   2   38.52    5.77
  -1 -17   3    0.44    2.51
  -1 -17   4  275.30   14.06
  -1 -17   5  118.46    8.96
  -1 -17   6   59.74    6.53
  -1 -17   7  117.13    8.75
  -1 -17   8   35.47    4.76
  -1 -17   9   32.13    4.49
  -1 -17  10   90.33    6.98
  -1 -17  10   83.93    7.94
  -1 -17  11    5.00    2.70
  -1 -17  12   44.50    5.70
  -1 -17  12   41.86    5.69
  -1 -17  13  108.16    8.75
  -1 -17  13  108.76    9.05
  -1 -17  14    6.85    3.36
  -1 -17  14    8.01    2.40
  -1 -17  15  143.01   10.27
  -1 -17  15  140.17   10.44
  -1 -17  16   80.43    8.03
  -1 -16  -5  166.90   12.12
  -1 -16  -4   15.03    3.79
  -1 -16  -3   87.89    8.51
  -1 -16  -2  120.19    9.71
  -1 -16  -1    7.37    3.11
  -1 -16   0  177.58   11.51
  -1 -16   1   94.42    8.28
  -1 -16   2   -0.25    1.95
  -1 -16   3  114.06    8.69
  -1 -16   4  111.21    8.46
  -1 -16   5   14.05    3.28
  -1 -16   6  195.54   10.81
  -1 -16   7    3.08    2.44
  -1 -16   8  125.13    8.28
  -1 -16   9  129.61    8.20
  -1 -16  10    0.36    2.21
  -1 -16  10   -1.33    1.61
  -1 -16  11   96.61    6.53
  -1 -16  11   86.41    7.80
  -1 -16  12   71.35    6.90
  -1 -16  12   67.28    6.98
  -1 -16  13   -0.58    2.50
  -1 -16  13    1.91    2.31
  -1 -16  14  100.35    8.18
  -1 -16  14   98.06    8.45
  -1 -16  15   35.33    5.36
  -1 -16  15   31.34    4.94
  -1 -16  16   20.03    4.47
  -1 -16  16   22.23    4.42
  -1 -16  17  175.98   12.02
  -1 -16  18   34.10    5.43
  -1 -15  -7   85.71    8.67
  -1 -15  -6  105.25    9.44
  -1 -15  -5    1.95    3.13
  -1 -15  -4  119.47   10.02
  -1 -15  -3   77.94    7.78
  -1 -15  -2   13.25    3.56
  -1 -15  -1  376.12   16.79
  -1 -15   0  127.59    9.50
  -1 -15   1   40.84    5.25
  -1 -15   2  140.93    9.47
  -1 -15   3   43.35    5.20
  -1 -15   4  116.93    8.29
  -1 -15   5  256.20   12.19
  -1 -15   6   94.18    7.11
  -1 -15   7   70.83    6.09
  -1 -15   8   90.63    6.72
  -1 -15   9   22.14    3.42
  -1 -15  10  149.61    8.07
  -1 -15  10  126.80    9.16
  -1 -15  11   41.96    4.18
  -1 -15  11   34.47    4.92
  -1 -15  12   15.54    3.49
  -1 -15  12   18.37    2.85
  -1 -15  12   12.44    3.22
  -1 -15  13  113.69    8.32
  -1 -15  13  117.69    8.88
  -1 -15  14   27.31    4.45
  -1 -15  14   29.76    4.68
  -1 -15  15   35.44    5.21
  -1 -15  15   32.59    4.86
  -1 -15  16  102.39    8.35
  -1 -15  16   73.49    7.27
  -1 -15  17   14.68    4.01
  -1 -15  17   -0.86    2.36
  -1 -15  18  104.09    8.57
  -1 -15  19   42.52    6.07
  -1 -14  -8  112.65    9.69
  -1 -14  -7   91.11    8.84
  -1 -14  -6   19.13    4.25
  -1 -14  -5  169.31   11.44
  -1 -14  -4   10.56    3.32
  -1 -14  -3   57.77    6.45
  -1 -14  -2  257.07   13.36
  -1 -14  -1   36.46    5.36
  -1 -14   0  322.54   14.66
  -1 -14   1  351.58   15.04
  -1 -14   2    2.33    2.10
  -1 -14   3  112.67    7.96
  -1 -14   4  105.62    7.58
  -1 -14   5   10.70    3.01
  -1 -14   6  286.33   12.23
  -1 -14   7  265.76   11.77
  -1 -14   7  306.45   12.16
  -1 -14   8    5.63    1.94
  -1 -14   8    6.73    2.29
  -1 -14   9  327.88   12.23
  -1 -14   9  306.62   12.17
  -1 -14  10   59.73    4.85
  -1 -14  10   59.54    6.00
  -1 -14  10   55.46    4.98
  -1 -14  11   63.06    5.89
  -1 -14  11   71.81    5.02
  -1 -14  11   77.67    6.92
  -1 -14  11   66.99    5.41
  -1 -14  12  328.33   13.92
  -1 -14  12  334.41   11.05
  -1 -14  12  329.71   14.65
  -1 -14  13   56.25    5.82
  -1 -14  13   56.54    6.01
  -1 -14  14   96.03    7.56
  -1 -14  14   83.71    7.42
  -1 -14  15   98.40    7.75
  -1 -14  15   89.10    7.69
  -1 -14  16    6.54    3.14
  -1 -14  16    6.84    2.76
  -1 -14  17   94.94    8.06
  -1 -14  17  106.61    8.36
  -1 -14  18   61.26    6.81
  -1 -14  19    0.41    2.37
  -1 -13 -10    5.92    3.09
  -1 -13  -9   89.22    8.72
  -1 -13  -8    9.06    3.10
  -1 -13  -7   38.61    5.69
  -1 -13  -6  402.42   17.73
  -1 -13  -5    6.26    2.97
  -1 -13  -4   40.50    5.35
  -1 -13  -3  280.95   13.74
  -1 -13  -2   16.78    3.66
  -1 -13  -1  198.61   11.02
  -1 -13   0  124.76    8.48
  -1 -13   1    0.26    2.08
  -1 -13   2  397.20   15.19
  -1 -13   3   27.72    3.89
  -1 -13   4   37.26    4.37
  -1 -13   5  383.55   14.11
  -1 -13   6  127.79    7.57
  -1 -13   7   39.29    4.09
  -1 -13   7   36.36    4.04
  -1 -13   8  207.05    9.26
  -1 -13   8  218.33    9.62
  -1 -13   9    0.10    1.52
  -1 -13   9    0.89    1.79
  -1 -13   9    0.39    1.45
  -1 -13  10  232.82    9.18
  -1 -13  10  214.30    9.45
  -1 -13  10  219.76   11.22
  -1 -13  11  483.71   16.64
  -1 -13  11  498.51   13.90
  -1 -13  11  470.17   14.89
  -1 -13  11  503.24   17.75
  -1 -13  12   -0.53    1.58
  -1 -13  12    0.85    1.96
  -1 -13  12    2.11    2.24
  -1 -13  12    2.35    1.29
  -1 -13  13  193.91   10.29
  -1 -13  13  199.22    6.99
  -1 -13  13  181.43   10.33
  -1 -13  14  302.06   13.41
  -1 -13  14  310.34   13.80
  -1 -13  15    5.15    2.41
  -1 -13  15    8.50    2.61
  -1 -13  16  108.63    8.13
  -1 -13  16   90.81    7.54
  -1 -13  17   43.19    5.47
  -1 -13  18   15.55    3.68
  -1 -12 -11   87.23    8.42
  -1 -12 -10  153.33   11.10
  -1 -12  -9   -2.56    2.78
  -1 -12  -8   67.81    7.16
  -1 -12  -7  232.15   12.93
  -1 -12  -6   10.52    3.37
  -1 -12  -5  242.43   12.69
  -1 -12  -4  239.02   12.34
  -1 -12  -3    2.58    1.81
  -1 -12  -2  190.98   10.52
  -1 -12  -1   99.69    7.35
  -1 -12   0   15.05    3.15
  -1 -12   1  309.70   12.90
  -1 -12   2  119.30    7.56
  -1 -12   3   85.88    6.30
  -1 -12   4  129.84    7.57
  -1 -12   5   33.89    3.84
  -1 -12   6  240.57   10.07
  -1 -12   7  324.29   11.75
  -1 -12   7  368.12   12.32
  -1 -12   8   30.07    3.42
  -1 -12   8   24.91    3.07
  -1 -12   9  113.13    6.12
  -1 -12   9  121.93    7.76
  -1 -12   9  114.42    6.46
  -1 -12  10  111.20    5.76
  -1 -12  10  113.17    8.04
  -1 -12  10  103.89    6.11
  -1 -12  11   20.84    3.48
  -1 -12  11   22.48    3.02
  -1 -12  11   22.98    2.30
  -1 -12  11   24.32    3.74
  -1 -12  12  390.53   14.36
  -1 -12  12  379.80   10.39
  -1 -12  12  347.13   14.17
  -1 -12  12  376.87   12.33
  -1 -12  13  103.74    7.17
  -1 -12  13   96.77    5.82
  -1 -12  13   94.22    4.09
  -1 -12  13   99.24    7.28
  -1 -12  14    1.22    1.67
  -1 -12  14    1.72    1.70
  -1 -12  15  337.80   14.19
  -1 -12  15  346.98   14.36
  -1 -12  16   73.38    6.45
  -1 -12  17   53.98    5.64
  -1 -11 -13    2.17    2.24
  -1 -11 -12   74.24    7.73
  -1 -11 -11  125.85    9.83
  -1 -11 -10    1.69    2.41
  -1 -11  -9  201.66   12.13
  -1 -11  -8  107.84    8.69
  -1 -11  -7   33.11    5.05
  -1 -11  -6  299.75   13.95
  -1 -11  -5  155.75    9.67
  -1 -11  -4   79.22    6.42
  -1 -11  -4   77.58    6.59
  -1 -11  -3  424.65   15.33
  -1 -11  -3  414.79   15.78
  -1 -11  -2   89.57    6.59
  -1 -11  -2   95.07    7.04
  -1 -11  -1   21.70    3.39
  -1 -11  -1   23.02    3.66
  -1 -11   0  253.59   11.00
  -1 -11   0  258.95   11.37
  -1 -11   1    4.86    1.79
  -1 -11   1   12.02    2.67
  -1 -11   2  268.92   11.13
  -1 -11   2  271.82   11.20
  -1 -11   3  102.67    6.70
  -1 -11   3  106.65    6.62
  -1 -11   4   25.30    3.40
  -1 -11   4   20.67    3.03
  -1 -11   5  207.55    9.68
  -1 -11   5  200.81    8.84
  -1 -11   6  294.19   10.66
  -1 -11   7   39.89    3.72
  -1 -11   7   40.74    3.67
  -1 -11   8  255.83    9.29
  -1 -11   8  262.92    9.64
  -1 -11   9   76.83    4.62
  -1 -11   9   93.13    6.48
  -1 -11   9   79.50    5.29
  -1 -11  10   44.28    4.33
  -1 -11  10   43.51    3.28
  -1 -11  10   42.11    3.66
  -1 -11  10   47.66    4.78
  -1 -11  11  300.27   11.80
  -1 -11  11  297.87    8.79
  -1 -11  11  286.22   10.08
  -1 -11  11  279.64   11.92
  -1 -11  12   44.85    4.59
  -1 -11  12   40.85    2.64
  -1 -11  12   31.83    4.06
  -1 -11  12   40.27    3.65
  -1 -11  13   75.26    6.08
  -1 -11  13   73.93    4.86
  -1 -11  13   79.97    3.13
  -1 -11  13   74.21    6.01
  -1 -11  14   85.14    6.55
  -1 -11  14   93.09    5.53
  -1 -11  14   97.81    7.00
  -1 -11  15   44.98    5.02
  -1 -11  15   47.06    4.98
  -1 -11  16  101.38    7.25
  -1 -11  17  162.31   10.00
  -1 -10 -13   90.13    8.86
  -1 -10 -13   91.63    8.35
  -1 -10 -12   81.95    8.02
  -1 -10 -11    4.04    2.87
  -1 -10 -10  166.61   10.99
  -1 -10  -9  161.26   10.39
  -1 -10  -8    5.37    2.52
  -1 -10  -7  115.34    8.32
  -1 -10  -6   16.07    3.25
  -1 -10  -5  280.55   12.61
  -1 -10  -4  350.22   13.98
  -1 -10  -3   -2.61    2.66
  -1 -10  -3    3.30    2.03
  -1 -10  -2  395.35   13.95
  -1 -10  -2  391.34   14.36
  -1 -10  -1  227.15   10.05
  -1 -10  -1  224.58   10.27
  -1 -10   0   -0.68    1.47
  -1 -10   0    4.72    2.02
  -1 -10   1  384.97   13.26
  -1 -10   1  373.56   13.19
  -1 -10   2  123.72    6.95
  -1 -10   2  109.71    6.60
  -1 -10   3  219.93    9.46
  -1 -10   3  215.50    9.19
  -1 -10   4  761.89   19.85
  -1 -10   4  694.75   18.40
  -1 -10   5  235.31    9.96
  -1 -10   5  213.15    8.66
  -1 -10   6   80.23    5.63
  -1 -10   6   72.00    4.71
  -1 -10   7  766.21   20.43
  -1 -10   7  697.58   17.38
  -1 -10   7  761.93   17.95
  -1 -10   8  171.56    8.57
  -1 -10   8  156.22    6.51
  -1 -10   8  155.90    6.80
  -1 -10   8  147.51    7.89
  -1 -10   9   69.64    4.01
  -1 -10   9   75.53    5.58
  -1 -10   9   71.46    4.51
  -1 -10  10  222.71    9.42
  -1 -10  10  218.49    7.08
  -1 -10  10  202.23    9.53
  -1 -10  10  208.63    7.94
  -1 -10  11    0.62    1.08
  -1 -10  11    0.10    1.46
  -1 -10  11    2.05    1.86
  -1 -10  11    0.80    0.75
  -1 -10  12  400.30   11.91
  -1 -10  12  392.29   13.78
  -1 -10  12  424.24    9.10
  -1 -10  12  397.42   14.21
  -1 -10  13  156.72    8.40
  -1 -10  13  145.00    6.61
  -1 -10  13  139.14    8.03
  -1 -10  14    3.94    2.33
  -1 -10  14    1.81    1.38
  -1 -10  14    0.10    1.49
  -1 -10  15  120.49    7.56
  -1 -10  16   57.69    5.28
  -1  -9 -14   93.14    8.87
  -1  -9 -13   71.63    7.59
  -1  -9 -13   49.37    6.20
  -1  -9 -12   26.40    4.73
  -1  -9 -11  317.72   14.90
  -1  -9 -10  120.98    8.83
  -1  -9  -9   27.24    4.37
  -1  -9  -8  545.54   18.98
  -1  -9  -7   65.14    5.99
  -1  -9  -6   87.39    6.75
  -1  -9  -5  483.05   16.55
  -1  -9  -4    1.04    1.95
  -1  -9  -3  278.53   11.01
  -1  -9  -3  277.13   11.54
  -1  -9  -2  158.22    8.03
  -1  -9  -2  162.00    8.45
  -1  -9  -1   33.22    3.66
  -1  -9  -1   34.26    3.86
  -1  -9   0  221.93    9.28
  -1  -9   0  218.54    9.48
  -1  -9   1   68.98    4.99
  -1  -9   1   65.60    4.95
  -1  -9   2  143.61    7.21
  -1  -9   2  138.11    7.02
  -1  -9   3  768.79   19.23
  -1  -9   3  697.21   18.11
  -1  -9   4    2.42    1.25
  -1  -9   4    5.56    1.70
  -1  -9   5  226.89    9.42
  -1  -9   5  226.38    8.36
  -1  -9   6  761.95   19.32
  -1  -9   6  669.63   16.41
  -1  -9   7    2.86    1.60
  -1  -9   7    5.66    1.53
  -1  -9   7    5.21    1.41
  -1  -9   8  287.53   11.00
  -1  -9   8  256.02    8.12
  -1  -9   8  278.81   10.63
  -1  -9   8  273.17    8.79
  -1  -9   9  443.95   13.38
  -1  -9   9  461.06   14.75
  -1  -9   9  449.01   10.99
  -1  -9   9  447.72   12.02
  -1  -9   9  447.23   14.26
  -1  -9  10   18.62    2.96
  -1  -9  10   21.15    2.90
  -1  -9  10   18.12    2.13
  -1  -9  10   16.31    2.65
  -1  -9  10   13.13    1.45
  -1  -9  11  141.19    7.30
  -1  -9  11  132.89    5.89
  -1  -9  11  139.30    4.30
  -1  -9  11  132.94    7.34
  -1  -9  12  248.36   10.19
  -1  -9  12  247.41    8.48
  -1  -9  12  240.50   10.20
  -1  -9  13   25.52    3.45
  -1  -9  13   21.00    2.42
  -1  -9  13   24.16    3.28
  -1  -9  14  117.49    5.76
  -1  -9  14  104.95    6.74
  -1  -9  15   27.48    2.90
  -1  -9  15   28.17    3.67
  -1  -8 -15  116.75    9.84
  -1  -8 -14   78.98    8.04
  -1  -8 -13  190.27   12.16
  -1  -8 -12  201.27   12.13
  -1  -8 -12  199.18   11.46
  -1  -8 -11   29.09    4.88
  -1  -8 -11   27.23    2.37
  -1  -8 -10   75.48    6.72
  -1  -8  -9  358.13   14.73
  -1  -8  -8    2.39    2.08
  -1  -8  -7  148.34    8.62
  -1  -8  -6  429.96   15.20
  -1  -8  -5   20.83    3.31
  -1  -8  -4  307.77   12.01
  -1  -8  -3   26.31    3.36
  -1  -8  -2    2.03    1.44
  -1  -8  -2    2.76    1.63
  -1  -8  -1  928.23   22.09
  -1  -8  -1  948.45   22.70
  -1  -8   0  224.48    8.88
  -1  -8   0  232.26    9.25
  -1  -8   1   92.29    5.52
  -1  -8   1   80.97    5.21
  -1  -8   2 1021.67   22.94
  -1  -8   2 1019.29   22.77
  -1  -8   3  295.74   10.17
  -1  -8   3  281.43    9.62
  -1  -8   4  223.54    8.75
  -1  -8   4  209.43    7.79
  -1  -8   5  348.20   11.34
  -1  -8   5  308.78    9.52
  -1  -8   6   46.12    3.99
  -1  -8   6   43.65    3.09
  -1  -8   6   45.69    3.16
  -1  -8   7  591.59   16.28
  -1  -8   7  528.08   12.83
  -1  -8   7  584.64   13.60
  -1  -8   7  585.27   15.85
  -1  -8   8  313.60   10.08
  -1  -8   8  315.14   11.26
  -1  -8   8  292.05    8.09
  -1  -8   8  300.44   10.73
  -1  -8   8  309.99    8.92
  -1  -8   9   35.72    3.33
  -1  -8   9   30.46    3.42
  -1  -8   9   33.42    2.16
  -1  -8   9   31.57    3.40
  -1  -8   9   37.89    2.81
  -1  -8  10  205.34    7.11
  -1  -8  10  214.86    8.64
  -1  -8  10  219.13    9.54
  -1  -8  10  221.48    5.56
  -1  -8  10  210.42    8.92
  -1  -8  11   70.67    5.39
  -1  -8  11   66.66    4.84
  -1  -8  11   68.82    3.92
  -1  -8  11   67.05    4.94
  -1  -8  12   -0.04    1.44
  -1  -8  12    1.75    1.01
  -1  -8  12   -0.10    1.19
  -1  -8  13  668.17   15.84
  -1  -8  13  665.42   18.37
  -1  -8  14    0.90    1.05
  -1  -8  14    3.39    1.76
  -1  -7 -16  113.05    9.81
  -1  -7 -15   24.98    5.01
  -1  -7 -14  134.29   10.25
  -1  -7 -13  118.64    9.28
  -1  -7 -12   40.59    5.40
  -1  -7 -12   51.68    5.64
  -1  -7 -11  236.28   11.88
  -1  -7 -11  254.67    7.20
  -1  -7 -10  312.62   13.42
  -1  -7  -9   24.53    3.76
  -1  -7  -8  240.32   11.04
  -1  -7  -7  233.11   10.58
  -1  -7  -6   63.28    5.32
  -1  -7  -5  457.91   14.82
  -1  -7  -4  170.59    8.30
  -1  -7  -3  220.12    9.26
  -1  -7  -2  407.16   12.35
  -1  -7  -2  423.35   13.16
  -1  -7  -1  137.43    6.52
  -1  -7  -1  146.90    7.01
  -1  -7   0  962.44   21.62
  -1  -7   0  999.54   22.24
  -1  -7   1  556.89   14.55
  -1  -7   1  546.77   14.49
  -1  -7   2    9.05    1.79
  -1  -7   2    4.71    1.54
  -1  -7   3  452.84   12.55
  -1  -7   3  412.20   11.49
  -1  -7   4  895.44   19.97
  -1  -7   4  813.85   18.00
  -1  -7   5   75.67    4.74
  -1  -7   5   74.37    3.87
  -1  -7   6  349.03   11.13
  -1  -7   6  322.53    8.72
  -1  -7   6  339.79   10.87
  -1  -7   6  346.78    9.08
  -1  -7   7  422.20   12.76
  -1  -7   7  397.51    9.57
  -1  -7   7  412.30   10.17
  -1  -7   7  418.09   12.40
  -1  -7   8   90.16    4.88
  -1  -7   8   83.58    5.35
  -1  -7   8   87.51    3.42
  -1  -7   8   91.19    5.33
  -1  -7   8   92.13    4.10
  -1  -7   9  660.95   16.29
  -1  -7   9  669.99   17.77
  -1  -7   9  669.94   12.37
  -1  -7   9  658.14   17.01
  -1  -7   9  648.41   14.35
  -1  -7  10   65.87    4.90
  -1  -7  10   64.36    4.41
  -1  -7  10   61.92    3.45
  -1  -7  10   63.67    4.52
  -1  -7  11   58.90    4.76
  -1  -7  11   57.11    3.40
  -1  -7  11   63.44    4.57
  -1  -7  11   53.81    4.23
  -1  -7  12  247.52   10.33
  -1  -7  12  241.22    7.84
  -1  -7  12  241.85    9.52
  -1  -7  13   38.05    2.99
  -1  -7  13   37.29    3.06
  -1  -6 -17   85.27    8.79
  -1  -6 -16   17.81    4.50
  -1  -6 -15  102.94    8.96
  -1  -6 -14   67.28    7.18
  -1  -6 -13   25.89    4.57
  -1  -6 -12  238.34   12.50
  -1  -6 -11   78.56    7.02
  -1  -6 -11   92.04    6.91
  -1  -6 -11   99.15    3.51
  -1  -6 -10   33.35    4.23
  -1  -6 -10   41.62    2.46
  -1  -6  -9  197.17    9.74
  -1  -6  -8   14.05    2.70
  -1  -6  -7  221.02    9.86
  -1  -6  -6  307.74   11.59
  -1  -6  -5   11.17    2.47
  -1  -6  -4  357.35   12.02
  -1  -6  -3  590.18   15.95
  -1  -6  -2   70.25    4.39
  -1  -6  -2   69.60    4.65
  -1  -6  -1  337.05   10.31
  -1  -6  -1  348.91   10.83
  -1  -6   0 1297.63   25.74
  -1  -6   0 1278.36   26.14
  -1  -6   1   63.05    3.93
  -1  -6   1   60.69    3.92
  -1  -6   2 2057.59   37.59
  -1  -6   2 2066.03   37.13
  -1  -6   3  630.06   15.17
  -1  -6   3  624.73   14.19
  -1  -6   4   52.42    3.69
  -1  -6   4   53.62    3.13
  -1  -6   5  981.55   21.19
  -1  -6   5  943.37   18.50
  -1  -6   5  988.93   21.02
  -1  -6   6  112.49    5.67
  -1  -6   6  111.83    3.98
  -1  -6   6  108.35    4.14
  -1  -6   6  109.85    5.48
  -1  -6   7  249.21    7.77
  -1  -6   7  231.13    8.61
  -1  -6   7  207.88    5.58
  -1  -6   7  240.95    6.56
  -1  -6   7  243.41    8.50
  -1  -6   8  925.83   19.63
  -1  -6   8  923.67   21.29
  -1  -6   8  915.61   15.79
  -1  -6   8  923.93   20.57
  -1  -6   8  902.98   17.67
  -1  -6   9  108.21    6.00
  -1  -6   9  104.29    5.23
  -1  -6   9   98.66    4.14
  -1  -6   9   99.35    5.36
  -1  -6  10  534.15   15.19
  -1  -6  10  504.40   11.81
  -1  -6  10  526.80   14.08
  -1  -6  10  533.30   14.33
  -1  -6  11  312.84   11.23
  -1  -6  11  299.17    8.50
  -1  -6  11  300.41   10.20
  -1  -6  12   10.65    2.51
  -1  -6  12    7.21    1.39
  -1  -6  12   13.17    2.18
  -1  -6  13  449.38   14.78
  -1  -5 -17   41.54    6.01
  -1  -5 -16  127.64   10.03
  -1  -5 -15  135.18   10.03
  -1  -5 -14   19.84    4.17
  -1  -5 -13  323.21   14.79
  -1  -5 -12   28.16    4.41
  -1  -5 -11   67.53    6.18
  -1  -5 -11   75.22    2.14
  -1  -5 -10  376.06   14.59
  -1  -5 -10  376.93   13.84
  -1  -5 -10  391.31    8.23
  -1  -5  -9    2.30    1.67
  -1  -5  -9    3.60    0.84
  -1  -5  -8  254.02   10.44
  -1  -5  -7  225.59    9.57
  -1  -5  -6   72.52    5.32
  -1  -5  -5  782.32   19.40
  -1  -5  -4  485.71   13.86
  -1  -5  -3   86.72    5.05
  -1  -5  -2  212.48    7.29
  -1  -5  -2  209.05    8.08
  -1  -5  -1   64.99    3.88
  -1  -5  -1   80.06    4.45
  -1  -5   0  158.09    5.94
  -1  -5   0  156.50    6.20
  -1  -5   1 2128.62   37.66
  -1  -5   1 2123.91   37.66
  -1  -5   2  698.76   15.34
  -1  -5   2  666.53   14.64
  -1  -5   3  194.82    6.88
  -1  -5   3  198.00    6.13
  -1  -5   4  927.46   19.48
  -1  -5   4  904.75   17.33
  -1  -5   4  922.00   19.35
  -1  -5   5    5.46    1.00
  -1  -5   5    3.83    1.35
  -1  -5   5    5.30    0.89
  -1  -5   5    7.16    1.70
  -1  -5   6   22.77    2.11
  -1  -5   6   27.79    2.70
  -1  -5   6   24.82    1.46
  -1  -5   6   25.01    2.53
  -1  -5   6   26.34    1.78
  -1  -5   7   45.53    3.02
  -1  -5   7   49.15    3.67
  -1  -5   7   46.28    1.67
  -1  -5   7   53.42    3.62
  -1  -5   7   52.76    2.49
  -1  -5   8   59.40    4.13
  -1  -5   8   60.48    3.68
  -1  -5   8   58.27    2.77
  -1  -5   8   55.19    3.73
  -1  -5   9  245.07    9.05
  -1  -5   9  235.40    6.55
  -1  -5   9  242.55    8.18
  -1  -5   9  230.96    8.20
  -1  -5  10  468.50   13.76
  -1  -5  10  450.94   10.70
  -1  -5  10  476.58   12.78
  -1  -5  11    0.82    1.14
  -1  -5  11    0.90    0.74
  -1  -5  12  393.67   13.09
  -1  -4 -18   17.02    4.10
  -1  -4 -17  151.50   11.02
  -1  -4 -16   56.00    6.69
  -1  -4 -15  135.64    6.73
  -1  -4 -15  117.91    9.20
  -1  -4 -14  179.20    7.66
  -1  -4 -14  179.21   11.04
  -1  -4 -13    3.12    2.23
  -1  -4 -12  118.45    8.15
  -1  -4 -11  104.22    7.41
  -1  -4 -10   22.61    3.53
  -1  -4  -9  238.47   10.62
  -1  -4  -9  242.34   10.08
  -1  -4  -9  254.93    5.60
  -1  -4  -8  219.72    9.24
  -1  -4  -8  215.15    5.43
  -1  -4  -7  143.29    7.19
  -1  -4  -6   92.83    5.56
  -1  -4  -5  100.88    5.67
  -1  -4  -4   61.17    4.24
  -1  -4  -3 1659.21   31.81
  -1  -4  -2   83.60    3.94
  -1  -4  -2   96.01    4.83
  -1  -4  -1  122.32    4.71
  -1  -4  -1  131.82    5.43
  -1  -4   0 1223.07   22.74
  -1  -4   0 1230.44   23.46
  -1  -4   1   14.28    1.67
  -1  -4   1   12.61    1.75
  -1  -4   2    3.47    1.17
  -1  -4   2    4.24    1.10
  -1  -4   2    3.09    1.27
  -1  -4   3 1003.26   19.50
  -1  -4   3  948.04   17.86
  -1  -4   3  989.35   19.51
  -1  -4   4  115.64    4.87
  -1  -4   4  110.57    3.53
  -1  -4   4  115.58    4.90
  -1  -4   5 1336.92   23.17
  -1  -4   5 1249.82   25.01
  -1  -4   5 1294.46   21.49
  -1  -4   5 1297.87   24.81
  -1  -4   5 1291.17   21.81
  -1  -4   6   55.85    3.63
  -1  -4   6   53.73    2.92
  -1  -4   6   56.76    2.25
  -1  -4   6   56.42    3.47
  -1  -4   7  225.46    7.94
  -1  -4   7  224.40    5.54
  -1  -4   7  230.10    6.93
  -1  -4   7  228.18    7.52
  -1  -4   8  372.42   11.05
  -1  -4   8  363.26    8.23
  -1  -4   8  371.17   10.27
  -1  -4   9  456.55   13.04
  -1  -4   9  456.07   10.17
  -1  -4   9  468.21   12.10
  -1  -4  10   26.22    2.89
  -1  -4  11  629.61   16.87
  -1  -3 -19   38.56    6.09
  -1  -3 -18  103.74    9.07
  -1  -3 -17   13.96    3.60
  -1  -3 -16  234.70   13.10
  -1  -3 -15  223.38    8.53
  -1  -3 -15  201.26   11.72
  -1  -3 -14    0.14    1.11
  -1  -3 -14    2.37    2.25
  -1  -3 -13   70.33    4.38
  -1  -3 -13   74.28    7.77
  -1  -3 -12  182.60    9.93
  -1  -3 -11  126.76    7.94
  -1  -3 -10  221.75   10.22
  -1  -3  -9   85.01    5.98
  -1  -3  -8  184.88    8.57
  -1  -3  -8  177.34    3.87
  -1  -3  -7  346.75   11.83
  -1  -3  -7  335.61   11.11
  -1  -3  -7  353.10    7.05
  -1  -3  -6   73.16    4.60
  -1  -3  -6   65.49    2.48
  -1  -3  -5  239.31    8.49
  -1  -3  -5  236.36    5.73
  -1  -3  -4 1365.12   26.57
  -1  -3  -4 1333.13   23.12
  -1  -3  -3   82.31    4.36
  -1  -3  -3   77.53    3.09
  -1  -3  -2 4201.33   68.16
  -1  -3  -2 4293.02   70.13
  -1  -3  -2 4293.51   67.83
  -1  -3  -1  325.67    7.74
  -1  -3  -1  325.30    8.79
  -1  -3  -1  319.23    7.76
  -1  -3   0   49.69    2.56
  -1  -3   0   54.15    3.01
  -1  -3   0   52.97    2.79
  -1  -3   1  306.80    7.54
  -1  -3   1  298.83    7.51
  -1  -3   1  298.81    7.71
  -1  -3   2  738.23   14.66
  -1  -3   2  722.55   13.81
  -1  -3   2  718.29   14.76
  -1  -3   3    0.13    0.99
  -1  -3   3    0.73    0.66
  -1  -3   3    1.40    1.16
  -1  -3   4   16.42    1.81
  -1  -3   4   14.21    1.77
  -1  -3   4   16.35    0.95
  -1  -3   5   93.79    4.31
  -1  -3   5   92.69    2.49
  -1  -3   5   98.70    3.42
  -1  -3   5   93.99    4.17
  -1  -3   6  904.83   19.04
  -1  -3   6  935.51   17.40
  -1  -3   6  899.41   15.52
  -1  -3   6  914.45   18.40
  -1  -3   7 1046.49   21.79
  -1  -3   7 1048.01   18.26
  -1  -3   7 1067.46   20.86
  -1  -3   8    0.01    0.96
  -1  -3   9  243.48    8.71
  -1  -3  13  213.00    4.49
  -1  -3  14    4.98    0.64
  -1  -3  15  332.07    6.73
  -1  -2 -19  155.19   11.26
  -1  -2 -18    5.28    3.07
  -1  -2 -17   72.26    7.31
  -1  -2 -16   56.56    6.51
  -1  -2 -15   88.93    5.06
  -1  -2 -15   68.78    6.66
  -1  -2 -14  279.37    9.29
  -1  -2 -14  275.01   13.03
  -1  -2 -13  186.12    7.10
  -1  -2 -13  172.24    9.79
  -1  -2 -12   84.92    4.46
  -1  -2 -12   70.88    5.98
  -1  -2 -11  479.10   12.04
  -1  -2 -11  487.04   16.12
  -1  -2 -10   39.54    4.25
  -1  -2  -9  287.35   11.09
  -1  -2  -8  366.24   12.32
  -1  -2  -7  110.01    6.07
  -1  -2  -6  159.37    7.04
  -1  -2  -5 1091.73   22.87
  -1  -2  -5 1071.70   17.90
  -1  -2  -4  169.00    6.62
  -1  -2  -4  182.29    6.47
  -1  -2  -4  175.00    4.26
  -1  -2  -3  145.66    5.59
  -1  -2  -3  146.03    3.94
  -1  -2  -2 2613.88   42.48
  -1  -2  -2 2711.66   44.83
  -1  -2  -2 2646.34   42.56
  -1  -2  -1 1901.35   30.97
  -1  -2  -1 1861.91   32.60
  -1  -2  -1 1905.76   31.40
  -1  -2   0  233.63    5.65
  -1  -2   0  240.44    6.32
  -1  -2   0  236.25    6.00
  -1  -2   1    2.70    0.93
  -1  -2   1    1.30    0.96
  -1  -2   2  528.50   11.00
  -1  -2   2  533.04   11.13
  -1  -2   3 1349.00   24.29
  -1  -2   3 1378.49   24.26
  -1  -2   4    8.57    0.89
  -1  -2   4    7.32    1.33
  -1  -2   4    8.71    1.41
  -1  -2   5  864.57   17.58
  -1  -2   6 1028.49   20.73
  -1  -2   7   39.33    3.03
  -1  -2   9  458.81    8.28
  -1  -2  10    4.98    0.69
  -1  -2  11  546.51   10.54
  -1  -2  12  205.69    5.40
  -1  -2  13   33.84    2.05
  -1  -2  14  342.58    8.23
  -1  -2  15  103.70    4.02
  -1  -1 -20   79.89    8.21
  -1  -1 -19   10.01    3.71
  -1  -1 -18  186.36   11.86
  -1  -1 -17   55.62    6.36
  -1  -1 -16   43.84    5.53
  -1  -1 -16   41.44    3.53
  -1  -1 -15  399.16   16.30
  -1  -1 -15  440.64   12.40
  -1  -1 -14   52.08    5.47
  -1  -1 -14   52.88    3.72
  -1  -1 -13   21.80    3.46
  -1  -1 -13   26.79    2.59
  -1  -1 -12  259.86   11.46
  -1  -1 -12  264.43    8.22
  -1  -1 -11    5.05    2.29
  -1  -1 -11    0.46    0.85
  -1  -1 -10  580.50   17.09
  -1  -1 -10  586.71   13.05
  -1  -1  -9  937.42   22.58
  -1  -1  -9  911.15   17.83
  -1  -1  -8   46.36    4.11
  -1  -1  -8   49.71    2.59
  -1  -1  -7 1082.11   23.81
  -1  -1  -6 1445.01   28.84
  -1  -1  -5  524.83   13.36
  -1  -1  -4  854.86   18.17
  -1  -1  -3 1880.84   33.40
  -1  -1  -2   22.45    2.08
  -1  -1  -2   22.21    1.06
  -1  -1  -1 3582.50   57.99
  -1  -1  -1 3617.52   56.01
  -1  -1   0    5.53    0.99
  -1  -1   0    4.13    0.76
  -1  -1   1  220.26    4.80
  -1  -1   1  220.06    5.28
  -1  -1   2 1310.13   22.71
  -1  -1   3 1280.62   22.78
  -1  -1   4  305.79    7.92
  -1  -1   6  115.56    2.85
  -1  -1   7  437.74    8.30
  -1  -1   8  694.51   12.71
  -1  -1   9    0.43    0.54
  -1  -1  10  686.82   13.50
  -1  -1  11  231.31    6.44
  -1  -1  12  199.04    6.14
  -1  -1  13  328.20    8.73
  -1  -1  14    3.57    1.15
  -1  -1  15   92.74    4.42
  -1   0 -20   11.10    3.81
  -1   0 -19   95.37    8.59
  -1   0 -18   10.22    3.20
  -1   0 -17  155.84   10.24
  -1   0 -16  117.59    5.91
  -1   0 -16  107.46    8.29
  -1   0 -15   12.87    2.08
  -1   0 -15   10.16    2.96
  -1   0 -14  149.02    6.30
  -1   0 -14  151.27    9.14
  -1   0 -13  155.31    6.20
  -1   0 -13  155.11    8.84
  -1   0 -12    9.17    1.54
  -1   0 -12    4.45    1.92
  -1   0 -11  215.44    6.88
  -1   0 -11  218.39   10.28
  -1   0 -11  210.66    9.64
  -1   0 -10  235.76    6.93
  -1   0 -10  242.82    9.98
  -1   0  -9   85.33    3.57
  -1   0  -9   85.95    5.54
  -1   0  -8  639.18   12.74
  -1   0  -8  654.21   16.87
  -1   0  -7  767.23   14.21
  -1   0  -7  779.67   18.41
  -1   0  -6   70.87    2.47
  -1   0  -6   74.81    4.50
  -1   0  -5  632.13   11.00
  -1   0  -5  629.74   14.86
  -1   0  -4   99.14    4.58
  -1   0  -3  201.12    6.36
  -1   0  -2 1996.82   34.03
  -1   0  -1  452.55    9.23
  -1   0  -1  447.79    9.50
  -1   0   0  213.11    4.72
  -1   0   0  211.27    5.12
  -1   0   1 2751.59   43.30
  -1   0   5   28.12    1.52
  -1   0   6  454.65    9.16
  -1   0   7  829.88   15.41
  -1   0   8    9.42    1.24
  -1   0   9 1475.27   26.28
  -1   0  10   82.05    3.78
  -1   0  11  185.26    6.28
  -1   0  12  128.13    5.27
  -1   0  13   19.87    2.19
  -1   0  14  240.59    8.12
  -1   0  15  228.32    8.08
  -1   1 -21   31.75    5.56
  -1   1 -20   88.10    8.44
  -1   1 -19    1.37    2.38
  -1   1 -18  240.32   13.19
  -1   1 -17   63.19    6.51
  -1   1 -16   10.38    1.95
  -1   1 -16    9.10    2.83
  -1   1 -15   94.47    5.10
  -1   1 -15   73.98    6.52
  -1   1 -14  216.11    7.75
  -1   1 -14  214.39   10.73
  -1   1 -13   36.46    2.94
  -1   1 -13   35.30    4.20
  -1   1 -12  163.95    6.14
  -1   1 -12  182.91    9.30
  -1   1 -11   56.15    3.30
  -1   1 -11   52.51    4.71
  -1   1 -11   62.49    5.27
  -1   1 -10  143.57    5.12
  -1   1 -10  143.89    7.41
  -1   1 -10  153.39    8.01
  -1   1  -9  642.20   13.31
  -1   1  -9  653.98   17.26
  -1   1  -9  670.57   18.11
  -1   1  -8  263.65    6.63
  -1   1  -8  258.49    9.42
  -1   1  -8  265.85    9.93
  -1   1  -7  262.20    6.20
  -1   1  -7  255.54    8.99
  -1   1  -7  262.92    9.41
  -1   1  -6 1010.97   17.48
  -1   1  -6 1014.11   21.83
  -1   1  -6 1047.37   21.67
  -1   1  -5  350.09    6.76
  -1   1  -5  346.37    9.81
  -1   1  -5  355.91   10.08
  -1   1  -4 2197.14   38.50
  -1   1  -4 2193.90   38.30
  -1   1  -3    5.21    1.36
  -1   1  -3    7.52    1.49
  -1   1  -2   54.25    2.83
  -1   1  -2   50.52    2.66
  -1   1  -1  361.72    7.94
  -1   1  -1  372.95    8.24
  -1   1   0  913.67   16.26
  -1   1   1  451.12    8.83
  -1   1   3  196.81    5.00
  -1   1   4  215.39    5.48
  -1   1   5 3723.46   59.56
  -1   1   6  542.77   11.44
  -1   1   7  274.10    7.34
  -1   1   8 1713.12   30.50
  -1   1   9    3.96    1.16
  -1   1  10  316.80    9.12
  -1   1  11  264.67    8.45
  -1   1  12    5.38    1.39
  -1   1  13  304.04    9.81
  -1   1  14  530.22   14.29
  -1   1  15   28.10    3.11
  -1   2 -21   81.33    8.29
  -1   2 -20   -2.70    2.73
  -1   2 -19   69.89    7.17
  -1   2 -18   13.41    3.42
  -1   2 -17  243.35    9.22
  -1   2 -17  249.92   12.78
  -1   2 -16  130.25    6.29
  -1   2 -16  124.90    8.58
  -1   2 -15  158.52    6.75
  -1   2 -15  138.56    8.75
  -1   2 -14  150.37    6.41
  -1   2 -14  150.44    8.75
  -1   2 -13  576.87   13.98
  -1   2 -13  530.33   17.29
  -1   2 -12   91.91    4.49
  -1   2 -12  102.22    6.60
  -1   2 -11   55.94    3.29
  -1   2 -11   58.80    5.13
  -1   2 -11   58.47    4.81
  -1   2 -10   65.73    3.39
  -1   2 -10   67.07    5.21
  -1   2 -10   54.61    4.48
  -1   2  -9  118.86    4.43
  -1   2  -9  121.63    6.84
  -1   2  -9  124.26    6.49
  -1   2  -8  845.69   16.23
  -1   2  -8  886.68   20.89
  -1   2  -8  835.69   19.81
  -1   2  -7  592.00   11.84
  -1   2  -7  611.84   15.17
  -1   2  -7  590.99   15.53
  -1   2  -6   14.85    2.25
  -1   2  -6   14.50    1.28
  -1   2  -6   16.83    2.21
  -1   2  -5  440.28    8.83
  -1   2  -5  436.88   11.37
  -1   2  -5  460.48   11.81
  -1   2  -4  281.17    8.24
  -1   2  -4  286.81    8.21
  -1   2  -3  532.95   12.03
  -1   2  -3  540.10   12.09
  -1   2  -2  227.87    6.42
  -1   2  -1  955.33   17.76
  -1   2   0 1273.23   22.28
  -1   2   2   30.90    1.97
  -1   2   3 1381.26   24.27
  -1   2   4 3212.02   52.40
  -1   2   5  798.21   15.97
  -1   2   6  381.44    9.58
  -1   2   7  653.66   14.47
  -1   2   8    7.76    1.54
  -1   2   9 1083.23   22.22
  -1   2  10  148.01    6.29
  -1   2  11   82.96    4.78
  -1   2  12  464.19   13.17
  -1   2  13  117.53    6.24
  -1   2  14   24.19    2.98
  -1   2  15  269.24   10.21
  -1   3 -21   13.51    3.80
  -1   3 -20  124.05    9.72
  -1   3 -19   29.50    5.01
  -1   3 -18   53.26    6.16
  -1   3 -17  266.20    9.85
  -1   3 -17  271.70   13.15
  -1   3 -16    9.60    1.97
  -1   3 -16   11.19    3.00
  -1   3 -15   79.01    4.83
  -1   3 -15   90.77    6.94
  -1   3 -14  370.32   11.00
  -1   3 -14  352.30   13.81
  -1   3 -13    1.88    0.97
  -1   3 -13    2.45    1.70
  -1   3 -12  336.19    9.79
  -1   3 -12  344.43   12.59
  -1   3 -11  429.32   11.12
  -1   3 -11  425.74   13.88
  -1   3 -11  452.45   15.05
  -1   3 -10   17.47    1.86
  -1   3 -10   17.93    2.86
  -1   3 -10   13.52    2.42
  -1   3  -9  334.93    8.78
  -1   3  -9  353.51   11.44
  -1   3  -9  342.91   11.95
  -1   3  -8  642.92   13.70
  -1   3  -8  699.91   17.65
  -1   3  -8  680.56   16.82
  -1   3  -7  136.00    4.61
  -1   3  -7  128.84    6.32
  -1   3  -7  142.15    6.29
  -1   3  -6  507.77   10.89
  -1   3  -6  514.89   13.50
  -1   3  -6  516.00   13.14
  -1   3  -5   62.03    2.93
  -1   3  -5   70.96    4.07
  -1   3  -5   69.67    3.98
  -1   3  -4  540.55   12.97
  -1   3  -4  553.40   12.85
  -1   3  -3  590.37   13.11
  -1   3  -2   11.49    1.70
  -1   3  -1    2.49    1.17
  -1   3   1   65.35    3.07
  -1   3   2    5.00    1.13
  -1   3   3   25.53    2.11
  -1   3   4   52.20    3.06
  -1   3   5  517.97   12.32
  -1   3   6  738.31   16.24
  -1   3   7   46.53    3.33
  -1   3   8  433.52   11.92
  -1   3   9  180.76    7.28
  -1   3  10  544.96   14.63
  -1   3  11  174.08    7.58
  -1   3  12   19.30    2.76
  -1   3  13   95.34    5.97
  -1   3  14  322.10   11.75
  -1   3  15   -0.71    2.01
  -1   4 -21   95.31    8.66
  -1   4 -20   28.53    4.87
  -1   4 -19   74.86    7.32
  -1   4 -18  111.15    8.43
  -1   4 -17    1.52    1.43
  -1   4 -17   -1.99    2.48
  -1   4 -16  115.44    6.22
  -1   4 -16  108.26    7.81
  -1   4 -15   90.87    5.33
  -1   4 -15   88.77    6.84
  -1   4 -14   13.21    2.22
  -1   4 -14   11.33    2.67
  -1   4 -13  268.48    9.06
  -1   4 -13  275.45   11.42
  -1   4 -12   94.46    4.90
  -1   4 -12  103.41    6.53
  -1   4 -11   86.00    4.48
  -1   4 -11   95.27    6.46
  -1   4 -11   76.84    5.47
  -1   4 -10  344.33    9.66
  -1   4 -10  362.63   12.76
  -1   4 -10  351.22   11.86
  -1   4  -9  190.47    6.52
  -1   4  -9  194.78    8.65
  -1   4  -9  186.84    8.00
  -1   4  -8  233.12    7.21
  -1   4  -8  233.76    9.22
  -1   4  -8  243.96    8.87
  -1   4  -7  689.38   14.72
  -1   4  -7  688.39   17.28
  -1   4  -7  693.61   16.67
  -1   4  -6  158.08    5.61
  -1   4  -6  169.83    6.68
  -1   4  -5 1504.61   28.63
  -1   4  -4  179.78    6.49
  -1   4  -3  466.37   11.44
  -1   4  -2  184.25    6.22
  -1   4   0   37.87    2.55
  -1   4   1  758.73   15.68
  -1   4   2   38.64    2.75
  -1   4   3  232.85    7.38
  -1   4   4  836.33   17.89
  -1   4   5   75.65    4.21
  -1   4   6  143.47    6.15
  -1   4   7  881.31   19.85
  -1   4   8   21.97    2.97
  -1   4   9  288.11   10.10
  -1   4  10  210.32    8.70
  -1   4  11    1.32    1.45
  -1   4  12  322.06   11.73
  -1   4  13  177.57    8.58
  -1   4  14   24.29    3.38
  -1   4  15  128.90    7.78
  -1   5 -20  127.61    9.64
  -1   5 -19  131.56    9.85
  -1   5 -18    5.85    2.89
  -1   5 -17  101.35    6.23
  -1   5 -17  108.19    8.03
  -1   5 -16  269.49   10.22
  -1   5 -16  251.73   12.06
  -1   5 -15   27.30    3.08
  -1   5 -15   22.53    3.55
  -1   5 -14  397.49   12.31
  -1   5 -14  403.05   14.63
  -1   5 -13  121.03    6.06
  -1   5 -13  127.36    7.50
  -1   5 -12  192.75    7.60
  -1   5 -12  189.90    8.97
  -1   5 -11  580.59   14.80
  -1   5 -11  629.73   18.35
  -1   5 -11  595.59   16.96
  -1   5 -10  235.37    8.12
  -1   5 -10  249.97   10.40
  -1   5 -10  235.30    9.45
  -1   5  -9  123.71    5.50
  -1   5  -9  125.26    6.89
  -1   5  -9  122.56    6.39
  -1   5  -8  420.51   11.24
  -1   5  -8  427.80   12.54
  -1   5  -7   85.35    4.41
  -1   5  -7   74.34    4.65
  -1   5  -6 1161.70   24.03
  -1   5  -5    5.50    1.69
  -1   5  -4  362.61   10.23
  -1   5  -3  159.02    6.14
  -1   5  -1  340.10    9.09
  -1   5   0  414.93   10.67
  -1   5   1  163.11    6.11
  -1   5   2  267.76    8.33
  -1   5   3 1934.71   35.64
  -1   5   4  102.21    5.12
  -1   5   5  650.34   16.02
  -1   5   6  572.08   14.97
  -1   5   7   54.43    4.14
  -1   5   8  138.82    6.91
  -1   5   9   32.75    3.61
  -1   5  10   15.10    2.65
  -1   5  11  468.69   14.93
  -1   5  12  318.73   12.16
  -1   5  13  199.52    9.60
  -1   6 -20   31.07    4.87
  -1   6 -19   40.30    5.44
  -1   6 -18   61.24    6.24
  -1   6 -17  328.33   12.15
  -1   6 -17  301.19   13.60
  -1   6 -16   68.42    5.20
  -1   6 -16   52.71    5.41
  -1   6 -15  336.13   11.85
  -1   6 -15  332.80   13.53
  -1   6 -14   44.81    4.01
  -1   6 -14   45.12    4.72
  -1   6 -13  133.22    6.72
  -1   6 -13  127.58    7.59
  -1   6 -12  307.74   10.54
  -1   6 -12  312.68   11.83
  -1   6 -11   16.64    2.43
  -1   6 -11   16.08    2.69
  -1   6 -10 1016.19   22.26
  -1   6 -10 1001.20   23.63
  -1   6  -9  464.76   12.90
  -1   6  -9  460.30   13.71
  -1   6  -8   20.19    2.58
  -1   6  -8   17.73    2.48
  -1   6  -7  952.14   21.42
  -1   6  -6  424.84   12.16
  -1   6  -5  122.95    5.77
  -1   6  -4 1396.33   27.57
  -1   6  -1  826.64   18.16
  -1   6   0  299.20    9.04
  -1   6   1  379.59   10.76
  -1   6   2  925.75   20.22
  -1   6   3    3.67    1.35
  -1   6   4  732.79   17.75
  -1   6   5  954.38   21.88
  -1   6   6  186.62    8.13
  -1   6   7  294.56   10.76
  -1   6   8   23.19    3.04
  -1   6   9   63.40    5.06
  -1   6  10  628.60   18.26
  -1   6  11  181.42    9.10
  -1   7 -20  101.68    8.43
  -1   7 -19  130.40    9.21
  -1   7 -18    8.76    2.35
  -1   7 -18    8.54    3.07
  -1   7 -17   65.16    5.42
  -1   7 -17   58.98    6.03
  -1   7 -16  370.63   13.19
  -1   7 -16  327.38   13.88
  -1   7 -15    0.28    1.37
  -1   7 -15    1.18    1.83
  -1   7 -14  236.08    9.87
  -1   7 -14  228.76   10.67
  -1   7 -13  305.26   11.36
  -1   7 -13  329.78   12.62
  -1   7 -12    8.36    2.14
  -1   7 -12    3.30    1.83
  -1   7 -11  646.30   17.14
  -1   7 -11  616.79   17.65
  -1   7 -10  263.33    9.83
  -1   7 -10  267.26   10.32
  -1   7  -9  144.11    6.91
  -1   7  -9  130.84    6.84
  -1   7  -8  578.42   15.73
  -1   7  -7  546.28   14.87
  -1   7  -6  191.70    7.79
  -1   7  -2 1457.69   28.32
  -1   7  -1  404.47   11.53
  -1   7   0  380.18   11.12
  -1   7   1 1263.55   26.14
  -1   7   2   14.89    2.28
  -1   7   3  640.45   16.63
  -1   7   4  508.61   14.64
  -1   7   5   42.23    3.88
  -1   7   6  878.45   21.79
  -1   7   7   88.71    5.96
  -1   7   8  238.92   10.27
  -1   7   9  101.27    6.65
  -1   7  10   59.42    5.25
  -1   8 -20   74.51    7.34
  -1   8 -19   10.29    4.13
  -1   8 -18   50.13    5.26
  -1   8 -18   44.50    5.30
  -1   8 -17   64.72    5.74
  -1   8 -17   63.63    6.19
  -1   8 -16   -1.76    2.17
  -1   8 -16    0.97    2.07
  -1   8 -15  225.02   10.40
  -1   8 -15  209.27   10.56
  -1   8 -14   17.24    2.98
  -1   8 -14   21.44    3.38
  -1   8 -13  116.05    7.04
  -1   8 -13  104.56    6.91
  -1   8 -12  286.41   11.26
  -1   8 -12  284.55   11.45
  -1   8 -11   41.02    4.13
  -1   8 -11   53.57    4.66
  -1   8 -10  370.39   12.71
  -1   8  -9  523.46   15.35
  -1   8  -8    0.82    1.33
  -1   8  -7  380.26   12.16
  -1   8  -3 1547.44   30.34
  -1   8  -2    1.12    1.09
  -1   8  -1  591.22   15.27
  -1   8   0  121.24    6.13
  -1   8   1  248.15    9.29
  -1   8   2 1492.29   31.07
  -1   8   3    1.28    1.26
  -1   8   4  595.43   16.83
  -1   8   5 1442.80   31.59
  -1   8   6   -0.81    1.49
  -1   8   7  360.90   13.19
  -1   8   8  290.44   11.90
  -1   9 -19  109.05    8.46
  -1   9 -18  177.71   10.24
  -1   9 -18  191.07   10.91
  -1   9 -17   27.32    4.27
  -1   9 -17   23.29    3.96
  -1   9 -16  215.92   10.90
  -1   9 -16  215.10   11.08
  -1   9 -15    3.21    2.14
  -1   9 -15    2.88    1.76
  -1   9 -14  264.25   11.67
  -1   9 -14  275.28   11.98
  -1   9 -13  365.19   13.72
  -1   9 -13  371.57   13.84
  -1   9 -12   27.25    3.61
  -1   9 -11  192.99    9.18
  -1   9 -10  125.94    7.13
  -1   9  -9    0.82    1.32
  -1   9  -3  770.70   18.57
  -1   9  -2  318.48   10.75
  -1   9  -1  330.17   11.04
  -1   9   0   70.27    4.91
  -1   9   1  671.85   17.94
  -1   9   2   16.67    2.67
  -1   9   3  669.07   18.49
  -1   9   4  495.99   15.64
  -1   9   5   12.74    2.38
  -1   9   6  396.46   14.26
  -1  10 -19   59.15    6.36
  -1  10 -18   64.49    6.41
  -1  10 -17  171.05   10.09
  -1  10 -16    0.51    1.79
  -1  10 -15  147.49    9.00
  -1  10 -14  128.74    8.10
  -1  10 -13    2.96    2.01
  -1  10 -12  481.14   16.03
  -1  10 -11  102.60    6.69
  -1  10  -4  435.43   13.15
  -1  10  -3  238.25    9.41
  -1  10  -2   58.80    4.62
  -1  10  -1  380.76   12.57
  -1  10   0  588.35   17.23
  -1  10   1    0.11    1.48
  -1  10   2  394.31   13.60
  -1  10   3  458.14   15.16
  -1  10   4   37.92    4.17
  -1  11 -19  152.50    9.94
  -1  11 -18  189.30   10.99
  -1  11 -17   -0.68    2.32
  -1  11 -16   89.61    7.24
  -1  11 -15   87.07    6.96
  -1  11 -14   29.73    4.18
  -1  11  -4  228.48    9.36
  -1  11  -3   28.42    3.48
  -1  11  -2  954.58   23.35
  -1  11  -1  326.25   11.93
  -1  11   0   82.45    5.82
  -1  11   1  225.26   10.16
  -1  12  -4  185.12    8.72
  -1  12  -3  356.63   13.09
  -1  12  -2    7.75    2.06
  -1  12  -1  530.75   16.72
   0 -21   6  130.29   11.05
   0 -21   7   10.02    3.36
   0 -21   8   59.95    7.29
   0 -20   3   44.82    6.44
   0 -20   4   52.92    6.91
   0 -20   5  115.05    9.76
   0 -20   6    6.10    3.20
   0 -20   7  103.62    9.22
   0 -20   8   81.32    8.22
   0 -20   9   -3.47    3.31
   0 -19   0   94.93    9.39
   0 -19   1  114.83   10.05
   0 -19   2    3.68    2.75
   0 -19   3   54.49    6.91
   0 -19   4  186.15   12.47
   0 -19   5   -0.35    2.67
   0 -19   6   84.79    8.19
   0 -19   7   54.00    6.73
   0 -19   8    7.27    3.30
   0 -19   9  152.17   10.36
   0 -19  10   27.16    4.90
   0 -19  12   86.97    8.47
   0 -19  13   11.55    3.51
   0 -18  -2   -0.86    2.33
   0 -18  -1  133.62   10.83
   0 -18   0   92.90    9.06
   0 -18   1    5.52    3.22
   0 -18   2   87.74    8.41
   0 -18   3   70.95    7.48
   0 -18   4    6.48    3.11
   0 -18   5  156.21   10.66
   0 -18   6   59.92    6.78
   0 -18   7  119.99    9.29
   0 -18   8  101.99    8.26
   0 -18   9   57.57    6.24
   0 -18  10   84.27    7.33
   0 -18  11  136.01    8.94
   0 -18  12   12.18    3.69
   0 -18  13   99.49    8.96
   0 -18  14   76.73    8.04
   0 -18  15   -0.11    2.48
   0 -17  -4  104.86    9.68
   0 -17  -3    1.18    3.82
   0 -17  -2  135.93   10.80
   0 -17  -1   51.96    6.88
   0 -17   0   11.84    3.83
   0 -17   1  223.46   13.23
   0 -17   2  100.64    9.00
   0 -17   3   14.14    3.53
   0 -17   4  129.67    9.42
   0 -17   5    4.67    2.52
   0 -17   6   72.94    6.98
   0 -17   7  102.28    8.08
   0 -17   8   15.32    3.36
   0 -17   9   27.73    4.28
   0 -17  10   65.45    6.10
   0 -17  11   12.29    2.92
   0 -17  12  167.29   11.26
   0 -17  13   41.48    5.87
   0 -17  14   38.01    5.76
   0 -17  14   42.60    5.82
   0 -17  15  133.26   10.42
   0 -17  15  147.22   10.34
   0 -17  16   39.02    5.93
   0 -17  16   47.58    7.74
   0 -17  17   31.55    5.72
   0 -17  17   32.34    5.12
   0 -16  -6  159.98   11.81
   0 -16  -5   54.55    6.91
   0 -16  -4   14.31    4.11
   0 -16  -3  242.87   14.23
   0 -16  -2   86.81    8.39
   0 -16  -1   17.51    4.07
   0 -16   0  141.74   10.32
   0 -16   1   64.81    6.85
   0 -16   2  105.97    8.36
   0 -16   3  130.89    9.22
   0 -16   4    2.44    1.92
   0 -16   5  205.37   11.20
   0 -16   6   89.15    7.27
   0 -16   7   20.94    3.55
   0 -16   8  314.04   13.48
   0 -16   9   54.00    5.35
   0 -16  10    4.33    2.02
   0 -16  11   53.11    5.05
   0 -16  12   30.41    4.96
   0 -16  12   36.90    4.18
   0 -16  13   69.50    7.20
   0 -16  14  170.07   11.16
   0 -16  14  164.25   10.56
   0 -16  15   12.45    3.75
   0 -16  15   11.20    3.31
   0 -16  16   78.19    8.02
   0 -16  16   79.46    7.45
   0 -16  17   94.83    8.76
   0 -16  17   92.56    7.97
   0 -16  18   -3.86    3.36
   0 -16  18    0.30    2.53
   0 -15  -8   23.45    4.89
   0 -15  -7  205.27   13.15
   0 -15  -6   73.72    7.82
   0 -15  -5  119.31    9.77
   0 -15  -4  184.57   12.00
   0 -15  -3   78.31    7.87
   0 -15  -2  173.38   11.22
   0 -15  -1  235.69   12.96
   0 -15   0    2.21    2.33
   0 -15   1  372.47   15.98
   0 -15   2  519.70   18.91
   0 -15   3    2.31    2.09
   0 -15   4   46.88    5.27
   0 -15   5  179.99   10.02
   0 -15   6   79.00    6.61
   0 -15   7  417.28   15.46
   0 -15   8   16.07    3.18
   0 -15   9  167.47    8.97
   0 -15  10  219.64   10.19
   0 -15  11   11.27    3.25
   0 -15  11   18.65    3.01
   0 -15  12   21.03    4.17
   0 -15  12   20.32    2.98
   0 -15  13   98.12    8.25
   0 -15  13  105.09    6.40
   0 -15  14    3.03    3.18
   0 -15  14    0.71    2.27
   0 -15  15  142.15   10.22
   0 -15  15  137.46    9.29
   0 -15  16  105.74    9.08
   0 -15  16  113.20    8.60
   0 -15  17   17.17    4.30
   0 -15  17   13.48    3.49
   0 -15  18  129.26    9.29
   0 -14 -10   12.28    3.31
   0 -14  -9   94.56    8.96
   0 -14  -8  201.51   12.81
   0 -14  -7   41.98    6.05
   0 -14  -6   63.67    7.15
   0 -14  -5  131.95    9.89
   0 -14  -4   -2.64    2.37
   0 -14  -3  261.47   13.59
   0 -14  -2  319.16   14.82
   0 -14  -1    2.68    2.47
   0 -14   0  278.22   13.27
   0 -14   1  139.44    9.04
   0 -14   2  129.74    8.54
   0 -14   3  584.24   19.19
   0 -14   4   69.11    6.01
   0 -14   5  106.14    7.29
   0 -14   6  381.15   14.25
   0 -14   7  143.58    8.29
   0 -14   8  499.10   16.41
   0 -14   9  488.56   15.78
   0 -14  10   19.50    3.07
   0 -14  11  193.33   10.80
   0 -14  11  190.63    8.74
   0 -14  12  152.93    9.79
   0 -14  12  164.02    7.89
   0 -14  13   -0.12    2.22
   0 -14  13    1.34    1.18
   0 -14  13   -1.60    1.92
   0 -14  14  123.32    9.10
   0 -14  14  129.33    8.70
   0 -14  15  169.26   11.01
   0 -14  15  163.25    9.94
   0 -14  16   17.49    4.03
   0 -14  16   12.31    2.90
   0 -14  17  134.48   10.18
   0 -14  17  132.31    8.94
   0 -14  18   15.64    3.63
   0 -13 -11    4.91    8.42
   0 -13 -10  142.05   10.67
   0 -13  -9  104.57    9.04
   0 -13  -8   22.31    4.54
   0 -13  -7   79.38    7.64
   0 -13  -6  232.76   12.94
   0 -13  -5   10.39    3.72
   0 -13  -4  148.33    9.87
   0 -13  -3   54.93    6.12
   0 -13  -2    9.12    2.81
   0 -13  -1  372.22   15.31
   0 -13   0  225.58   11.30
   0 -13   1  209.53   10.65
   0 -13   2  366.08   14.27
   0 -13   3   -0.64    1.79
   0 -13   4  329.60   12.95
   0 -13   5   34.84    3.94
   0 -13   6    2.26    1.27
   0 -13   6    2.00    1.69
   0 -13   7  273.19   11.65
   0 -13   7  272.37   11.35
   0 -13   8  459.82   14.79
   0 -13   8  456.46   15.24
   0 -13   9   46.53    4.24
   0 -13   9   55.43    4.91
   0 -13  10  493.59   14.87
   0 -13  10  486.51   15.91
   0 -13  11  159.62    9.52
   0 -13  11  176.08    7.99
   0 -13  11  174.53    8.95
   0 -13  12   41.56    4.44
   0 -13  12   45.79    5.26
   0 -13  12   51.04    4.11
   0 -13  13  289.67   13.54
   0 -13  13  295.27   10.09
   0 -13  13  295.71   12.99
   0 -13  14   62.88    6.50
   0 -13  14   56.20    5.59
   0 -13  15  112.23    8.70
   0 -13  15  114.69    7.89
   0 -13  16  204.88   12.03
   0 -13  16  192.18   10.44
   0 -13  17    1.63    1.97
   0 -13  18  123.84    8.38
   0 -12 -13  115.82    9.87
   0 -12 -12   -1.86    3.49
   0 -12 -11   88.90    8.33
   0 -12 -10   14.17    3.45
   0 -12  -9   15.62    3.56
   0 -12  -8  272.78   13.98
   0 -12  -7  115.50    8.81
   0 -12  -6    9.72    3.22
   0 -12  -5  368.56   15.66
   0 -12  -4   56.01    5.93
   0 -12  -3   35.54    4.58
   0 -12  -2  299.65   13.16
   0 -12  -1   57.17    5.47
   0 -12   0  131.17    8.12
   0 -12   1  404.57   14.67
   0 -12   2   72.70    5.82
   0 -12   3  807.21   21.75
   0 -12   4  223.90    9.95
   0 -12   5   25.23    3.32
   0 -12   6  242.62    9.99
   0 -12   6  237.36   10.14
   0 -12   7   84.80    5.69
   0 -12   7   86.98    5.91
   0 -12   8   37.44    3.92
   0 -12   8   42.26    3.87
   0 -12   9  337.85   11.51
   0 -12   9  358.08   12.71
   0 -12  10   82.51    6.50
   0 -12  10   93.94    5.52
   0 -12  10   90.93    6.12
   0 -12  11  249.47   11.68
   0 -12  11  255.66    9.29
   0 -12  11  259.57   10.71
   0 -12  12  474.74   16.93
   0 -12  12  476.21   13.24
   0 -12  12  452.63   15.13
   0 -12  13   27.39    3.67
   0 -12  13   27.81    4.26
   0 -12  13   33.68    3.12
   0 -12  13   30.22    3.83
   0 -12  14  268.82   12.93
   0 -12  14  275.23   11.54
   0 -12  14  277.35    8.87
   0 -12  14  278.88   12.09
   0 -12  15  217.81   11.78
   0 -12  15  187.77    9.95
   0 -12  16    4.65    2.43
   0 -12  16    4.49    1.86
   0 -12  17  128.51    8.12
   0 -12  18   53.36    5.41
   0 -11 -14  104.69    9.07
   0 -11 -13    9.75    3.47
   0 -11 -12   79.09    7.84
   0 -11 -11   32.94    5.16
   0 -11 -10   30.84    4.75
   0 -11  -9  250.38   13.08
   0 -11  -8   84.75    7.47
   0 -11  -7  151.53    9.76
   0 -11  -6  280.81   13.16
   0 -11  -5  109.47    7.99
   0 -11  -4  227.58   11.32
   0 -11  -3  181.63    9.83
   0 -11  -2   12.78    2.92
   0 -11  -1  650.69   19.48
   0 -11   0  301.38   12.40
   0 -11   0  286.61   11.83
   0 -11   1   14.19    2.70
   0 -11   1   18.97    3.16
   0 -11   2  463.24   15.53
   0 -11   2  460.62   14.96
   0 -11   3  322.06   12.38
   0 -11   3  319.45   11.77
   0 -11   4  389.82   13.81
   0 -11   4  393.89   13.06
   0 -11   5  443.01   14.65
   0 -11   5  436.61   13.65
   0 -11   5  428.31   13.73
   0 -11   6  217.70    9.78
   0 -11   6  223.00    9.02
   0 -11   6  227.16    9.46
   0 -11   7   83.28    5.93
   0 -11   7   81.56    5.18
   0 -11   7   88.44    5.71
   0 -11   8  297.84   11.86
   0 -11   8  306.06   10.41
   0 -11   8  317.26   11.34
   0 -11   9   46.92    3.73
   0 -11   9   43.17    4.06
   0 -11  10  108.41    7.11
   0 -11  10  105.46    5.46
   0 -11  10  100.68    6.24
   0 -11  11  277.36   11.90
   0 -11  11  276.19    9.21
   0 -11  11  263.62   10.59
   0 -11  12    0.61    1.45
   0 -11  12    0.60    1.80
   0 -11  12    0.07    1.04
   0 -11  13  321.73   13.61
   0 -11  13  309.09   11.84
   0 -11  13  326.53    9.57
   0 -11  13  296.36   12.03
   0 -11  14  140.56    7.80
   0 -11  14  147.63    9.20
   0 -11  14  141.03    5.60
   0 -11  14  133.16    7.89
   0 -11  15   30.61    4.52
   0 -11  15   29.52    5.00
   0 -11  16  278.99   11.77
   0 -11  17   43.96    4.45
   0 -11  18   69.05    5.64
   0 -10 -16  111.42    9.65
   0 -10 -15   67.47    7.49
   0 -10 -14   11.78    3.34
   0 -10 -13  169.74   11.27
   0 -10 -12   35.85    5.27
   0 -10 -11   21.51    4.33
   0 -10 -10  145.95    9.66
   0 -10  -9   16.05    3.56
   0 -10  -8  128.64    8.80
   0 -10  -7  150.24    9.19
   0 -10  -6    2.72    2.27
   0 -10  -5  378.16   14.65
   0 -10  -4  276.21   12.03
   0 -10  -3   68.83    5.67
   0 -10  -2  576.69   17.67
   0 -10  -1  232.74   10.24
   0 -10   0  105.55    6.58
   0 -10   1  552.55   16.74
   0 -10   1  524.76   15.87
   0 -10   2   58.50    4.98
   0 -10   2   64.24    4.91
   0 -10   3  373.46   12.90
   0 -10   3  374.20   12.33
   0 -10   4  736.51   19.47
   0 -10   4  704.69   18.22
   0 -10   5  185.23    8.54
   0 -10   5  171.15    7.53
   0 -10   5  176.07    7.83
   0 -10   6   75.50    5.37
   0 -10   6   75.27    4.75
   0 -10   6   75.17    4.98
   0 -10   7  361.21   12.66
   0 -10   7  374.85   11.31
   0 -10   7  367.04   11.95
   0 -10   8   -0.24    1.16
   0 -10   8   -0.56    1.34
   0 -10   8    0.81    1.12
   0 -10   9  298.01   11.56
   0 -10   9  304.43   11.57
   0 -10   9  300.31    9.58
   0 -10   9  303.76   10.74
   0 -10  10  231.90   10.31
   0 -10  10  240.01   10.25
   0 -10  10  242.22    8.19
   0 -10  10  237.75    9.49
   0 -10  11   38.96    3.72
   0 -10  11   32.94    3.99
   0 -10  11   42.51    3.12
   0 -10  12  267.74   10.45
   0 -10  12  277.05   11.92
   0 -10  12  276.56    8.47
   0 -10  12  264.98   10.71
   0 -10  13  189.16    8.76
   0 -10  13  182.41    9.85
   0 -10  13  188.81    6.50
   0 -10  13  169.30    8.51
   0 -10  14  174.10    8.60
   0 -10  14  157.75    9.42
   0 -10  14  178.02    5.99
   0 -10  14  163.71    8.33
   0 -10  15  223.22    9.89
   0 -10  15  214.09    6.29
   0 -10  15  204.39    9.46
   0 -10  16   75.52    5.65
   0 -10  17   59.99    4.94
   0  -9 -16   10.11    3.38
   0  -9 -15   77.03    7.99
   0  -9 -15   59.11    6.73
   0  -9 -14  199.39   11.89
   0  -9 -13    8.73    3.11
   0  -9 -12  245.69   12.74
   0  -9 -11  208.29   11.40
   0  -9 -10  198.22   10.87
   0  -9  -9  122.17    8.29
   0  -9  -8  422.75   15.86
   0  -9  -7    7.12    2.17
   0  -9  -6  325.88   13.21
   0  -9  -5   77.50    6.14
   0  -9  -4   54.49    5.00
   0  -9  -3 1108.36   26.62
   0  -9  -2  196.68    9.09
   0  -9  -1  228.91    9.64
   0  -9   0  193.56    8.55
   0  -9   1   22.98    3.17
   0  -9   1   23.15    2.99
   0  -9   2  612.23   17.04
   0  -9   2  592.39   16.07
   0  -9   3   28.31    3.31
   0  -9   3   23.52    2.85
   0  -9   4   43.33    3.91
   0  -9   4   41.55    3.52
   0  -9   5 1224.96   26.69
   0  -9   5 1187.23   24.97
   0  -9   5 1210.24   25.62
   0  -9   6  410.05   12.83
   0  -9   6  391.44   11.26
   0  -9   6  385.13   11.80
   0  -9   7   23.21    2.64
   0  -9   7   24.70    3.08
   0  -9   7   27.00    2.57
   0  -9   8  210.05    8.88
   0  -9   8  189.51    7.03
   0  -9   8  206.54    8.17
   0  -9   9   45.70    4.21
   0  -9   9   45.38    4.06
   0  -9   9   40.09    3.05
   0  -9   9   39.88    3.59
   0  -9  10  210.89    9.48
   0  -9  10  225.47    9.51
   0  -9  10  222.07    7.31
   0  -9  10  214.59    8.62
   0  -9  11  402.09   12.70
   0  -9  11  411.08   14.11
   0  -9  11  411.44   13.67
   0  -9  11  403.60   10.50
   0  -9  12   43.73    4.55
   0  -9  12   47.09    4.12
   0  -9  12   44.27    4.25
   0  -9  12   42.65    2.88
   0  -9  12   45.45    4.07
   0  -9  13  254.10   10.07
   0  -9  13  261.99   11.58
   0  -9  13  246.71    7.30
   0  -9  13  256.98   10.09
   0  -9  14  188.02    8.74
   0  -9  14  188.77    5.92
   0  -9  14  191.37    8.62
   0  -9  15   62.85    5.14
   0  -9  15   65.51    3.12
   0  -9  15   69.83    5.11
   0  -9  16   57.52    5.13
   0  -9  16   57.65    4.69
   0  -8 -16  116.76    9.75
   0  -8 -16  115.50    9.16
   0  -8 -15  158.09   11.14
   0  -8 -15  149.62   10.12
   0  -8 -14    9.65    2.93
   0  -8 -13  126.61    8.93
   0  -8 -12   44.09    5.18
   0  -8 -11    0.95    2.06
   0  -8 -10  292.29   12.85
   0  -8  -9  266.76   11.94
   0  -8  -8  132.15    8.07
   0  -8  -7  776.45   21.69
   0  -8  -6   12.95    2.88
   0  -8  -5  568.31   17.25
   0  -8  -4 1592.86   34.19
   0  -8  -3   60.33    4.89
   0  -8  -2 1034.67   24.15
   0  -8  -1 1204.35   26.49
   0  -8   0    5.44    1.84
   0  -8   1  346.62   11.58
   0  -8   1  344.03   11.03
   0  -8   2  482.99   14.10
   0  -8   2  486.75   13.34
   0  -8   3   85.28    5.15
   0  -8   3   90.66    4.93
   0  -8   4 2031.56   39.02
   0  -8   4 2055.74   37.60
   0  -8   5  378.75   11.72
   0  -8   5  376.18   10.55
   0  -8   5  374.84   10.97
   0  -8   6  219.29    8.56
   0  -8   6  215.65    7.30
   0  -8   6  205.46    7.70
   0  -8   7  275.27    9.85
   0  -8   7  281.84    8.39
   0  -8   7  261.61    8.94
   0  -8   8  101.88    5.93
   0  -8   8  110.94    6.04
   0  -8   8  105.33    4.64
   0  -8   8  106.88    5.44
   0  -8   9  772.48   19.74
   0  -8   9  771.71   19.35
   0  -8   9  776.96   16.32
   0  -8   9  773.40   18.37
   0  -8  10  860.68   20.25
   0  -8  10  890.39   22.05
   0  -8  10  897.28   21.52
   0  -8  10  876.68   17.76
   0  -8  11   11.25    2.44
   0  -8  11   10.18    2.08
   0  -8  11    9.97    1.96
   0  -8  11   10.76    1.49
   0  -8  11   11.74    2.07
   0  -8  12  499.26   14.58
   0  -8  12  521.85   16.52
   0  -8  12  530.10   15.73
   0  -8  12  522.26   11.63
   0  -8  12  505.17   14.52
   0  -8  13  298.38   10.84
   0  -8  13  305.56   11.53
   0  -8  13  296.75    7.77
   0  -8  13  294.50   10.48
   0  -8  14   12.28    2.37
   0  -8  14   13.59    1.45
   0  -8  14   13.94    2.29
   0  -8  14   13.36    1.43
   0  -8  15  179.80    8.68
   0  -8  15  183.18    5.32
   0  -8  15  184.26    5.37
   0  -8  15  181.58    7.99
   0  -8  16   59.47    5.04
   0  -7 -17   54.81    6.13
   0  -7 -16   63.80    7.23
   0  -7 -15    3.32    2.34
   0  -7 -15    5.92    2.69
   0  -7 -14  230.99   12.81
   0  -7 -14  227.90   11.85
   0  -7 -13   36.42    4.65
   0  -7 -12   27.72    4.11
   0  -7 -11  390.98   14.88
   0  -7 -10  126.59    7.84
   0  -7  -9  249.35   11.03
   0  -7  -8  612.73   18.29
   0  -7  -7  133.29    7.53
   0  -7  -6  444.73   14.50
   0  -7  -5  832.68   21.25
   0  -7  -4  108.45    6.34
   0  -7  -3 1950.84   38.28
   0  -7  -2  704.52   17.77
   0  -7  -1  129.14    6.28
   0  -7   0  990.40   21.69
   0  -7   1  643.80   15.64
   0  -7   2   62.37    4.37
   0  -7   2   74.74    4.28
   0  -7   3 1802.79   34.57
   0  -7   3 1823.01   33.41
   0  -7   4  411.55   11.81
   0  -7   4  421.14   10.92
   0  -7   4  423.47   11.24
   0  -7   5  924.25   20.49
   0  -7   5  938.06   19.08
   0  -7   5  935.00   19.72
   0  -7   6 1212.03   25.35
   0  -7   6 1241.04   23.26
   0  -7   6 1202.80   24.29
   0  -7   7   69.27    4.54
   0  -7   7   63.77    4.23
   0  -7   7   59.20    3.21
   0  -7   7   57.75    3.73
   0  -7   8  568.89   15.29
   0  -7   8  566.05   14.91
   0  -7   8  550.48   12.28
   0  -7   8  560.65   14.05
   0  -7   9  652.78   15.83
   0  -7   9  637.34   17.03
   0  -7   9  652.20   16.66
   0  -7   9  639.88   13.55
   0  -7  10   30.97    3.00
   0  -7  10   33.51    3.60
   0  -7  10   32.75    3.27
   0  -7  10   34.79    2.29
   0  -7  10   36.59    3.24
   0  -7  11  961.68   21.62
   0  -7  11  932.21   23.28
   0  -7  11  948.44   22.40
   0  -7  11  962.55   18.20
   0  -7  11  944.86   21.26
   0  -7  12  295.79   10.36
   0  -7  12  312.43   11.09
   0  -7  12  303.08    7.67
   0  -7  12  293.39    9.91
   0  -7  13    4.06    1.48
   0  -7  13    4.38    1.56
   0  -7  13    2.48    0.80
   0  -7  13    4.03    0.99
   0  -7  13    3.90    1.42
   0  -7  14  430.42   13.93
   0  -7  14  432.32   14.38
   0  -7  14  471.75   10.32
   0  -7  14  465.54   10.13
   0  -7  14  446.57   12.96
   0  -7  15   38.13    4.02
   0  -7  15   38.22    2.26
   0  -7  15   39.91    2.39
   0  -7  15   36.39    3.98
   0  -7  16  149.94    4.54
   0  -6 -18   82.41    8.25
   0  -6 -17   94.50    8.73
   0  -6 -16   -1.77    2.57
   0  -6 -15   58.78    6.56
   0  -6 -15   54.13    5.63
   0  -6 -14   44.20    5.44
   0  -6 -14   50.35    5.41
   0  -6 -13   83.68    6.61
   0  -6 -12  242.94   11.26
   0  -6 -11    1.64    1.74
   0  -6 -10  157.55    8.42
   0  -6  -9  289.53   11.42
   0  -6  -8    3.08    1.75
   0  -6  -7  466.46   14.53
   0  -6  -6  257.36   10.01
   0  -6  -5   58.77    4.58
   0  -6  -4 1595.66   32.25
   0  -6  -3  854.47   19.89
   0  -6  -2  211.68    8.00
   0  -6  -1 1099.83   22.98
   0  -6   0  394.76   10.96
   0  -6   1  168.16    6.32
   0  -6   2  214.90    7.64
   0  -6   2  221.47    7.16
   0  -6   3  275.43    8.82
   0  -6   3  294.25    8.24
   0  -6   4 1310.80   25.73
   0  -6   4 1342.23   24.43
   0  -6   4 1277.04   24.75
   0  -6   5 1701.10   31.68
   0  -6   5 1673.23   29.66
   0  -6   5 1683.78   30.68
   0  -6   6  126.25    5.61
   0  -6   6  120.51    4.37
   0  -6   6  116.59    5.01
   0  -6   7  960.87   20.73
   0  -6   7  913.45   20.15
   0  -6   7  930.35   17.62
   0  -6   7  920.37   19.34
   0  -6   8  751.64   17.09
   0  -6   8  791.83   18.63
   0  -6   8  772.62   17.97
   0  -6   8  780.05   15.12
   0  -6   9  386.99   12.19
   0  -6   9  383.09   10.97
   0  -6   9  376.75   11.43
   0  -6   9  401.82    8.98
   0  -6   9  381.97   10.83
   0  -6  10  919.56   20.21
   0  -6  10  910.20   21.83
   0  -6  10  914.68   20.86
   0  -6  10  890.71   17.15
   0  -6  10  906.41   19.68
   0  -6  11  221.79    8.27
   0  -6  11  223.06    8.61
   0  -6  11  189.49    5.71
   0  -6  11  220.34    7.77
   0  -6  12  468.34   13.62
   0  -6  12  479.95   14.09
   0  -6  12  476.20   10.46
   0  -6  12  474.94   10.51
   0  -6  12  470.85   12.64
   0  -6  13  479.76   14.24
   0  -6  13  473.52   14.46
   0  -6  13  484.66   10.85
   0  -6  13  490.38   10.71
   0  -6  13  497.19   13.01
   0  -6  14  167.39    7.93
   0  -6  14  151.44    5.02
   0  -6  14  166.14    5.38
   0  -6  14  158.72    7.84
   0  -6  15  202.75    6.06
   0  -6  15  233.17    6.60
   0  -6  16  122.38    4.35
   0  -5 -19  208.58   13.30
   0  -5 -18    8.76    3.19
   0  -5 -17   10.95    3.58
   0  -5 -17   12.88    2.87
   0  -5 -16   76.89    7.36
   0  -5 -16   80.37    6.22
   0  -5 -15    3.43    2.69
   0  -5 -14  160.16    9.89
   0  -5 -14  167.77    9.20
   0  -5 -13  205.91   10.90
   0  -5 -13  213.82   10.24
   0  -5 -12   77.61    5.92
   0  -5 -11  407.06   14.07
   0  -5 -10  259.45   10.56
   0  -5  -9   69.39    5.16
   0  -5  -8  581.24   16.31
   0  -5  -7   51.94    4.28
   0  -5  -6   77.18    5.01
   0  -5  -5  869.72   20.22
   0  -5  -4  106.47    5.53
   0  -5  -3  196.67    7.41
   0  -5  -2  856.85   18.65
   0  -5  -1  163.35    6.18
   0  -5   0  121.45    5.09
   0  -5   1   32.71    2.51
   0  -5   2  272.15    8.04
   0  -5   2  263.80    7.39
   0  -5   3 2262.68   39.21
   0  -5   3 2239.85   38.03
   0  -5   4  520.67   12.16
   0  -5   4  513.27   10.94
   0  -5   4  497.35   11.47
   0  -5   5  122.91    5.19
   0  -5   5  129.12    4.23
   0  -5   5  129.89    4.87
   0  -5   6 1185.64   23.27
   0  -5   6 1131.75   22.74
   0  -5   6 1150.60   20.40
   0  -5   6 1133.36   21.97
   0  -5   7   47.17    3.05
   0  -5   7   43.98    3.41
   0  -5   7   47.10    2.36
   0  -5   7   47.44    3.26
   0  -5   8  286.56    9.64
   0  -5   8  285.32    8.63
   0  -5   8  295.72    9.15
   0  -5   8  296.36    7.04
   0  -5   9  863.06   19.21
   0  -5   9  866.07   18.76
   0  -5   9  843.60   20.10
   0  -5   9  862.07   18.12
   0  -5  10   65.35    4.22
   0  -5  10   64.51    4.09
   0  -5  10   67.60    3.78
   0  -5  11  807.25   18.95
   0  -5  11  825.96   19.29
   0  -5  11  801.16   15.75
   0  -5  11  824.91   17.66
   0  -5  12  297.25   10.24
   0  -5  12  304.98   10.46
   0  -5  12  300.20    7.77
   0  -5  12  303.83    9.00
   0  -5  13   38.88    3.68
   0  -5  13   42.39    2.63
   0  -5  14   73.47    3.63
   0  -5  15  566.01   12.87
   0  -4 -20  101.05    9.49
   0  -4 -19    2.42    2.60
   0  -4 -18  149.65   10.63
   0  -4 -17   64.19    5.36
   0  -4 -17   59.44    6.75
   0  -4 -16    6.33    1.85
   0  -4 -16   15.02    3.91
   0  -4 -15   63.04    5.18
   0  -4 -15   66.96    6.43
   0  -4 -14   40.93    5.05
   0  -4 -13   -1.38    1.98
   0  -4 -13    0.80    1.68
   0  -4 -13    0.43    0.45
   0  -4 -12  537.41   17.52
   0  -4 -12  530.78   16.23
   0  -4 -11  336.96   12.07
   0  -4 -10  408.98   13.19
   0  -4  -9  326.29   11.19
   0  -4  -8    5.17    1.72
   0  -4  -7  759.89   18.31
   0  -4  -6 1196.93   25.05
   0  -4  -5    3.40    1.65
   0  -4  -4  267.46    8.67
   0  -4  -3  519.29   12.71
   0  -4  -2    2.10    1.31
   0  -4  -1  668.94   14.39
   0  -4   0    2.91    1.28
   0  -4   1  640.84   13.16
   0  -4   2 9999.00  153.93
   0  -4   2 9781.22  152.86
   0  -4   3  459.30   10.62
   0  -4   3  479.40    9.77
   0  -4   3  463.29   10.15
   0  -4   4 1064.57   20.30
   0  -4   4 1081.16   18.78
   0  -4   4 1057.49   19.69
   0  -4   5 1124.10   22.25
   0  -4   5 1123.57   21.91
   0  -4   5 1218.28   20.11
   0  -4   5 1136.78   21.35
   0  -4   6  321.18    8.37
   0  -4   6  324.37    9.17
   0  -4   6  309.15    8.59
   0  -4   6  315.12    6.94
   0  -4   7 1465.73   27.94
   0  -4   7 1530.98   29.05
   0  -4   7 1491.58   27.60
   0  -4   7 1531.49   27.22
   0  -4   8  553.62   13.60
   0  -4   8  603.22   14.93
   0  -4   8  584.42   13.55
   0  -4   8  578.38   12.77
   0  -4   9   94.49    4.75
   0  -4   9   88.73    4.58
   0  -4   9   91.19    4.05
   0  -4  10  555.41   14.21
   0  -4  10  563.26   14.30
   0  -4  10  557.49   11.80
   0  -4  10  580.75   12.88
   0  -4  11  383.71   11.65
   0  -4  11  397.02   11.72
   0  -4  11  404.95    9.52
   0  -4  11  409.53   10.18
   0  -4  12    6.62    1.22
   0  -4  13  119.47    4.88
   0  -4  14  175.31    6.26
   0  -4  15    9.22    1.63
   0  -4  16  624.53   14.62
   0  -3 -20    6.37    2.78
   0  -3 -19  130.26   10.03
   0  -3 -18  149.04   10.38
   0  -3 -17    8.10    1.98
   0  -3 -17    8.35    3.50
   0  -3 -16  217.06    9.85
   0  -3 -16  214.17   11.72
   0  -3 -15   20.82    3.11
   0  -3 -15   21.25    4.63
   0  -3 -14   14.26    2.50
   0  -3 -14   11.94    2.86
   0  -3 -13  732.51   21.40
   0  -3 -12   85.11    6.25
   0  -3 -12   80.13    5.47
   0  -3 -12   95.17    2.95
   0  -3 -11  515.17   16.24
   0  -3 -11  538.47   15.28
   0  -3 -10  609.86   16.25
   0  -3  -9   41.71    3.59
   0  -3  -8  308.55   10.03
   0  -3  -7 1133.02   23.56
   0  -3  -6   87.67    4.63
   0  -3  -5  285.78    8.69
   0  -3  -4  199.67    6.79
   0  -3  -3  322.92    8.72
   0  -3  -2  575.76   12.52
   0  -3  -1 1298.54   23.33
   0  -3   0   62.59    2.87
   0  -3   1  397.58    8.89
   0  -3   1  391.24    8.40
   0  -3   2    3.09    0.98
   0  -3   2    3.89    0.81
   0  -3   3  586.73   11.84
   0  -3   3  593.79   10.78
   0  -3   3  573.93   11.41
   0  -3   4 1158.35   21.37
   0  -3   4 1142.51   20.95
   0  -3   4 1165.50   19.42
   0  -3   4 1166.53   20.59
   0  -3   5  146.65    4.95
   0  -3   5  153.96    4.86
   0  -3   5  156.67    5.46
   0  -3   6 2011.51   35.02
   0  -3   6 1999.86   34.74
   0  -3   6 2016.61   35.98
   0  -3   6 2046.96   34.11
   0  -3   7  768.78   16.10
   0  -3   7  761.33   16.03
   0  -3   7  776.96   15.06
   0  -3   8   17.80    2.01
   0  -3   8   18.89    2.01
   0  -3   8   19.19    1.53
   0  -3   8   20.33    1.70
   0  -3   9  645.76   15.05
   0  -3   9  627.34   14.75
   0  -3   9  631.69   12.82
   0  -3   9  629.33   13.07
   0  -3  10  245.67    8.56
   0  -3  10  255.17    7.02
   0  -3  11   24.02    2.06
   0  -3  12  320.42    8.92
   0  -3  13   59.73    3.59
   0  -3  14  179.96    6.70
   0  -3  15  580.72   14.36
   0  -3  16   68.83    4.29
   0  -2 -20   90.99    8.54
   0  -2 -19   64.02    6.99
   0  -2 -18   52.89    4.95
   0  -2 -18   54.59    6.25
   0  -2 -17  230.60   10.13
   0  -2 -17  199.10   11.46
   0  -2 -16   32.08    3.74
   0  -2 -16   34.09    4.59
   0  -2 -15  202.10    8.92
   0  -2 -15  184.91   10.21
   0  -2 -14  425.51   13.41
   0  -2 -14  413.87   15.28
   0  -2 -13    0.80    1.35
   0  -2 -13   -0.80    1.58
   0  -2 -12  496.47   13.89
   0  -2 -12  478.77   15.52
   0  -2 -12  482.49    8.85
   0  -2 -11  676.08   18.85
   0  -2 -11  711.16   17.69
   0  -2 -11  717.70   12.77
   0  -2 -10    0.31    1.46
   0  -2 -10    1.64    1.32
   0  -2  -9  365.19   11.81
   0  -2  -9  376.28   11.04
   0  -2  -8  369.59   10.60
   0  -2  -7   21.48    2.35
   0  -2  -6 1169.12   22.81
   0  -2  -5  468.71   11.19
   0  -2  -4    1.56    1.08
   0  -2  -3 1051.41   19.62
   0  -2  -2   14.75    1.51
   0  -2  -1 2416.81   39.27
   0  -2   0 1337.04   22.34
   0  -2   1  104.93    3.21
   0  -2   1  106.92    2.88
   0  -2   2  916.81   16.24
   0  -2   2  940.18   15.43
   0  -2   2  937.54   15.95
   0  -2   3  595.07   11.48
   0  -2   3  620.36   11.85
   0  -2   3  600.89   11.27
   0  -2   4    1.64    0.68
   0  -2   4    1.91    1.02
   0  -2   4    1.20    0.66
   0  -2   5 1643.03   28.25
   0  -2   5 1614.91   28.26
   0  -2   5 1658.07   27.36
   0  -2   6  692.10   14.37
   0  -2   6  684.66   14.15
   0  -2   6  700.77   12.85
   0  -2   6  703.93   13.09
   0  -2   7  496.23   11.61
   0  -2   7  493.45   11.36
   0  -2   7  475.90   10.00
   0  -2   7  489.76    9.94
   0  -2   8  348.01    9.78
   0  -2   8  366.32    8.49
   0  -2   9   26.32    2.05
   0  -2  10  233.39    7.05
   0  -2  11  162.32    5.97
   0  -2  12    8.41    1.54
   0  -2  13  156.55    6.35
   0  -2  14  122.82    5.78
   0  -2  15    0.83    1.22
   0  -2  16  559.13   14.96
   0  -1 -20   21.24    4.45
   0  -1 -19   30.70    5.08
   0  -1 -18  211.68    9.88
   0  -1 -18  205.65   11.68
   0  -1 -17    2.84    1.82
   0  -1 -17    3.30    2.65
   0  -1 -16  170.36    8.34
   0  -1 -16  152.88    9.37
   0  -1 -15  187.04    8.46
   0  -1 -15  180.97    9.80
   0  -1 -14    3.94    1.58
   0  -1 -14    4.93    2.05
   0  -1 -13  814.89   19.64
   0  -1 -13  800.48   21.66
   0  -1 -12  425.30   12.49
   0  -1 -12  436.19   14.21
   0  -1 -11  163.58    6.81
   0  -1 -11  161.05    7.82
   0  -1 -10 1150.82   23.53
   0  -1 -10 1141.13   25.37
   0  -1 -10 1152.84   19.39
   0  -1  -9   10.62    2.09
   0  -1  -9   14.56    1.98
   0  -1  -9   12.22    0.97
   0  -1  -8  362.59   10.80
   0  -1  -8  355.42    9.76
   0  -1  -7 1822.04   33.50
   0  -1  -7 1782.17   32.22
   0  -1  -6  161.99    5.48
   0  -1  -5  475.55   10.63
   0  -1  -4 1051.52   19.14
   0  -1  -3   30.66    1.91
   0  -1  -2 1055.68   18.18
   0  -1  -1 3737.03   58.21
   0  -1   2  193.15    4.26
   0  -1   2  196.41    4.22
   0  -1   2  200.40    4.53
   0  -1   3  682.83   12.39
   0  -1   3  694.17   12.52
   0  -1   3  699.46   11.84
   0  -1   4  369.18    8.12
   0  -1   4  370.34    7.89
   0  -1   4  367.94    7.25
   0  -1   4  372.47    7.08
   0  -1   5  182.94    5.46
   0  -1   5  180.35    4.65
   0  -1   6  613.68   12.08
   0  -1   7 1013.19   18.82
   0  -1   8   63.04    3.20
   0  -1   9  973.90   19.46
   0  -1  10  168.41    6.23
   0  -1  11   29.76    2.62
   0  -1  12  145.48    6.20
   0  -1  13  373.15   11.19
   0  -1  14   37.18    3.37
   0  -1  15  546.10   15.07
   0  -1  16   53.50    4.31
   0   0 -20   67.22    7.21
   0   0 -19   56.39    6.23
   0   0 -18    6.53    2.17
   0   0 -18    4.76    2.21
   0   0 -17  326.46   11.62
   0   0 -17  326.49   14.10
   0   0 -16  128.34    7.10
   0   0 -16  136.23    8.52
   0   0 -15    1.86    2.66
   0   0 -15    4.98    2.29
   0   0 -14  588.71   16.05
   0   0 -14  570.39   17.71
   0   0 -13  154.76    7.11
   0   0 -13  169.82    8.44
   0   0 -12  353.28   11.00
   0   0 -12  370.50   12.53
   0   0 -11  194.58    7.40
   0   0 -11  202.70    8.53
   0   0 -10    4.65    1.24
   0   0 -10    5.93    1.71
   0   0  -9  688.75   15.24
   0   0  -9  646.72   16.25
   0   0  -8 1094.34   20.98
   0   0  -8 1081.87   22.26
   0   0  -8 1045.38   17.98
   0   0  -7   86.86    3.91
   0   0  -7   97.67    4.63
   0   0  -7   91.43    2.69
   0   0  -6  718.94   15.12
   0   0  -6  724.78   14.20
   0   0  -6  682.19   13.82
   0   0  -6  691.16   12.11
   0   0  -5 1220.81   22.33
   0   0  -5 1198.23   21.22
   0   0  -5 1210.33   19.67
   0   0  -4  248.26    6.33
   0   0  -4  238.32    5.66
   0   0  -4  236.18    4.63
   0   0  -3 1022.64   17.61
   0   0  -3  981.91   16.94
   0   0  -2  269.11    5.58
   0   0  -2  271.62    5.26
   0   0   2  264.76    5.17
   0   0   3 1037.34   17.57
   0   0   4  241.71    5.79
   0   0   5 1276.94   22.47
   0   0   6  735.95   14.73
   0   0   7   97.21    4.14
   0   0   8 1069.12   21.09
   0   0   9  667.65   15.22
   0   0  10    6.29    1.53
   0   0  11  201.44    7.60
   0   0  12  371.29   11.33
   0   0  13  176.20    7.61
   0   0  14  587.76   16.13
   0   0  15    8.82    2.18
   0   0  16  138.77    7.34
   0   1 -20   99.64    8.29
   0   1 -19   21.89    4.39
   0   1 -18  212.42    9.80
   0   1 -18  195.01   10.93
   0   1 -17   96.82    6.33
   0   1 -17   88.01    6.94
   0   1 -16   48.53    4.41
   0   1 -16   43.62    4.81
   0   1 -15  536.46   15.50
   0   1 -15  516.28   16.93
   0   1 -14   34.94    3.43
   0   1 -14   32.49    3.90
   0   1 -13  373.77   11.77
   0   1 -13  374.51   12.94
   0   1 -13  395.37   14.41
   0   1 -12  140.03    6.43
   0   1 -12  138.09    7.09
   0   1 -12  149.18    8.06
   0   1 -11   35.36    3.03
   0   1 -11   28.10    3.51
   0   1 -11   30.40    3.20
   0   1 -10  168.37    6.53
   0   1 -10  186.02    8.26
   0   1 -10  179.40    7.41
   0   1  -9  940.97   19.26
   0   1  -9  934.96   21.58
   0   1  -9  907.18   20.17
   0   1  -8   60.68    3.42
   0   1  -8   67.81    4.40
   0   1  -8   67.60    3.96
   0   1  -7 1004.77   19.33
   0   1  -7 1007.85   21.11
   0   1  -7  998.60   20.10
   0   1  -6  618.23   12.72
   0   1  -6  597.64   13.99
   0   1  -6  622.17   13.35
   0   1  -5  189.76    5.32
   0   1  -5  198.42    5.72
   0   1  -5  189.51    6.13
   0   1  -4  385.52    8.06
   0   1  -4  368.94    8.21
   0   1  -4  377.21    8.81
   0   1  -3  701.05   12.46
   0   1  -3  688.02   13.06
   0   1  -3  689.70   12.55
   0   1  -2  201.08    4.35
   0   1  -2  199.53    4.58
   0   1  -2  200.22    4.29
   0   1   2  996.09   17.28
   0   1   3   29.68    1.85
   0   1   4 1047.78   19.23
   0   1   5  477.74   10.82
   0   1   6  173.37    5.87
   0   1   7 1839.18   33.17
   0   1   8  361.20   10.12
   0   1   9   14.92    2.06
   0   1  10 1150.88   24.22
   0   1  11  161.11    7.10
   0   1  12  419.54   12.82
   0   1  13  819.00   20.34
   0   1  14    2.30    1.75
   0   1  15  202.22    9.19
   0   1  16  165.98    8.45
   0   2 -20   48.21    5.84
   0   2 -19  169.89    8.91
   0   2 -19  146.33    9.47
   0   2 -18    7.40    2.19
   0   2 -18    4.59    2.40
   0   2 -17  201.72    9.30
   0   2 -17  180.78    9.93
   0   2 -16  560.54   16.43
   0   2 -16  542.08   17.70
   0   2 -15    4.10    1.73
   0   2 -15    0.84    1.67
   0   2 -14  112.79    6.18
   0   2 -14  111.88    6.79
   0   2 -13  150.89    6.97
   0   2 -13  159.50    8.63
   0   2 -13  154.36    7.73
   0   2 -12    5.39    1.46
   0   2 -12   10.58    2.37
   0   2 -12    7.56    1.90
   0   2 -11  150.89    6.41
   0   2 -11  154.25    7.76
   0   2 -11  153.39    6.99
   0   2 -10  236.17    7.96
   0   2 -10  234.75    9.35
   0   2 -10  234.31    8.46
   0   2  -9   25.66    2.44
   0   2  -9   29.88    3.23
   0   2  -9   35.15    3.54
   0   2  -8  358.11    9.53
   0   2  -8  368.93   10.95
   0   2  -8  349.73    9.85
   0   2  -7  472.84   11.17
   0   2  -7  489.25   12.53
   0   2  -7  496.34   11.67
   0   2  -6  693.93   14.27
   0   2  -6  719.87   14.60
   0   2  -6  696.98   15.35
   0   2  -5 1688.06   28.61
   0   2  -5 1656.21   28.56
   0   2  -5 1620.41   29.42
   0   2  -4    2.01    1.02
   0   2  -4    1.24    0.87
   0   2  -4    1.52    0.92
   0   2  -3  589.54   11.38
   0   2  -3  585.89   11.59
   0   2  -3  600.22   11.12
   0   2  -2  945.30   16.45
   0   2  -2  926.12   15.50
   0   2  -2  960.95   16.10
   0   2  -1  109.91    3.31
   0   2  -1  103.30    2.83
   0   2   0 1304.48   21.84
   0   2   1 2371.09   38.56
   0   2   2   16.28    1.52
   0   2   3  992.72   18.69
   0   2   4    1.29    0.93
   0   2   5  467.91   11.30
   0   2   6 1115.78   22.26
   0   2   7   24.78    2.47
   0   2   8  377.70   11.02
   0   2   9  384.89   11.57
   0   2  10    1.63    1.37
   0   2  11  706.40   18.15
   0   2  12  494.26   14.81
   0   2  13    1.90    1.87
   0   2  14  419.41   14.08
   0   2  15  192.34    9.25
   0   3 -20   76.32    7.05
   0   3 -19   -0.30    1.32
   0   3 -19    0.55    1.85
   0   3 -18  122.78    7.51
   0   3 -18  135.67    8.59
   0   3 -17  120.74    7.15
   0   3 -17  115.69    7.73
   0   3 -16   68.57    5.23
   0   3 -16   61.70    5.41
   0   3 -15  541.12   15.84
   0   3 -15  541.14   16.78
   0   3 -14  178.81    7.99
   0   3 -14  170.22    8.35
   0   3 -13   56.14    4.22
   0   3 -13   54.37    4.46
   0   3 -13   53.41    4.96
   0   3 -12  318.97   10.38
   0   3 -12  308.48   10.74
   0   3 -12  326.20   12.18
   0   3 -11   17.57    2.36
   0   3 -11   23.25    2.70
   0   3 -11   24.83    3.23
   0   3 -10  241.55    8.23
   0   3 -10  247.71    8.57
   0   3 -10  249.84    9.57
   0   3  -9  612.30   14.68
   0   3  -9  654.92   15.16
   0   3  -9  643.38   16.39
   0   3  -8   21.27    2.18
   0   3  -8   21.74    2.54
   0   3  -8   23.57    2.36
   0   3  -7  774.85   16.33
   0   3  -7  786.20   17.40
   0   3  -7  787.26   16.32
   0   3  -6 2001.44   34.94
   0   3  -6 2019.95   35.90
   0   3  -6 2022.02   34.71
   0   3  -5  159.53    5.21
   0   3  -5  154.73    5.44
   0   3  -5  155.18    4.94
   0   3  -4 1186.15   21.53
   0   3  -4 1192.87   21.06
   0   3  -3  581.52   12.08
   0   3  -3  604.03   11.61
   0   3  -2    5.47    1.28
   0   3  -2    3.90    0.76
   0   3  -1  390.77    8.25
   0   3   0   64.16    2.84
   0   3   1 1230.23   22.20
   0   3   2  552.44   12.10
   0   3   3  312.27    8.49
   0   3   4  191.43    6.61
   0   3   5  277.50    8.62
   0   3   6   84.31    4.56
   0   3   7 1137.95   23.98
   0   3   8  315.43   10.41
   0   3   9   49.63    4.00
   0   3  10  644.42   17.31
   0   3  11  564.15   16.31
   0   3  12  103.84    6.45
   0   3  13  776.89   21.00
   0   3  14   13.21    2.79
   0   4 -19  159.62    8.88
   0   4 -19  157.96    9.48
   0   4 -18   80.75    6.08
   0   4 -18   75.60    6.43
   0   4 -17   10.21    2.45
   0   4 -17   12.53    2.94
   0   4 -16  609.95   17.61
   0   4 -16  599.39   18.24
   0   4 -15    7.62    2.00
   0   4 -15    4.88    1.96
   0   4 -14  161.73    7.72
   0   4 -14  173.73    8.30
   0   4 -13  109.51    6.04
   0   4 -13  107.98    6.97
   0   4 -13  113.62    6.34
   0   4 -12    3.66    1.40
   0   4 -12    6.97    1.75
   0   4 -12    4.25    1.71
   0   4 -11  408.99   11.95
   0   4 -11  401.69   13.27
   0   4 -11  408.21   12.00
   0   4 -10  575.51   14.62
   0   4 -10  571.64   15.92
   0   4 -10  599.69   14.78
   0   4  -9   90.61    4.76
   0   4  -9   90.68    5.27
   0   4  -9   94.71    4.72
   0   4  -8  578.00   13.80
   0   4  -8  559.72   14.52
   0   4  -8  572.95   13.44
   0   4  -7 1468.46   27.72
   0   4  -7 1482.60   27.20
   0   4  -6  299.16    8.56
   0   4  -6  317.18    8.27
   0   4  -5 1120.95   21.56
   0   4  -5 1129.28   20.90
   0   4  -4 1094.09   20.91
   0   4  -4 1083.79   20.02
   0   4  -3  476.47   11.21
   0   4  -3  481.98    9.79
   0   4  -2 9861.12  152.43
   0   4  -1  621.52   12.74
   0   4   0    2.74    1.08
   0   4   1  625.84   13.62
   0   4   2    0.73    1.02
   0   4   3  485.79   12.20
   0   4   4  251.57    8.27
   0   4   5    3.14    1.25
   0   4   6 1174.54   24.90
   0   4   7  791.60   19.05
   0   4   8    7.52    1.93
   0   4   9  305.30   11.07
   0   4  10  443.71   14.23
   0   4  11  372.76   13.15
   0   4  12  560.81   17.22
   0   4  13   -0.33    1.66
   0   5 -19   35.19    4.06
   0   5 -19   32.87    4.29
   0   5 -18   58.30    5.28
   0   5 -18   69.52    5.95
   0   5 -17  421.07   14.70
   0   5 -17  425.79   15.14
   0   5 -16   19.45    3.19
   0   5 -16   18.06    2.99
   0   5 -15  518.97   15.86
   0   5 -15  523.27   16.06
   0   5 -14   72.91    5.24
   0   5 -14   65.12    4.93
   0   5 -13   45.11    3.96
   0   5 -13   45.61    4.55
   0   5 -13   41.13    3.77
   0   5 -12  302.48   10.52
   0   5 -12  298.15   11.60
   0   5 -12  303.18   10.34
   0   5 -11  794.47   19.19
   0   5 -11  822.32   20.74
   0   5 -11  811.74   18.94
   0   5 -10   67.81    4.40
   0   5 -10   70.40    4.26
   0   5  -9  842.35   19.22
   0   5  -9  871.93   18.78
   0   5  -8  305.77    9.48
   0   5  -8  300.95    8.92
   0   5  -7   43.88    3.30
   0   5  -7   42.81    2.98
   0   5  -6 1177.05   23.39
   0   5  -6 1163.28   22.36
   0   5  -5  129.11    5.47
   0   5  -5  132.08    4.93
   0   5  -4  539.91   12.81
   0   5  -4  502.12   10.75
   0   5  -3 2410.95   40.91
   0   5  -3 2242.34   38.50
   0   5  -2  262.45    7.18
   0   5  -1   32.67    2.42
   0   5   0  128.31    5.17
   0   5   1  156.12    5.97
   0   5   2  795.29   17.58
   0   5   3  190.31    7.26
   0   5   4  103.14    5.38
   0   5   5  810.96   19.21
   0   5   6   75.14    4.95
   0   5   7   50.70    4.30
   0   5   8  579.17   16.58
   0   5   9   63.61    5.10
   0   5  10  268.44   11.01
   0   5  11  422.09   14.72
   0   6 -19   92.08    6.97
   0   6 -19   83.68    6.68
   0   6 -18  234.96   11.04
   0   6 -18  248.07   11.31
   0   6 -17   14.52    2.89
   0   6 -17   14.64    2.88
   0   6 -16  120.43    7.33
   0   6 -16  127.77    7.49
   0   6 -15  207.15    9.44
   0   6 -15  199.40    9.22
   0   6 -14  155.52    7.94
   0   6 -14  150.02    7.61
   0   6 -13  494.39   14.94
   0   6 -13  496.94   14.54
   0   6 -12  502.62   14.54
   0   6 -12  461.75   13.61
   0   6 -11  206.41    8.52
   0   6 -11  220.45    8.31
   0   6 -10  895.81   21.06
   0   6 -10  940.11   20.46
   0   6  -9  378.57   11.62
   0   6  -9  393.17   11.02
   0   6  -8  787.12   18.44
   0   6  -8  786.79   17.40
   0   6  -7  942.28   20.89
   0   6  -7  956.54   19.71
   0   6  -6  110.24    5.62
   0   6  -5 1770.07   33.61
   0   6  -4 1475.99   28.18
   0   6  -4 1373.77   25.31
   0   6  -3  293.94    8.02
   0   6  -2  214.13    6.85
   0   6  -1  159.29    6.03
   0   6   0  384.45   10.64
   0   6   1 1078.63   22.57
   0   6   2  197.03    7.61
   0   6   3  801.41   18.97
   0   6   4 1535.62   31.31
   0   6   5   54.36    4.33
   0   6   6  258.65   10.10
   0   6   7  473.82   14.87
   0   6   8   -0.84    1.62
   0   6   9  283.12   11.50
   0   6  10  172.71    9.05
   0   7 -20  123.01    8.56
   0   7 -19   41.69    4.76
   0   7 -19   35.70    4.49
   0   7 -18   49.33    5.11
   0   7 -18   51.34    5.05
   0   7 -17  265.90   11.81
   0   7 -17  284.42   11.73
   0   7 -16  139.15    8.16
   0   7 -16  157.83    8.26
   0   7 -15   32.27    3.84
   0   7 -15   36.71    3.91
   0   7 -14  414.28   14.33
   0   7 -14  467.26   14.30
   0   7 -13    2.40    2.17
   0   7 -13    2.57    1.37
   0   7 -12  282.03   10.83
   0   7 -12  303.18   10.44
   0   7 -11  937.35   22.58
   0   7 -11  954.08   21.52
   0   7 -10   35.64    3.61
   0   7 -10   34.19    3.10
   0   7  -9  652.45   17.12
   0   7  -9  648.94   15.81
   0   7  -8  558.19   15.42
   0   7  -8  571.00   14.14
   0   7  -7   57.69    4.38
   0   7  -6 1277.41   27.03
   0   7  -5 1007.10   21.73
   0   7  -5  876.63   18.35
   0   7  -4  404.85   10.31
   0   7  -3 1785.72   32.55
   0   7  -2   69.01    3.97
   0   7  -1  633.37   15.25
   0   7   0  979.70   21.37
   0   7   1  130.95    6.30
   0   7   2  667.54   17.03
   0   7   3 1894.42   37.40
   0   7   4   93.65    5.80
   0   7   5  805.82   20.66
   0   7   6  419.68   13.98
   0   7   7  139.34    7.74
   0   7   8  618.31   18.57
   0   8 -20   27.72    4.55
   0   8 -19   71.78    6.66
   0   8 -18  150.45    9.26
   0   8 -18  146.45    8.43
   0   8 -17    1.41    1.85
   0   8 -17    0.43    1.75
   0   8 -16   43.54    4.82
   0   8 -16   51.86    4.84
   0   8 -15  188.05    9.59
   0   8 -15  173.44    8.55
   0   8 -14   17.38    3.02
   0   8 -14    9.31    2.22
   0   8 -13  298.76   11.92
   0   8 -13  292.35   10.75
   0   8 -12  508.00   15.96
   0   8 -12  515.95   14.71
   0   8 -11   10.36    2.33
   0   8 -11   12.15    2.14
   0   8 -10  885.90   22.16
   0   8 -10  889.46   20.46
   0   8  -9  748.04   19.58
   0   8  -8  104.64    6.29
   0   8  -7  272.67   10.44
   0   8  -6  227.14    9.37
   0   8  -6  213.04    7.06
   0   8  -5  352.15    9.84
   0   8  -4 2037.07   36.96
   0   8  -3   83.00    4.56
   0   8  -2  478.26   12.95
   0   8  -1  361.11   11.08
   0   8   0    6.62    1.68
   0   8   1 1198.04   26.26
   0   8   2 1053.27   24.42
   0   8   3   59.36    4.77
   0   8   4 1605.65   34.30
   0   8   5  561.79   17.02
   0   8   6    9.50    2.11
   0   8   7  789.68   22.08
   0   9 -20   61.08    6.66
   0   9 -19  208.02   11.76
   0   9 -18    9.27    3.16
   0   9 -18    7.23    2.33
   0   9 -17  168.94    9.98
   0   9 -17  159.08    8.64
   0   9 -16   55.35    5.58
   0   9 -16   52.81    4.81
   0   9 -15   64.15    5.84
   0   9 -15   71.26    5.38
   0   9 -14  175.52    9.53
   0   9 -14  204.41    9.07
   0   9 -13  249.15   11.25
   0   9 -13  248.60    9.95
   0   9 -12   41.74    4.52
   0   9 -11  403.23   14.22
   0   9 -10  218.86    9.99
   0   9  -9   41.08    4.26
   0   9  -8  208.73    9.62
   0   9  -7   29.64    3.69
   0   9  -6  393.56   10.92
   0   9  -5 1178.63   24.12
   0   9  -4   33.44    3.04
   0   9  -3   21.74    2.54
   0   9  -2  558.22   15.03
   0   9  -1   21.73    2.68
   0   9   0  195.20    8.43
   0   9   1  212.89    9.11
   0   9   2  180.30    8.54
   0   9   3 1090.36   26.27
   0   9   4   60.62    5.13
   0   9   5   93.36    6.52
   0  10 -20   96.44    8.40
   0  10 -19    4.00    2.50
   0  10 -18   93.63    7.79
   0  10 -18   90.27    6.63
   0  10 -17   62.02    6.41
   0  10 -17   63.99    5.48
   0  10 -16   70.98    6.65
   0  10 -16   66.11    5.39
   0  10 -15  216.86   11.29
   0  10 -14  176.75    9.95
   0  10 -13  182.25    9.99
   0  10 -12  287.64   12.61
   0  10 -11   39.75    4.64
   0  10 -10  239.26   11.06
   0  10  -9  307.34   12.57
   0  10  -6   68.73    4.42
   0  10  -5  180.07    7.37
   0  10  -4  701.46   17.50
   0  10  -3  353.55   11.52
   0  10  -2   54.44    4.32
   0  10  -1  537.60   15.66
   0  10   0   94.81    6.03
   0  10   1  232.99    9.95
   0  10   2  602.85   17.90
   0  10   3   70.17    5.61
   0  11 -20   28.98    5.27
   0  11 -19  150.05   10.78
   0  11 -18   70.48    7.36
   0  11 -17   47.82    5.92
   0  11 -16  272.29   13.65
   0  11 -15   27.19    4.57
   0  11 -14  146.39    9.45
   0  11 -13  303.49   13.74
   0  11 -12   -0.60    1.93
   0  11 -11  273.01   12.50
   0  11  -7   77.48    4.91
   0  11  -6  187.64    7.93
   0  11  -5  419.05   12.79
   0  11  -4  394.89   12.64
   0  11  -3  309.59   11.17
   0  11  -2  470.28   14.64
   0  11  -1   14.87    2.58
   0  11   0  313.04   12.00
   0  11   1  653.04   19.14
   0  12 -20  256.29   14.70
   0  12 -19   25.01    5.32
   0  12 -18   61.52    7.03
   0  12 -17  112.56    9.02
   0  12 -16    4.49    2.97
   0  12 -15  233.77   12.76
   0  12 -14  270.02   13.55
   0  12 -13   30.59    4.89
   0  12  -7   85.81    5.34
   0  12  -6  212.15    8.92
   0  12  -5   21.13    2.87
   0  12  -4  243.01    9.99
   0  12  -3  822.54   21.36
   0  12  -2   72.92    5.49
   0  12  -1  435.97   14.83
   0  13  -7  265.77   10.31
   0  13  -6    2.12    1.68
   0  13  -5   45.67    4.32
   0  13  -4  335.71   12.52
   0  13  -3    5.10    1.82
   0  14  -7  148.75    7.91
   0  14  -6  347.73   12.94
   1 -21   7   -4.06    3.46
   1 -21   8   53.63    6.96
   1 -21   9   26.24    5.24
   1 -20   3   10.72    3.61
   1 -20   4  120.17   10.17
   1 -20   5   46.31    6.46
   1 -20   6   32.83    5.32
   1 -20   7  138.05   10.68
   1 -20   8   22.62    4.73
   1 -20   9   32.02    5.30
   1 -20  10  127.23    9.93
   1 -19   0   65.93    7.60
   1 -19   1   81.23    8.60
   1 -19   2   28.24    5.16
   1 -19   3   92.06    8.83
   1 -19   4   38.32    5.62
   1 -19   5   39.63    5.77
   1 -19   6  123.02    9.82
   1 -19   7   -0.06    2.79
   1 -19   8   59.32    6.79
   1 -19   9  153.63   10.74
   1 -19  10   -2.27    2.40
   1 -19  11  137.79    9.77
   1 -18  -3   70.91    8.23
   1 -18  -2   46.75    6.65
   1 -18  -1  101.21    9.07
   1 -18   0    8.54    3.73
   1 -18   1   71.39    7.55
   1 -18   2  168.04   11.68
   1 -18   3    4.28    3.18
   1 -18   4   35.40    5.32
   1 -18   5  154.48   10.66
   1 -18   6   -2.02    2.57
   1 -18   7   65.58    6.95
   1 -18   8  200.52   11.79
   1 -18   9   36.52    5.30
   1 -18  10  200.22   11.53
   1 -18  11   70.02    7.61
   1 -18  11   64.74    6.50
   1 -18  12   33.65    5.42
   1 -18  12   33.09    4.66
   1 -18  13  127.64   10.49
   1 -17  -5  133.69   10.95
   1 -17  -4   33.81    5.69
   1 -17  -3   79.05    8.25
   1 -17  -2  218.46   13.54
   1 -17  -1   17.04    4.15
   1 -17   0   84.16    8.11
   1 -17   1   97.45    8.71
   1 -17   2    1.68    2.23
   1 -17   3  147.77   10.33
   1 -17   4    2.55    2.48
   1 -17   5    3.64    2.66
   1 -17   6  117.34    8.85
   1 -17   7   76.52    6.95
   1 -17   8  101.29    7.88
   1 -17   9  239.26   12.29
   1 -17  10    5.02    2.39
   1 -17  11  102.40    8.99
   1 -17  11   96.87    7.56
   1 -17  12  151.94   11.22
   1 -17  12  155.49    9.27
   1 -17  13    0.54    2.45
   1 -17  14  117.37    9.88
   1 -17  15  106.46    9.77
   1 -17  16    1.77    1.86
   1 -17  17   61.17    6.72
   1 -16  -7  178.27   12.75
   1 -16  -6  325.38   17.31
   1 -16  -5    0.55    2.95
   1 -16  -4  109.87    9.59
   1 -16  -3  101.22    8.96
   1 -16  -2    6.64    3.50
   1 -16  -1  260.26   13.95
   1 -16   0  119.92    9.24
   1 -16   1   12.07    3.19
   1 -16   2  265.18   13.60
   1 -16   3   69.60    6.78
   1 -16   4  101.43    8.02
   1 -16   5  247.15   12.55
   1 -16   6  202.58   11.10
   1 -16   7   33.53    4.47
   1 -16   8  225.22   11.44
   1 -16   9    0.95    1.62
   1 -16  10   48.76    5.28
   1 -16  11  131.36    9.91
   1 -16  11  118.96    7.92
   1 -16  12    3.88    2.59
   1 -16  12    1.83    1.51
   1 -16  13  109.23    9.37
   1 -16  13  112.19    7.42
   1 -16  14   53.05    6.59
   1 -16  15   20.75    4.54
   1 -16  16  111.69    9.68
   1 -16  16  100.08    8.18
   1 -16  17    0.02    2.31
   1 -15  -9   16.30    4.11
   1 -15  -8  155.30   11.64
   1 -15  -7  232.44   14.08
   1 -15  -6   17.52    4.26
   1 -15  -5  272.49   14.74
   1 -15  -4  122.64    9.68
   1 -15  -3   58.80    6.63
   1 -15  -2  231.57   12.88
   1 -15  -1  160.03   10.56
   1 -15   0   76.56    7.14
   1 -15   1  236.19   12.38
   1 -15   2   75.29    6.86
   1 -15   3  153.09    9.60
   1 -15   4  246.40   12.07
   1 -15   5    4.97    2.37
   1 -15   6  226.76   11.32
   1 -15   7  472.53   16.79
   1 -15   8    1.60    1.80
   1 -15   9  287.65   12.43
   1 -15  10   14.11    2.90
   1 -15  11    1.32    2.09
   1 -15  11    1.17    1.27
   1 -15  12  146.65   10.44
   1 -15  12  145.54    8.31
   1 -15  13   33.12    5.39
   1 -15  13   32.76    4.02
   1 -15  14   30.58    5.18
   1 -15  15  191.93   12.45
   1 -15  16   28.32    5.03
   1 -15  16   25.02    4.12
   1 -15  17   47.49    6.68
   1 -15  17   47.36    5.58
   1 -14 -11  141.81   11.11
   1 -14 -10    1.67    2.26
   1 -14  -9   61.78    7.15
   1 -14  -8  154.37   11.27
   1 -14  -7   20.41    4.64
   1 -14  -6  402.15   17.90
   1 -14  -5   32.25    5.18
   1 -14  -4   73.74    7.22
   1 -14  -3   35.34    5.27
   1 -14  -2    9.07    3.02
   1 -14  -1  463.98   17.87
   1 -14   0  402.47   16.20
   1 -14   1    0.43    2.39
   1 -14   2  270.48   12.63
   1 -14   3  354.55   14.37
   1 -14   4   36.69    4.51
   1 -14   5  276.71   12.20
   1 -14   6  523.44   17.46
   1 -14   7  209.32   10.28
   1 -14   8  527.19   17.15
   1 -14   9  158.30    8.66
   1 -14  10  180.22   10.65
   1 -14  10  181.64    9.22
   1 -14  11  108.20    8.38
   1 -14  11  105.26    6.91
   1 -14  12    7.03    2.66
   1 -14  12    6.23    1.95
   1 -14  13   33.95    5.28
   1 -14  13   35.27    3.94
   1 -14  14  157.18   10.90
   1 -14  14  168.53    8.40
   1 -14  15    2.86    2.78
   1 -14  16  170.46   11.70
   1 -14  16  152.42    9.32
   1 -14  17  139.44   10.77
   1 -14  17  131.91    8.70
   1 -13 -12   33.36    5.40
   1 -13 -11   16.74    4.09
   1 -13 -10  168.28   11.64
   1 -13  -9  220.45   13.19
   1 -13  -8   35.85    5.36
   1 -13  -7  256.30   13.65
   1 -13  -6    0.78    2.04
   1 -13  -5  169.79   10.58
   1 -13  -4  226.75   12.10
   1 -13  -3    2.52    2.13
   1 -13  -2  259.16   12.55
   1 -13  -1  280.77   12.90
   1 -13   0    6.41    2.60
   1 -13   1  356.56   14.21
   1 -13   2  106.85    7.38
   1 -13   3   38.62    4.39
   1 -13   4  332.04   13.07
   1 -13   5   50.53    4.82
   1 -13   6  448.50   15.23
   1 -13   7  657.48   19.19
   1 -13   8   10.16    2.46
   1 -13   9  217.60    9.79
   1 -13  10  332.18   14.51
   1 -13  10  342.73   12.45
   1 -13  11   49.99    5.66
   1 -13  11   49.03    4.51
   1 -13  12  296.47   14.10
   1 -13  12  314.71   11.66
   1 -13  13   86.71    7.72
   1 -13  13  105.67    6.32
   1 -13  14   16.32    3.91
   1 -13  14   13.79    2.62
   1 -13  15  217.84   12.72
   1 -13  15  221.81   10.98
   1 -13  16  150.91   10.86
   1 -13  16  166.44    9.36
   1 -13  17    4.81    2.28
   1 -12 -14  103.92    9.18
   1 -12 -13   63.61    7.12
   1 -12 -12  104.18    8.99
   1 -12 -11  113.09    9.32
   1 -12 -10   75.46    7.52
   1 -12  -9  239.31   13.19
   1 -12  -8  303.01   14.66
   1 -12  -7    5.80    2.52
   1 -12  -6  133.76    9.15
   1 -12  -5  153.16    9.67
   1 -12  -4   14.24    3.31
   1 -12  -3  394.82   15.46
   1 -12  -2  100.90    7.40
   1 -12  -1   27.69    4.17
   1 -12   0  863.15   23.66
   1 -12   1  507.64   16.69
   1 -12   2    5.96    2.23
   1 -12   3  432.64   14.81
   1 -12   3  422.69   14.80
   1 -12   4  167.39    8.64
   1 -12   4  183.45    9.20
   1 -12   5  491.32   15.79
   1 -12   5  519.06   16.57
   1 -12   6   79.67    5.68
   1 -12   6   77.96    5.87
   1 -12   7   -0.90    1.30
   1 -12   7    0.85    1.37
   1 -12   8  136.22    7.30
   1 -12   8  141.21    8.09
   1 -12   9  381.71   14.82
   1 -12   9  378.95   12.84
   1 -12  10   21.72    3.66
   1 -12  10   22.18    2.96
   1 -12  11  357.75   15.03
   1 -12  11  401.44   12.90
   1 -12  12  114.16    8.29
   1 -12  12  120.34    6.61
   1 -12  13   86.86    7.38
   1 -12  13   83.35    5.44
   1 -12  14  137.69    9.59
   1 -12  14  143.34    7.08
   1 -12  15    8.50    2.82
   1 -12  15   16.43    2.41
   1 -12  15   14.15    2.95
   1 -12  16   75.02    7.63
   1 -12  16   73.88    5.90
   1 -12  17  261.80   11.36
   1 -11 -15  141.10   10.62
   1 -11 -14   63.31    7.05
   1 -11 -13   36.04    5.34
   1 -11 -12  110.50    8.95
   1 -11 -11   -0.68    2.25
   1 -11 -10  133.56    9.52
   1 -11  -9  150.90    9.99
   1 -11  -8   30.23    4.45
   1 -11  -7  234.35   12.08
   1 -11  -6   85.00    6.97
   1 -11  -5   32.17    4.25
   1 -11  -4  318.77   13.38
   1 -11  -3  154.47    8.85
   1 -11  -2  140.41    8.36
   1 -11  -1  217.97   10.21
   1 -11   0   86.17    6.27
   1 -11   1  323.53   12.35
   1 -11   2  955.26   23.87
   1 -11   3   27.03    3.57
   1 -11   3   31.18    3.70
   1 -11   3   25.30    3.37
   1 -11   4  250.50   10.91
   1 -11   4  237.78    9.99
   1 -11   4  257.42   10.58
   1 -11   5  409.71   14.03
   1 -11   5  390.24   12.98
   1 -11   5  373.11   13.31
   1 -11   6  205.45    9.44
   1 -11   6  210.51    8.93
   1 -11   6  202.57    9.34
   1 -11   7   63.61    5.03
   1 -11   7   62.62    4.69
   1 -11   7   67.83    5.29
   1 -11   8   21.43    2.90
   1 -11   8   29.85    3.51
   1 -11   8   25.38    2.95
   1 -11   9    0.73    1.18
   1 -11   9    2.71    1.50
   1 -11   9    1.98    1.70
   1 -11   9   -0.42    1.01
   1 -11  10  374.71   14.59
   1 -11  10  368.82   13.24
   1 -11  10  383.79   12.28
   1 -11  10  388.18   13.89
   1 -11  11   41.27    4.40
   1 -11  11   37.54    4.56
   1 -11  11   29.32    3.15
   1 -11  12  115.97    8.17
   1 -11  12  116.00    6.23
   1 -11  13  453.69   17.47
   1 -11  13  463.33   13.57
   1 -11  14   25.22    4.05
   1 -11  14   26.22    3.04
   1 -11  15   92.37    7.94
   1 -11  15   90.99    5.31
   1 -11  15   94.99    6.40
   1 -11  16   90.97    6.18
   1 -11  17    1.03    1.54
   1 -10 -16  149.75   10.85
   1 -10 -15   12.95    3.33
   1 -10 -14   57.06    6.32
   1 -10 -13  121.29    9.17
   1 -10 -12   35.61    5.08
   1 -10 -11  128.85    9.12
   1 -10 -10   45.39    5.52
   1 -10  -9  132.42    8.92
   1 -10  -8  488.31   17.70
   1 -10  -7   59.47    5.77
   1 -10  -6   88.41    6.78
   1 -10  -5   82.58    6.43
   1 -10  -4   42.22    4.54
   1 -10  -3  467.63   15.70
   1 -10  -2  384.93   13.71
   1 -10  -1    3.24    1.79
   1 -10   0  515.54   15.81
   1 -10   1  377.86   12.93
   1 -10   2   60.58    4.75
   1 -10   3  254.98   10.51
   1 -10   3  244.90    9.77
   1 -10   3  254.15   10.13
   1 -10   4  434.63   14.26
   1 -10   4  421.50   13.19
   1 -10   4  423.01   13.70
   1 -10   5  940.38   22.80
   1 -10   5  892.90   21.38
   1 -10   5  885.32   22.25
   1 -10   6  619.36   17.20
   1 -10   6  596.30   16.05
   1 -10   6  601.25   17.16
   1 -10   7   11.74    2.15
   1 -10   7   13.64    2.28
   1 -10   7   10.91    2.02
   1 -10   8  103.63    6.74
   1 -10   8   96.21    5.98
   1 -10   8  104.31    5.69
   1 -10   8  104.92    6.42
   1 -10   9  165.32    8.82
   1 -10   9  157.85    7.82
   1 -10   9  156.34    7.06
   1 -10   9  165.84    8.33
   1 -10  10   68.12    5.78
   1 -10  10   76.51    5.35
   1 -10  10   67.65    4.55
   1 -10  10   70.84    5.45
   1 -10  11  122.92    7.34
   1 -10  11  120.43    7.90
   1 -10  11  108.27    5.77
   1 -10  11  108.89    6.54
   1 -10  12  497.74   17.66
   1 -10  12  500.85   16.44
   1 -10  12  472.95   15.21
   1 -10  12  509.47   13.95
   1 -10  13    1.98    1.91
   1 -10  13    2.86    1.53
   1 -10  13    1.77    1.49
   1 -10  14  133.84    9.24
   1 -10  14  146.25    6.63
   1 -10  14  129.01    7.10
   1 -10  15  159.24    7.00
   1 -10  15  155.80    7.79
   1 -10  16    1.81    1.42
   1  -9 -17   83.16    8.62
   1  -9 -17   78.50    7.89
   1  -9 -16   -0.22    2.48
   1  -9 -15  243.57   13.14
   1  -9 -14  117.08    8.84
   1  -9 -13   12.79    3.26
   1  -9 -12  273.61   13.17
   1  -9 -11  140.18    9.17
   1  -9 -10  203.47   10.94
   1  -9  -9  423.37   16.01
   1  -9  -8    4.68    2.01
   1  -9  -7  171.16    9.25
   1  -9  -6  416.03   14.82
   1  -9  -5   11.72    2.75
   1  -9  -4  474.56   15.47
   1  -9  -3  685.88   19.11
   1  -9  -2   11.23    2.36
   1  -9  -1  676.72   18.30
   1  -9   0   66.28    4.94
   1  -9   1  333.61   11.44
   1  -9   2  340.60   11.38
   1  -9   3  788.89   18.98
   1  -9   3  749.17   19.21
   1  -9   4  826.22   20.40
   1  -9   4  765.42   18.77
   1  -9   4  776.78   19.57
   1  -9   5  438.42   13.45
   1  -9   5  429.02   12.54
   1  -9   5  428.00   13.33
   1  -9   6   36.21    3.51
   1  -9   6   33.38    3.12
   1  -9   6   34.08    3.51
   1  -9   7  108.97    6.04
   1  -9   7  118.11    5.76
   1  -9   7  120.03    6.66
   1  -9   8  330.19   12.33
   1  -9   8  319.25   11.05
   1  -9   8  332.04   10.40
   1  -9   8  331.21   11.70
   1  -9   9   -0.33    1.16
   1  -9   9    0.24    1.29
   1  -9   9    1.67    1.28
   1  -9   9    0.88    1.09
   1  -9  10  131.67    7.27
   1  -9  10  147.24    8.27
   1  -9  10  133.94    6.16
   1  -9  10  128.17    6.75
   1  -9  11  201.53    9.34
   1  -9  11  194.86    9.98
   1  -9  11  207.30    7.84
   1  -9  11  186.36    8.39
   1  -9  12   27.86    3.54
   1  -9  12   29.98    2.99
   1  -9  12   36.01    3.65
   1  -9  12   30.55    4.09
   1  -9  13  351.65   13.46
   1  -9  13  367.96   14.94
   1  -9  13  357.60   12.46
   1  -9  13  360.14   11.14
   1  -9  14  266.55   10.68
   1  -9  14  259.78    9.22
   1  -9  14  290.39   10.35
   1  -9  15    1.56    1.35
   1  -9  15   -1.23    1.34
   1  -9  15    0.59    1.10
   1  -9  16  193.61    7.93
   1  -9  16  225.17    8.78
   1  -8 -18   39.10    6.46
   1  -8 -17   21.39    4.34
   1  -8 -17   19.61    4.32
   1  -8 -16  159.61   10.37
   1  -8 -15   15.17    3.58
   1  -8 -14  153.19    9.74
   1  -8 -13  186.77   10.50
   1  -8 -12   35.67    4.71
   1  -8 -11  606.15   19.62
   1  -8 -10  240.17   11.39
   1  -8  -9   28.78    4.04
   1  -8  -8  310.96   12.55
   1  -8  -7  369.31   13.50
   1  -8  -6   -0.71    1.63
   1  -8  -5 1581.75   34.04
   1  -8  -4  593.52   17.08
   1  -8  -3    0.74    1.42
   1  -8  -2 1555.37   32.27
   1  -8  -1  242.16    9.40
   1  -8   0  122.69    6.40
   1  -8   1  599.05   15.67
   1  -8   2    2.97    1.39
   1  -8   3 1578.23   30.89
   1  -8   3 1559.59   31.56
   1  -8   4  201.12    8.26
   1  -8   4  198.33    7.57
   1  -8   4  189.65    7.94
   1  -8   5   36.00    3.27
   1  -8   5   42.56    3.33
   1  -8   5   42.21    3.67
   1  -8   6  682.77   16.97
   1  -8   6  692.54   16.25
   1  -8   6  669.68   17.46
   1  -8   7  354.56   12.26
   1  -8   7  355.62   11.08
   1  -8   7  367.69   10.57
   1  -8   7  352.18   11.69
   1  -8   8    0.75    1.16
   1  -8   8    1.20    1.28
   1  -8   8    0.16    1.25
   1  -8   8    0.58    1.09
   1  -8   9  510.61   15.07
   1  -8   9  535.54   16.14
   1  -8   9  529.33   14.22
   1  -8  10  371.94   12.83
   1  -8  10  382.97   13.74
   1  -8  10  389.59   11.13
   1  -8  10  376.92   11.86
   1  -8  11   50.69    4.94
   1  -8  11   39.21    4.02
   1  -8  11   48.14    3.59
   1  -8  11   52.67    4.10
   1  -8  12  280.72   11.30
   1  -8  12  281.42   12.28
   1  -8  12  272.19   10.07
   1  -8  12  263.14    8.99
   1  -8  13  112.00    7.09
   1  -8  13  110.10    6.24
   1  -8  13  106.40    5.45
   1  -8  13  120.23    6.00
   1  -8  14   17.23    2.56
   1  -8  14   21.91    2.67
   1  -8  14   23.25    2.67
   1  -8  15  204.00    9.14
   1  -8  15  213.85    8.15
   1  -8  15  215.26    8.29
   1  -8  15  231.18    8.43
   1  -8  16   -0.69    1.41
   1  -8  16    0.24    1.36
   1  -7 -18   70.83    7.70
   1  -7 -18   58.68    6.42
   1  -7 -17  139.99   10.46
   1  -7 -17  152.49   10.04
   1  -7 -16   24.89    4.79
   1  -7 -16   26.18    4.48
   1  -7 -15  120.79    8.48
   1  -7 -14  134.17    8.66
   1  -7 -13    4.71    2.24
   1  -7 -12  288.48   12.48
   1  -7 -11  167.46    9.07
   1  -7 -10   69.31    5.75
   1  -7  -9  117.16    7.59
   1  -7  -8  262.22   10.91
   1  -7  -7   76.33    5.55
   1  -7  -6  892.09   22.16
   1  -7  -5   37.85    3.90
   1  -7  -4  549.83   15.51
   1  -7  -3  658.52   17.14
   1  -7  -2   15.96    2.59
   1  -7  -1 1311.38   27.30
   1  -7   0  371.31   11.16
   1  -7   1  444.70   12.25
   1  -7   2 1430.07   28.18
   1  -7   2 1444.14   28.75
   1  -7   3  440.72   11.83
   1  -7   3  445.38   12.47
   1  -7   4  211.99    8.01
   1  -7   4  225.68    7.66
   1  -7   4  218.26    8.17
   1  -7   5  177.23    7.08
   1  -7   5  186.54    6.79
   1  -7   5  183.84    7.49
   1  -7   6  209.19    8.45
   1  -7   6  199.16    7.40
   1  -7   6  180.85    6.84
   1  -7   6  208.65    8.09
   1  -7   7  509.79   15.02
   1  -7   7  518.96   13.58
   1  -7   7  553.72   13.33
   1  -7   7  527.93   14.63
   1  -7   8  590.50   16.66
   1  -7   8  569.45   14.57
   1  -7   8  587.80   14.17
   1  -7   8  587.24   15.93
   1  -7   9  133.54    6.15
   1  -7   9  133.21    6.92
   1  -7   9  140.12    7.48
   1  -7  10  259.49    9.02
   1  -7  10  245.74   10.60
   1  -7  10  257.22   10.15
   1  -7  11  623.29   16.12
   1  -7  11  650.89   18.04
   1  -7  11  651.10   19.17
   1  -7  12    5.37    1.54
   1  -7  12    6.52    2.10
   1  -7  13  320.13   10.89
   1  -7  13  337.57   12.73
   1  -7  13  335.88   10.09
   1  -7  14  226.65    9.09
   1  -7  14  233.84    8.04
   1  -7  15    0.45    1.30
   1  -7  15    1.20    1.00
   1  -6 -19   39.97    5.90
   1  -6 -18  107.44    9.15
   1  -6 -18  117.28    8.67
   1  -6 -17    0.61    2.27
   1  -6 -17    1.01    1.73
   1  -6 -17    1.51    2.48
   1  -6 -16   62.66    6.84
   1  -6 -16   68.49    6.20
   1  -6 -15   91.92    7.00
   1  -6 -14   30.01    4.28
   1  -6 -13  214.37   10.36
   1  -6 -12   33.70    4.00
   1  -6 -11  184.87    9.17
   1  -6 -10  685.21   19.30
   1  -6  -9   67.62    5.20
   1  -6  -8   18.44    2.81
   1  -6  -7  335.17   11.61
   1  -6  -6  199.79    8.48
   1  -6  -5 1025.75   23.23
   1  -6  -4  749.76   18.22
   1  -6  -3    4.54    1.83
   1  -6  -2  989.87   21.52
   1  -6  -1  367.97   10.75
   1  -6   0  296.41    9.15
   1  -6   1  866.28   18.59
   1  -6   2   72.17    4.04
   1  -6   2   76.71    4.31
   1  -6   3 1872.28   33.66
   1  -6   3 1843.29   34.49
   1  -6   4 1431.68   27.44
   1  -6   4 1351.40   26.45
   1  -6   4 1435.08   27.76
   1  -6   5  132.39    5.56
   1  -6   5  129.76    5.25
   1  -6   5  127.55    5.90
   1  -6   6  404.75   10.72
   1  -6   6  405.18   12.19
   1  -6   6  389.54   11.55
   1  -6   7  949.84   19.88
   1  -6   7  968.52   22.20
   1  -6   7  939.61   21.36
   1  -6   8   18.63    2.19
   1  -6   8   20.50    2.96
   1  -6   8   20.63    2.63
   1  -6   9  447.98   12.02
   1  -6   9  465.03   14.58
   1  -6   9  475.88   13.90
   1  -6  10  981.68   21.31
   1  -6  10 1046.50   23.92
   1  -6  10 1008.65   24.84
   1  -6  11   14.28    2.07
   1  -6  11   12.26    2.39
   1  -6  12  310.42   10.07
   1  -6  12  319.68   11.94
   1  -6  12  305.50    8.98
   1  -6  13  136.48    6.46
   1  -6  13  140.15    7.88
   1  -6  13  147.36    5.72
   1  -6  14   46.33    3.77
   1  -6  14   52.87    3.24
   1  -6  15  338.13   11.03
   1  -5 -19  100.34    9.03
   1  -5 -18    4.79    2.77
   1  -5 -18    4.60    3.51
   1  -5 -17  229.58   12.59
   1  -5 -17  239.46   11.95
   1  -5 -16   60.95    6.33
   1  -5 -16   60.00    5.52
   1  -5 -16   56.66    5.57
   1  -5 -15   21.32    3.78
   1  -5 -15   19.16    3.38
   1  -5 -14  162.64    8.73
   1  -5 -13  198.47    9.45
   1  -5 -12  322.41   12.08
   1  -5 -11  488.93   15.23
   1  -5 -10   23.65    3.18
   1  -5  -9   39.14    3.85
   1  -5  -8  155.30    7.33
   1  -5  -7   60.93    4.40
   1  -5  -6  604.03   15.67
   1  -5  -5  670.85   16.65
   1  -5  -4  105.06    5.31
   1  -5  -3 2099.55   38.25
   1  -5  -2  286.60    8.83
   1  -5  -1  155.58    6.04
   1  -5   0  445.57   11.20
   1  -5   1  330.43    9.08
   1  -5   1  333.61    9.30
   1  -5   2 2885.11   48.42
   1  -5   2 2838.68   49.03
   1  -5   3  159.09    5.64
   1  -5   3  152.01    5.95
   1  -5   4  342.70    9.20
   1  -5   4  337.62    9.78
   1  -5   5    7.21    1.37
   1  -5   5    3.74    1.55
   1  -5   5    5.70    1.51
   1  -5   6 1122.83   22.00
   1  -5   6 1191.31   24.67
   1  -5   6 1158.51   23.92
   1  -5   7   78.01    3.88
   1  -5   7   80.64    4.77
   1  -5   7   81.14    5.06
   1  -5   8  408.93   10.49
   1  -5   8  398.71   12.76
   1  -5   8  411.58   12.28
   1  -5   9  122.93    5.21
   1  -5   9  122.51    6.87
   1  -5   9  128.88    6.57
   1  -5  10  229.94    7.65
   1  -5  10  234.42    9.38
   1  -5  11  580.62   14.45
   1  -5  11  623.78   17.31
   1  -5  11  615.20   13.41
   1  -5  12  199.88    7.46
   1  -5  12  205.52    9.34
   1  -5  12  197.03    6.26
   1  -5  13  135.26    7.69
   1  -5  13  125.70    6.07
   1  -5  13  132.30    4.82
   1  -5  14  388.89   11.88
   1  -5  15   28.41    3.27
   1  -4 -19   22.17    4.48
   1  -4 -19   16.30    3.81
   1  -4 -18  156.29   10.37
   1  -4 -18  156.15    9.73
   1  -4 -17   -0.52    2.15
   1  -4 -17    2.23    2.22
   1  -4 -16  132.70    8.93
   1  -4 -16  150.25    8.28
   1  -4 -16  164.05    9.29
   1  -4 -15  141.57    8.81
   1  -4 -15  139.39    7.86
   1  -4 -15  141.18    8.36
   1  -4 -14   26.38    3.80
   1  -4 -14   28.99    3.62
   1  -4 -13  179.59    8.51
   1  -4 -12  350.71   12.10
   1  -4 -11    1.65    1.30
   1  -4 -10  227.71    9.02
   1  -4  -9  343.65   11.22
   1  -4  -8   24.17    2.81
   1  -4  -7  940.08   20.84
   1  -4  -6  156.71    6.49
   1  -4  -5   80.13    4.42
   1  -4  -4  858.23   18.40
   1  -4  -3  254.43    7.92
   1  -4  -2   43.83    2.94
   1  -4  -1  738.97   15.50
   1  -4   0   41.61    2.73
   1  -4   1 3276.02   54.25
   1  -4   1 3307.94   54.63
   1  -4   2  186.16    5.89
   1  -4   2  187.07    6.22
   1  -4   3  461.09   11.28
   1  -4   4  172.07    5.43
   1  -4   4  179.62    6.58
   1  -4   4  163.14    6.15
   1  -4   5 1466.06   25.69
   1  -4   5 1442.26   28.20
   1  -4   5 1415.76   27.65
   1  -4   6  162.38    5.24
   1  -4   6  157.85    6.49
   1  -4   6  163.93    6.90
   1  -4   7  664.60   13.94
   1  -4   7  657.13   16.22
   1  -4   7  694.84   17.16
   1  -4   8  233.23    6.97
   1  -4   8  248.50    9.57
   1  -4   8  247.34    8.96
   1  -4   9  182.75    6.17
   1  -4   9  195.75    8.13
   1  -4  10  335.31    9.39
   1  -4  10  365.55   12.08
   1  -4  10  346.66    8.32
   1  -4  11   84.09    5.64
   1  -4  11   80.53    4.56
   1  -4  11   84.21    3.39
   1  -4  12  108.59    6.69
   1  -4  12   98.58    5.33
   1  -4  12  108.42    3.79
   1  -4  13  264.19   11.13
   1  -4  13  257.71    9.27
   1  -4  14   12.67    2.27
   1  -4  15   91.51    5.63
   1  -3 -19  153.71   10.33
   1  -3 -19  152.27    9.61
   1  -3 -18    4.03    2.79
   1  -3 -18    1.88    2.89
   1  -3 -17  244.04   12.24
   1  -3 -17  244.76   11.67
   1  -3 -16   75.31    6.45
   1  -3 -16   89.34    6.64
   1  -3 -15    1.67    1.65
   1  -3 -15    1.11    1.70
   1  -3 -15   -1.33    1.55
   1  -3 -14  317.20   12.80
   1  -3 -14  341.71   12.90
   1  -3 -14  326.47   11.62
   1  -3 -14  347.98    9.50
   1  -3 -13   96.80    6.48
   1  -3 -13   93.83    5.72
   1  -3 -12   14.91    2.29
   1  -3 -11  180.73    7.63
   1  -3 -10  580.70   15.11
   1  -3  -9  213.02    7.96
   1  -3  -8  499.94   13.05
   1  -3  -7   44.56    3.28
   1  -3  -6  802.57   17.37
   1  -3  -5  545.92   12.83
   1  -3  -4   49.53    3.12
   1  -3  -3   29.32    2.34
   1  -3  -2    6.47    1.45
   1  -3  -1   65.30    3.14
   1  -3   0 1207.47   21.77
   1  -3   0 1188.62   21.84
   1  -3   1    3.82    1.16
   1  -3   2    9.89    1.55
   1  -3   3  542.67   11.18
   1  -3   3  574.90   12.76
   1  -3   3  558.79   12.56
   1  -3   4  530.92   10.70
   1  -3   4  555.36   12.77
   1  -3   4  544.34   12.98
   1  -3   5   68.95    2.79
   1  -3   5   63.19    4.01
   1  -3   5   65.22    3.84
   1  -3   6  504.22   10.51
   1  -3   6  511.14   13.07
   1  -3   6  512.06   13.47
   1  -3   7  132.70    4.45
   1  -3   7  148.17    6.40
   1  -3   8  670.98   13.80
   1  -3   8  678.05   16.91
   1  -3   9  339.45   11.35
   1  -3   9  346.45    7.55
   1  -3  10   20.35    2.79
   1  -3  10   18.14    2.26
   1  -3  10   19.85    1.36
   1  -3  11  451.23   14.27
   1  -3  11  437.44   12.38
   1  -3  12  349.43   10.98
   1  -3  13    1.77    1.47
   1  -3  14  360.05   11.95
   1  -3  15   89.44    5.77
   1  -3  16   11.36    2.66
   1  -2 -19    7.06    2.66
   1  -2 -19    7.31    2.79
   1  -2 -18  116.59    7.98
   1  -2 -18  125.13    8.57
   1  -2 -17  177.52    9.68
   1  -2 -17  172.41    9.87
   1  -2 -16  123.84    7.81
   1  -2 -16  112.94    7.62
   1  -2 -15  290.48   12.00
   1  -2 -15  278.30   11.87
   1  -2 -15  301.02    8.45
   1  -2 -14   20.71    3.24
   1  -2 -14   25.08    3.44
   1  -2 -14   22.37    2.86
   1  -2 -14   21.85    2.11
   1  -2 -13  124.13    7.10
   1  -2 -13  129.27    7.23
   1  -2 -13  125.92    6.20
   1  -2 -13  124.58    5.11
   1  -2 -12  481.14   14.73
   1  -2 -12  499.66   15.07
   1  -2 -12  521.99   13.83
   1  -2 -11   83.21    4.67
   1  -2 -10  168.42    6.62
   1  -2  -9 1248.49   24.72
   1  -2  -8    7.55    1.50
   1  -2  -7  712.09   15.45
   1  -2  -6  381.92    9.66
   1  -2  -5  867.46   17.13
   1  -2  -4 3417.26   55.74
   1  -2  -3 1431.29   25.08
   1  -2  -2   28.00    1.98
   1  -2  -1  563.41   11.30
   1  -2   0 1260.87   22.13
   1  -2   1  944.30   17.55
   1  -2   2  220.90    6.24
   1  -2   2  216.93    6.22
   1  -2   3  520.63    9.73
   1  -2   3  529.77   11.85
   1  -2   3  540.05   12.00
   1  -2   4  288.52    5.93
   1  -2   4  273.22    8.03
   1  -2   4  281.34    8.34
   1  -2   5  458.21    8.87
   1  -2   5  461.80   11.69
   1  -2   6   17.69    1.33
   1  -2   6   15.55    2.15
   1  -2   7  596.11   15.06
   1  -2   8  873.12   20.24
   1  -2   8  872.00   14.73
   1  -2   9  115.09    6.27
   1  -2   9  118.88    5.48
   1  -2  10   65.88    4.22
   1  -2  11   59.94    4.19
   1  -2  12   92.70    5.46
   1  -2  13  535.29   15.28
   1  -2  14  159.74    7.85
   1  -2  15  159.43    8.11
   1  -2  16  133.34    7.55
   1  -1 -20    8.28    2.89
   1  -1 -19  165.56    9.89
   1  -1 -19  171.18   10.21
   1  -1 -18   58.91    5.75
   1  -1 -18   46.84    4.93
   1  -1 -17   16.94    3.15
   1  -1 -17   16.61    3.19
   1  -1 -16  322.14   12.84
   1  -1 -16  321.56   12.89
   1  -1 -15   26.50    3.64
   1  -1 -15   22.94    3.38
   1  -1 -15   28.45    2.40
   1  -1 -14  524.67   16.43
   1  -1 -14  531.12   16.24
   1  -1 -14  562.09   12.93
   1  -1 -13  338.42   11.79
   1  -1 -13  333.17   12.03
   1  -1 -13  339.50   10.21
   1  -1 -13  336.21    9.24
   1  -1 -12   10.15    2.16
   1  -1 -12    7.06    2.05
   1  -1 -12    6.98    1.47
   1  -1 -12    6.60    1.26
   1  -1 -11  289.54    9.83
   1  -1 -11  283.83   10.23
   1  -1 -11  284.64    8.67
   1  -1 -11  276.76    8.07
   1  -1 -10  358.76   10.81
   1  -1 -10  367.91   11.53
   1  -1 -10  371.27    9.88
   1  -1  -9    4.05    1.18
   1  -1  -8 1898.22   33.33
   1  -1  -7  287.93    7.65
   1  -1  -6  569.98   11.95
   1  -1  -5 3937.97   62.92
   1  -1  -4  218.05    5.61
   1  -1  -3  193.44    4.97
   1  -1  -2  854.62   15.24
   1  -1  -1  441.48    8.70
   1  -1   0  904.72   16.12
   1  -1   1  373.87    8.28
   1  -1   1  370.84    8.03
   1  -1   2   54.97    2.81
   1  -1   2   53.67    2.76
   1  -1   3    6.92    1.37
   1  -1   4 2142.67   37.53
   1  -1   5  350.75    9.83
   1  -1   6  998.48   21.17
   1  -1   7  254.79    8.93
   1  -1   7  264.10    8.18
   1  -1   8  270.52    8.69
   1  -1   9  635.06   15.62
   1  -1  10  144.35    6.58
   1  -1  11   60.21    4.39
   1  -1  12  174.50    7.90
   1  -1  13   36.47    3.82
   1  -1  14  214.68    9.57
   1  -1  15   96.29    6.48
   1   0 -20  144.00    9.28
   1   0 -19   27.46    4.17
   1   0 -19   33.92    4.51
   1   0 -18   16.23    3.13
   1   0 -18   18.67    3.17
   1   0 -17  105.25    7.36
   1   0 -17  110.10    7.23
   1   0 -16   44.29    4.52
   1   0 -16   43.04    4.41
   1   0 -15  210.53    9.82
   1   0 -15  224.26    9.80
   1   0 -14  238.78   10.18
   1   0 -14  250.62   11.16
   1   0 -14  252.12    9.99
   1   0 -14  251.85    7.78
   1   0 -13   18.66    2.82
   1   0 -13   17.37    2.61
   1   0 -13   18.91    1.99
   1   0 -12  139.78    7.07
   1   0 -12  146.35    6.74
   1   0 -12  135.99    5.35
   1   0 -11  201.67    7.67
   1   0 -11  203.12    8.37
   1   0 -11  200.12    6.42
   1   0 -11  200.14    6.60
   1   0 -10   87.51    4.59
   1   0 -10   95.43    5.32
   1   0 -10   87.81    3.84
   1   0 -10   87.61    4.04
   1   0  -9 1588.74   29.53
   1   0  -9 1610.78   31.25
   1   0  -9 1595.57   27.98
   1   0  -9 1591.30   28.78
   1   0  -8    8.39    1.50
   1   0  -8    4.72    1.51
   1   0  -8    7.84    1.14
   1   0  -7  871.52   18.75
   1   0  -7  888.42   16.33
   1   0  -6  458.58   11.40
   1   0  -6  457.31    9.31
   1   0  -5   32.13    2.49
   1   0  -5   30.33    1.63
   1   0  -4 2602.53   41.29
   1   0  -3 3003.21   47.21
   1   0  -2  509.43    8.92
   1   0  -1 2630.62   41.49
   1   0   0  215.95    4.77
   1   0   0  209.60    5.12
   1   0   0  218.62    4.66
   1   0   1  442.14    9.38
   1   0   2 2052.42   34.84
   1   0   3  201.95    6.33
   1   0   4   96.63    4.46
   1   0   5  630.11   14.90
   1   0   5  641.87   14.19
   1   0   6   75.79    4.10
   1   0   7  836.78   18.37
   1   0   8  645.81   15.76
   1   0   9   89.52    5.09
   1   0  10  243.96    9.17
   1   0  11  221.49    9.08
   1   0  12    7.91    1.97
   1   0  13  161.13    8.22
   1   0  14  174.68    8.77
   1   0  15   18.32    3.12
   1   1 -20    1.32    2.15
   1   1 -19   68.16    6.23
   1   1 -19   70.89    6.14
   1   1 -18  101.20    7.37
   1   1 -18  102.14    7.01
   1   1 -17   22.81    3.60
   1   1 -17   16.32    3.09
   1   1 -16  288.16   12.01
   1   1 -16  280.58   11.21
   1   1 -15   99.65    6.62
   1   1 -15  112.21    6.50
   1   1 -14    3.06    1.39
   1   1 -14    0.48    1.41
   1   1 -14    2.37    1.35
   1   1 -13  357.14   12.24
   1   1 -13  347.97   11.19
   1   1 -13  349.35   12.63
   1   1 -13  338.27    9.61
   1   1 -12  213.18    8.87
   1   1 -12  214.54    9.16
   1   1 -12  214.29    8.03
   1   1 -12  221.00    7.20
   1   1 -11  241.43    9.19
   1   1 -11  243.46    9.41
   1   1 -11  250.66    8.29
   1   1 -11  245.16    7.58
   1   1 -10  750.11   17.93
   1   1 -10  735.87   17.80
   1   1 -10  743.63   16.21
   1   1 -10  711.09   15.59
   1   1  -9    2.98    1.11
   1   1  -9    1.10    1.15
   1   1  -9    1.18    0.54
   1   1  -9    1.07    1.07
   1   1  -8  718.09   14.37
   1   1  -8  703.65   16.29
   1   1  -8  689.91   12.70
   1   1  -8  689.70   14.73
   1   1  -7  444.62    9.69
   1   1  -7  473.95   11.82
   1   1  -7  451.33    8.53
   1   1  -7  445.59   10.56
   1   1  -6  109.96    3.47
   1   1  -6  123.30    5.06
   1   1  -6  121.63    3.00
   1   1  -6  114.20    4.36
   1   1  -5  252.41    7.27
   1   1  -5  234.87    5.01
   1   1  -5  235.65    6.51
   1   1  -4  316.63    8.01
   1   1  -4  303.29    6.35
   1   1  -4  302.58    7.51
   1   1  -3 1266.07   22.66
   1   1  -3 1273.23   22.39
   1   1  -2 1372.10   23.19
   1   1  -2 1304.88   23.13
   1   1  -1  224.89    5.32
   1   1  -1  220.10    4.83
   1   1  -1  217.08    5.51
   1   1   0    4.28    0.73
   1   1   0    5.16    0.91
   1   1   0    3.33    0.79
   1   1   1 3745.76   57.83
   1   1   1 3690.05   58.53
   1   1   2   22.14    1.89
   1   1   2   22.97    1.31
   1   1   3 1943.51   33.85
   1   1   3 1931.60   30.89
   1   1   4  865.14   17.92
   1   1   5  508.44   12.54
   1   1   6 1461.74   28.38
   1   1   7 1092.39   23.12
   1   1   8   39.98    3.44
   1   1   9  980.63   22.45
   1   1  10  656.24   17.53
   1   1  11   -1.42    1.48
   1   1  12  281.15   11.19
   1   1  13   29.86    3.72
   1   1  14   55.68    5.13
   1   2 -20  148.85    9.54
   1   2 -19  112.20    7.99
   1   2 -18    3.39    1.86
   1   2 -18    6.91    2.07
   1   2 -17  104.74    7.17
   1   2 -17  103.07    6.59
   1   2 -16   66.82    5.57
   1   2 -16   66.60    5.08
   1   2 -15  101.67    6.66
   1   2 -15  101.64    5.99
   1   2 -14  347.45   12.47
   1   2 -14  324.30   12.57
   1   2 -14  332.38   11.06
   1   2 -13   34.77    3.76
   1   2 -13   36.43    3.86
   1   2 -13   41.18    3.49
   1   2 -12  208.97    8.85
   1   2 -12  208.01    8.91
   1   2 -12  220.10    7.81
   1   2 -11  569.09   15.46
   1   2 -11  548.91   15.18
   1   2 -11  559.47   13.50
   1   2 -11  564.54   13.38
   1   2 -10    6.87    1.87
   1   2 -10    3.87    1.34
   1   2 -10    4.19    1.21
   1   2 -10    5.06    1.38
   1   2  -9  468.52   12.86
   1   2  -9  464.30   12.26
   1   2  -9  462.36   10.69
   1   2  -9  464.29   11.39
   1   2  -8 1172.15   23.76
   1   2  -8 1135.00   22.59
   1   2  -8 1149.14   20.80
   1   2  -8 1148.12   22.14
   1   2  -7   39.51    3.10
   1   2  -7   38.08    2.01
   1   2  -7   42.12    2.70
   1   2  -7   39.89    2.69
   1   2  -6 1053.35   20.64
   1   2  -6  994.78   18.79
   1   2  -6  998.69   19.53
   1   2  -6 1016.38   17.17
   1   2  -5  890.94   17.74
   1   2  -5  852.56   15.70
   1   2  -5  860.57   16.98
   1   2  -4    7.67    1.54
   1   2  -4    6.52    1.26
   1   2  -3 1399.49   24.43
   1   2  -3 1357.36   22.20
   1   2  -3 1328.69   24.12
   1   2  -2  526.03   10.99
   1   2  -2  524.98   10.05
   1   2  -2  527.55   11.01
   1   2  -1    2.54    0.93
   1   2  -1    3.68    0.94
   1   2  -1    3.17    0.94
   1   2   0  236.19    5.70
   1   2   0  233.82    6.22
   1   2   0  232.93    5.90
   1   2   1 1837.03   30.75
   1   2   1 1898.95   32.28
   1   2   2 2762.36   46.49
   1   2   3  155.67    5.79
   1   2   4  181.60    6.65
   1   2   5 1120.68   23.03
   1   2   6  170.15    7.00
   1   2   7  121.44    6.08
   1   2   8  405.89   12.60
   1   2   9  309.03   11.11
   1   2  10   40.25    3.99
   1   2  11  505.71   15.80
   1   2  12   91.03    6.35
   1   2  13  190.10    9.57
   1   3 -21   85.23    7.42
   1   3 -20   12.48    3.19
   1   3 -19   41.39    4.89
   1   3 -18  198.01   10.43
   1   3 -18  219.26    9.83
   1   3 -17   11.67    2.83
   1   3 -17   12.38    2.42
   1   3 -16  129.29    7.92
   1   3 -16  154.25    7.53
   1   3 -15  351.29   13.19
   1   3 -15  365.97   13.77
   1   3 -15  372.43   11.89
   1   3 -14    3.90    1.80
   1   3 -14    4.50    1.74
   1   3 -14    5.94    1.74
   1   3 -13  237.60    9.85
   1   3 -13  246.15   10.09
   1   3 -13  245.63    8.53
   1   3 -12  292.00   10.69
   1   3 -12  283.29   10.45
   1   3 -12  291.53    8.96
   1   3 -11    1.83    1.60
   1   3 -11    1.57    1.40
   1   3 -11    0.73    0.90
   1   3 -10  763.99   18.57
   1   3 -10  762.06   17.94
   1   3 -10  775.15   15.94
   1   3  -9  247.90    8.74
   1   3  -9  229.49    7.88
   1   3  -9  240.85    6.63
   1   3  -8    2.36    1.46
   1   3  -8    1.31    0.74
   1   3  -8    0.96    0.94
   1   3  -7 1038.43   21.84
   1   3  -7 1074.61   20.40
   1   3  -7 1042.69   20.91
   1   3  -7 1065.90   18.41
   1   3  -6  969.47   19.44
   1   3  -6  865.85   18.21
   1   3  -6  911.98   15.51
   1   3  -5  102.23    4.59
   1   3  -5   90.76    4.10
   1   3  -4   15.26    1.92
   1   3  -4   14.40    1.04
   1   3  -4   14.59    1.67
   1   3  -3    0.78    1.17
   1   3  -3    1.27    0.71
   1   3  -2  746.26   14.14
   1   3  -2  742.52   15.01
   1   3  -1  301.98    7.65
   1   3  -1  323.04    7.86
   1   3   0   50.90    2.90
   1   3   0   48.87    2.75
   1   3   1  346.39    9.16
   1   3   2 4439.14   72.86
   1   3   3   86.43    4.51
   1   3   4 1428.95   28.16
   1   3   5  266.22    9.17
   1   3   6   74.63    4.84
   1   3   7  392.25   12.51
   1   3   8  185.54    8.40
   1   3   9  100.90    6.34
   1   3  10  258.94   10.74
   1   3  11  142.02    7.98
   1   3  12  185.72    9.55
   1   4 -21   23.76    3.88
   1   4 -20   48.65    5.57
   1   4 -19   63.49    6.14
   1   4 -18    0.19    1.74
   1   4 -18    3.59    1.61
   1   4 -17  219.30   10.74
   1   4 -17  218.68    9.26
   1   4 -16  160.99    8.85
   1   4 -16  159.52    7.47
   1   4 -15    2.64    2.29
   1   4 -15    1.97    1.37
   1   4 -15   -2.03    1.62
   1   4 -14  358.49   13.05
   1   4 -14  368.76   13.17
   1   4 -14  384.81   11.56
   1   4 -13   78.36    5.55
   1   4 -13   82.74    5.59
   1   4 -13   83.75    4.57
   1   4 -12   32.31    3.55
   1   4 -12   19.97    2.74
   1   4 -12   25.99    2.40
   1   4 -11  590.19   16.30
   1   4 -11  597.26   15.75
   1   4 -11  610.63   13.64
   1   4 -10   32.13    3.30
   1   4 -10   34.89    3.09
   1   4 -10   33.47    2.39
   1   4  -9  475.30   13.25
   1   4  -9  451.02   12.04
   1   4  -9  463.48   10.25
   1   4  -8  369.11   11.10
   1   4  -8  373.18    8.33
   1   4  -7  235.43    8.18
   1   4  -7  234.78    5.70
   1   4  -6   60.22    3.83
   1   4  -5 1357.58   25.68
   1   4  -5 1310.07   21.90
   1   4  -4  120.25    5.11
   1   4  -4  119.28    3.69
   1   4  -3 1046.81   20.33
   1   4  -3 1010.90   18.63
   1   4  -2    4.12    1.37
   1   4  -2    3.73    1.08
   1   4  -1   14.14    1.90
   1   4  -1   13.58    1.69
   1   4   0 1265.19   24.15
   1   4   1  135.77    5.61
   1   4   2  110.56    5.25
   1   4   3 1748.15   33.46
   1   4   4   60.98    4.24
   1   4   5  116.70    6.17
   1   4   6  102.55    5.97
   1   4   7  149.66    7.54
   1   4   8  222.94    9.67
   1   4   9  295.17   11.63
   1   4  10   27.91    3.59
   1   5 -21   55.49    6.17
   1   5 -20  147.55    9.55
   1   5 -19   33.94    4.59
   1   5 -18  260.96   12.26
   1   5 -18  266.16   10.41
   1   5 -17   78.38    6.39
   1   5 -17   96.78    5.80
   1   5 -16   32.89    4.15
   1   5 -16   27.63    3.01
   1   5 -15  458.52   15.67
   1   5 -15  456.84   15.57
   1   5 -15  482.85   13.36
   1   5 -14  136.92    7.78
   1   5 -14  139.48    7.69
   1   5 -14  152.35    6.47
   1   5 -13  236.81   10.13
   1   5 -13  247.98    8.21
   1   5 -12  379.03   12.85
   1   5 -12  379.94   10.28
   1   5 -11    4.94    1.78
   1   5 -11    2.05    1.00
   1   5 -10  441.72   13.50
   1   5 -10  462.94   10.73
   1   5  -9  232.75    8.96
   1   5  -9  241.55    6.62
   1   5  -8   58.58    4.19
   1   5  -7   54.81    3.96
   1   5  -6   24.36    2.76
   1   5  -6   23.92    1.39
   1   5  -5    4.54    1.60
   1   5  -5    5.92    0.94
   1   5  -4  947.02   20.16
   1   5  -4  962.75   17.90
   1   5  -3  213.76    7.43
   1   5  -3  213.90    6.37
   1   5  -2  731.00   16.27
   1   5  -2  713.63   15.26
   1   5  -1 2232.65   39.84
   1   5  -1 2215.38   39.12
   1   5   0  160.95    6.28
   1   5   1   81.03    4.54
   1   5   2  223.13    8.26
   1   5   3   82.05    4.98
   1   5   4  496.71   14.33
   1   5   5  852.47   20.99
   1   5   6   86.73    5.73
   1   5   7  237.85   10.13
   1   5   8  262.05   10.99
   1   5   9    4.39    1.82
   1   6 -21   68.18    6.98
   1   6 -20   20.76    4.23
   1   6 -19  210.30   11.42
   1   6 -18    6.32    2.89
   1   6 -17  148.63    9.04
   1   6 -17  165.47    7.56
   1   6 -16  396.58   15.09
   1   6 -16  433.00   12.73
   1   6 -15   23.04    3.53
   1   6 -15   21.12    2.54
   1   6 -14  332.91   12.91
   1   6 -14  343.58   10.35
   1   6 -13  424.93   14.56
   1   6 -13  452.15   11.84
   1   6 -12   14.12    2.69
   1   6 -12    9.31    1.52
   1   6 -11  306.84   11.29
   1   6 -11  302.07    8.54
   1   6 -10  498.24   14.81
   1   6  -9  107.60    6.06
   1   6  -8  937.30   21.69
   1   6  -7  248.83    8.85
   1   6  -7  193.44    5.07
   1   6  -6  115.04    5.79
   1   6  -6  107.51    3.76
   1   6  -5  988.85   21.55
   1   6  -5  974.63   18.55
   1   6  -4   59.26    4.17
   1   6  -4   57.13    3.13
   1   6  -3  674.46   16.14
   1   6  -3  643.21   14.42
   1   6  -2 2254.95   40.40
   1   6  -2 2117.57   38.68
   1   6  -1   62.30    3.90
   1   6   0 1334.01   26.86
   1   6   1  349.69   10.93
   1   6   2   83.13    5.15
   1   6   3  598.25   16.31
   1   6   4  388.87   12.85
   1   6   5   14.73    2.64
   1   6   6  323.44   12.14
   1   6   7  241.03   10.55
   1   6   8   13.55    2.71
   1   7 -21   58.62    6.36
   1   7 -20  159.75   10.27
   1   7 -19   18.43    3.65
   1   7 -18  124.09    8.60
   1   7 -17  167.92    9.78
   1   7 -17  167.32    7.50
   1   7 -16    9.34    2.62
   1   7 -16    7.12    1.64
   1   7 -15  148.08    8.74
   1   7 -15  167.26    6.99
   1   7 -14  454.90   15.71
   1   7 -14  450.99   12.33
   1   7 -13   45.58    4.58
   1   7 -13   36.14    2.95
   1   7 -12  244.68   10.51
   1   7 -11   62.80    5.09
   1   7 -10   61.09    4.91
   1   7  -9  653.37   17.72
   1   7  -8   86.80    5.56
   1   7  -7  416.03   12.90
   1   7  -7  421.07    9.45
   1   7  -6  337.53   11.29
   1   7  -6  343.22    8.62
   1   7  -5   74.15    4.98
   1   7  -5   71.75    3.63
   1   7  -4  920.06   21.30
   1   7  -4  908.52   18.95
   1   7  -3  455.90   13.35
   1   7  -3  435.15   11.61
   1   7  -2   12.91    2.72
   1   7  -1  573.97   14.84
   1   7   0  996.14   22.35
   1   7   1  140.68    6.85
   1   7   2  444.72   13.75
   1   7   3  233.39    9.70
   1   7   4  194.81    9.03
   1   7   5  482.05   15.55
   1   7   6   76.33    5.88
   1   7   7  244.98   11.11
   1   8 -21   67.88    7.17
   1   8 -20    1.93    2.39
   1   8 -19  153.11   10.08
   1   8 -18  122.96    8.73
   1   8 -17    1.94    1.80
   1   8 -17   -0.91    1.35
   1   8 -16  170.99    9.81
   1   8 -16  188.45    7.70
   1   8 -15   56.60    5.53
   1   8 -14    4.09    2.39
   1   8 -13  677.94   20.01
   1   8 -12    0.20    2.17
   1   8 -11   66.87    5.41
   1   8 -10  219.49    9.72
   1   8  -9   36.34    3.94
   1   8  -8  304.20   11.49
   1   8  -8  315.68    7.99
   1   8  -7  611.62   17.07
   1   8  -7  587.99   13.05
   1   8  -6   41.12    4.33
   1   8  -6   39.11    2.76
   1   8  -5  333.28   11.88
   1   8  -5  343.10    9.72
   1   8  -4  216.21    9.32
   1   8  -4  228.71    7.94
   1   8  -3  288.76    9.48
   1   8  -2 1019.37   22.51
   1   8  -1   81.01    5.06
   1   8   0  228.56    9.14
   1   8   1  971.98   23.20
   1   8   2    4.99    1.71
   1   8   3   26.43    3.27
   1   8   4  331.80   12.61
   1   8   5   15.89    2.94
   1   9 -21    7.21    3.12
   1   9 -20  181.23   11.47
   1   9 -19   72.69    7.15
   1   9 -18   17.45    3.72
   1   9 -17  145.50    9.51
   1   9 -16   27.16    4.43
   1   9 -15   32.59    4.40
   1   9 -14   99.96    7.32
   1   9 -13   20.82    3.70
   1   9 -12  243.05   11.16
   1   9 -11  141.78    8.30
   1   9 -10   16.81    3.18
   1   9  -9  472.89   15.64
   1   9  -8  263.51   10.93
   1   9  -8  234.43    7.31
   1   9  -7    3.00    2.05
   1   9  -7    7.01    1.40
   1   9  -6  782.11   20.91
   1   9  -6  742.53   16.93
   1   9  -5  243.30   10.41
   1   9  -5  229.98    8.14
   1   9  -4    4.73    1.53
   1   9  -3  754.30   18.50
   1   9  -2  153.08    7.19
   1   9  -1   74.46    5.15
   1   9   0  234.74    9.72
   1   9   1   34.44    3.69
   1   9   2  173.11    8.66
   1   9   3  299.65   12.06
   1  10 -21   58.79    7.22
   1  10 -20   33.64    5.63
   1  10 -19   90.49    8.39
   1  10 -18  268.92   13.84
   1  10 -17   -0.99    3.43
   1  10 -16   52.34    5.79
   1  10 -15  108.85    8.24
   1  10 -14    2.38    2.16
   1  10 -13  135.64    8.79
   1  10 -12  402.60   15.47
   1  10 -11    2.50    2.02
   1  10 -10  213.07   10.56
   1  10  -9   79.09    6.30
   1  10  -8  171.17    9.27
   1  10  -8  160.69    6.28
   1  10  -7  795.01   22.11
   1  10  -7  773.74   17.64
   1  10  -6   68.58    5.94
   1  10  -6   74.46    4.49
   1  10  -5  231.31    8.65
   1  10  -4  730.48   18.30
   1  10  -3  227.81    9.23
   1  10  -2  116.47    6.60
   1  10  -1  392.54   13.34
   1  10   0    1.38    1.23
   1  10   1  236.00   10.44
   1  10   2  435.21   15.24
   1  11 -21   20.56    5.17
   1  11 -20   58.82    7.14
   1  11 -19  140.76   10.51
   1  11 -18    7.40    3.33
   1  11 -17  115.21    9.20
   1  11 -16  104.80    8.53
   1  11 -15   51.02    6.21
   1  11 -14   88.01    7.56
   1  11 -13   74.70    6.82
   1  11 -12   38.50    4.95
   1  11 -11  309.57   13.68
   1  11 -10   49.05    5.50
   1  11  -9   87.44    7.08
   1  11  -9   77.67    4.37
   1  11  -8  257.98   12.26
   1  11  -8  289.58    9.34
   1  11  -7   43.51    4.97
   1  11  -7   46.26    3.63
   1  11  -6  304.73   10.38
   1  11  -5  188.70    8.16
   1  11  -4   27.68    3.29
   1  11  -3  109.45    6.48
   1  11  -2  269.06   10.99
   1  11  -1    7.94    2.08
   1  11   0  268.33   11.40
   1  12 -20   77.52    8.16
   1  12 -19   26.99    5.15
   1  12 -18  133.89   10.22
   1  12 -17   56.76    7.16
   1  12 -16   60.37    8.00
   1  12 -15  346.19   16.03
   1  12 -14    1.96    2.47
   1  12 -13   97.93    8.21
   1  12 -12  404.42   16.91
   1  12 -11   25.41    4.35
   1  12 -10  111.73    8.39
   1  12  -9  124.11    8.71
   1  12  -9  120.32    5.92
   1  12  -8   27.77    2.92
   1  12  -7  367.78   11.87
   1  12  -6  253.49    9.80
   1  12  -5   31.53    3.40
   1  12  -4  144.35    7.66
   1  12  -3   95.03    6.35
   1  12  -2  121.28    7.40
   1  13 -19  146.08   11.32
   1  13 -18    9.55    3.45
   1  13 -17   50.19    6.87
   1  13 -16  102.33    9.28
   1  13 -15    8.28    3.63
   1  13 -14  325.45   15.96
   1  13 -13  190.06   11.92
   1  13 -12    2.54    2.53
   1  13 -11  538.32   20.25
   1  13  -9   -0.75    1.49
   1  13  -8  221.94    9.00
   1  13  -7   38.45    3.80
   1  13  -6  146.58    7.60
   1  13  -5  418.55   14.13
   1  13  -4   43.79    4.43
   1  14 -18   59.56    7.75
   1  14 -17   96.58    9.41
   1  14 -16    6.48    3.99
   1  14 -15  102.71    9.33
   1  14 -14   88.38    8.53
   1  14 -13   52.81    6.60
   1  14  -9  290.48   11.04
   1  14  -8    3.40    1.45
   1  14  -7  293.71   11.41
   1  14  -6  317.51   12.32
   1  15  -9   23.35    3.35
   1  15  -8   94.45    6.45
   2 -20   4  110.87   10.19
   2 -20   5    3.75    2.84
   2 -20   6   76.19    7.95
   2 -20   7   58.74    7.05
   2 -20   8    3.32    5.13
   2 -20   9  132.75   10.65
   2 -20  10   41.80    5.82
   2 -20  11   16.23    4.42
   2 -19   0  113.32   10.18
   2 -19   1    3.82    3.22
   2 -19   2  104.81    9.59
   2 -19   3  121.02   10.01
   2 -19   4   15.25    3.84
   2 -19   5  137.69   10.73
   2 -19   6   75.65    7.79
   2 -19   7   14.37    3.78
   2 -19   8  163.27   11.32
   2 -19   9    7.18    3.27
   2 -19  10   19.25    4.59
   2 -19  11  134.52   10.02
   2 -19  12    6.07    3.11
   2 -18  -3   41.95    6.15
   2 -18  -2   73.57    8.18
   2 -18  -1  131.35   10.70
   2 -18   0   11.09    3.62
   2 -18   1  129.83   10.36
   2 -18   2  135.67   10.52
   2 -18   3   16.45    3.96
   2 -18   4  191.35   12.23
   2 -18   5   48.92    6.24
   2 -18   6    8.46    3.04
   2 -18   7  240.47   13.47
   2 -18   8    2.88    2.80
   2 -18   9   42.60    5.77
   2 -18  10  126.55   10.32
   2 -18  10  141.14    9.98
   2 -18  11   24.37    5.16
   2 -18  11   20.22    4.18
   2 -18  12   62.31    6.67
   2 -17  -5   69.29    8.01
   2 -17  -4   20.78    4.56
   2 -17  -3   73.30    8.02
   2 -17  -2  171.92   11.94
   2 -17  -1   26.64    4.90
   2 -17   0  229.44   13.61
   2 -17   1    6.23    2.91
   2 -17   2   39.39    5.60
   2 -17   3  187.43   11.68
   2 -17   4   21.58    4.58
   2 -17   5   29.03    4.88
   2 -17   6  123.88    9.29
   2 -17   7   -0.49    2.54
   2 -17   8  111.67    8.75
   2 -17   9  113.67    8.74
   2 -17  10    2.31    2.75
   2 -17  10    1.04    2.43
   2 -17  11  172.77   11.98
   2 -17  11  163.81   10.63
   2 -17  12  121.67   10.53
   2 -17  12  133.02    9.22
   2 -17  13   11.85    3.34
   2 -16  -7   97.45    9.37
   2 -16  -6   15.03    3.70
   2 -16  -5   48.73    6.59
   2 -16  -4  128.90   10.22
   2 -16  -3  179.05   11.98
   2 -16  -2   60.32    6.97
   2 -16  -1  228.23   13.18
   2 -16   0   12.31    3.43
   2 -16   1  248.74   13.38
   2 -16   2  235.37   12.92
   2 -16   3   31.95    4.88
   2 -16   4   99.13    8.05
   2 -16   5   65.77    6.62
   2 -16   6   24.71    4.18
   2 -16   7   66.13    6.58
   2 -16   8   50.66    5.70
   2 -16   9    3.14    2.43
   2 -16  10  157.32   11.15
   2 -16  10  143.81    9.37
   2 -16  11   40.19    5.81
   2 -16  11   41.56    5.04
   2 -16  12   44.98    6.25
   2 -16  12   51.51    5.59
   2 -16  13  143.51   10.88
   2 -16  13  123.97    8.55
   2 -16  14   -0.03    1.98
   2 -15  -9    6.27    2.76
   2 -15  -8  154.29   11.56
   2 -15  -7    9.10    3.30
   2 -15  -6  118.29    9.81
   2 -15  -5  241.96   13.83
   2 -15  -4   -2.64    2.43
   2 -15  -3   73.66    7.42
   2 -15  -2  302.31   14.93
   2 -15  -1    2.07    2.07
   2 -15   0  217.31   12.14
   2 -15   1   85.88    7.54
   2 -15   2  158.49   10.06
   2 -15   3  408.30   16.57
   2 -15   4  233.38   12.19
   2 -15   5   74.25    6.64
   2 -15   6  175.45   10.17
   2 -15   7   41.38    4.99
   2 -15   8   26.08    4.06
   2 -15   9  229.02   11.51
   2 -15  10   62.10    7.03
   2 -15  10   45.95    4.96
   2 -15  11  177.29   11.75
   2 -15  11  174.67    9.86
   2 -15  12  241.85   13.99
   2 -15  12  261.05   12.07
   2 -15  13   18.41    4.36
   2 -15  13   13.11    2.93
   2 -15  14  122.38   10.16
   2 -15  14  147.75    8.81
   2 -15  15   60.74    7.35
   2 -14 -11    3.59    2.30
   2 -14 -10   -0.08    2.24
   2 -14  -9  189.40   12.45
   2 -14  -8    5.32    3.05
   2 -14  -7   87.57    8.26
   2 -14  -6  106.30    8.99
   2 -14  -5    6.70    3.14
   2 -14  -4  394.57   17.05
   2 -14  -3  151.82   10.13
   2 -14  -2   33.99    4.98
   2 -14  -1  265.33   13.14
   2 -14   0  195.68   11.07
   2 -14   1   70.34    6.56
   2 -14   2  267.92   12.79
   2 -14   3   86.29    7.08
   2 -14   4   79.82    6.68
   2 -14   5  609.75   19.76
   2 -14   6   31.88    4.18
   2 -14   7   68.77    6.05
   2 -14   8  267.25   12.08
   2 -14   9   12.53    3.31
   2 -14   9   14.98    3.17
   2 -14  10  204.42   11.93
   2 -14  10  197.40   10.09
   2 -14  11  149.59   10.39
   2 -14  11  122.04    7.87
   2 -14  12   52.46    6.53
   2 -14  12   46.45    4.95
   2 -14  13  330.25   16.34
   2 -14  13  342.64   13.62
   2 -14  14   78.44    6.26
   2 -14  14   66.96    7.43
   2 -14  15   30.11    5.44
   2 -14  16  206.34   13.49
   2 -13 -13  121.85   10.19
   2 -13 -12   27.77    5.60
   2 -13 -11   34.88    5.62
   2 -13 -10   83.70    8.30
   2 -13  -9    1.18    2.20
   2 -13  -8  135.35    9.95
   2 -13  -7  356.97   16.23
   2 -13  -6   29.14    4.63
   2 -13  -5  237.49   12.70
   2 -13  -4  226.78   12.21
   2 -13  -3  127.81    8.84
   2 -13  -2  292.81   13.41
   2 -13  -1   11.64    2.94
   2 -13   0   17.83    3.35
   2 -13   1  147.45    9.04
   2 -13   2    1.53    1.75
   2 -13   3   60.48    5.60
   2 -13   4  232.07   10.98
   2 -13   5   29.88    3.93
   2 -13   6  321.68   12.95
   2 -13   7  102.70    7.01
   2 -13   8   15.86    3.05
   2 -13   9  474.19   18.08
   2 -13   9  453.12   15.73
   2 -13  10  216.69   12.04
   2 -13  10  221.62   10.37
   2 -13  11  150.47   10.27
   2 -13  11  154.42    8.52
   2 -13  12  150.57   10.41
   2 -13  12  128.30    7.78
   2 -13  13    9.29    3.45
   2 -13  13   13.92    2.98
   2 -13  14  105.16    9.12
   2 -13  14   95.89    6.68
   2 -13  15  193.05   12.61
   2 -13  15  177.87    9.20
   2 -13  16   20.98    4.33
   2 -12 -14   50.74    6.67
   2 -12 -13   -3.24    2.37
   2 -12 -12  123.98    9.94
   2 -12 -11  127.58    9.90
   2 -12 -10    7.35    3.28
   2 -12  -9  109.96    8.77
   2 -12  -8   95.67    8.01
   2 -12  -7    6.83    2.60
   2 -12  -6  309.89   14.24
   2 -12  -5  155.18    9.72
   2 -12  -4  354.52   14.88
   2 -12  -3  535.49   18.49
   2 -12  -2   68.57    6.12
   2 -12  -1  176.77    9.71
   2 -12   0  313.29   13.14
   2 -12   1  109.80    7.38
   2 -12   2   59.39    5.45
   2 -12   3  107.94    7.11
   2 -12   4   -0.76    1.71
   2 -12   5  350.62   13.84
   2 -12   5  349.96   13.21
   2 -12   6  164.72    8.92
   2 -12   6  147.89    8.19
   2 -12   7   49.14    4.86
   2 -12   7   38.98    4.21
   2 -12   8  469.70   17.38
   2 -12   8  469.07   15.50
   2 -12   8  486.93   15.87
   2 -12   9   73.17    6.68
   2 -12   9   73.19    5.63
   2 -12  10   65.54    6.51
   2 -12  10   77.18    5.78
   2 -12  11  317.32   14.62
   2 -12  11  309.92   12.12
   2 -12  12   94.32    8.09
   2 -12  12   89.94    6.32
   2 -12  13  224.23   12.88
   2 -12  13  239.36   10.48
   2 -12  14  132.95   10.17
   2 -12  14  131.10    7.64
   2 -12  15    3.64    3.39
   2 -12  15    0.07    1.49
   2 -11 -16   32.72    5.96
   2 -11 -15   32.45    5.62
   2 -11 -14    0.30    2.73
   2 -11 -13   69.44    7.28
   2 -11 -12  108.39    8.94
   2 -11 -11   67.96    6.94
   2 -11 -10  157.60   10.29
   2 -11  -9   25.61    4.25
   2 -11  -8  159.42    9.90
   2 -11  -7  381.26   15.66
   2 -11  -6   52.48    5.53
   2 -11  -5   71.63    6.36
   2 -11  -4  250.45   11.72
   2 -11  -3   24.42    3.75
   2 -11  -2  499.64   16.90
   2 -11  -1  314.53   12.78
   2 -11   0    4.85    1.90
   2 -11   1  389.16   14.02
   2 -11   1  401.34   14.43
   2 -11   2  317.22   12.22
   2 -11   2  313.53   12.57
   2 -11   3   48.54    4.65
   2 -11   3   56.95    5.16
   2 -11   4  491.80   15.66
   2 -11   4  498.04   16.44
   2 -11   5  129.89    7.63
   2 -11   5  113.75    6.91
   2 -11   5  123.95    7.63
   2 -11   6  147.53    7.81
   2 -11   6  157.09    8.28
   2 -11   7  411.57   13.91
   2 -11   7  429.95   14.33
   2 -11   8   57.38    5.97
   2 -11   8   59.16    4.87
   2 -11   8   66.80    5.11
   2 -11   9  379.16   15.28
   2 -11   9  373.00   13.15
   2 -11   9  401.58   13.43
   2 -11  10  525.73   18.89
   2 -11  10  553.21   16.57
   2 -11  10  554.52   16.50
   2 -11  11   99.79    7.91
   2 -11  11  101.74    6.57
   2 -11  11   93.27    6.13
   2 -11  12  341.27   15.23
   2 -11  12  313.16   11.84
   2 -11  12  312.15   12.13
   2 -11  13   25.46    4.53
   2 -11  13   23.27    3.25
   2 -11  13   22.34    3.16
   2 -11  14   37.30    4.19
   2 -11  14   36.94    5.61
   2 -11  15  200.36   12.49
   2 -11  15  186.31    9.21
   2 -11  16   97.05    6.76
   2 -10 -16   44.23    6.14
   2 -10 -15   22.16    4.35
   2 -10 -14   74.75    7.43
   2 -10 -13   32.79    4.97
   2 -10 -12   18.08    3.71
   2 -10 -11  417.51   17.03
   2 -10 -10    7.13    2.65
   2 -10  -9  112.47    8.13
   2 -10  -8  326.49   13.96
   2 -10  -7    9.73    2.70
   2 -10  -6  247.70   11.61
   2 -10  -5  314.06   12.93
   2 -10  -4    7.09    2.30
   2 -10  -3  209.76   10.08
   2 -10  -2  214.95   10.14
   2 -10  -1   55.64    4.91
   2 -10   0  296.01   11.65
   2 -10   0  310.60   11.97
   2 -10   1  378.14   13.23
   2 -10   1  385.50   13.57
   2 -10   2   67.55    5.24
   2 -10   2   77.15    5.70
   2 -10   3  870.19   22.18
   2 -10   3  931.84   23.44
   2 -10   4   17.17    2.98
   2 -10   4   13.29    2.51
   2 -10   5  204.88    9.35
   2 -10   5  214.12    9.18
   2 -10   5  210.29    9.75
   2 -10   6 1027.65   24.44
   2 -10   6  976.39   23.71
   2 -10   6 1034.61   25.60
   2 -10   7    1.29    1.45
   2 -10   7    0.40    1.42
   2 -10   7    0.75    1.93
   2 -10   7   -0.06    1.29
   2 -10   8  173.49    9.36
   2 -10   8  163.00    8.03
   2 -10   8  152.03    7.50
   2 -10   9  388.44   14.93
   2 -10   9  408.78   12.93
   2 -10   9  350.23   12.57
   2 -10  10    1.44    1.19
   2 -10  10    0.24    1.93
   2 -10  10    0.88    0.92
   2 -10  11  329.18   14.31
   2 -10  11  322.13   11.77
   2 -10  11  301.83   11.13
   2 -10  12  171.16   10.50
   2 -10  12  180.18    8.27
   2 -10  12  179.22    8.58
   2 -10  13    5.45    1.79
   2 -10  13   14.11    3.67
   2 -10  13   11.35    2.56
   2 -10  14  289.07   14.47
   2 -10  14  247.72   10.15
   2 -10  14  275.03   11.09
   2 -10  15    2.69    1.64
   2 -10  16   51.43    4.69
   2  -9 -16   60.80    6.87
   2  -9 -15  113.63    8.85
   2  -9 -14   31.68    4.91
   2  -9 -13   48.06    5.57
   2  -9 -12  136.39    9.18
   2  -9 -11    5.41    2.53
   2  -9 -10  463.29   16.96
   2  -9  -9  249.01   11.91
   2  -9  -8    5.80    2.29
   2  -9  -7  334.70   13.37
   2  -9  -6  339.40   13.19
   2  -9  -5   82.69    6.16
   2  -9  -4   95.35    6.45
   2  -9  -3   42.83    4.31
   2  -9  -2  214.27    9.54
   2  -9  -1  755.28   19.96
   2  -9   0  105.42    6.29
   2  -9   0  101.88    6.33
   2  -9   1    3.53    1.54
   2  -9   1    7.20    2.10
   2  -9   2  362.09   12.27
   2  -9   2  386.56   13.11
   2  -9   3   14.28    2.59
   2  -9   3   14.61    2.52
   2  -9   4  383.51   12.48
   2  -9   4  383.68   13.25
   2  -9   5  613.60   17.22
   2  -9   5  628.39   16.99
   2  -9   5  649.13   18.27
   2  -9   6   -0.22    1.15
   2  -9   6    0.89    1.35
   2  -9   6    2.41    1.38
   2  -9   7 1011.32   25.27
   2  -9   7  960.55   22.49
   2  -9   7  962.22   22.97
   2  -9   7  990.47   24.74
   2  -9   8   46.75    4.81
   2  -9   8   44.72    3.81
   2  -9   8   43.24    3.91
   2  -9   8   51.51    4.84
   2  -9   9   89.85    6.50
   2  -9   9   80.82    6.45
   2  -9   9   77.28    5.23
   2  -9   9   78.99    5.01
   2  -9  10  146.24    8.91
   2  -9  10  134.16    7.10
   2  -9  10  136.37    6.70
   2  -9  11  154.19    7.20
   2  -9  11  166.67    9.83
   2  -9  12   32.81    4.77
   2  -9  12   37.10    3.51
   2  -9  13  295.35   10.53
   2  -9  13  292.26   14.10
   2  -9  14   22.98    2.86
   2  -9  15  230.57    8.76
   2  -8 -18    1.42    2.88
   2  -8 -16   55.79    6.09
   2  -8 -15    2.35    2.30
   2  -8 -14  187.12   10.67
   2  -8 -13  166.18    9.88
   2  -8 -12   30.70    4.39
   2  -8 -11  288.85   12.72
   2  -8 -10  123.10    7.92
   2  -8  -9  214.20   10.39
   2  -8  -8  365.47   13.69
   2  -8  -7   97.99    6.61
   2  -8  -6  365.28   13.12
   2  -8  -5  293.44   11.46
   2  -8  -4    1.46    1.44
   2  -8  -3  167.26    8.12
   2  -8  -2  357.90   12.16
   2  -8  -1   12.90    2.39
   2  -8   0  876.56   21.08
   2  -8   0  874.72   21.30
   2  -8   1  314.00   10.95
   2  -8   1  324.89   11.53
   2  -8   2  189.67    7.98
   2  -8   2  176.26    8.15
   2  -8   3  688.68   17.37
   2  -8   3  652.25   17.93
   2  -8   4  525.21   15.13
   2  -8   4  602.89   16.62
   2  -8   5  228.56    8.85
   2  -8   5  224.11    8.82
   2  -8   5  227.74    9.68
   2  -8   6 1333.47   30.43
   2  -8   6 1381.91   28.33
   2  -8   6 1378.47   28.87
   2  -8   6 1378.69   30.42
   2  -8   7  322.83   10.39
   2  -8   7  335.57   12.60
   2  -8   7  329.64   12.23
   2  -8   8  280.80    9.48
   2  -8   8  304.96   11.83
   2  -8   8  295.18   12.00
   2  -8   9  119.97    5.77
   2  -8   9  119.00    7.37
   2  -8   9   99.37    7.00
   2  -8  10   25.60    2.70
   2  -8  10   20.57    3.61
   2  -8  10   32.04    3.98
   2  -8  11   87.31    5.00
   2  -8  11   88.79    7.11
   2  -8  12  353.85   11.11
   2  -8  12  391.11   15.73
   2  -8  13   21.66    2.61
   2  -8  14  131.82    6.44
   2  -8  15  128.36    5.80
   2  -7 -18   58.88    6.94
   2  -7 -18   78.32    7.65
   2  -7 -16    0.44    1.95
   2  -7 -15  172.06    9.84
   2  -7 -14  124.36    8.25
   2  -7 -13   43.10    4.89
   2  -7 -12  179.95    9.64
   2  -7 -11   71.28    5.88
   2  -7 -10  280.72   11.72
   2  -7  -9  326.65   12.50
   2  -7  -8   13.28    2.54
   2  -7  -7  325.19   11.98
   2  -7  -6  217.43    9.34
   2  -7  -5   17.48    2.75
   2  -7  -4  753.83   19.25
   2  -7  -3  156.13    7.36
   2  -7  -2   83.45    5.27
   2  -7  -1 1384.44   28.79
   2  -7  -1 1385.18   29.08
   2  -7   0  453.95   13.22
   2  -7   0  463.77   13.58
   2  -7   1  451.30   12.91
   2  -7   1  446.55   13.36
   2  -7   2  722.79   17.98
   2  -7   2  751.77   18.63
   2  -7   3   19.05    2.70
   2  -7   3   24.88    2.86
   2  -7   4  217.71    8.39
   2  -7   4  221.18    9.03
   2  -7   5  856.41   19.59
   2  -7   5  842.31   21.16
   2  -7   5  890.42   21.47
   2  -7   6   20.68    2.39
   2  -7   6   20.91    3.00
   2  -7   6   18.21    2.84
   2  -7   7  619.58   14.98
   2  -7   7  631.42   18.05
   2  -7   7  639.94   17.92
   2  -7   8  416.62   11.52
   2  -7   8  452.70   14.69
   2  -7   8  451.36   14.98
   2  -7   9   58.79    3.72
   2  -7   9   55.91    5.23
   2  -7   9   63.63    5.23
   2  -7  10  661.74   15.76
   2  -7  10  711.52   20.15
   2  -7  10  687.48   20.51
   2  -7  11  143.42    6.10
   2  -7  11  146.60    8.95
   2  -7  12   14.72    2.07
   2  -7  13  465.71   12.63
   2  -7  14  176.15    7.11
   2  -7  14  188.78    6.67
   2  -7  15   63.90    5.52
   2  -7  15   65.07    3.57
   2  -6 -19   99.13    8.71
   2  -6 -18   54.96    6.45
   2  -6 -18   58.10    6.44
   2  -6 -17   33.05    4.78
   2  -6 -17   46.74    5.75
   2  -6 -16  172.72    9.59
   2  -6 -15   45.81    4.80
   2  -6 -14   74.98    6.10
   2  -6 -13  381.32   14.14
   2  -6 -12   16.41    3.03
   2  -6 -11   92.92    6.35
   2  -6 -10  462.70   14.96
   2  -6  -9    0.27    1.27
   2  -6  -8  260.32   10.28
   2  -6  -7  576.66   16.20
   2  -6  -6    3.41    1.44
   2  -6  -5  254.86    9.56
   2  -6  -4  304.87   10.37
   2  -6  -3  209.15    8.19
   2  -6  -2  527.09   14.16
   2  -6  -1  401.28   11.74
   2  -6  -1  391.65   11.78
   2  -6   0  761.23   17.63
   2  -6   0  720.76   17.69
   2  -6   1 1736.49   33.58
   2  -6   1 1752.80   34.04
   2  -6   2   68.75    4.35
   2  -6   2   67.05    4.48
   2  -6   3  480.85   13.72
   2  -6   4  196.20    8.19
   2  -6   4  201.05    8.31
   2  -6   5   11.82    1.78
   2  -6   5   12.41    2.28
   2  -6   5    9.30    2.29
   2  -6   6  286.89    8.54
   2  -6   6  285.29   10.68
   2  -6   6  283.53   10.60
   2  -6   7  631.70   14.27
   2  -6   7  648.93   17.78
   2  -6   7  626.29   17.78
   2  -6   8  210.71    6.92
   2  -6   8  212.49    9.73
   2  -6   8  231.68    9.86
   2  -6   9  206.06    6.86
   2  -6   9  216.96    9.80
   2  -6   9  217.01   10.13
   2  -6  10   30.33    4.13
   2  -6  10   27.93    2.42
   2  -6  10   32.38    3.90
   2  -6  11   76.96    4.02
   2  -6  12  380.18   10.33
   2  -6  14  148.04    5.05
   2  -6  15  218.70    9.91
   2  -5 -19   30.68    5.32
   2  -5 -18   36.39    5.10
   2  -5 -18   38.91    5.44
   2  -5 -17  212.74   11.41
   2  -5 -17  199.87   11.61
   2  -5 -16   55.79    5.91
   2  -5 -16   59.87    6.27
   2  -5 -16   60.26    5.28
   2  -5 -15   50.99    4.85
   2  -5 -14  172.46    8.77
   2  -5 -13    1.69    1.61
   2  -5 -12  205.51    9.39
   2  -5 -11  222.08    9.53
   2  -5 -10    2.55    1.60
   2  -5  -9  349.60   11.83
   2  -5  -8  175.08    7.78
   2  -5  -7  102.91    5.73
   2  -5  -6  368.40   11.55
   2  -5  -5    9.05    1.89
   2  -5  -4  258.77    9.18
   2  -5  -3 1772.77   33.64
   2  -5  -2  190.06    7.30
   2  -5  -2  187.98    7.21
   2  -5  -1   72.74    4.28
   2  -5  -1   73.07    4.35
   2  -5   0 1474.25   28.37
   2  -5   0 1421.73   28.44
   2  -5   1    5.11    1.55
   2  -5   2  345.96   10.65
   2  -5   3  525.11   14.12
   2  -5   4   44.04    3.72
   2  -5   4   39.98    3.59
   2  -5   5  430.63   10.72
   2  -5   5  443.28   13.15
   2  -5   5  438.20   13.14
   2  -5   6   25.64    3.18
   2  -5   6   26.21    2.14
   2  -5   6   23.77    3.00
   2  -5   7  158.38    5.30
   2  -5   7  158.07    7.84
   2  -5   7  158.12    7.73
   2  -5   8  457.05   10.71
   2  -5   8  497.48   15.13
   2  -5   8  482.14   15.26
   2  -5   9   -0.84    1.62
   2  -5   9    1.15    0.84
   2  -5   9   -1.35    1.53
   2  -5  10  213.95    6.53
   2  -5  10  227.02   10.21
   2  -5  11  648.05   14.15
   2  -5  11  688.43   19.99
   2  -5  13  239.27    6.15
   2  -5  14  239.78   10.32
   2  -5  15   50.71    5.00
   2  -4 -20    4.47    2.85
   2  -4 -19   71.59    7.19
   2  -4 -18   95.57    7.61
   2  -4 -18   95.44    8.20
   2  -4 -17    5.62    3.08
   2  -4 -17   10.81    3.19
   2  -4 -16  224.33   11.00
   2  -4 -16  219.25   11.65
   2  -4 -16  238.94   10.21
   2  -4 -15   82.50    6.94
   2  -4 -15   96.00    6.18
   2  -4 -14   19.40    2.85
   2  -4 -13  357.50   12.33
   2  -4 -12  179.01    8.20
   2  -4 -11   89.53    5.52
   2  -4 -10  236.70    9.09
   2  -4  -9  205.69    8.23
   2  -4  -8  513.24   13.94
   2  -4  -7   71.26    4.48
   2  -4  -6  109.98    5.46
   2  -4  -5  184.03    7.03
   2  -4  -4 2029.59   36.99
   2  -4  -3    0.98    1.20
   2  -4  -2 1360.13   26.11
   2  -4  -2 1306.01   25.74
   2  -4  -1 1077.59   21.55
   2  -4  -1 1025.24   21.38
   2  -4   0  121.27    5.39
   2  -4   1 1949.02   35.86
   2  -4   2  511.17   13.30
   2  -4   3  626.20   15.21
   2  -4   3  611.94   15.41
   2  -4   4 1477.45   29.87
   2  -4   4 1494.77   29.63
   2  -4   5  639.92   13.02
   2  -4   5  624.29   16.44
   2  -4   5  641.21   16.49
   2  -4   6  184.06    5.26
   2  -4   6  191.91    8.29
   2  -4   6  195.87    8.29
   2  -4   7  158.20    4.71
   2  -4   7  163.36    7.94
   2  -4   7  162.42    7.80
   2  -4   8   47.78    2.41
   2  -4   8   43.60    4.18
   2  -4   9  571.50   11.84
   2  -4   9  622.36   17.70
   2  -4  10  481.54   15.82
   2  -4  11    1.39    1.80
   2  -4  12  393.24   13.33
   2  -4  12  422.09    8.25
   2  -4  13  324.61   12.07
   2  -4  14   13.09    2.70
   2  -3 -20   84.29    8.45
   2  -3 -19   67.50    7.08
   2  -3 -18    6.77    2.27
   2  -3 -18    3.07    2.33
   2  -3 -17  233.49   11.15
   2  -3 -17  232.93   12.20
   2  -3 -16  108.31    7.24
   2  -3 -16  117.65    6.58
   2  -3 -16  108.76    8.06
   2  -3 -15   90.48    6.41
   2  -3 -15   90.46    7.12
   2  -3 -15   96.93    5.78
   2  -3 -14  140.23    8.54
   2  -3 -14  138.19    6.91
   2  -3 -13   52.19    4.13
   2  -3 -12  122.56    6.27
   2  -3 -11  291.91    9.93
   2  -3 -10    0.65    1.15
   2  -3  -9  502.90   13.35
   2  -3  -8  528.05   13.51
   2  -3  -7   22.86    2.44
   2  -3  -6  643.73   14.95
   2  -3  -5 1010.10   20.60
   2  -3  -4  157.59    5.94
   2  -3  -3  931.61   19.17
   2  -3  -3  923.03   18.72
   2  -3  -2  510.64   12.11
   2  -3  -2  478.06   11.70
   2  -3  -1  334.64    9.18
   2  -3   0  701.92   15.50
   2  -3   1  135.92    5.62
   2  -3   2  365.94   10.08
   2  -3   2  362.91   10.40
   2  -3   3 1377.28   27.50
   2  -3   3 1390.68   27.12
   2  -3   4   32.49    3.16
   2  -3   4   31.60    3.08
   2  -3   5  224.65    8.60
   2  -3   5  227.23    8.60
   2  -3   5  219.89    5.26
   2  -3   6  614.05   16.58
   2  -3   6  640.31   16.75
   2  -3   6  622.59   11.38
   2  -3   7    7.60    1.95
   2  -3   7    6.00    0.77
   2  -3   8 1144.37   26.51
   2  -3   9  867.85   22.39
   2  -3  10  148.99    8.18
   2  -3  11  873.39   21.72
   2  -3  12  438.08   14.25
   2  -3  13   37.41    4.04
   2  -3  14  327.14   12.64
   2  -2 -21   82.57    7.98
   2  -2 -20   17.45    3.89
   2  -2 -19   66.98    6.79
   2  -2 -18  185.99    9.65
   2  -2 -18  163.01   10.35
   2  -2 -17   15.99    3.03
   2  -2 -17   21.79    4.03
   2  -2 -16  134.75    7.64
   2  -2 -16  131.82    8.75
   2  -2 -16  132.47    6.43
   2  -2 -15  199.82    9.15
   2  -2 -15  201.33   10.49
   2  -2 -15  207.30    8.10
   2  -2 -15  197.10    8.25
   2  -2 -14   13.58    2.38
   2  -2 -14   13.12    2.76
   2  -2 -14   14.03    2.06
   2  -2 -14   16.95    2.48
   2  -2 -13  273.59   11.67
   2  -2 -13  277.07    9.28
   2  -2 -12  224.23   10.16
   2  -2 -12  238.69    8.38
   2  -2 -11   67.29    4.11
   2  -2 -10  445.75   11.86
   2  -2  -9  452.96   11.76
   2  -2  -8  284.64    8.56
   2  -2  -7 1533.51   28.50
   2  -2  -6  619.03   13.82
   2  -2  -5  117.06    4.75
   2  -2  -4  737.24   15.51
   2  -2  -4  736.04   15.01
   2  -2  -3  600.22   12.84
   2  -2  -2   25.33    2.13
   2  -2  -1  909.28   18.08
   2  -2   0  221.90    6.41
   2  -2   0  216.60    6.89
   2  -2   1  431.48   11.06
   2  -2   1  438.84   10.56
   2  -2   2  418.20   11.25
   2  -2   2  429.18   10.87
   2  -2   3    3.03    1.44
   2  -2   3    6.55    1.74
   2  -2   4  625.16   15.14
   2  -2   4  609.36   15.29
   2  -2   4  592.15   10.67
   2  -2   5  619.46   16.04
   2  -2   6   34.94    3.49
   2  -2   7  164.30    7.83
   2  -2   8  167.19    8.23
   2  -2   9  140.96    7.72
   2  -2  10  848.28   22.60
   2  -2  10  828.48   20.87
   2  -2  11    5.69    1.85
   2  -2  12  126.26    7.35
   2  -2  13  499.96   16.14
   2  -1 -21   16.02    3.93
   2  -1 -20   44.26    5.71
   2  -1 -19  116.48    8.93
   2  -1 -18   11.43    3.05
   2  -1 -17   97.28    7.58
   2  -1 -17   93.66    6.31
   2  -1 -16  147.63    9.07
   2  -1 -16  153.49    7.80
   2  -1 -15   55.13    4.47
   2  -1 -15   47.42    4.99
   2  -1 -15   59.81    3.78
   2  -1 -15   57.47    4.35
   2  -1 -14  262.54    9.67
   2  -1 -14  255.00   11.41
   2  -1 -14  250.07    8.24
   2  -1 -14  241.61    9.17
   2  -1 -13   74.50    4.74
   2  -1 -13   73.05    5.83
   2  -1 -13   74.35    4.08
   2  -1 -13   71.25    4.71
   2  -1 -12  291.22    9.53
   2  -1 -12  287.30    8.68
   2  -1 -12  299.27   11.73
   2  -1 -11  163.61    6.08
   2  -1 -11  147.57    7.78
   2  -1 -10  473.69   11.52
   2  -1 -10  463.46   14.34
   2  -1  -9  155.37    5.56
   2  -1  -9  138.34    7.00
   2  -1  -8  547.24   12.38
   2  -1  -7  152.24    5.26
   2  -1  -6  904.77   17.66
   2  -1  -5 1883.75   32.61
   2  -1  -4    6.47    1.08
   2  -1  -3  362.68    8.38
   2  -1  -2  219.32    6.15
   2  -1  -1   59.35    2.64
   2  -1  -1   57.15    3.04
   2  -1   0  613.18   13.47
   2  -1   0  617.55   12.62
   2  -1   1  613.95   13.92
   2  -1   1  616.00   13.23
   2  -1   2  227.36    7.19
   2  -1   2  228.57    7.60
   2  -1   3 1071.37   17.38
   2  -1   3 1059.89   22.31
   2  -1   4  294.57    9.68
   2  -1   5  763.67   18.57
   2  -1   6  803.12   19.80
   2  -1   7  336.28   11.77
   2  -1   8   97.19    6.20
   2  -1   8   88.24    5.47
   2  -1   8   91.65    2.44
   2  -1   9  768.49   19.64
   2  -1  10   26.46    3.26
   2  -1  11  203.71    9.36
   2  -1  12  356.37   13.20
   2   0 -21   59.87    6.59
   2   0 -20  107.02    8.66
   2   0 -19    5.48    2.77
   2   0 -18  129.35    9.04
   2   0 -17   35.73    4.75
   2   0 -17   43.09    4.13
   2   0 -16    9.32    2.64
   2   0 -16    7.28    1.88
   2   0 -16    4.20    1.63
   2   0 -15  501.41   17.12
   2   0 -15  492.21   16.17
   2   0 -15  502.91   14.19
   2   0 -15  474.63   13.92
   2   0 -14   23.26    2.64
   2   0 -14   24.03    3.41
   2   0 -14   20.08    3.33
   2   0 -14   18.84    1.92
   2   0 -14   25.70    2.96
   2   0 -13  315.15    9.87
   2   0 -13  310.87   12.28
   2   0 -13  318.87    8.44
   2   0 -13  307.83   10.48
   2   0 -12  333.28    9.70
   2   0 -12  323.84   12.19
   2   0 -12  331.10    8.54
   2   0 -12  320.81   10.56
   2   0 -11  132.14    5.29
   2   0 -11  128.42    7.12
   2   0 -11  123.74    4.60
   2   0 -11  124.43    6.04
   2   0 -10  185.30    8.32
   2   0 -10  177.97    5.62
   2   0  -9   19.68    2.72
   2   0  -9   21.17    1.80
   2   0  -8    5.63    1.85
   2   0  -8    3.21    0.88
   2   0  -7 1759.83   34.29
   2   0  -7 1795.91   30.52
   2   0  -6 1917.57   35.74
   2   0  -6 1901.08   32.29
   2   0  -5  211.28    7.39
   2   0  -5  195.51    4.88
   2   0  -4 1412.57   26.50
   2   0  -4 1366.65   23.27
   2   0  -3  785.44   16.28
   2   0  -3  760.22   14.25
   2   0  -2  815.67   16.30
   2   0  -2  783.69   15.19
   2   0  -2  808.17   13.89
   2   0  -1  562.08   11.55
   2   0  -1  523.88   10.37
   2   0  -1  512.97   11.41
   2   0   0  227.54    5.91
   2   0   0  222.29    6.75
   2   0   1 1238.97   21.17
   2   0   1 1231.01   23.77
   2   0   2 2255.80   35.71
   2   0   2 2188.44   39.82
   2   0   3   69.67    4.24
   2   0   4  891.46   20.23
   2   0   5  588.68   15.73
   2   0   6   49.63    4.14
   2   0   6   46.97    2.10
   2   0   7  736.16   18.43
   2   0   7  719.79   12.62
   2   0   8  548.79   15.68
   2   0   9   51.52    4.49
   2   0  10  712.09   19.50
   2   0  11  304.59   11.95
   2   1 -21   79.29    8.55
   2   1 -20    7.65    3.08
   2   1 -19  200.69   11.53
   2   1 -18   26.27    4.27
   2   1 -17   41.64    5.06
   2   1 -17   39.67    3.74
   2   1 -16  178.53   10.00
   2   1 -16  161.85    8.88
   2   1 -16  177.69    7.57
   2   1 -16  183.28    8.02
   2   1 -15  176.18    9.62
   2   1 -15  181.98    8.99
   2   1 -15  195.31    7.60
   2   1 -15  184.29    8.02
   2   1 -14  337.08   13.22
   2   1 -14  330.02   11.99
   2   1 -14  345.33   10.23
   2   1 -14  344.71   11.30
   2   1 -13  381.65   13.91
   2   1 -13  404.77   10.71
   2   1 -13  371.62   12.34
   2   1 -13  375.24   11.86
   2   1 -12   38.22    2.73
   2   1 -12   34.52    3.28
   2   1 -12   40.54    4.16
   2   1 -12   39.83    2.03
   2   1 -12   37.36    3.42
   2   1 -11  516.10   13.71
   2   1 -11  527.43   11.86
   2   1 -11  536.12   15.85
   2   1 -11  535.71   10.56
   2   1 -11  522.21   14.22
   2   1 -10  639.40   15.27
   2   1 -10  662.92   13.44
   2   1 -10  677.98   17.95
   2   1 -10  690.80   12.81
   2   1 -10  655.55   16.39
   2   1  -9  108.26    4.66
   2   1  -9  109.52    3.63
   2   1  -9  106.51    6.01
   2   1  -9  113.03    3.57
   2   1  -9  109.70    5.48
   2   1  -8   16.67    1.68
   2   1  -8   21.35    1.33
   2   1  -8   19.11    2.68
   2   1  -8   20.55    1.46
   2   1  -8   18.93    2.32
   2   1  -7  375.52    8.48
   2   1  -7  390.79    8.21
   2   1  -7  385.28   11.49
   2   1  -6  501.73    9.75
   2   1  -6  532.28   10.45
   2   1  -6  523.03   13.50
   2   1  -5  537.01   13.33
   2   1  -4  262.58    8.03
   2   1  -4  248.92    5.34
   2   1  -3  677.25   14.43
   2   1  -3  637.35   12.10
   2   1  -2  526.40   11.63
   2   1  -2  494.33   10.47
   2   1  -1   56.83    2.91
   2   1  -1   56.05    2.92
   2   1   0  992.91   18.00
   2   1   0  957.33   19.16
   2   1   1 1169.35   20.29
   2   1   1 1147.47   22.69
   2   1   2  154.85    4.09
   2   1   2  153.62    6.21
   2   1   2  164.54    5.24
   2   1   3 1716.70   33.08
   2   1   3 1741.96   29.94
   2   1   4  247.96    8.76
   2   1   4  252.68    6.49
   2   1   5   26.34    2.98
   2   1   5   26.02    1.70
   2   1   6 1470.71   30.50
   2   1   7  722.62   18.76
   2   1   8  136.53    7.24
   2   1   9  353.61   12.66
   2   1  10   96.49    6.43
   2   1  11  397.62   14.28
   2   2 -21   38.10    5.55
   2   2 -20  161.34   10.57
   2   2 -19    0.20    2.19
   2   2 -18   64.51    6.34
   2   2 -17  153.45    9.50
   2   2 -17  152.92    6.86
   2   2 -16    2.31    2.13
   2   2 -16    1.97    1.21
   2   2 -16   -0.47    1.25
   2   2 -15  139.48    8.46
   2   2 -15  128.03    5.67
   2   2 -15  130.77    7.37
   2   2 -15  134.44    6.86
   2   2 -14  381.56   14.23
   2   2 -14  395.80   10.44
   2   2 -14  379.63   12.67
   2   2 -14  368.88   12.10
   2   2 -13   17.28    2.58
   2   2 -13   10.68    2.01
   2   2 -13   14.29    1.71
   2   2 -13   14.22    2.33
   2   2 -12  918.10   23.21
   2   2 -12  926.26   17.73
   2   2 -12  875.85   20.37
   2   2 -12  908.71   21.06
   2   2 -11  315.80   11.70
   2   2 -11  334.66    7.75
   2   2 -11  307.90    9.62
   2   2 -11  332.57   10.71
   2   2 -10   51.84    4.42
   2   2 -10   55.03    2.27
   2   2 -10   50.12    3.26
   2   2 -10   56.92    4.08
   2   2  -9 1227.55   26.79
   2   2  -9 1228.41   23.09
   2   2  -9 1227.46   20.09
   2   2  -9 1255.08   25.72
   2   2  -8  604.64   12.76
   2   2  -8  641.88   16.48
   2   2  -8  641.52   11.22
   2   2  -8  633.62   15.63
   2   2  -7   20.40    1.45
   2   2  -7   22.12    2.72
   2   2  -7   21.37    1.32
   2   2  -7   24.04    2.57
   2   2  -6  771.21   17.98
   2   2  -6  792.88   17.72
   2   2  -5  235.42    7.94
   2   2  -5  218.30    7.62
   2   2  -4   12.77    1.96
   2   2  -4   13.61    1.90
   2   2  -3 1057.06   20.73
   2   2  -3 1019.58   20.96
   2   2  -2   46.43    2.95
   2   2  -2   46.16    3.07
   2   2  -1  682.46   14.01
   2   2  -1  653.30   14.60
   2   2   0  961.73   17.87
   2   2   0  926.82   18.80
   2   2   1    6.94    1.11
   2   2   1    8.63    1.71
   2   2   1    7.48    1.33
   2   2   2  208.74    5.64
   2   2   2  213.11    7.69
   2   2   2  208.16    6.29
   2   2   3  592.61   15.02
   2   2   3  576.03   12.36
   2   2   4  947.40   21.58
   2   2   5  158.77    7.36
   2   2   6   14.07    2.46
   2   2   7  213.31    9.22
   2   2   8  738.54   19.92
   2   2   9   13.98    2.52
   2   2  10   91.69    6.50
   2   3 -22   41.01    5.99
   2   3 -21  123.65    9.56
   2   3 -20    9.58    3.06
   2   3 -19  157.89   10.29
   2   3 -18   82.62    7.49
   2   3 -17    9.63    2.89
   2   3 -16  190.50   10.34
   2   3 -16  185.95    9.15
   2   3 -16  201.42    7.13
   2   3 -15  116.96    7.79
   2   3 -15  112.05    6.74
   2   3 -15  136.74    5.36
   2   3 -14   58.76    5.44
   2   3 -14   61.05    4.64
   2   3 -14   64.55    3.35
   2   3 -13  287.86   11.81
   2   3 -13  266.63    9.69
   2   3 -13  280.62   10.23
   2   3 -13  289.75    7.45
   2   3 -12  430.59   14.41
   2   3 -12  411.09   11.91
   2   3 -12  407.51   12.71
   2   3 -12  427.51    9.10
   2   3 -11  189.14    8.76
   2   3 -11  174.99    6.69
   2   3 -11  194.98    8.28
   2   3 -11  183.62    4.49
   2   3 -10  363.97   12.30
   2   3 -10  354.27    9.57
   2   3 -10  353.76   11.26
   2   3  -9   53.65    4.37
   2   3  -9   48.83    2.83
   2   3  -9   51.95    3.88
   2   3  -8   79.64    5.07
   2   3  -8   81.72    4.80
   2   3  -7  504.75   13.77
   2   3  -7  483.86    9.21
   2   3  -7  503.07   13.32
   2   3  -6  112.93    5.61
   2   3  -6  105.96    3.45
   2   3  -6  108.89    5.37
   2   3  -5 1039.19   21.69
   2   3  -5 1010.93   18.55
   2   3  -5 1015.83   21.53
   2   3  -4  806.03   17.84
   2   3  -4  814.27   15.92
   2   3  -4  818.36   18.03
   2   3  -3    0.61    1.20
   2   3  -3    0.09    0.80
   2   3  -3    1.18    0.95
   2   3  -2 1674.13   30.52
   2   3  -2 1677.70   30.35
   2   3  -2 1688.09   31.19
   2   3  -1  511.56   11.80
   2   3  -1  499.09   12.30
   2   3  -1  504.44   12.30
   2   3   0   36.83    2.50
   2   3   0   34.78    2.93
   2   3   0   33.94    2.63
   2   3   1 1710.07   30.42
   2   3   1 1743.13   33.00
   2   3   1 1763.92   31.35
   2   3   2 1263.01   26.13
   2   3   3  411.78   12.33
   2   3   4 1039.38   23.61
   2   3   5   27.18    3.19
   2   3   6  522.56   15.60
   2   3   7  458.20   14.79
   2   3   8    1.14    1.25
   2   3   9   91.56    6.68
   2   4 -22   51.63    6.87
   2   4 -21    5.94    3.02
   2   4 -20  120.83    9.11
   2   4 -19   66.01    6.73
   2   4 -18   47.86    5.83
   2   4 -17  250.14   12.39
   2   4 -16   25.07    3.94
   2   4 -16   20.81    1.99
   2   4 -16   19.80    3.04
   2   4 -15   80.74    6.58
   2   4 -15   78.55    5.41
   2   4 -15   84.69    3.80
   2   4 -14  213.40   10.47
   2   4 -14  218.39    8.97
   2   4 -14  237.72    6.41
   2   4 -13   57.29    5.18
   2   4 -13   59.04    4.30
   2   4 -13   57.26    2.53
   2   4 -12  291.63   11.76
   2   4 -12  311.30    6.46
   2   4 -11  154.50    8.02
   2   4 -11  170.55    7.60
   2   4 -10    5.12    1.99
   2   4 -10    3.27    1.46
   2   4  -9  933.93   22.53
   2   4  -9  974.06   21.93
   2   4  -8 1065.11   24.13
   2   4  -8 1081.51   23.57
   2   4  -7    3.47    1.69
   2   4  -7    1.18    0.53
   2   4  -7   -0.37    1.21
   2   4  -6  868.24   19.67
   2   4  -6  832.17   15.72
   2   4  -6  851.89   19.40
   2   4  -5  734.54   17.47
   2   4  -5  750.03   14.81
   2   4  -5  742.28   17.44
   2   4  -4  303.91    9.51
   2   4  -4  295.93    8.04
   2   4  -4  314.23    9.71
   2   4  -3 1114.78   22.65
   2   4  -3 1110.11   21.62
   2   4  -3 1114.52   23.02
   2   4  -2   73.24    4.07
   2   4  -2   77.84    4.08
   2   4  -2   76.13    4.27
   2   4  -1  631.92   14.31
   2   4  -1  618.34   14.85
   2   4  -1  625.11   14.74
   2   4   0 1164.48   22.73
   2   4   0 1157.29   24.03
   2   4   1  534.99   12.71
   2   4   1  528.76   14.14
   2   4   2  157.87    7.11
   2   4   3 1137.17   25.21
   2   4   4   47.95    4.44
   2   4   5  864.42   21.78
   2   4   6  434.89   14.42
   2   4   7  227.37   10.26
   2   4   8  416.77   14.90
   2   5 -22   14.62    3.98
   2   5 -21  144.48   10.33
   2   5 -20   13.57    3.50
   2   5 -19   53.21    6.16
   2   5 -18  272.38   13.43
   2   5 -17   11.61    3.31
   2   5 -16  225.41   11.55
   2   5 -16  234.60    6.70
   2   5 -15  161.14    9.31
   2   5 -15  147.39    4.75
   2   5 -14  121.70    7.85
   2   5 -13  438.06   15.36
   2   5 -12  101.38    6.75
   2   5 -11   13.78    2.80
   2   5 -10  239.57   10.04
   2   5  -9  166.65    7.98
   2   5  -8  399.72   12.92
   2   5  -8  400.09    7.69
   2   5  -7  200.42    8.34
   2   5  -7  196.56    5.27
   2   5  -6  444.11   12.97
   2   5  -6  437.91    9.95
   2   5  -5  481.03   13.40
   2   5  -5  484.50   11.26
   2   5  -4 1087.37   23.09
   2   5  -4 1074.07   21.28
   2   5  -3   70.31    4.30
   2   5  -3   70.03    3.94
   2   5  -2  463.00   12.27
   2   5  -2  453.52   12.12
   2   5  -1 1229.48   24.60
   2   5  -1 1191.02   24.92
   2   5   0   15.12    2.28
   2   5   0   13.51    2.15
   2   5   1 1146.66   25.04
   2   5   2  184.60    8.11
   2   5   3  523.26   15.41
   2   5   4 1201.93   27.63
   2   5   5  106.30    6.68
   2   5   6  332.20   12.83
   2   5   7  584.77   18.41
   2   6 -21    0.79    1.68
   2   6 -20   58.57    6.62
   2   6 -19  186.20   11.36
   2   6 -18    9.77    3.03
   2   6 -17  218.13   11.72
   2   6 -16  135.47    8.95
   2   6 -15    0.96    2.33
   2   6 -14  275.95   12.33
   2   6 -13   74.07    6.07
   2   6 -12  295.55   12.16
   2   6 -11  569.46   17.37
   2   6 -10   66.32    5.26
   2   6  -9  330.05   12.00
   2   6  -8  387.22   13.00
   2   6  -8  411.94    8.63
   2   6  -7    9.61    2.26
   2   6  -7   11.72    1.38
   2   6  -6  194.52    8.31
   2   6  -6  198.75    6.27
   2   6  -5  406.59   12.55
   2   6  -5  425.03   10.73
   2   6  -4   11.83    2.19
   2   6  -4    9.04    1.67
   2   6  -3 1520.90   30.56
   2   6  -3 1524.34   29.59
   2   6  -2 1123.27   24.26
   2   6  -2 1146.52   24.18
   2   6  -1    2.84    1.57
   2   6  -1    5.53    1.75
   2   6   0  462.66   13.73
   2   6   1   93.91    5.80
   2   6   2  523.35   15.67
   2   6   3   19.50    2.91
   2   6   4  301.77   11.93
   2   6   5  335.59   13.02
   2   7 -21   75.35    7.64
   2   7 -20   68.24    7.16
   2   7 -19    2.81    2.44
   2   7 -18  272.85   13.75
   2   7 -17   26.78    4.48
   2   7 -16   58.01    6.13
   2   7 -15  210.97   11.13
   2   7 -14   65.73    6.32
   2   7 -13   96.22    7.11
   2   7 -12  296.09   12.43
   2   7 -11   21.69    3.35
   2   7 -10  310.79   12.14
   2   7  -9  448.27   14.74
   2   7  -9  450.77    9.06
   2   7  -8   40.28    4.06
   2   7  -8   39.45    2.35
   2   7  -7  541.10   15.81
   2   7  -7  532.28   12.13
   2   7  -6  226.73    9.42
   2   7  -6  238.50    7.51
   2   7  -5  162.69    7.73
   2   7  -5  164.62    6.40
   2   7  -4  634.18   17.07
   2   7  -4  635.20   15.47
   2   7  -3  201.34    8.54
   2   7  -3  193.50    7.67
   2   7  -2  203.98    8.67
   2   7  -2  220.57    8.57
   2   7  -1  904.99   21.84
   2   7  -1  968.64   22.28
   2   7   0   12.20    2.51
   2   7   1  828.99   21.20
   2   7   2  434.11   14.58
   2   7   3   88.26    6.21
   2   7   4  521.53   16.93
   2   8 -21   59.05    6.94
   2   8 -20   10.90    3.44
   2   8 -19  133.48    9.95
   2   8 -18   36.46    5.42
   2   8 -17  170.79   10.67
   2   8 -16  187.82   10.99
   2   8 -15   53.64    5.84
   2   8 -14  170.84    9.94
   2   8 -13  144.37    8.86
   2   8 -12    3.01    2.09
   2   8 -11  645.70   19.63
   2   8 -10  377.71   13.90
   2   8  -9    9.67    2.45
   2   8  -9   13.09    1.34
   2   8  -8  709.13   19.51
   2   8  -8  669.04   14.48
   2   8  -7  387.84   13.43
   2   8  -7  379.63   10.22
   2   8  -6  193.01    8.99
   2   8  -6  185.55    6.91
   2   8  -5  548.58   16.35
   2   8  -5  542.69   14.08
   2   8  -4    3.90    2.05
   2   8  -4    1.36    1.27
   2   8  -3  234.45    9.92
   2   8  -3  232.19    8.96
   2   8  -2  550.89   16.39
   2   8  -2  600.07   16.27
   2   8  -1  147.99    7.52
   2   8   0  617.61   17.64
   2   8   1  199.67    9.30
   2   8   2   34.36    3.98
   2   8   3  374.50   14.03
   2   9 -20  144.20   10.64
   2   9 -19    4.01    3.00
   2   9 -18   90.44    8.11
   2   9 -17  137.13    9.79
   2   9 -16   11.26    3.46
   2   9 -15  234.86   12.28
   2   9 -14   79.70    6.92
   2   9 -13    2.56    2.08
   2   9 -12  436.52   16.14
   2   9 -11  151.18    8.93
   2   9 -10  186.05    9.57
   2   9 -10  148.63    4.80
   2   9  -9  455.33   15.69
   2   9  -9  458.13   10.89
   2   9  -8  702.42   20.20
   2   9  -8  674.63   15.28
   2   9  -7  140.07    8.05
   2   9  -7  136.76    5.93
   2   9  -6  478.26   15.72
   2   9  -6  469.16   12.92
   2   9  -5    6.17    2.29
   2   9  -5    8.20    1.85
   2   9  -4  114.18    7.19
   2   9  -4  110.77    6.07
   2   9  -3  319.65   12.41
   2   9  -3  341.84   11.72
   2   9  -2    6.17    1.90
   2   9  -1  625.46   17.93
   2   9   0  180.79    8.93
   2   9   1    2.09    1.48
   2  10 -20    3.26    2.74
   2  10 -19  140.06   10.32
   2  10 -18   65.47    7.20
   2  10 -17    1.45    2.91
   2  10 -16  293.42   14.46
   2  10 -15   53.07    5.95
   2  10 -14   34.08    4.86
   2  10 -13  115.67    8.44
   2  10 -12  102.00    7.76
   2  10 -11  331.60   14.12
   2  10 -10  345.82   14.32
   2  10 -10  367.10    9.29
   2  10  -9   45.85    5.07
   2  10  -9   43.64    3.05
   2  10  -8  304.27   12.94
   2  10  -8  287.69    9.18
   2  10  -7  430.92   15.54
   2  10  -7  415.23   12.11
   2  10  -6    6.91    2.48
   2  10  -6    6.74    1.86
   2  10  -5  729.11   21.39
   2  10  -5  740.59   18.76
   2  10  -4  224.65   10.75
   2  10  -4  232.34    9.50
   2  10  -3    4.06    1.72
   2  10  -2  621.12   18.04
   2  10  -1  105.38    6.85
   2  10   0  148.25    8.38
   2  11 -19   29.04    5.43
   2  11 -18   50.11    6.43
   2  11 -17  184.65   12.03
   2  11 -16    1.40    2.40
   2  11 -15   97.31    8.42
   2  11 -14  250.79   13.38
   2  11 -13    3.27    2.22
   2  11 -12   35.84    5.09
   2  11 -11  434.40   17.12
   2  11 -10    6.51    2.75
   2  11 -10    6.54    1.36
   2  11  -9  283.64   13.08
   2  11  -9  275.21    9.00
   2  11  -8  198.12   10.81
   2  11  -8  186.43    7.56
   2  11  -7   61.73    6.13
   2  11  -7   61.50    4.46
   2  11  -6  366.02   14.84
   2  11  -6  352.81   12.00
   2  11  -5   94.31    5.98
   2  11  -4  206.47    9.31
   2  11  -3  252.04   10.70
   2  11  -2   23.47    3.39
   2  12 -18  143.74   11.68
   2  12 -17    2.64    3.15
   2  12 -16  266.01   14.62
   2  12 -15  176.60   11.68
   2  12 -14    4.15    3.04
   2  12 -13  210.12   12.38
   2  12 -12   52.30    6.16
   2  12 -11   12.47    3.52
   2  12 -11    7.91    1.37
   2  12 -10  447.81   17.87
   2  12 -10  448.93   12.21
   2  12  -9   96.22    7.94
   2  12  -9   99.33    5.43
   2  12  -8  125.63    9.25
   2  12  -8   97.48    5.70
   2  12  -7  310.02   14.29
   2  12  -7  319.54   11.28
   2  12  -6    1.71    1.36
   2  12  -5  149.59    8.01
   2  12  -4  413.67   14.45
   2  13 -17  193.77   12.90
   2  13 -16   72.28    7.86
   2  13 -15   76.03    7.97
   2  13 -14  366.22   17.43
   2  13 -13   65.31    7.29
   2  13 -12   35.94    5.85
   2  13 -11  122.10    9.61
   2  13 -10   37.29    5.66
   2  13 -10   35.61    3.30
   2  13  -9  273.61   14.06
   2  13  -9  246.25    9.52
   2  13  -8  174.76   10.97
   2  13  -8  141.00    7.35
   2  13  -7    0.71    1.25
   2  13  -6  140.55    7.76
   2  14 -16   30.39    5.59
   2  14 -15  178.43   12.58
   2  14 -14    9.20    3.94
   2  14 -13  239.17   14.22
   2  14 -12  113.83    9.81
   2  14 -11   -1.95   14.00
   2  14 -10  245.91   14.01
   2  14  -9   51.33    4.40
   2  14  -8   72.77    5.52
   2  14  -7  252.88   10.97
   2  15 -15   -5.13    3.44
   2  15 -14  110.97   10.01
   2  15 -13  197.38   13.35
   3 -19   3   62.64    7.48
   3 -19   4   61.51    7.35
   3 -19   5  186.54   12.74
   3 -19   6   14.27    3.80
   3 -19   7   89.69    8.58
   3 -19   8   88.00    8.76
   3 -19   9    4.15    2.28
   3 -19  10  117.59    9.81
   3 -19  11   83.06    8.28
   3 -19  12   38.95    6.40
   3 -18  -1   24.57    5.07
   3 -18   0   27.79    5.16
   3 -18   1  125.19   10.25
   3 -18   2   38.12    5.73
   3 -18   3   84.00    8.39
   3 -18   4  224.44   13.54
   3 -18   5    2.59    2.40
   3 -18   6  159.01   11.34
   3 -18   7   83.92    8.51
   3 -18   8    1.71    2.40
   3 -18   9  152.29   10.95
   3 -18  10   54.22    6.78
   3 -18  11   31.49    5.38
   3 -18  12  249.66   13.90
   3 -18  13    0.15    2.93
   3 -17  -4   76.82    8.27
   3 -17  -3  118.10   10.07
   3 -17  -2    8.47    2.87
   3 -17  -1  145.96   11.09
   3 -17   0  156.23   11.22
   3 -17   1   11.04    3.64
   3 -17   2  152.24   11.05
   3 -17   3  154.57   11.16
   3 -17   4    3.42    2.81
   3 -17   5  225.04   13.11
   3 -17   6   36.97    5.54
   3 -17   7   65.73    7.06
   3 -17   8  222.22   12.85
   3 -17   9   12.73    3.60
   3 -17   9   16.96    3.77
   3 -17  10  107.43    9.79
   3 -17  10  106.12    9.09
   3 -17  11  166.15   10.97
   3 -17  12   27.10    4.91
   3 -17  13  132.16   10.00
   3 -16  -7  183.14   12.89
   3 -16  -6    6.43    3.24
   3 -16  -5  116.92   10.08
   3 -16  -4  182.53   12.38
   3 -16  -3    2.05    3.48
   3 -16  -2  147.18   10.91
   3 -16  -1  274.46   14.79
   3 -16   0    5.75    2.46
   3 -16   1  253.38   13.97
   3 -16   2  167.37   11.22
   3 -16   3   11.49    3.56
   3 -16   4  210.23   12.33
   3 -16   5   64.68    6.78
   3 -16   6   99.07    8.35
   3 -16   7   96.63    8.19
   3 -16   8   13.32    3.62
   3 -16   9  199.39   12.80
   3 -16   9  177.29   11.12
   3 -16  10  160.39   11.59
   3 -16  10  122.39    9.06
   3 -16  11    1.30    2.62
   3 -16  11   -0.13    2.11
   3 -16  12  140.83    9.82
   3 -16  13  141.38    9.79
   3 -16  14    9.47    3.55
   3 -15  -9   80.40    8.49
   3 -15  -8   46.80    6.52
   3 -15  -7    0.28    3.12
   3 -15  -6  259.40   14.77
   3 -15  -5  122.40    9.93
   3 -15  -4   -1.27    2.30
   3 -15  -3  169.60   11.37
   3 -15  -2   20.10    4.31
   3 -15  -1   67.07    7.13
   3 -15   0  353.77   16.28
   3 -15   1   52.00    6.06
   3 -15   2  328.65   15.22
   3 -15   3  278.64   13.85
   3 -15   4   12.70    3.36
   3 -15   5  170.25   10.50
   3 -15   6  188.83   11.08
   3 -15   7    4.06    2.48
   3 -15   8  190.89   11.91
   3 -15   8  175.82   10.63
   3 -15   9  203.20   12.63
   3 -15   9  195.72   11.31
   3 -15  10    7.79    4.00
   3 -15  10    0.29    1.97
   3 -15  11  181.35   12.32
   3 -15  11  178.17   10.76
   3 -15  12   70.76    7.87
   3 -15  12   80.30    7.12
   3 -15  13   15.09    4.47
   3 -15  13   11.38    3.18
   3 -15  14  100.00    7.98
   3 -14 -11    1.03    2.32
   3 -14 -10   78.13    8.11
   3 -14  -9   37.04    5.65
   3 -14  -8   19.65    4.55
   3 -14  -7  256.55   14.34
   3 -14  -6   73.96    7.59
   3 -14  -5   49.73    6.29
   3 -14  -4  343.65   16.03
   3 -14  -3   41.30    5.45
   3 -14  -2    5.96    3.17
   3 -14  -1   53.81    7.93
   3 -14   0    4.87    2.34
   3 -14   1  278.20   13.55
   3 -14   2  252.98   12.70
   3 -14   3   55.42    6.05
   3 -14   4  241.48   12.20
   3 -14   5   94.78    7.53
   3 -14   6   57.47    5.90
   3 -14   7  151.00    9.48
   3 -14   8    2.22    2.60
   3 -14   8    4.15    2.55
   3 -14   9  130.39    9.92
   3 -14   9  130.37    8.85
   3 -14  10  378.24   17.40
   3 -14  10  338.85   14.70
   3 -14  11   31.26    5.60
   3 -14  11   27.20    4.35
   3 -14  12  105.76    9.33
   3 -14  12   84.54    7.11
   3 -14  13  202.85   13.20
   3 -14  13  192.37   10.77
   3 -14  14   14.78    4.32
   3 -14  14   11.64    3.25
   3 -14  15  103.46    7.93
   3 -13 -13  105.74    9.63
   3 -13 -12   23.85    4.83
   3 -13 -11  249.91   14.39
   3 -13 -10   73.90    7.78
   3 -13  -9   19.39    4.55
   3 -13  -8  242.80   13.65
   3 -13  -7   24.87    4.50
   3 -13  -6   64.76    6.85
   3 -13  -5  447.80   18.18
   3 -13  -4   14.81    3.67
   3 -13  -3  204.54   11.62
   3 -13  -2   29.71    4.73
   3 -13  -1   -1.23    2.35
   3 -13   0  362.08   15.22
   3 -13   1  136.83    8.94
   3 -13   2   51.16    5.51
   3 -13   3  466.26   17.16
   3 -13   4   17.15    3.25
   3 -13   5  142.37    8.91
   3 -13   6  484.16   17.34
   3 -13   7    0.26    2.01
   3 -13   7   -1.37    2.15
   3 -13   8   59.54    6.45
   3 -13   8   62.78    5.86
   3 -13   9  153.13   10.54
   3 -13   9  163.52    9.52
   3 -13  10    2.90    2.75
   3 -13  10    2.06    1.94
   3 -13  11  103.19    9.00
   3 -13  11  103.74    7.58
   3 -13  12  139.15   10.52
   3 -13  12  149.94    9.18
   3 -13  13   13.72    3.80
   3 -13  13   14.17    3.18
   3 -13  14  203.86   13.29
   3 -13  14  204.70   11.02
   3 -13  15   78.59    6.80
   3 -12 -14   56.56    6.99
   3 -12 -13   44.30    6.12
   3 -12 -12  170.46   11.59
   3 -12 -11   29.93    5.27
   3 -12 -10  169.12   11.25
   3 -12  -9  150.92   10.39
   3 -12  -8   16.31    3.62
   3 -12  -7  197.57   11.55
   3 -12  -6  502.40   18.99
   3 -12  -5    4.69    2.60
   3 -12  -4  463.77   17.73
   3 -12  -3  647.03   21.32
   3 -12  -2   64.26    6.13
   3 -12  -1  272.27   12.54
   3 -12   0  128.99    8.41
   3 -12   1   39.42    4.73
   3 -12   2  446.31   16.21
   3 -12   3   74.87    6.25
   3 -12   4  175.55    9.59
   3 -12   5  256.87   11.50
   3 -12   6   58.92    5.57
   3 -12   7  481.90   18.04
   3 -12   7  479.72   16.71
   3 -12   7  480.21   16.33
   3 -12   8  125.51    8.97
   3 -12   8  122.58    7.56
   3 -12   8  110.16    7.55
   3 -12   9    1.08    1.64
   3 -12   9    1.42    2.29
   3 -12   9    0.12    1.44
   3 -12  10  210.11   12.27
   3 -12  10  204.34   10.68
   3 -12  10  200.24    9.41
   3 -12  11   75.79    7.50
   3 -12  11   68.49    6.27
   3 -12  12   12.83    3.56
   3 -12  12   19.38    3.53
   3 -12  13  209.42   13.06
   3 -12  13  168.87    9.87
   3 -12  14   37.99    5.91
   3 -12  14   21.23    3.56
   3 -12  15   54.48    5.64
   3 -11 -15    6.01    3.06
   3 -11 -14   64.56    7.26
   3 -11 -13  177.59   11.53
   3 -11 -12   10.40    3.30
   3 -11 -11  125.81    9.40
   3 -11 -10  252.73   13.25
   3 -11  -9    4.46    2.69
   3 -11  -8   61.08    6.35
   3 -11  -7   76.54    6.84
   3 -11  -6    8.11    2.58
   3 -11  -5  524.85   18.58
   3 -11  -4  144.61    9.07
   3 -11  -3  116.26    7.91
   3 -11  -2  748.01   22.05
   3 -11  -1   18.97    3.46
   3 -11   0  507.50   17.09
   3 -11   1  325.33   13.13
   3 -11   2   34.43    4.24
   3 -11   3  336.50   13.26
   3 -11   4  311.36   12.61
   3 -11   5    4.15    1.95
   3 -11   6  524.83   18.25
   3 -11   6  526.26   17.25
   3 -11   6  526.74   17.06
   3 -11   7  747.54   22.90
   3 -11   7  763.14   20.65
   3 -11   7  699.78   21.05
   3 -11   8    3.93    1.75
   3 -11   8    2.52    1.89
   3 -11   8    8.62    2.69
   3 -11   9  157.56   10.01
   3 -11   9  143.78    7.62
   3 -11   9  152.23    8.79
   3 -11  10   24.57    4.47
   3 -11  10   23.33    3.07
   3 -11  10   19.41    3.44
   3 -11  11  105.11    8.67
   3 -11  11   82.91    6.48
   3 -11  11   82.30    5.57
   3 -11  12  299.89   15.24
   3 -11  12  293.65   12.81
   3 -11  13   21.70    4.76
   3 -11  13   15.46    2.89
   3 -11  14  213.85   13.29
   3 -11  14  197.99   10.59
   3 -11  15  112.76    7.98
   3 -11  16    8.80    2.85
   3 -10 -16    0.06    2.58
   3 -10 -15  114.93    9.33
   3 -10 -14  140.00   10.19
   3 -10 -13    5.06    2.86
   3 -10 -12  102.88    8.33
   3 -10 -11  112.79    8.50
   3 -10 -10   15.54    3.61
   3 -10  -9  448.85   17.24
   3 -10  -8   24.40    4.01
   3 -10  -7   16.89    3.28
   3 -10  -6  348.83   14.32
   3 -10  -5   62.88    5.95
   3 -10  -4   92.04    6.85
   3 -10  -3  325.88   13.17
   3 -10  -2   13.17    2.68
   3 -10  -1  652.29   19.44
   3 -10   0  410.38   14.54
   3 -10   1   42.47    4.40
   3 -10   2  553.30   17.18
   3 -10   3  471.55   15.60
   3 -10   4   36.72    4.24
   3 -10   5  206.05    9.89
   3 -10   6   47.49    5.03
   3 -10   6   44.78    4.50
   3 -10   6   49.73    4.55
   3 -10   7  181.61   10.09
   3 -10   7  186.79    9.37
   3 -10   7  195.65    8.83
   3 -10   8  899.66   25.59
   3 -10   8  871.38   21.55
   3 -10   8  865.88   23.43
   3 -10   9   26.33    3.15
   3 -10   9   31.32    4.53
   3 -10   9   31.18    3.92
   3 -10  10   80.46    7.20
   3 -10  10   78.05    5.22
   3 -10  11  211.28   12.05
   3 -10  11  205.37    8.49
   3 -10  12    4.55    2.62
   3 -10  13  504.27   20.41
   3  -9 -16   96.47    8.25
   3  -9 -15  102.32    8.84
   3  -9 -14   57.25    6.32
   3  -9 -13  134.70    9.27
   3  -9 -12   80.86    7.04
   3  -9 -11   44.69    5.23
   3  -9 -10  443.58   16.72
   3  -9  -9    4.46    2.27
   3  -9  -8   78.33    6.67
   3  -9  -7  379.41   14.59
   3  -9  -6   56.37    5.45
   3  -9  -5  314.40   12.76
   3  -9  -4  178.88    9.19
   3  -9  -3    0.26    1.49
   3  -9  -3   -0.05    1.53
   3  -9  -2  924.04   23.70
   3  -9  -2  909.35   23.78
   3  -9  -1  170.47    8.68
   3  -9  -1  173.19    8.87
   3  -9   0   60.34    5.11
   3  -9   0   65.02    5.39
   3  -9   1  918.62   23.39
   3  -9   1  950.59   24.28
   3  -9   2  166.12    8.48
   3  -9   2  161.99    8.66
   3  -9   3  161.29    8.40
   3  -9   3  182.61    9.22
   3  -9   4  531.74   16.45
   3  -9   4  555.04   17.54
   3  -9   5   19.92    3.42
   3  -9   5   17.06    2.94
   3  -9   6  217.81   10.62
   3  -9   6  220.25    9.26
   3  -9   7  742.71   21.95
   3  -9   7  739.62   18.72
   3  -9   8   -1.95    2.28
   3  -9   8    2.54    1.57
   3  -9   9  187.43   10.52
   3  -9   9  185.90    7.69
   3  -9  10  280.79   13.35
   3  -9  10  273.60    9.45
   3  -9  11   19.92    2.55
   3  -9  11   22.93    4.30
   3  -9  12  323.12   15.44
   3  -9  12  329.79   10.39
   3  -8 -16   79.09    7.17
   3  -8 -15   57.59    6.04
   3  -8 -14  127.38    8.84
   3  -8 -13    6.45    2.55
   3  -8 -12  148.23    9.15
   3  -8 -11  181.58   10.06
   3  -8 -10   11.07    2.95
   3  -8  -9  449.10   15.93
   3  -8  -8  440.21   15.57
   3  -8  -7    2.14    1.87
   3  -8  -6  292.14   11.88
   3  -8  -5  100.59    6.61
   3  -8  -4  320.03   12.16
   3  -8  -4  327.72   12.26
   3  -8  -3  831.81   21.89
   3  -8  -3  878.38   22.33
   3  -8  -2  149.41    7.84
   3  -8  -2  159.06    8.13
   3  -8  -1  122.11    7.01
   3  -8  -1  132.49    7.39
   3  -8   0  827.46   21.10
   3  -8   0  804.29   21.32
   3  -8   1   31.38    3.80
   3  -8   1   32.94    3.70
   3  -8   2  241.76   10.03
   3  -8   2  233.04   10.18
   3  -8   3  509.66   15.64
   3  -8   3  529.72   16.46
   3  -8   4   33.78    3.95
   3  -8   4   34.00    3.91
   3  -8   5  468.23   15.54
   3  -8   5  463.21   15.66
   3  -8   6  316.46   12.68
   3  -8   6  320.78   10.77
   3  -8   7   28.78    4.01
   3  -8   7   31.42    3.09
   3  -8   8  641.03   20.23
   3  -8   8  653.18   15.88
   3  -8   9   91.53    7.24
   3  -8   9   83.34    4.60
   3  -8  10   22.81    2.41
   3  -8  10   26.59    4.28
   3  -8  11  187.93   11.11
   3  -8  11  223.80    7.61
   3  -8  12    6.08    1.50
   3  -7 -16   66.63    6.18
   3  -7 -15  184.32   10.29
   3  -7 -14    5.41    1.79
   3  -7 -13  141.24    8.71
   3  -7 -12  157.31    9.01
   3  -7 -11   21.63    3.54
   3  -7 -10  147.78    8.39
   3  -7  -9  283.23   11.76
   3  -7  -8  313.30   12.27
   3  -7  -7  400.07   13.95
   3  -7  -6   44.27    4.30
   3  -7  -5  237.02    9.98
   3  -7  -4  596.35   17.14
   3  -7  -4  621.59   17.39
   3  -7  -3   12.95    2.41
   3  -7  -3   13.89    2.55
   3  -7  -2  319.09   11.54
   3  -7  -2  348.27   12.06
   3  -7  -1  148.22    7.53
   3  -7  -1  154.45    7.71
   3  -7   0    5.81    1.85
   3  -7   0    4.55    1.79
   3  -7   1  390.59   12.86
   3  -7   1  401.97   13.35
   3  -7   2   40.30    4.09
   3  -7   3  119.90    6.99
   3  -7   4  592.08   17.46
   3  -7   4  641.35   18.34
   3  -7   5  181.83    8.95
   3  -7   5  195.04    9.36
   3  -7   6  113.72    7.26
   3  -7   6   96.75    6.66
   3  -7   6  109.21    5.50
   3  -7   7  495.02   16.52
   3  -7   7  492.83   12.73
   3  -7   8   48.32    5.02
   3  -7   8   40.99    2.96
   3  -7   9  528.53   18.31
   3  -7   9  550.78   12.97
   3  -7  10  296.93   13.47
   3  -7  10  285.00    8.26
   3  -7  11    2.20    1.01
   3  -7  12  226.87    6.92
   3  -6 -17  166.64   11.21
   3  -6 -16  209.57   10.52
   3  -6 -15   -1.13    1.92
   3  -6 -14  155.76    8.87
   3  -6 -13  142.28    8.28
   3  -6 -12   36.92    4.26
   3  -6 -11  451.35   15.24
   3  -6 -10   14.14    2.64
   3  -6  -9   52.53    4.76
   3  -6  -8 1065.31   25.51
   3  -6  -7    2.48    1.65
   3  -6  -6  149.95    7.51
   3  -6  -5  263.27   10.11
   3  -6  -5  264.21   10.01
   3  -6  -4    0.64    1.25
   3  -6  -4    1.29    1.36
   3  -6  -3 1063.68   24.55
   3  -6  -3 1118.91   24.83
   3  -6  -2  601.29   16.64
   3  -6  -2  624.46   16.72
   3  -6  -1   -0.69    1.40
   3  -6  -1    0.54    1.44
   3  -6   0  579.73   15.96
   3  -6   0  567.43   16.00
   3  -6   1  415.10   13.26
   3  -6   2  414.83   13.44
   3  -6   3  180.83    8.27
   3  -6   3  198.65    8.93
   3  -6   4    2.96    1.64
   3  -6   4    2.72    1.82
   3  -6   5  166.64    8.47
   3  -6   5  161.86    8.23
   3  -6   6  434.24   14.94
   3  -6   6  447.78   14.90
   3  -6   6  442.26   11.51
   3  -6   7   27.97    3.79
   3  -6   7   24.87    2.23
   3  -6   7   19.93    3.26
   3  -6   8  127.79    7.97
   3  -6   8  139.14    5.04
   3  -6   9  395.78   15.25
   3  -6   9  405.78    9.64
   3  -6  10  102.92    3.94
   3  -6  11  350.54    8.24
   3  -5 -18  137.20   10.29
   3  -5 -17  139.57   10.15
   3  -5 -16   44.13    5.86
   3  -5 -16   44.57    4.64
   3  -5 -15  199.00    9.70
   3  -5 -14   73.04    5.69
   3  -5 -13  132.34    7.54
   3  -5 -12  312.19   11.88
   3  -5 -11   10.33    2.35
   3  -5 -10  184.29    8.59
   3  -5  -9 1137.08   26.10
   3  -5  -8    6.68    2.00
   3  -5  -7  724.53   18.61
   3  -5  -6  402.92   12.61
   3  -5  -5    2.79    1.40
   3  -5  -5    2.98    1.52
   3  -5  -4 1083.82   23.82
   3  -5  -4 1051.74   23.47
   3  -5  -3  241.99    9.30
   3  -5  -3  259.95    9.35
   3  -5  -2  103.82    5.74
   3  -5  -2  103.36    5.69
   3  -5  -1 1363.22   28.52
   3  -5   0  373.21   11.93
   3  -5   1  260.06    9.78
   3  -5   2  531.47   14.63
   3  -5   2  527.57   15.29
   3  -5   3    9.85    2.22
   3  -5   3    9.03    2.17
   3  -5   4  783.71   20.13
   3  -5   4  719.04   19.10
   3  -5   5  647.26   18.30
   3  -5   5  626.34   17.72
   3  -5   6   12.49    2.53
   3  -5   6   10.22    1.43
   3  -5   6   10.91    2.41
   3  -5   7  427.89   14.98
   3  -5   7  438.14   15.07
   3  -5   7  449.04    9.93
   3  -5   8  682.48   13.25
   3  -5   9    1.37    0.62
   3  -4 -18   70.76    7.39
   3  -4 -17   78.93    7.47
   3  -4 -16  166.51   10.81
   3  -4 -15   41.56    5.38
   3  -4 -15   55.41    4.75
   3  -4 -14  181.31   10.67
   3  -4 -14  223.89    9.55
   3  -4 -13  224.91    9.50
   3  -4 -12    4.04    1.64
   3  -4 -11  337.17   11.66
   3  -4 -10  774.43   19.47
   3  -4  -9    1.16    1.41
   3  -4  -8  394.80   12.24
   3  -4  -7  252.52    9.24
   3  -4  -6  207.53    8.10
   3  -4  -6  194.98    7.64
   3  -4  -5 1046.88   22.92
   3  -4  -5 1046.16   22.47
   3  -4  -4   97.69    5.49
   3  -4  -4   99.07    5.20
   3  -4  -3  145.44    6.56
   3  -4  -3  131.09    6.13
   3  -4  -2 2028.81   38.07
   3  -4  -1   21.53    2.65
   3  -4   0  410.25   12.29
   3  -4   1  861.46   19.51
   3  -4   1  879.64   20.63
   3  -4   2   20.73    2.78
   3  -4   2   19.75    2.59
   3  -4   3 1037.74   24.10
   3  -4   3 1040.58   23.29
   3  -4   4  834.41   20.51
   3  -4   4  838.95   21.20
   3  -4   5  298.64   11.37
   3  -4   5  281.67   10.81
   3  -4   6  294.69   11.45
   3  -4   6  294.80   11.63
   3  -4   6  297.53    7.04
   3  -4   7  188.01    9.31
   3  -4   7  176.43    4.37
   3  -3 -19    5.52    3.45
   3  -3 -18   51.11    6.32
   3  -3 -17  100.34    8.57
   3  -3 -16   10.92    2.35
   3  -3 -16    7.56    2.94
   3  -3 -15  249.54   12.82
   3  -3 -15  269.59   10.04
   3  -3 -14  132.45    8.85
   3  -3 -14  150.92    7.30
   3  -3 -13   50.82    5.44
   3  -3 -13   64.46    4.59
   3  -3 -12  324.47   10.94
   3  -3 -11  220.85    8.61
   3  -3 -10  288.15    9.95
   3  -3  -9  449.13   12.86
   3  -3  -8  353.84   10.90
   3  -3  -7   98.66    5.26
   3  -3  -7   99.77    4.96
   3  -3  -6  365.49   10.83
   3  -3  -6  348.63   10.14
   3  -3  -5   54.85    3.93
   3  -3  -5   52.65    3.53
   3  -3  -4  251.08    8.56
   3  -3  -4  233.57    7.99
   3  -3  -3  337.12    9.98
   3  -3  -2   21.14    2.41
   3  -3  -1  747.22   17.56
   3  -3   0   41.50    3.11
   3  -3   0   44.34    3.58
   3  -3   1  267.95    9.49
   3  -3   1  260.55    8.65
   3  -3   2 1580.91   32.29
   3  -3   2 1604.94   31.26
   3  -3   3  287.67   10.00
   3  -3   3  306.09   10.81
   3  -3   4  252.91   10.02
   3  -3   4  250.64    9.61
   3  -3   5 1227.59   28.00
   3  -3   6   17.09    2.95
   3  -3   7  429.89   14.83
   3  -2 -19  140.22   10.46
   3  -2 -18   86.44    8.03
   3  -2 -17   33.70    5.17
   3  -2 -16  209.05    8.84
   3  -2 -16  217.94   11.98
   3  -2 -15  174.23    7.68
   3  -2 -15  147.72    9.57
   3  -2 -15  158.04    6.90
   3  -2 -14   86.25    7.16
   3  -2 -14  102.72    5.50
   3  -2 -13  208.50   10.87
   3  -2 -13  225.12    8.34
   3  -2 -12    0.88    1.70
   3  -2 -12    5.63    1.77
   3  -2 -11  235.96   10.83
   3  -2 -11  247.73    8.61
   3  -2 -10  657.07   19.12
   3  -2 -10  667.45   16.14
   3  -2  -9    9.22    1.76
   3  -2  -8  305.48    9.35
   3  -2  -8  275.96    8.38
   3  -2  -7  793.56   17.73
   3  -2  -7  781.59   16.75
   3  -2  -6   14.62    1.76
   3  -2  -6   17.29    2.23
   3  -2  -5  466.53   12.18
   3  -2  -5  444.58   11.27
   3  -2  -4  453.59   11.44
   3  -2  -3   23.52    2.30
   3  -2  -2 1227.93   22.72
   3  -2  -2 1196.61   24.22
   3  -2  -1  257.18    8.62
   3  -2  -1  271.91    7.80
   3  -2   0  991.64   21.81
   3  -2   0 1027.90   20.57
   3  -2   1  649.19   15.25
   3  -2   1  644.11   16.29
   3  -2   2  263.29    9.52
   3  -2   2  250.83    8.70
   3  -2   3  152.38    7.28
   3  -2   4  609.72   11.28
   3  -2   4  608.32   16.96
   3  -2   5    5.28    1.57
   3  -2   6  151.87    8.09
   3  -2   7  294.03   11.91
   3  -2  10  324.66    7.17
   3  -1 -20  118.22    9.73
   3  -1 -19   56.60    6.52
   3  -1 -18   68.41    7.01
   3  -1 -17  135.14    9.51
   3  -1 -16    7.02    2.96
   3  -1 -15  180.91    7.31
   3  -1 -15  164.87   10.01
   3  -1 -15  177.52    6.59
   3  -1 -14  326.50    9.97
   3  -1 -14  309.27   13.64
   3  -1 -14  333.12    9.68
   3  -1 -14  315.69   12.10
   3  -1 -13   16.62    3.36
   3  -1 -13   11.83    1.81
   3  -1 -13   15.99    2.08
   3  -1 -12   39.45    4.58
   3  -1 -12   48.01    3.32
   3  -1 -11  404.09   14.69
   3  -1 -11  448.19   11.59
   3  -1 -10   81.61    5.98
   3  -1 -10   91.23    4.58
   3  -1  -9  567.98   16.83
   3  -1  -9  577.79   13.65
   3  -1  -9  555.31   12.52
   3  -1  -8  306.42   11.39
   3  -1  -8  332.38    9.36
   3  -1  -8  316.73    8.32
   3  -1  -7   38.78    3.82
   3  -1  -7   31.79    2.67
   3  -1  -7   30.07    2.22
   3  -1  -6 1252.01   26.56
   3  -1  -6 1260.08   24.15
   3  -1  -6 1174.82   22.54
   3  -1  -5   14.69    2.35
   3  -1  -5   15.56    1.68
   3  -1  -4  300.66    8.33
   3  -1  -3 1157.31   20.57
   3  -1  -3 1140.46   22.41
   3  -1  -2  145.15    5.91
   3  -1  -2  140.84    5.70
   3  -1  -2  140.15    4.71
   3  -1  -1  686.38   15.17
   3  -1  -1  693.52   14.46
   3  -1  -1  672.60   15.83
   3  -1   0  368.20    9.44
   3  -1   0  368.63    9.80
   3  -1   0  367.43   10.84
   3  -1   1    7.56    1.25
   3  -1   1    4.31    1.45
   3  -1   2  747.24   14.52
   3  -1   2  753.74   18.43
   3  -1   3 1990.93   32.67
   3  -1   3 1979.23   38.88
   3  -1   4    2.01    0.50
   3  -1   4    4.57    1.83
   3  -1   5  405.51   13.61
   3  -1   6  423.26   14.42
   3  -1   7    5.64    2.00
   3  -1   8  388.40    9.11
   3  -1   9   36.39    2.01
   3   0 -20   33.96    5.25
   3   0 -19   95.78    8.46
   3   0 -18  174.47   11.16
   3   0 -17   20.25    3.91
   3   0 -16  239.37   12.45
   3   0 -15  179.73    6.55
   3   0 -15  158.75    7.93
   3   0 -15  175.83   10.23
   3   0 -15  172.23    5.51
   3   0 -14    0.38    0.90
   3   0 -14    1.40    1.71
   3   0 -14    0.15    1.15
   3   0 -14    1.17    0.97
   3   0 -14   -2.65    1.68
   3   0 -13  235.64    8.87
   3   0 -13  254.33    7.46
   3   0 -13  237.59   11.39
   3   0 -13  269.80    7.66
   3   0 -13  238.67   10.16
   3   0 -12  396.31    9.64
   3   0 -12  389.66   14.61
   3   0 -12  424.70   10.36
   3   0 -12  408.68   13.62
   3   0 -11   57.84    5.23
   3   0 -11   61.89    3.41
   3   0 -11   67.33    3.09
   3   0 -10   64.20    5.27
   3   0 -10   64.94    3.49
   3   0 -10   65.96    2.93
   3   0  -9  130.51    7.34
   3   0  -9  143.20    5.35
   3   0  -9  132.74    4.24
   3   0  -8  225.95    9.42
   3   0  -8  218.53    6.96
   3   0  -8  218.30    5.73
   3   0  -7  710.18   18.24
   3   0  -7  717.50   15.27
   3   0  -7  673.57   13.36
   3   0  -6   34.55    3.41
   3   0  -6   30.45    1.95
   3   0  -5  458.44   12.96
   3   0  -5  443.75    8.01
   3   0  -5  433.40    9.95
   3   0  -4  924.33   20.32
   3   0  -4  905.81   15.42
   3   0  -4  891.64   17.71
   3   0  -3  251.25    8.35
   3   0  -3  243.34    7.35
   3   0  -2  376.25   10.38
   3   0  -2  382.05   10.14
   3   0  -1  114.76    4.90
   3   0  -1  121.31    5.39
   3   0   0   32.63    2.42
   3   0   0   27.63    2.78
   3   0   1  673.46   13.87
   3   0   1  673.51   16.65
   3   0   2  418.35    9.22
   3   0   2  423.53   12.70
   3   0   3  281.36    6.37
   3   0   3  289.75   10.48
   3   0   4  279.83    5.55
   3   0   4  316.60   11.37
   3   0   5  253.33   10.39
   3   0   6  131.76    7.57
   3   0   6  117.60    4.72
   3   0   7  256.50   10.68
   3   0   7  240.29    6.87
   3   0   8    7.05    2.02
   3   0   8    9.81    1.18
   3   1 -20   90.83    8.37
   3   1 -19  153.31   10.70
   3   1 -18    2.45    2.71
   3   1 -17  252.34   13.13
   3   1 -16  102.95    8.09
   3   1 -15   38.92    2.42
   3   1 -15   43.14    3.97
   3   1 -15   37.87    4.90
   3   1 -14  465.84   10.10
   3   1 -14  449.95   13.21
   3   1 -14  447.89   16.69
   3   1 -14  465.41    9.10
   3   1 -13  484.39   13.38
   3   1 -13  522.35   10.54
   3   1 -13  521.36   17.63
   3   1 -13  545.50   10.79
   3   1 -13  510.73   16.00
   3   1 -12   71.67    4.07
   3   1 -12   74.94    2.62
   3   1 -12   73.65    6.08
   3   1 -12   79.85    3.31
   3   1 -12   73.51    5.43
   3   1 -12   75.83    2.62
   3   1 -11  101.19    4.47
   3   1 -11  104.13    2.86
   3   1 -11  122.00    7.40
   3   1 -11  112.43    4.14
   3   1 -11  109.11    2.90
   3   1 -11  109.85    6.50
   3   1 -10    6.85    1.10
   3   1 -10    9.03    2.39
   3   1 -10    7.07    1.89
   3   1 -10    9.43    1.32
   3   1  -9   48.27    2.32
   3   1  -9   52.37    4.60
   3   1  -9   49.01    2.80
   3   1  -9   52.87    4.36
   3   1  -8  361.12    7.12
   3   1  -8  389.15    9.53
   3   1  -8  364.15   12.44
   3   1  -7    3.33    1.89
   3   1  -7    2.43    0.53
   3   1  -6  737.68   18.06
   3   1  -6  698.92   13.11
   3   1  -5  820.42   19.07
   3   1  -5  788.94   15.13
   3   1  -4   47.30    3.60
   3   1  -4   43.13    2.56
   3   1  -3  610.03   14.68
   3   1  -3  581.26   13.07
   3   1  -2    9.23    1.65
   3   1  -2   15.62    1.86
   3   1  -1  332.56    9.16
   3   1  -1  317.40    9.52
   3   1   0  461.33   11.00
   3   1   0  459.89   12.53
   3   1   1   15.23    1.69
   3   1   1   15.29    2.25
   3   1   2  304.87    7.48
   3   1   2  302.00   10.45
   3   1   2  299.24    9.12
   3   1   3  731.16   13.85
   3   1   3  746.90   19.02
   3   1   3  741.36   16.41
   3   1   4  132.69    7.17
   3   1   4  124.86    5.24
   3   1   5   95.87    6.13
   3   1   5   92.11    4.29
   3   1   6   96.68    6.36
   3   1   6   96.24    4.19
   3   1   7  120.63    7.38
   3   1   7  110.79    4.32
   3   2 -20   74.27    7.80
   3   2 -19   27.31    4.68
   3   2 -18  221.49   12.61
   3   2 -17   60.97    6.48
   3   2 -16   73.62    6.90
   3   2 -15  178.41   10.39
   3   2 -15  173.29    7.60
   3   2 -14   82.79    6.85
   3   2 -14   84.17    4.82
   3   2 -13  428.63   15.74
   3   2 -13  407.47   11.29
   3   2 -13  437.38   14.42
   3   2 -12  792.26   17.06
   3   2 -12  798.62   22.63
   3   2 -12  822.46   14.01
   3   2 -12  821.68   21.37
   3   2 -11   91.02    3.89
   3   2 -11   87.80    6.37
   3   2 -11   95.94    3.23
   3   2 -11   93.53    6.04
   3   2 -10  598.36   17.91
   3   2 -10  612.13   12.30
   3   2 -10  632.12   17.51
   3   2  -9  268.49   10.83
   3   2  -9  274.70    7.14
   3   2  -9  295.55   10.84
   3   2  -8    5.20    2.04
   3   2  -8   10.90    2.16
   3   2  -7  519.42   15.29
   3   2  -7  568.69   15.63
   3   2  -6  959.38   22.72
   3   2  -6 1061.42   23.47
   3   2  -5  153.74    6.96
   3   2  -5  160.00    7.27
   3   2  -4 1158.57   24.51
   3   2  -4 1182.19   25.30
   3   2  -3  182.48    7.05
   3   2  -3  173.78    7.41
   3   2  -2  397.31   10.98
   3   2  -2  429.07   12.24
   3   2  -1  579.91   13.63
   3   2  -1  583.55   14.88
   3   2   0   23.92    2.22
   3   2   0   23.59    2.63
   3   2   1  104.52    4.34
   3   2   1  106.85    5.25
   3   2   2  241.99    6.83
   3   2   2  258.25    8.40
   3   2   3    2.55    0.92
   3   2   3    3.07    1.71
   3   2   3    2.71    1.14
   3   2   4  417.76   13.68
   3   2   4  392.11   10.64
   3   2   5  351.37   12.67
   3   2   5  322.26    9.17
   3   2   6   37.50    4.13
   3   3 -20   44.65    5.90
   3   3 -19  153.63   10.66
   3   3 -18   24.19    4.39
   3   3 -17  102.20    8.36
   3   3 -16  111.14    8.44
   3   3 -15    0.73    2.02
   3   3 -15   -1.19    1.13
   3   3 -14   22.89    3.79
   3   3 -13  758.07   22.30
   3   3 -12   20.73    3.50
   3   3 -12   22.91    3.17
   3   3 -11  490.13   16.26
   3   3 -11  495.39   15.43
   3   3 -10  179.26    8.99
   3   3 -10  183.26    4.82
   3   3 -10  187.63    4.82
   3   3 -10  190.06    8.76
   3   3  -9  369.83   13.06
   3   3  -9  379.60    8.59
   3   3  -9  385.16   12.87
   3   3  -8 1072.86   25.34
   3   3  -8 1099.77   25.19
   3   3  -7   48.44    4.26
   3   3  -7   43.18    3.92
   3   3  -6  120.13    6.44
   3   3  -6  116.62    6.41
   3   3  -5 1808.89   35.37
   3   3  -5 1808.52   35.99
   3   3  -4   75.70    4.71
   3   3  -4   73.43    4.86
   3   3  -3  513.71   13.67
   3   3  -3  539.26   14.66
   3   3  -2  849.99   18.90
   3   3  -2  876.14   20.13
   3   3  -1  350.25   10.04
   3   3  -1  380.54   11.54
   3   3  -1  355.83   11.10
   3   3   0  406.20   10.67
   3   3   0  405.84   12.55
   3   3   0  412.43   11.86
   3   3   1 1071.42   21.26
   3   3   1 1102.30   24.76
   3   3   1 1090.15   22.94
   3   3   2   48.53    3.05
   3   3   2   49.15    4.32
   3   3   2   54.55    3.69
   3   3   3  362.16   12.61
   3   3   3  346.28   10.19
   3   3   4  558.82   16.92
   3   3   5  138.97    7.89
   3   4 -20  151.47   11.06
   3   4 -19   20.99    4.44
   3   4 -18  115.37    9.12
   3   4 -17   47.30    5.72
   3   4 -16   10.24    3.20
   3   4 -15  159.55    9.84
   3   4 -14  175.23   10.08
   3   4 -13   41.62    4.89
   3   4 -12  486.86   16.73
   3   4 -11  310.25   12.55
   3   4 -11  317.20   12.01
   3   4 -10  205.14    9.69
   3   4 -10  186.63    4.56
   3   4 -10  197.82    4.76
   3   4 -10  198.00    9.10
   3   4  -9  364.20   13.03
   3   4  -9  357.26    8.38
   3   4  -9  380.90   12.91
   3   4  -8   18.31    2.86
   3   4  -8   21.20    1.86
   3   4  -8   24.69    3.09
   3   4  -7  501.05   15.19
   3   4  -7  511.74   12.08
   3   4  -7  567.77   16.05
   3   4  -6  689.83   18.26
   3   4  -6  709.35   15.82
   3   4  -6  744.59   18.89
   3   4  -5    1.72    1.60
   3   4  -5    0.78    0.93
   3   4  -5    2.07    1.29
   3   4  -4  327.12   10.65
   3   4  -4  299.89    9.60
   3   4  -4  323.83   11.01
   3   4  -3  113.65    5.75
   3   4  -3  118.10    5.78
   3   4  -3  113.97    6.11
   3   4  -2   15.58    2.22
   3   4  -2   15.57    2.37
   3   4  -2   19.25    2.54
   3   4  -1  514.26   13.12
   3   4  -1  480.81   14.17
   3   4  -1  511.61   14.09
   3   4   0  448.72   11.84
   3   4   0  454.16   13.78
   3   4   0  446.12   12.86
   3   4   1  307.78    9.29
   3   4   1  317.74   11.40
   3   4   1  304.98   10.01
   3   4   2  351.77   10.23
   3   4   2  431.23   14.45
   3   4   3   70.75    5.44
   3   4   4  201.07    9.60
   3   5 -20   -3.34    2.81
   3   5 -19  136.05   10.15
   3   5 -18   61.63    6.78
   3   5 -17   40.34    5.45
   3   5 -16  137.77    9.45
   3   5 -15  109.04    8.22
   3   5 -14  144.52    9.13
   3   5 -13   53.56    5.47
   3   5 -12    0.97    1.86
   3   5 -11  154.38    8.75
   3   5 -10  362.51   13.51
   3   5 -10  358.56    7.40
   3   5 -10  352.69   12.89
   3   5  -9   59.95    5.16
   3   5  -9   61.66    2.96
   3   5  -9   63.34    5.08
   3   5  -8  645.20   18.24
   3   5  -8  633.30   13.74
   3   5  -8  628.46   17.99
   3   5  -7  653.59   18.28
   3   5  -7  671.43   14.96
   3   5  -7  696.76   18.74
   3   5  -6   30.48    3.42
   3   5  -6   33.95    2.78
   3   5  -6   32.15    3.49
   3   5  -5  211.26    8.80
   3   5  -5  212.16    7.67
   3   5  -5  217.43    9.11
   3   5  -4   91.69    5.51
   3   5  -4   99.52    5.26
   3   5  -4  100.59    6.00
   3   5  -3  194.23    7.91
   3   5  -3  181.67    7.61
   3   5  -3  181.48    8.13
   3   5  -2  502.67   13.79
   3   5  -2  503.99   14.38
   3   5  -2  510.59   14.61
   3   5  -1  229.55    8.37
   3   5  -1  219.81    9.06
   3   5  -1  227.82    8.91
   3   5   0  318.22   10.24
   3   5   0  337.38   11.81
   3   5   1  406.46   11.95
   3   5   1  444.93   14.16
   3   5   2   80.39    5.77
   3   5   3  326.10   12.60
   3   6 -20  105.98    9.30
   3   6 -19   10.55    3.37
   3   6 -18   25.75    4.57
   3   6 -17  191.42   11.67
   3   6 -16    2.76    2.48
   3   6 -15  331.20   14.86
   3   6 -14  238.88   12.11
   3   6 -13    7.35    2.51
   3   6 -12  400.56   15.34
   3   6 -11  149.55    8.76
   3   6 -10    9.60    2.65
   3   6 -10   15.39    1.26
   3   6  -9  373.85   13.71
   3   6  -9  382.47    9.22
   3   6  -8  125.86    7.44
   3   6  -8  135.34    5.26
   3   6  -7  192.97    9.14
   3   6  -7  208.50    7.22
   3   6  -6  367.41   12.61
   3   6  -6  352.36   10.48
   3   6  -5  101.19    6.12
   3   6  -5  108.55    5.58
   3   6  -4  111.31    6.30
   3   6  -4  119.11    6.06
   3   6  -3  223.96    9.01
   3   6  -3  228.52    8.98
   3   6  -2    0.56    1.29
   3   6  -2   -0.06    1.43
   3   6  -1  377.99   12.03
   3   6  -1  378.09   12.75
   3   6   0  643.17   16.92
   3   6   0  649.33   18.25
   3   6   1   15.65    2.80
   3   6   2  338.17   12.95
   3   7 -19   66.35    7.34
   3   7 -18   90.22    8.21
   3   7 -17   18.85    4.05
   3   7 -16  141.71    9.86
   3   7 -15  224.53   12.20
   3   7 -14   79.34    7.12
   3   7 -13  249.86   12.28
   3   7 -12  138.05    8.78
   3   7 -11  132.55    8.40
   3   7 -10  313.89   13.13
   3   7 -10  335.44    7.88
   3   7  -9   30.67    4.07
   3   7  -9   34.63    2.45
   3   7  -8   49.68    4.88
   3   7  -8   53.26    3.38
   3   7  -7  252.86   10.84
   3   7  -7  268.91    8.75
   3   7  -6   19.88    3.16
   3   7  -6   22.45    2.67
   3   7  -5  102.48    6.40
   3   7  -5   99.86    5.62
   3   7  -4  248.89   10.12
   3   7  -4  246.68    9.52
   3   7  -3   18.79    3.01
   3   7  -3   19.15    2.84
   3   7  -2  374.29   12.67
   3   7  -2  397.32   13.25
   3   7  -1  427.52   13.76
   3   7  -1  454.43   14.72
   3   7   0  152.54    8.17
   3   7   1  553.30   17.47
   3   8 -19   61.41    7.15
   3   8 -18    1.27    2.23
   3   8 -17  207.45   12.42
   3   8 -16  171.32   11.05
   3   8 -15  113.38    8.87
   3   8 -14  377.26   16.09
   3   8 -13   45.71    5.47
   3   8 -12   57.50    5.89
   3   8 -11  299.84   13.30
   3   8 -11  304.03    6.49
   3   8 -10   24.99    3.98
   3   8 -10   33.85    2.34
   3   8  -9  177.03    9.68
   3   8  -9  194.90    6.67
   3   8  -8  250.03   11.20
   3   8  -8  252.32    8.40
   3   8  -7    3.87    2.28
   3   8  -7    5.56    1.54
   3   8  -6  188.09    9.25
   3   8  -6  179.94    7.68
   3   8  -5   45.97    4.57
   3   8  -5   51.14    4.17
   3   8  -4    1.35    1.58
   3   8  -4    5.44    1.95
   3   8  -3  229.87   10.19
   3   8  -3  270.18   10.64
   3   8  -2  199.66    9.49
   3   8  -2  224.87    9.92
   3   8  -1  183.92    9.03
   3   8  -1  213.79    9.94
   3   8   0  184.05    9.51
   3   9 -18  161.72   11.30
   3   9 -17  139.33   10.37
   3   9 -16  144.80   10.35
   3   9 -15  116.60    9.19
   3   9 -14    2.51    2.80
   3   9 -13  227.06   12.26
   3   9 -12  178.18   10.48
   3   9 -11    7.44    2.61
   3   9 -11   10.81    1.25
   3   9 -10  420.47   16.05
   3   9 -10  417.55   10.56
   3   9  -9  296.60   12.94
   3   9  -9  286.29    8.97
   3   9  -8   12.53    2.90
   3   9  -8   15.39    2.21
   3   9  -7  143.68    8.54
   3   9  -7  141.96    6.78
   3   9  -6   95.25    6.93
   3   9  -6   97.25    5.81
   3   9  -5  195.69   10.00
   3   9  -5  205.92    8.97
   3   9  -4  479.35   16.19
   3   9  -4  466.24   14.87
   3   9  -3   73.49    6.03
   3   9  -3   74.05    5.61
   3   9  -2  290.16   12.22
   3   9  -2  297.41   12.00
   3  10 -18    8.57    3.75
   3  10 -17   93.38    8.66
   3  10 -16  200.63   12.40
   3  10 -15   -0.91    2.23
   3  10 -14  210.56   12.25
   3  10 -13   52.16    6.09
   3  10 -12   29.86    4.80
   3  10 -11  293.35   13.80
   3  10 -11  289.91    7.95
   3  10 -10  192.88   10.89
   3  10 -10  200.98    7.16
   3  10  -9  144.78    9.44
   3  10  -9  151.75    6.57
   3  10  -8  273.83   12.81
   3  10  -8  278.15    9.83
   3  10  -7  154.66    9.33
   3  10  -7  156.62    7.47
   3  10  -6  137.35    8.72
   3  10  -6  148.29    7.58
   3  10  -5  336.96   14.14
   3  10  -5  352.98   12.61
   3  10  -4    2.71    2.27
   3  10  -4    3.50    1.57
   3  10  -3  547.08   18.49
   3  10  -3  583.99   17.97
   3  11 -17  119.38   10.00
   3  11 -16   -0.95    5.48
   3  11 -15  155.03   10.88
   3  11 -14   22.22    4.31
   3  11 -13   19.33    7.90
   3  11 -12  119.45    9.25
   3  11 -11   47.98    5.93
   3  11 -10   36.68    5.13
   3  11 -10   37.83    3.15
   3  11  -9  221.14   11.99
   3  11  -9  228.15    8.79
   3  11  -8    2.06    2.13
   3  11  -8    0.79    1.47
   3  11  -7  111.79    8.33
   3  11  -7  107.35    6.43
   3  11  -6  243.45   12.49
   3  11  -6  261.77   10.73
   3  11  -5    0.90    2.35
   3  11  -5    1.87    1.84
   3  11  -4  399.15   15.97
   3  12 -16  106.22    9.43
   3  12 -15    8.19    3.17
   3  12 -14   50.93   10.00
   3  12 -13   91.97    8.48
   3  12 -12   -1.47    2.35
   3  12 -11   89.42    8.22
   3  12 -10  215.70   12.52
   3  12  -9    3.46    3.07
   3  12  -9    6.70    1.98
   3  12  -8  212.24   12.25
   3  12  -8  207.77    9.21
   3  12  -7  155.46   10.39
   3  12  -7  142.03    7.77
   3  12  -6    4.87    3.00
   3  12  -6    1.13    1.39
   3  13 -15   32.16    5.52
   3  13 -14   36.49    5.74
   3  13 -13    3.42    2.71
   3  13 -12  250.84   14.41
   3  13 -11   43.10    6.26
   3  13 -10   -4.58    3.45
   3  13  -9  183.42   11.91
   3  13  -8   54.18    6.61
   3  13  -8   51.14    4.89
   3  13  -7  127.52    9.80
   3  13  -7  133.18    8.04
   3  14 -14   10.25    4.17
   3  14 -13  147.22   11.52
   3  14 -12   31.19    5.55
   3  14 -11  113.71   10.03
   3  14 -10   67.24    7.87
   3  14  -9   93.90    8.99
   3  15 -12   70.93    8.27
   3  15 -11  132.89   11.25
   4 -17  -1  114.77   10.23
   4 -17   0   57.04    7.50
   4 -17   1   25.47    5.01
   4 -17   2  164.96   11.75
   4 -17   3   16.85    4.27
   4 -17   4   92.44    8.70
   4 -17   5  161.09   11.50
   4 -17   6   -3.59    2.51
   4 -17   7  105.51    9.08
   4 -17   8   98.61    8.93
   4 -17   9    1.89    2.22
   4 -17  10  167.77   11.60
   4 -17  11  122.63   10.03
   4 -17  12   12.73    4.21
   4 -16  -4   32.20    5.78
   4 -16  -3   92.52    8.95
   4 -16  -2  142.38   10.93
   4 -16  -1   29.09    5.11
   4 -16   0   53.17    6.64
   4 -16   1  172.20   11.76
   4 -16   2    4.91    2.44
   4 -16   3   85.22    8.09
   4 -16   4  126.92    9.94
   4 -16   5    2.69    2.33
   4 -16   6  170.73   11.46
   4 -16   7   68.60    7.63
   4 -16   7   67.15    7.35
   4 -16   8   32.83    5.73
   4 -16   8   24.23    4.66
   4 -16   9  151.36   10.64
   4 -16  10   53.62    6.47
   4 -16  11   30.04    5.09
   4 -16  12   84.27    8.13
   4 -16  13   28.95    4.83
   4 -15  -7   19.98    4.67
   4 -15  -6   25.50    4.89
   4 -15  -5   13.30    3.48
   4 -15  -4  134.90   10.52
   4 -15  -3  104.02    9.22
   4 -15  -2    8.01    3.06
   4 -15  -1  170.76   11.50
   4 -15   0  141.67   10.43
   4 -15   1   43.52    6.32
   4 -15   2  184.79   11.71
   4 -15   3  105.48    8.90
   4 -15   4   41.03    5.83
   4 -15   5  203.89   12.25
   4 -15   6   71.64    7.64
   4 -15   6   70.94    7.69
   4 -15   7   58.30    6.85
   4 -15   7   60.91    6.68
   4 -15   8  155.53   11.41
   4 -15   8  168.65   11.01
   4 -15   9   30.59    5.35
   4 -15   9   25.40    4.95
   4 -15  10   87.41    8.76
   4 -15  10   80.90    7.67
   4 -15  11  111.77    9.03
   4 -15  12    9.11    2.68
   4 -15  13   39.03    5.21
   4 -15  14  112.90    9.31
   4 -14 -10  157.79   11.90
   4 -14  -9   -2.29    3.05
   4 -14  -8   84.52    8.51
   4 -14  -7   75.34    7.86
   4 -14  -6   51.92    6.67
   4 -14  -5   91.64    8.52
   4 -14  -4   70.99    7.60
   4 -14  -3    4.96    2.98
   4 -14  -2  111.80    9.08
   4 -14  -1   22.48    4.34
   4 -14   0   44.14    5.83
   4 -14   1  200.36   11.93
   4 -14   2   43.13    5.53
   4 -14   3  107.38    8.59
   4 -14   4  133.21    9.53
   4 -14   5    0.41    2.06
   4 -14   6   75.16    7.61
   4 -14   6   75.86    7.21
   4 -14   7  124.66    9.93
   4 -14   7  141.14    9.81
   4 -14   8   -0.39    2.75
   4 -14   8   -1.13    2.22
   4 -14   9  179.36   12.06
   4 -14   9  171.96    8.46
   4 -14  10  133.18   10.61
   4 -14  10  126.32    9.46
   4 -14  11    4.16    2.38
   4 -14  11    4.78    3.12
   4 -14  12  108.43    8.79
   4 -14  13   45.44    5.87
   4 -14  14    6.76    3.44
   4 -14  15  112.12    9.33
   4 -13 -12   44.18    6.22
   4 -13 -11  147.93   11.17
   4 -13 -10    2.07    3.03
   4 -13  -9  173.50   11.85
   4 -13  -8   50.01    6.46
   4 -13  -7    2.83    2.15
   4 -13  -6  296.81   15.19
   4 -13  -5  113.17    9.22
   4 -13  -4   25.59    4.76
   4 -13  -3  149.64   10.28
   4 -13  -2   57.34    6.35
   4 -13  -1  130.88    9.35
   4 -13   0   82.79    5.11
   4 -13   1   52.42    5.92
   4 -13   2  234.98   12.38
   4 -13   3  387.80   16.24
   4 -13   4    7.39    2.77
   4 -13   5   19.34    3.84
   4 -13   6   32.38    5.13
   4 -13   6   32.76    4.73
   4 -13   7   -0.50    2.21
   4 -13   7    0.51    2.20
   4 -13   8  190.40   12.05
   4 -13   8  178.16   10.94
   4 -13   9    9.61    3.49
   4 -13   9    8.13    2.80
   4 -13  10   13.22    3.36
   4 -13  10   11.42    3.59
   4 -13  11  176.14   12.19
   4 -13  11  136.21    9.80
   4 -13  12   37.30    5.76
   4 -13  12   30.46    5.13
   4 -13  13   55.67    6.33
   4 -13  14   90.99    8.24
   4 -13  15   11.71    4.07
   4 -12 -14    2.50    3.63
   4 -12 -13   87.31    8.52
   4 -12 -12  107.50    9.27
   4 -12 -11    3.32    2.91
   4 -12 -10  150.78   10.82
   4 -12  -9   46.71    6.23
   4 -12  -8   37.06    5.64
   4 -12  -7  325.49   15.56
   4 -12  -6   70.14    7.08
   4 -12  -5   57.65    6.40
   4 -12  -4  281.61   13.82
   4 -12  -3   14.83    3.52
   4 -12  -2  178.35   10.61
   4 -12  -1  236.69   12.24
   4 -12   0    0.14    2.28
   4 -12   1  118.27    8.48
   4 -12   2  210.66   11.43
   4 -12   3    5.13    2.20
   4 -12   4  355.10   15.01
   4 -12   5   46.79    5.61
   4 -12   5   51.43    5.73
   4 -12   6   28.58    4.56
   4 -12   6   26.26    4.45
   4 -12   7  189.52   11.53
   4 -12   7  152.84    9.87
   4 -12   8   26.76    4.92
   4 -12   8   27.99    4.37
   4 -12   9  102.53    8.83
   4 -12   9   99.18    7.97
   4 -12  10  115.28    9.45
   4 -12  10   85.40    7.62
   4 -12  11   33.96    5.58
   4 -12  11   28.37    4.54
   4 -12  12   53.88    6.81
   4 -12  12   54.01    6.21
   4 -12  13   59.18    7.33
   4 -12  13   55.10    6.38
   4 -12  14    7.05    2.66
   4 -12  15  117.42    9.07
   4 -12  16   82.78    8.17
   4 -11 -14  116.41    9.59
   4 -11 -13   38.14    5.73
   4 -11 -12    2.53    2.47
   4 -11 -11   80.08    7.80
   4 -11 -10    5.49    2.89
   4 -11  -9   95.06    8.26
   4 -11  -8   75.85    7.33
   4 -11  -7    5.83    2.66
   4 -11  -6  312.88   14.46
   4 -11  -5  251.41   12.65
   4 -11  -4   -0.19    2.20
   4 -11  -3  555.06   19.33
   4 -11  -2  304.63   13.69
   4 -11  -1  144.21    9.12
   4 -11   0  233.14   11.74
   4 -11   1  154.11    9.29
   4 -11   2  136.22    8.75
   4 -11   3  404.95   15.82
   4 -11   4  192.99   10.60
   4 -11   4  199.54   10.86
   4 -11   5   67.08    6.37
   4 -11   5   46.94    5.43
   4 -11   6  157.65   10.02
   4 -11   6  164.84    9.85
   4 -11   7   41.63    4.47
   4 -11   7   28.98    4.59
   4 -11   7   36.52    4.87
   4 -11   8  279.42   14.32
   4 -11   8  318.94   14.08
   4 -11   8  294.92   11.69
   4 -11   9  153.27   10.62
   4 -11   9  166.31   10.10
   4 -11   9  156.13    7.94
   4 -11  10   -1.38    2.27
   4 -11  11  238.91   13.92
   4 -11  12  169.06   11.85
   4 -11  13    0.93    2.28
   4 -10 -15  117.19    9.50
   4 -10 -14   14.41    3.88
   4 -10 -13   60.79    6.73
   4 -10 -12  195.06   11.76
   4 -10 -11   22.29    4.36
   4 -10 -10   56.53    6.33
   4 -10  -9  100.66    8.02
   4 -10  -8    9.07    3.05
   4 -10  -7  300.96   13.89
   4 -10  -6  188.58   10.61
   4 -10  -5    3.40    2.28
   4 -10  -4  255.63   12.20
   4 -10  -3  174.81    9.90
   4 -10  -2   71.88    6.23
   4 -10  -1  676.09   20.89
   4 -10   0   46.88    5.00
   4 -10   1  120.82    7.96
   4 -10   2  126.62    8.27
   4 -10   3   19.59    3.43
   4 -10   4  202.94   10.75
   4 -10   4  208.05   10.67
   4 -10   5  459.92   17.18
   4 -10   5  459.87   16.74
   4 -10   6   23.52    4.26
   4 -10   6   15.21    3.29
   4 -10   7  253.42   10.49
   4 -10   7  243.72   12.61
   4 -10   8  274.11   10.48
   4 -10   8  290.58   14.09
   4 -10   9   82.84    5.33
   4 -10   9   89.03    7.89
   4 -10  10  274.84   14.38
   4 -10  11   70.26    7.49
   4 -10  12   50.68    6.73
   4  -9 -15    3.28    2.53
   4  -9 -14   48.95    6.16
   4  -9 -13  147.62    9.89
   4  -9 -12    0.92    2.40
   4  -9 -11   59.66    6.17
   4  -9 -10   40.45    5.02
   4  -9  -9   -0.66    1.91
   4  -9  -8  698.47   22.05
   4  -9  -7   24.35    3.90
   4  -9  -6   21.37    3.35
   4  -9  -5  227.52   11.15
   4  -9  -4   89.83    6.80
   4  -9  -3   84.64    6.58
   4  -9  -2  191.78    9.89
   4  -9  -1  126.66    7.91
   4  -9   0  682.88   20.62
   4  -9   1  263.18   11.83
   4  -9   2    3.99    2.10
   4  -9   3   43.89    4.99
   4  -9   3   36.62    4.47
   4  -9   4  142.31    8.67
   4  -9   5    4.57    2.43
   4  -9   6  445.33   16.78
   4  -9   7   55.88    4.56
   4  -9   7   56.96    6.05
   4  -9   8   14.66    4.00
   4  -9   8   17.77    2.59
   4  -9   9  643.80   15.92
   4  -9   9  617.48   21.86
   4  -9  10   53.03    6.22
   4  -9  11   83.58    8.01
   4  -8 -15   53.53    5.94
   4  -8 -14   66.07    6.37
   4  -8 -13   66.86    6.45
   4  -8 -12  129.83    8.81
   4  -8 -11   69.77    6.39
   4  -8 -10    3.92    2.47
   4  -8  -9  281.57   12.73
   4  -8  -8   50.48    5.30
   4  -8  -7  270.28   12.07
   4  -8  -6  165.01    9.11
   4  -8  -6  174.99    9.25
   4  -8  -5   13.09    2.80
   4  -8  -5   13.19    2.79
   4  -8  -4   67.07    5.75
   4  -8  -4   79.63    6.05
   4  -8  -3  173.20    9.09
   4  -8  -3  166.19    8.92
   4  -8  -2    1.84    1.42
   4  -8  -2    0.39    1.57
   4  -8  -1  184.13    9.59
   4  -8  -1  210.68   10.09
   4  -8   0  261.13   11.38
   4  -8   1   17.62    3.21
   4  -8   2  241.36   10.72
   4  -8   3    0.89    2.16
   4  -8   4  139.31    8.35
   4  -8   5  554.95   18.37
   4  -8   6   40.66    4.88
   4  -8   7   98.45    5.49
   4  -8   7   94.08    7.47
   4  -8   8  170.07    6.83
   4  -8   8  165.61   10.19
   4  -8   9   27.01    2.46
   4  -8   9   21.54    4.03
   4  -8  10  312.90   15.08
   4  -7 -15   24.94    3.88
   4  -7 -14   24.94    4.15
   4  -7 -13  155.51    9.36
   4  -7 -12    2.22    1.89
   4  -7 -11   96.34    7.15
   4  -7 -10  198.32   10.21
   4  -7 -10  184.91    9.55
   4  -7  -9   18.58    2.95
   4  -7  -9   20.27    3.46
   4  -7  -8  224.63   10.64
   4  -7  -8  233.19   10.46
   4  -7  -7  340.48   13.18
   4  -7  -7  335.40   12.76
   4  -7  -6   14.87    2.77
   4  -7  -6   19.22    3.29
   4  -7  -5  355.58   13.34
   4  -7  -5  364.66   13.25
   4  -7  -4   50.57    4.79
   4  -7  -4   55.09    4.86
   4  -7  -3   27.42    3.55
   4  -7  -3   29.15    3.75
   4  -7  -2  106.28    6.94
   4  -7  -2  116.66    7.07
   4  -7  -1   66.49    5.48
   4  -7  -1   72.81    5.67
   4  -7   0  125.91    7.56
   4  -7   1  204.72    9.35
   4  -7   1  218.82   10.22
   4  -7   2   78.15    5.81
   4  -7   2   81.80    6.24
   4  -7   3  141.47    7.99
   4  -7   4  235.69   10.75
   4  -7   5   22.53    3.61
   4  -7   6  520.29   17.82
   4  -7   7  310.86   13.61
   4  -7   7  297.09    9.30
   4  -7   8    1.86    1.11
   4  -7   8    5.38    2.75
   4  -7   9  237.66   12.56
   4  -7   9  222.22    6.59
   4  -6 -16    9.36    3.38
   4  -6 -15   78.84    6.40
   4  -6 -14  258.25   11.84
   4  -6 -13    8.48    2.65
   4  -6 -12  154.35    8.78
   4  -6 -11  150.93    8.62
   4  -6 -11  139.86    7.98
   4  -6 -10    9.13    2.24
   4  -6 -10   13.78    2.87
   4  -6  -9  337.72   12.96
   4  -6  -9  335.04   12.42
   4  -6  -8  280.51   11.43
   4  -6  -8  260.14   10.68
   4  -6  -7   87.80    6.17
   4  -6  -7   82.80    5.78
   4  -6  -6  471.75   15.36
   4  -6  -6  479.59   15.01
   4  -6  -5  195.57    9.19
   4  -6  -5  187.14    8.76
   4  -6  -4   56.52    4.91
   4  -6  -4   68.69    5.32
   4  -6  -3  324.83   12.19
   4  -6  -3  318.59   11.88
   4  -6  -2  106.04    6.63
   4  -6  -2  100.67    6.37
   4  -6  -1   74.85    5.61
   4  -6   0  155.87    7.65
   4  -6   0  168.17    8.50
   4  -6   1    6.69    2.11
   4  -6   1    6.47    1.96
   4  -6   2   94.82    6.18
   4  -6   2   91.28    6.49
   4  -6   3  382.17   14.08
   4  -6   3  360.59   13.10
   4  -6   4   27.24    3.77
   4  -6   5  354.79   13.60
   4  -6   6  158.61    9.05
   4  -6   7   16.33    3.47
   4  -6   7   19.25    2.00
   4  -6   8   73.15    3.17
   4  -6   9   11.48    0.99
   4  -5 -16  121.54    9.73
   4  -5 -15  124.93    9.61
   4  -5 -15  141.35    8.18
   4  -5 -14    3.20    2.41
   4  -5 -14   -0.27    1.49
   4  -5 -13  163.44    8.80
   4  -5 -12  149.02    8.18
   4  -5 -12  138.34    7.57
   4  -5 -11    9.38    2.20
   4  -5 -11   13.64    2.88
   4  -5 -10  800.05   21.24
   4  -5 -10  752.56   19.94
   4  -5  -9   32.48    3.73
   4  -5  -9   34.56    3.69
   4  -5  -8    4.23    1.54
   4  -5  -8    6.14    1.97
   4  -5  -7  457.00   14.52
   4  -5  -7  430.99   13.62
   4  -5  -6    6.58    4.09
   4  -5  -6    1.14    1.42
   4  -5  -5  126.52    7.56
   4  -5  -5  110.12    6.33
   4  -5  -4  258.77   10.41
   4  -5  -4  242.54    9.75
   4  -5  -3   16.17    2.51
   4  -5  -3   18.48    2.86
   4  -5  -2  743.04   19.54
   4  -5  -1  283.39   10.00
   4  -5  -1  290.46   11.07
   4  -5   0    0.83    1.26
   4  -5   0    4.61    1.92
   4  -5   1  187.07    8.35
   4  -5   1  195.09    9.18
   4  -5   2  514.57   16.27
   4  -5   2  504.14   15.25
   4  -5   3   36.71    4.11
   4  -5   3   30.06    3.68
   4  -5   4  870.45   22.69
   4  -5   5  135.75    7.94
   4  -5   6   25.11    3.79
   4  -5   7  423.01    9.15
   4  -4 -17  109.87    9.34
   4  -4 -16  149.14   10.62
   4  -4 -15   48.72    5.99
   4  -4 -14  154.79   10.38
   4  -4 -14  150.79    8.01
   4  -4 -13  100.79    8.08
   4  -4 -13  100.00    6.43
   4  -4 -12   20.65    2.85
   4  -4 -12   25.31    3.34
   4  -4 -11  448.63   14.55
   4  -4 -11  445.07   13.49
   4  -4 -10   15.16    2.36
   4  -4 -10   14.60    2.65
   4  -4  -9  212.10    9.16
   4  -4  -9  193.21    8.14
   4  -4  -8  124.12    6.84
   4  -4  -8  120.97    6.31
   4  -4  -7   73.76    5.22
   4  -4  -7   69.74    4.74
   4  -4  -6  448.50   13.95
   4  -4  -6  443.90   13.18
   4  -4  -5  138.82    7.18
   4  -4  -5  121.12    6.37
   4  -4  -4   76.36    5.01
   4  -4  -3  685.37   17.84
   4  -4  -2  327.90   10.21
   4  -4  -2  334.25   11.54
   4  -4  -1   11.90    2.24
   4  -4  -1   16.31    2.29
   4  -4   0  598.53   16.92
   4  -4   0  563.81   15.25
   4  -4   1  115.04    6.81
   4  -4   1  111.68    6.12
   4  -4   2  109.72    6.33
   4  -4   2  111.48    6.87
   4  -4   3  838.83   22.28
   4  -4   3  805.43   20.92
   4  -4   4   13.79    2.62
   4  -4   4   17.38    3.21
   4  -4   6  455.66    9.39
   4  -4   6  473.84    9.88
   4  -3 -17   41.88    5.64
   4  -3 -16   27.54    4.92
   4  -3 -15  168.53   10.97
   4  -3 -14    6.72    2.79
   4  -3 -14    7.15    2.06
   4  -3 -13  188.91   11.06
   4  -3 -13  200.39    8.76
   4  -3 -12  420.35   16.55
   4  -3 -12  422.31   13.49
   4  -3 -12  424.46   12.41
   4  -3 -11   20.18    3.77
   4  -3 -11   18.66    2.42
   4  -3 -11   21.19    2.95
   4  -3 -10  143.03    8.80
   4  -3 -10  160.75    7.61
   4  -3 -10  155.41    6.73
   4  -3  -9  277.90   10.23
   4  -3  -9  263.63    9.11
   4  -3  -8    6.57    1.55
   4  -3  -8    6.23    2.04
   4  -3  -7  144.89    7.05
   4  -3  -7  138.93    6.32
   4  -3  -6  164.99    7.63
   4  -3  -6  152.64    6.71
   4  -3  -5  162.47    6.99
   4  -3  -4  376.30   11.65
   4  -3  -3   80.02    4.25
   4  -3  -3   72.25    4.78
   4  -3  -2  201.23    8.37
   4  -3  -2  200.74    7.28
   4  -3  -1  696.29   18.08
   4  -3  -1  670.03   16.26
   4  -3   0  155.61    6.85
   4  -3   0  165.21    7.88
   4  -3   1  312.14   10.58
   4  -3   1  321.34   11.75
   4  -3   2  655.60   18.50
   4  -3   2  639.37   17.17
   4  -3   3   41.07    4.30
   4  -3   4 1008.94   25.61
   4  -3   4  993.98   18.86
   4  -3   5  448.78    9.27
   4  -2 -17   39.19    5.40
   4  -2 -16  178.95   11.43
   4  -2 -15   10.67    3.54
   4  -2 -14   94.88    8.09
   4  -2 -14   93.72    5.44
   4  -2 -13  145.24    9.55
   4  -2 -13  142.40    6.83
   4  -2 -12   12.85    3.42
   4  -2 -12   10.11    1.69
   4  -2 -12   10.15    2.05
   4  -2 -11  457.20   16.83
   4  -2 -11  503.29   14.01
   4  -2 -11  452.36   11.98
   4  -2 -10  129.36    8.31
   4  -2 -10  137.69    6.68
   4  -2 -10  135.83    5.73
   4  -2  -9   81.65    6.33
   4  -2  -9   84.49    5.15
   4  -2  -9   85.36    4.41
   4  -2  -8  199.02    9.62
   4  -2  -8  201.19    8.16
   4  -2  -8  197.01    7.09
   4  -2  -7  110.29    6.90
   4  -2  -7  113.66    6.08
   4  -2  -7  114.31    5.27
   4  -2  -6   31.46    3.61
   4  -2  -6   25.13    2.59
   4  -2  -5  656.58   17.74
   4  -2  -5  631.34   13.51
   4  -2  -5  638.00   15.60
   4  -2  -4  131.83    5.01
   4  -2  -4  144.55    6.40
   4  -2  -3  205.67    8.07
   4  -2  -3  213.30    6.88
   4  -2  -2  472.38   13.11
   4  -2  -2  450.78   11.60
   4  -2  -2  437.98   13.09
   4  -2  -1  170.08    6.95
   4  -2  -1  162.21    7.49
   4  -2  -1  164.13    6.51
   4  -2   0  242.59    8.22
   4  -2   0  257.06    8.81
   4  -2   0  243.01    9.67
   4  -2   1  470.54   11.97
   4  -2   1  472.16   14.65
   4  -2   2   40.25    2.80
   4  -2   2   48.24    4.38
   4  -2   3  335.63    8.60
   4  -2   3  352.70   12.88
   4  -2   4   51.24    2.50
   4  -2   4   53.70    5.04
   4  -2   5  121.55    3.12
   4  -2   9  297.57    8.84
   4  -2  10   51.00    3.10
   4  -1 -18  153.61   11.15
   4  -1 -17  122.28    9.55
   4  -1 -16    6.09    3.00
   4  -1 -15   45.10    5.87
   4  -1 -14   55.04    6.17
   4  -1 -14   55.15    3.83
   4  -1 -13   30.42    4.54
   4  -1 -13   28.23    2.92
   4  -1 -12  436.21   16.69
   4  -1 -12  476.66   13.00
   4  -1 -12  445.61   10.65
   4  -1 -11    0.42    1.88
   4  -1 -11    1.05    0.78
   4  -1 -11    0.43    1.09
   4  -1 -10   71.72    6.09
   4  -1 -10   75.25    4.64
   4  -1 -10   70.42    3.53
   4  -1  -9  133.99    8.01
   4  -1  -9  141.63    6.41
   4  -1  -9  127.43    4.99
   4  -1  -8   -1.72    2.14
   4  -1  -8    0.39    0.85
   4  -1  -8    1.45    1.29
   4  -1  -7   17.28    2.93
   4  -1  -7   10.30    1.59
   4  -1  -7    9.84    1.88
   4  -1  -6  358.79   12.53
   4  -1  -6  357.76    7.73
   4  -1  -6  344.75    9.82
   4  -1  -5    3.92    0.84
   4  -1  -5    4.52    1.75
   4  -1  -5    5.94    1.43
   4  -1  -4  479.25   14.13
   4  -1  -4  482.18   10.54
   4  -1  -4  473.26   12.72
   4  -1  -3  182.68    7.74
   4  -1  -3  181.01    5.83
   4  -1  -3  169.71    7.11
   4  -1  -2   13.31    2.19
   4  -1  -2   11.13    2.01
   4  -1  -1  503.12   13.20
   4  -1  -1  482.19   14.06
   4  -1   0  895.17   19.24
   4  -1   0  889.58   21.55
   4  -1   1   42.73    3.03
   4  -1   1   43.59    4.14
   4  -1   2  716.54   15.24
   4  -1   2  716.54   19.54
   4  -1   3   51.76    2.77
   4  -1   3   53.63    4.82
   4  -1   4   26.02    1.66
   4  -1   4   38.06    4.19
   4  -1   7  290.72    9.25
   4  -1   8  259.23    8.33
   4  -1   9    1.00    0.85
   4   0 -18   92.35    8.45
   4   0 -17   34.89    5.36
   4   0 -16  117.72    9.19
   4   0 -15   56.95    6.49
   4   0 -14    3.02    2.20
   4   0 -14    7.42    1.55
   4   0 -13  244.44   12.34
   4   0 -13  248.50    8.09
   4   0 -12   14.61    1.61
   4   0 -12    9.93    2.86
   4   0 -12   11.59    0.96
   4   0 -12   10.65    1.83
   4   0 -12   11.78    0.96
   4   0 -11  169.27    4.91
   4   0 -11  173.15    4.50
   4   0 -11  180.13    6.89
   4   0 -11  168.48    9.58
   4   0 -10  161.09    4.59
   4   0 -10  152.93    3.94
   4   0 -10  155.63    8.85
   4   0 -10  173.00    7.07
   4   0  -9   27.13    3.83
   4   0  -9   25.02    1.80
   4   0  -9   28.26    2.92
   4   0  -8  125.54    4.51
   4   0  -8  125.44    5.91
   4   0  -8  122.33    7.36
   4   0  -7  142.54    7.70
   4   0  -7  142.45    5.15
   4   0  -6   22.43    3.07
   4   0  -6   19.37    1.95
   4   0  -5  677.06   18.03
   4   0  -5  672.78   15.29
   4   0  -4  122.68    6.44
   4   0  -4  116.77    5.39
   4   0  -3    0.85    1.27
   4   0  -3    2.17    1.22
   4   0  -2  334.03   10.50
   4   0  -2  322.75   10.49
   4   0  -1   39.71    3.23
   4   0  -1   35.93    3.44
   4   0   0  106.87    5.04
   4   0   0  101.65    5.98
   4   0   1  544.65   13.03
   4   0   1  566.79   16.31
   4   0   2   68.09    3.53
   4   0   2   76.23    5.54
   4   0   3  143.91    4.80
   4   0   3  142.06    7.90
   4   0   4  299.58    6.89
   4   0   4  308.43   12.36
   4   0   5   11.35    1.97
   4   0   6  179.89    7.18
   4   0   7  163.12    6.53
   4   0   8   15.68    1.97
   4   0   9  354.00    9.43
   4   1 -18   70.61    7.41
   4   1 -17  266.03   14.30
   4   1 -16   20.97    4.41
   4   1 -15  122.56    9.21
   4   1 -14  183.31   10.82
   4   1 -13    3.27    2.76
   4   1 -13    0.81    0.96
   4   1 -12  222.19   11.47
   4   1 -12  251.76    7.77
   4   1 -11  148.51    8.93
   4   1 -11  145.00    5.83
   4   1 -10    3.07    1.82
   4   1 -10    8.15    1.52
   4   1  -9  242.81    5.05
   4   1  -9  268.34    8.59
   4   1  -9  257.95   11.21
   4   1  -8  201.22    9.58
   4   1  -8  201.06    5.25
   4   1  -7   40.61    4.26
   4   1  -7   42.36    2.44
   4   1  -6  446.69   14.20
   4   1  -6  432.22   10.48
   4   1  -5  424.41   13.33
   4   1  -5  402.29   10.57
   4   1  -4  101.24    5.84
   4   1  -4  100.84    4.89
   4   1  -3  289.97   10.06
   4   1  -3  288.25    9.34
   4   1  -2   29.39    2.98
   4   1  -2   32.91    3.13
   4   1  -1  188.78    7.28
   4   1  -1  187.59    7.98
   4   1   0  453.50   11.93
   4   1   0  443.58   13.69
   4   1   1    6.92    1.40
   4   1   1    2.27    1.57
   4   1   1    8.62    1.98
   4   1   2  368.22    9.53
   4   1   2  365.06   12.99
   4   1   2  358.81   11.68
   4   1   3  109.77    4.28
   4   1   3  118.68    7.20
   4   1   3  111.44    5.94
   4   1   4    5.47    1.00
   4   1   4    7.02    1.79
   4   1   5  287.43    9.62
   4   1   6  151.00    6.48
   4   1   7   30.35    2.77
   4   2 -18  122.47    9.81
   4   2 -17    3.23    2.40
   4   2 -16  250.21   13.50
   4   2 -15  221.29   12.38
   4   2 -14   16.20    3.69
   4   2 -13  285.82   13.47
   4   2 -13  294.52    7.37
   4   2 -12  194.83   10.62
   4   2 -12  191.41    6.14
   4   2 -11  129.28    8.45
   4   2 -11  135.51    5.29
   4   2 -10  226.55   10.96
   4   2 -10  251.55    7.97
   4   2  -9   92.10    6.66
   4   2  -8   43.61    4.54
   4   2  -7  723.81   19.94
   4   2  -6  207.77    9.21
   4   2  -6  194.14    9.27
   4   2  -5  167.40    7.96
   4   2  -5  170.86    8.40
   4   2  -4  840.81   20.66
   4   2  -4  874.47   21.97
   4   2  -3   27.03    3.10
   4   2  -3   31.49    3.59
   4   2  -2  205.02    8.10
   4   2  -2  228.23    9.45
   4   2  -1   53.94    3.87
   4   2  -1   56.59    4.51
   4   2   0   71.81    4.20
   4   2   0   70.85    4.99
   4   2   1  726.09   16.29
   4   2   1  720.45   18.54
   4   2   2  147.52    5.64
   4   2   2  152.92    7.17
   4   2   3    1.52    1.06
   4   2   3    4.55    1.63
   4   2   4   50.53    3.95
   4   2   5  102.40    5.51
   4   2   6   28.50    2.85
   4   3 -18    0.94    2.26
   4   3 -17   83.09    7.92
   4   3 -16   33.24    5.24
   4   3 -15   50.91    6.01
   4   3 -14  256.77   13.06
   4   3 -13    4.11    2.42
   4   3 -13    0.16    0.41
   4   3 -12  106.86    7.87
   4   3 -12  109.29    4.02
   4   3 -12  104.72    3.93
   4   3 -11  319.94   13.80
   4   3 -11  363.71    9.30
   4   3 -11  359.30    9.19
   4   3 -10   20.45    3.51
   4   3 -10   23.43    2.19
   4   3  -9  193.23    9.79
   4   3  -8  384.89   13.95
   4   3  -7    0.55    1.72
   4   3  -6  544.16   16.30
   4   3  -5  369.36   12.64
   4   3  -5  401.37   13.74
   4   3  -4   -0.05    1.27
   4   3  -4   -0.12    1.29
   4   3  -3  679.01   17.68
   4   3  -3  716.84   19.25
   4   3  -2  286.49    9.96
   4   3  -2  282.80   10.85
   4   3  -1  207.26    8.01
   4   3  -1  223.72    9.36
   4   3   0  697.71   16.65
   4   3   0  728.15   19.78
   4   3   0  684.75   18.40
   4   3   1    1.53    1.07
   4   3   1    1.43    1.49
   4   3   1    1.39    1.17
   4   3   2  103.08    4.96
   4   3   2  102.33    5.90
   4   3   3  177.49    6.47
   4   3   3  179.59    7.84
   4   3   4   61.62    4.41
   4   4 -18   80.37    7.96
   4   4 -17   28.33    5.63
   4   4 -16   85.96    7.88
   4   4 -15  251.04   13.27
   4   4 -14    2.45    2.61
   4   4 -13   41.50    5.22
   4   4 -12  212.19   11.28
   4   4 -12  219.34    5.74
   4   4 -12  222.76    5.68
   4   4 -11   52.37    5.48
   4   4 -11   47.62    2.86
   4   4 -11   53.07    2.93
   4   4 -10  208.12   10.54
   4   4 -10  210.87    7.01
   4   4  -9  499.87   16.87
   4   4  -9  504.35   12.87
   4   4  -8  211.65   10.07
   4   4  -8  207.37    7.72
   4   4  -7  293.32   11.68
   4   4  -7  278.89    9.53
   4   4  -6   45.49    4.45
   4   4  -6   46.61    3.81
   4   4  -5   23.79    3.23
   4   4  -5   19.77    2.74
   4   4  -4  661.53   17.94
   4   4  -4  658.40   17.67
   4   4  -4  681.20   19.07
   4   4  -3   39.65    3.72
   4   4  -3   41.28    3.97
   4   4  -3   44.15    4.25
   4   4  -2  185.43    8.05
   4   4  -2  202.99    9.12
   4   4  -2  211.00    9.27
   4   4  -1  467.26   13.48
   4   4  -1  476.67   15.36
   4   4  -1  495.49   15.10
   4   4   0   71.61    4.54
   4   4   0   70.85    5.61
   4   4   0   73.38    5.23
   4   4   1  470.89   12.99
   4   4   1  472.78   14.47
   4   4   2  616.93   15.39
   4   4   2  614.08   16.91
   4   4   3   96.56    5.76
   4   5 -18   10.05    3.54
   4   5 -17   67.86    7.26
   4   5 -16   97.44    8.52
   4   5 -15   12.90    3.42
   4   5 -14  125.57    9.12
   4   5 -13   71.10    6.78
   4   5 -12   22.51    4.01
   4   5 -12   24.72    1.52
   4   5 -12   25.62    1.56
   4   5 -11  256.51   12.33
   4   5 -11  270.44    7.52
   4   5 -10  229.28   11.31
   4   5 -10  247.08    7.73
   4   5  -9   56.05    5.35
   4   5  -9   53.57    3.66
   4   5  -8  522.78   17.18
   4   5  -8  533.18   14.00
   4   5  -7   42.56    4.51
   4   5  -7   43.26    3.62
   4   5  -6  155.67    8.29
   4   5  -6  153.74    7.18
   4   5  -5  283.13   11.22
   4   5  -5  301.05   10.78
   4   5  -4   58.85    4.79
   4   5  -4   61.43    4.75
   4   5  -3  207.74    9.03
   4   5  -3  221.85    9.58
   4   5  -2  345.23   11.76
   4   5  -2  360.56   12.93
   4   5  -2  362.91   12.95
   4   5  -1    6.58    1.79
   4   5  -1    6.93    1.84
   4   5  -1    7.37    1.95
   4   5   0  246.57    9.38
   4   5   0  240.12   10.06
   4   5   1  264.24    9.66
   4   6 -17  139.31   10.37
   4   6 -16    4.13    2.91
   4   6 -15  197.05   11.95
   4   6 -14  115.56    8.97
   4   6 -13    8.71    2.99
   4   6 -12    1.79    2.49
   4   6 -12    6.99    0.81
   4   6 -11  121.03    8.47
   4   6 -11  127.21    4.81
   4   6 -10   76.00    6.54
   4   6 -10   69.68    3.97
   4   6  -9  378.54   14.97
   4   6  -9  429.17   11.81
   4   6  -8   40.04    4.63
   4   6  -8   36.82    3.31
   4   6  -7  150.57    8.53
   4   6  -7  144.05    6.92
   4   6  -6  195.04    9.56
   4   6  -6  202.77    8.61
   4   6  -5   46.00    4.57
   4   6  -5   40.76    3.97
   4   6  -4  123.82    7.20
   4   6  -4  120.52    6.95
   4   6  -3  111.46    6.67
   4   6  -3  115.21    7.03
   4   6  -2   78.07    5.46
   4   6  -2   79.25    5.94
   4   6  -1  404.04   13.24
   4   6   0  117.54    6.68
   4   6   1    4.89    1.83
   4   7 -17   25.88    4.74
   4   7 -16  166.09   11.26
   4   7 -15   15.32    3.84
   4   7 -14   58.16    6.35
   4   7 -13  195.31   11.50
   4   7 -12   19.19    3.83
   4   7 -11   21.70    3.89
   4   7 -11   25.86    2.45
   4   7 -10  200.02   11.01
   4   7 -10  233.60    7.94
   4   7  -9    1.98    2.03
   4   7  -9    3.21    1.30
   4   7  -8  354.39   14.30
   4   7  -8  373.56   11.80
   4   7  -7  104.30    7.24
   4   7  -7   95.76    5.82
   4   7  -6    6.27    2.41
   4   7  -6    7.92    2.14
   4   7  -5  298.99   12.15
   4   7  -5  301.40   11.48
   4   7  -4   40.00    4.29
   4   7  -4   37.99    4.12
   4   7  -3   36.35    4.09
   4   7  -3   41.61    4.34
   4   7  -2  347.68   12.83
   4   7  -1   -0.01    1.46
   4   7   0   35.59    4.02
   4   8 -17  143.48   10.87
   4   8 -16   13.20    3.68
   4   8 -15  117.36    9.43
   4   8 -14  191.05   11.81
   4   8 -13    5.70    4.72
   4   8 -12  195.78   11.56
   4   8 -11  202.93   11.53
   4   8 -10  129.83    8.89
   4   8 -10  120.42    5.64
   4   8  -9  159.02    9.63
   4   8  -9  156.72    7.03
   4   8  -8   78.90    6.66
   4   8  -8   73.41    5.08
   4   8  -7   61.07    5.71
   4   8  -7   61.98    4.89
   4   8  -6  346.35   13.78
   4   8  -6  334.92   12.34
   4   8  -5   30.55    4.16
   4   8  -5   31.25    3.81
   4   8  -4   52.43    5.13
   4   8  -4   55.20    5.11
   4   8  -3  299.55   12.42
   4   8  -2   14.28    3.05
   4   8  -1   38.82    4.54
   4   9 -16   88.66    8.48
   4   9 -15  156.61   11.03
   4   9 -14    2.12    2.24
   4   9 -13  266.39   14.24
   4   9 -12   85.61    7.82
   4   9 -11  103.71    8.36
   4   9 -10  256.61   12.97
   4   9  -9    8.26    2.99
   4   9  -9    7.63    1.90
   4   9  -8  162.70    9.90
   4   9  -8  178.01    8.19
   4   9  -7  377.53   15.20
   4   9  -7  366.88   12.94
   4   9  -6    4.81    2.32
   4   9  -6    1.84    1.40
   4   9  -5  222.47   11.21
   4   9  -5  226.92   10.48
   4   9  -4  340.61   13.99
   4   9  -3    0.12    2.03
   4   9  -2  138.07    8.70
   4  10 -15   11.89    3.37
   4  10 -14  125.23    9.78
   4  10 -13   32.98    5.44
   4  10 -12  240.05   13.32
   4  10 -11  192.05   11.67
   4  10 -10   11.82    3.69
   4  10  -9  172.20   10.68
   4  10  -8  160.23   10.08
   4  10  -8  138.51    6.71
   4  10  -7   36.37    4.95
   4  10  -7   29.60    3.83
   4  10  -6  145.04    8.25
   4  10  -6  127.11    8.91
   4  10  -5  149.92    9.57
   4  10  -4   88.88    7.42
   4  10  -3  233.18   12.04
   4  11 -15  114.73    9.96
   4  11 -14   12.99    3.51
   4  11 -13  115.32    9.46
   4  11 -12  141.13   10.52
   4  11 -11   58.43    6.82
   4  11 -10  179.60   11.58
   4  11  -9  109.33    8.88
   4  11  -8    7.44    2.87
   4  11  -7  137.44    9.79
   4  11  -6   11.42    3.62
   4  11  -5  102.76    8.36
   4  11  -4  404.29   16.82
   4  12 -13   87.41    8.52
   4  12 -12   70.82    7.86
   4  12 -11  135.12   10.58
   4  12 -10   56.45    6.92
   4  12  -9    7.89    3.57
   4  12  -8  253.42   14.02
   4  12  -7   29.04    5.22
   4  12  -6   10.02    3.43
   4  12  -5  112.82    9.10
   4  13 -12   67.16    7.74
   4  13 -11    8.60    3.62
   4  13 -10   86.99    8.70
   4  13  -9  171.48   12.13
   4  13  -8   20.75    4.75
   4  13  -7   88.75    8.56
   4  14 -11   76.04    9.05
   4  14 -10   59.12    7.60
   4  14  -9    0.28    2.64
   4  14  -8   50.88    7.00
   5 -16   4   40.28    6.32
   5 -15  -3   58.40    7.34
   5 -15  -2   38.59    5.90
   5 -15  -1  158.82   11.52
   5 -15   0   60.27    7.25
   5 -15   1   20.75    6.00
   5 -15   2  181.84   12.19
   5 -15   3   14.31    3.56
   5 -15   4  106.41    9.56
   5 -15   4  108.87    9.41
   5 -15   5  171.52   12.16
   5 -15   5  182.09   12.18
   5 -15   6    7.03    3.37
   5 -15   6    1.07    1.77
   5 -15   7  148.45   11.62
   5 -15   7  130.89   10.23
   5 -15   8  158.59   11.40
   5 -14  -7   58.77    7.50
   5 -14  -6   21.86    4.54
   5 -14  -5   77.29    8.09
   5 -14  -4   35.21    5.62
   5 -14  -3   41.89    6.13
   5 -14  -2  137.04   10.51
   5 -14  -1   26.99    5.27
   5 -14   0   51.43    6.30
   5 -14   1  146.34   10.66
   5 -14   2    2.72    2.80
   5 -14   3   95.98    8.61
   5 -14   4   83.72    8.11
   5 -14   4   87.99    8.27
   5 -14   5    9.34    3.30
   5 -14   5    5.93    2.50
   5 -14   6  179.10   12.13
   5 -14   6  167.13   11.38
   5 -14   7   92.54    8.95
   5 -14   7  100.32    8.80
   5 -14   8   86.88    8.74
   5 -14   8   93.98    8.62
   5 -14   9  110.81    9.54
   5 -14  10    5.96    2.85
   5 -13  -9  155.61   11.47
   5 -13  -8   25.42    4.98
   5 -13  -7  130.86   10.47
   5 -13  -6  146.81   10.86
   5 -13  -5    6.65    2.99
   5 -13  -4   45.93    6.17
   5 -13  -3  185.03   12.01
   5 -13  -2   11.80    3.67
   5 -13  -1  225.81   13.10
   5 -13   0  182.47   11.61
   5 -13   1    5.93    3.29
   5 -13   2  137.02   10.04
   5 -13   3   82.37    7.81
   5 -13   3   88.20    8.06
   5 -13   4    7.21    3.09
   5 -13   4   12.88    3.67
   5 -13   5  123.75    9.88
   5 -13   5  131.57    9.90
   5 -13   6   15.04    4.05
   5 -13   6   11.31    3.44
   5 -13   7   84.58    8.34
   5 -13   7   91.76    8.50
   5 -13   8  137.37   10.77
   5 -13   8  127.63   10.00
   5 -13   9    5.02    2.69
   5 -13   9   -1.51    1.72
   5 -13  10  110.47    9.28
   5 -13  11  155.04   10.99
   5 -13  12   -2.94    2.48
   5 -12 -12   22.74    5.08
   5 -12 -11   82.01    8.21
   5 -12 -10  176.06   12.93
   5 -12  -9   -1.02    2.25
   5 -12  -8  224.19   13.42
   5 -12  -7  126.94    9.95
   5 -12  -6    8.80    3.70
   5 -12  -5  173.85   11.39
   5 -12  -4  144.84   10.26
   5 -12  -3    1.31    2.75
   5 -12  -2  159.04   10.60
   5 -12  -1   92.66    8.07
   5 -12   0  133.57    9.70
   5 -12   1  423.55   17.67
   5 -12   2   87.67    7.82
   5 -12   3  105.64    8.57
   5 -12   3  114.16    9.08
   5 -12   4  229.55   12.89
   5 -12   4  245.57   13.49
   5 -12   5    2.66    2.57
   5 -12   5    5.16    2.75
   5 -12   6  213.01   12.75
   5 -12   6  198.82   12.16
   5 -12   7  141.91   10.58
   5 -12   7  136.23   10.04
   5 -12   8    2.31    2.89
   5 -12   8    2.01    2.30
   5 -12   9  119.87   10.04
   5 -12   9  116.98    9.33
   5 -12  10   63.40    7.56
   5 -12  10   68.17    7.36
   5 -12  11    2.98    2.02
   5 -12  12  126.51   10.08
   5 -12  13   70.26    7.50
   5 -11 -13    3.15    2.77
   5 -11 -12   68.80    7.48
   5 -11 -11   73.28    7.68
   5 -11 -10    7.93    3.53
   5 -11  -9  182.06   11.83
   5 -11  -8  190.09   11.92
   5 -11  -7   89.12    8.16
   5 -11  -6  237.00   13.09
   5 -11  -5   53.57    6.12
   5 -11  -4   41.48    5.45
   5 -11  -3  213.43   12.07
   5 -11  -2   82.54    7.47
   5 -11  -1  115.75    8.81
   5 -11   0  463.59   18.20
   5 -11   1    5.01    2.75
   5 -11   2   69.83    6.80
   5 -11   2   82.58    7.48
   5 -11   3  274.64   13.59
   5 -11   3  271.82   13.81
   5 -11   4    5.91    3.02
   5 -11   4    4.99    2.61
   5 -11   5  264.97   13.83
   5 -11   5  290.21   14.23
   5 -11   6  103.40    8.65
   5 -11   6   90.15    8.42
   5 -11   7  120.62    9.58
   5 -11   7  121.78    9.32
   5 -11   8  245.34   13.99
   5 -11   9  128.41   10.32
   5 -11  10   10.42    3.31
   5 -11  11  135.33   10.95
   5 -10 -14   10.75    3.72
   5 -10 -13   97.42    8.78
   5 -10 -12   78.58    7.67
   5 -10 -11    2.55    2.46
   5 -10 -10   90.97    8.24
   5 -10  -9  108.92    8.85
   5 -10  -8   34.75    5.25
   5 -10  -7  134.88    9.50
   5 -10  -6   18.53    4.07
   5 -10  -5   74.53    6.96
   5 -10  -4  221.99   12.03
   5 -10  -3   99.22    7.91
   5 -10  -2  178.21   10.59
   5 -10  -1   97.80    7.78
   5 -10   0  121.99    9.05
   5 -10   1  488.39   17.71
   5 -10   1  486.40   18.52
   5 -10   2  101.68    7.82
   5 -10   2  150.14   11.34
   5 -10   3   17.07    3.72
   5 -10   3   24.62    4.17
   5 -10   4  281.42   13.66
   5 -10   4  296.67   14.14
   5 -10   5  136.85    9.62
   5 -10   6  213.82   12.29
   5 -10   7  149.16   10.54
   5 -10   8    0.80    2.96
   5 -10   9   63.55    7.22
   5 -10  10  219.47   13.57
   5  -9 -14  133.03    9.81
   5  -9 -13   32.72    5.16
   5  -9 -12   47.29    6.01
   5  -9 -11  107.61    8.71
   5  -9 -10   25.90    4.40
   5  -9  -9  118.37    8.79
   5  -9  -8  162.53   10.15
   5  -9  -7   13.84    3.29
   5  -9  -6   81.68    7.12
   5  -9  -5  227.09   11.81
   5  -9  -4    0.49    1.85
   5  -9  -3  352.15   14.89
   5  -9  -2  300.77   13.65
   5  -9  -1   47.58    5.53
   5  -9   0  265.13   12.06
   5  -9   0  293.97   13.50
   5  -9   1   51.83    5.49
   5  -9   1   51.71    5.63
   5  -9   2  202.75   10.62
   5  -9   2  210.95   11.46
   5  -9   3  265.58   12.58
   5  -9   4   28.96    4.49
   5  -9   5  145.76    9.59
   5  -9   6  263.12   13.46
   5  -9   7    1.88    2.73
   5  -9   8  187.10   11.82
   5  -9   9  351.95   16.83
   5  -8 -14   41.20    5.68
   5  -8 -13   41.49    5.50
   5  -8 -12  124.70    8.95
   5  -8 -11    4.52    2.31
   5  -8 -10  133.89    9.16
   5  -8  -9  139.55    9.25
   5  -8  -8    7.37    2.55
   5  -8  -7  187.76   10.50
   5  -8  -6  181.43   10.26
   5  -8  -5   -2.59    2.23
   5  -8  -4  194.90   10.54
   5  -8  -3   57.07    5.87
   5  -8  -2   86.07    7.01
   5  -8  -1  452.15   16.86
   5  -8   0   52.45    5.08
   5  -8   0   57.08    5.83
   5  -8   1  457.86   16.16
   5  -8   2  353.18   14.15
   5  -8   3    5.84    2.45
   5  -8   4  146.08    9.23
   5  -8   5   47.91    5.55
   5  -8   6    3.54    2.52
   5  -8   7  263.26   13.52
   5  -8   8  128.91    9.68
   5  -7 -14  123.79    8.73
   5  -7 -13  107.39    8.11
   5  -7 -12    1.19    2.10
   5  -7 -11  144.70    9.39
   5  -7 -10  102.42    7.65
   5  -7  -9   17.48    3.45
   5  -7  -8  191.43   10.56
   5  -7  -7  175.85    9.80
   5  -7  -6   59.24    5.69
   5  -7  -5  182.16    9.87
   5  -7  -4   75.41    6.43
   5  -7  -3  217.80   10.97
   5  -7  -2  359.68   14.45
   5  -7  -1   10.75    2.47
   5  -7   0   51.02    4.83
   5  -7   1  446.03   15.47
   5  -7   2   52.79    5.16
   5  -7   3  262.02   12.00
   5  -7   4  179.35   10.06
   5  -7   5   30.47    4.43
   5  -7   6  136.89    9.20
   5  -7   7   65.25    6.72
   5  -6 -14   56.16    6.95
   5  -6 -13    3.93    2.58
   5  -6 -12  126.75    8.36
   5  -6 -11   44.50    4.98
   5  -6 -10   70.41    6.08
   5  -6  -9  159.07    9.15
   5  -6  -9  164.72    8.73
   5  -6  -8   30.23    3.80
   5  -6  -8   31.38    4.16
   5  -6  -7   62.83    5.77
   5  -6  -7   56.79    5.07
   5  -6  -6  624.18   19.23
   5  -6  -6  583.21   18.00
   5  -6  -5   21.13    3.26
   5  -6  -5   18.60    3.43
   5  -6  -4  417.14   15.21
   5  -6  -4  378.55   14.03
   5  -6  -3  115.64    6.59
   5  -6  -3  108.33    7.47
   5  -6  -3  120.66    7.58
   5  -6  -2   77.57    5.47
   5  -6  -1  303.24   11.55
   5  -6   0  146.56    7.93
   5  -6   1    3.35    1.92
   5  -6   2  346.68   13.40
   5  -6   3  189.03    9.82
   5  -6   4  121.84    8.04
   5  -6   5   40.75    4.63
   5  -6   7   49.46    2.78
   5  -5 -14   73.87    7.69
   5  -5 -13  142.72   10.37
   5  -5 -13  132.78    8.36
   5  -5 -12   51.71    6.29
   5  -5 -12   57.87    5.61
   5  -5 -11  159.73    8.98
   5  -5 -10   91.67    6.73
   5  -5  -9    2.42    3.53
   5  -5  -9    4.96    2.18
   5  -5  -8  183.67    9.52
   5  -5  -8  194.65    9.01
   5  -5  -7  269.39   11.58
   5  -5  -7  262.62   10.70
   5  -5  -6   -2.94    1.63
   5  -5  -6    2.55    2.25
   5  -5  -5 1187.21   28.89
   5  -5  -5 1161.04   27.59
   5  -5  -4   88.12    5.35
   5  -5  -4   91.23    6.66
   5  -5  -4   86.99    6.16
   5  -5  -3  242.70    9.36
   5  -5  -3  238.41   10.55
   5  -5  -2  311.96   12.42
   5  -5  -2  302.73   10.92
   5  -5  -1  109.76    7.24
   5  -5  -1  102.85    6.23
   5  -5   0  244.53   10.16
   5  -5   1  379.32   13.48
   5  -5   2  113.77    7.20
   5  -5   3  250.80   11.21
   5  -5   4  492.97   17.05
   5  -5   5   72.63    3.83
   5  -5   6   64.54    3.15
   5  -4 -15   62.24    7.32
   5  -4 -14  171.12   11.50
   5  -4 -13    5.43    2.61
   5  -4 -13    4.12    2.07
   5  -4 -12  144.13   10.18
   5  -4 -12  145.28    8.29
   5  -4 -11  194.88   11.41
   5  -4 -11  192.06    9.56
   5  -4 -10   17.59    3.73
   5  -4 -10   21.07    3.29
   5  -4  -9  300.37   13.59
   5  -4  -9  289.17   11.85
   5  -4  -9  280.55   10.48
   5  -4  -8  186.55    9.26
   5  -4  -8  190.47    8.48
   5  -4  -7   31.66    3.48
   5  -4  -7   35.46    4.05
   5  -4  -6  496.48   16.19
   5  -4  -6  487.55   14.96
   5  -4  -5   38.54    3.28
   5  -4  -5   45.27    4.27
   5  -4  -5   35.54    4.11
   5  -4  -4  302.98    9.92
   5  -4  -4  286.80   11.26
   5  -4  -3  521.71   16.17
   5  -4  -3  510.30   14.15
   5  -4  -2   11.99    2.56
   5  -4  -2   10.16    2.07
   5  -4  -1  300.73   10.82
   5  -4  -1  308.62   12.27
   5  -4   0  149.71    7.57
   5  -4   0  153.22    8.60
   5  -4   1    0.55    1.54
   5  -4   2  374.16   13.40
   5  -4   2  366.66   11.10
   5  -4   3   74.39    4.30
   5  -4   4   35.02    2.74
   5  -4   5  587.98   12.71
   5  -4   6  212.54    5.60
   5  -4   6  227.17    5.36
   5  -3 -15  116.92    9.59
   5  -3 -14    2.05    2.17
   5  -3 -13  141.86   10.16
   5  -3 -13  164.86    8.43
   5  -3 -12  121.30    9.12
   5  -3 -12  127.77    7.39
   5  -3 -11   14.90    3.56
   5  -3 -11   16.06    2.83
   5  -3 -10  321.00   14.39
   5  -3 -10  326.82   12.25
   5  -3 -10  313.83   10.42
   5  -3  -9   79.26    6.83
   5  -3  -9   86.90    6.14
   5  -3  -9   86.63    5.20
   5  -3  -8  126.64    8.39
   5  -3  -8  118.66    7.13
   5  -3  -8  123.23    6.33
   5  -3  -7  208.81    6.86
   5  -3  -7  205.54   10.40
   5  -3  -7  196.64    9.39
   5  -3  -7  198.85    8.40
   5  -3  -6   38.93    4.42
   5  -3  -6   38.54    2.88
   5  -3  -6   44.38    3.97
   5  -3  -5  550.04   17.37
   5  -3  -5  539.45   15.78
   5  -3  -5  567.18   13.59
   5  -3  -4  362.53   13.11
   5  -3  -4  344.93   12.22
   5  -3  -4  369.34   10.52
   5  -3  -3    1.20    1.45
   5  -3  -3    0.39    1.10
   5  -3  -3    2.94    1.67
   5  -3  -2  241.52    9.82
   5  -3  -2  229.39   10.05
   5  -3  -2  238.86    8.79
   5  -3  -1  330.75   11.40
   5  -3  -1  322.40   12.49
   5  -3  -1  338.04   11.18
   5  -3   0   16.27    2.47
   5  -3   0   16.74    2.85
   5  -3   1  167.44    7.17
   5  -3   2   86.06    4.71
   5  -3   3  176.96    6.53
   5  -3   4  434.46   10.63
   5  -3   5   90.17    3.44
   5  -2 -15    8.35    2.89
   5  -2 -14  205.02   12.41
   5  -2 -13   37.60    5.43
   5  -2 -13   38.81    3.90
   5  -2 -12  105.01    8.42
   5  -2 -12   89.06    5.87
   5  -2 -11  297.71   14.02
   5  -2 -11  295.99   11.25
   5  -2 -10   35.80    4.82
   5  -2 -10   33.17    2.84
   5  -2 -10   28.32    3.44
   5  -2  -9  176.84    4.97
   5  -2  -9  172.14    6.99
   5  -2  -9  165.80    8.24
   5  -2  -9  179.65   10.15
   5  -2  -8  537.54   14.24
   5  -2  -8  544.71   11.10
   5  -2  -8  535.32   18.15
   5  -2  -8  524.64   16.23
   5  -2  -7    0.19    0.69
   5  -2  -7    0.23    1.99
   5  -2  -7   -0.15    1.49
   5  -2  -7   -0.11    1.40
   5  -2  -6  308.06    7.98
   5  -2  -6  300.30   10.44
   5  -2  -6  298.95   12.27
   5  -2  -5  267.63   10.00
   5  -2  -5  270.33    7.79
   5  -2  -5  272.38   11.32
   5  -2  -4  102.02    4.66
   5  -2  -4   88.38    5.68
   5  -2  -4   88.61    6.13
   5  -2  -3  262.40   10.32
   5  -2  -3  250.09   10.20
   5  -2  -2  188.14    8.87
   5  -2  -2  191.07    8.48
   5  -2  -1    9.06    2.32
   5  -2  -1    5.14    1.67
   5  -2   0  148.02    8.19
   5  -2   0  149.87    6.87
   5  -2   1   50.83    5.06
   5  -2   1   47.96    3.71
   5  -2   2  345.70   10.15
   5  -2   3  119.65    5.09
   5  -2   4    1.75    1.00
   5  -2   5  301.55    6.50
   5  -1 -16   15.67    4.11
   5  -1 -15  100.28    8.74
   5  -1 -14   49.97    6.16
   5  -1 -13  151.25   10.48
   5  -1 -13  183.53    8.07
   5  -1 -12  139.27    9.79
   5  -1 -12  150.53    7.37
   5  -1 -11    0.29    2.62
   5  -1 -11    3.63    1.52
   5  -1 -10  231.39    9.49
   5  -1 -10  232.48   11.84
   5  -1  -9  276.97    8.52
   5  -1  -9  276.38   12.69
   5  -1  -9  289.49   11.00
   5  -1  -8    3.55    1.89
   5  -1  -8    6.42    1.50
   5  -1  -8    1.71    1.53
   5  -1  -7  712.66   20.93
   5  -1  -7  714.12   16.99
   5  -1  -6    2.26    1.83
   5  -1  -6    4.26    1.56
   5  -1  -5   33.48    3.87
   5  -1  -5   37.26    3.49
   5  -1  -4  495.02   15.31
   5  -1  -4  450.49   13.77
   5  -1  -3  128.90    6.99
   5  -1  -3  122.16    6.78
   5  -1  -2  246.59    9.63
   5  -1  -2  230.51    9.81
   5  -1  -1  417.75   12.79
   5  -1  -1  415.45   14.13
   5  -1   0  190.38    7.76
   5  -1   0  181.35    9.15
   5  -1   1  283.83    9.37
   5  -1   1  293.79   12.19
   5  -1   2  319.43    9.51
   5  -1   3    4.54    1.37
   5  -1   4  236.37    6.52
   5  -1   6  130.02    6.96
   5  -1   7  318.12   11.16
   5   0 -16  103.27    9.09
   5   0 -15    0.47    2.79
   5   0 -14  187.27   11.68
   5   0 -13  171.18   10.92
   5   0 -12   11.27    3.31
   5   0 -12   13.84    2.12
   5   0 -11  351.95   11.64
   5   0 -11  336.59   14.91
   5   0 -10  245.93    9.63
   5   0 -10  233.92   11.89
   5   0  -9   53.54    3.06
   5   0  -9   52.11    4.34
   5   0  -9   60.66    6.39
   5   0  -8  354.90   14.26
   5   0  -8  381.03   10.17
   5   0  -7   20.77    3.45
   5   0  -7   18.17    2.16
   5   0  -6   21.16    3.07
   5   0  -6   24.30    2.63
   5   0  -5  103.61    6.73
   5   0  -5  101.06    5.53
   5   0  -4   37.89    3.95
   5   0  -4   40.99    3.71
   5   0  -3  300.38   11.20
   5   0  -3  308.18   11.08
   5   0  -2  165.84    7.79
   5   0  -2  161.39    8.05
   5   0  -1    4.00    1.63
   5   0  -1    4.53    1.90
   5   0   0  327.43   10.54
   5   0   0  308.25   12.25
   5   0   1  107.33    5.39
   5   0   1  115.34    7.45
   5   0   2   21.15    2.33
   5   0   3  478.07   11.41
   5   0   3  437.01   14.50
   5   0   4  145.47    4.82
   5   0   4  136.64    7.41
   5   0   5  111.77    6.55
   5   0   6  346.73   11.90
   5   0   7   35.23    3.59
   5   1 -16    5.00    2.66
   5   1 -15  136.73   10.16
   5   1 -14   68.39    7.12
   5   1 -13   57.99    6.45
   5   1 -12  333.74   10.65
   5   1 -12  330.80   15.10
   5   1 -11   98.17    5.50
   5   1 -11   93.12    7.75
   5   1 -10  137.26    6.76
   5   1 -10  125.88    8.65
   5   1  -9  296.11   13.40
   5   1  -8   12.55    2.92
   5   1  -8    9.71    1.43
   5   1  -7  210.34   10.38
   5   1  -7  212.98    7.21
   5   1  -6  110.17    7.42
   5   1  -6  122.11    5.66
   5   1  -5   -0.62    1.76
   5   1  -5    2.83    1.41
   5   1  -4  260.33   10.63
   5   1  -4  242.41    9.23
   5   1  -3  301.50   11.28
   5   1  -3  316.22   11.18
   5   1  -2    0.16    1.24
   5   1  -2    3.51    1.77
   5   1  -1  271.23    9.91
   5   1  -1  261.58   10.78
   5   1   0   78.09    4.88
   5   1   0   75.24    5.79
   5   1   1   94.37    5.06
   5   1   1   91.69    6.73
   5   1   2  513.87   12.98
   5   1   2  498.24   15.84
   5   1   3   62.16    3.52
   5   1   3   57.96    4.81
   5   1   4  137.10    4.85
   5   1   4  138.67    7.42
   5   1   5  273.85   10.63
   5   1   6   10.20    2.31
   5   2 -16  240.67   14.04
   5   2 -15    8.53    2.98
   5   2 -14  169.65   11.19
   5   2 -13  233.92   12.85
   5   2 -12    2.28    2.23
   5   2 -12    2.23    1.27
   5   2 -11  194.37   11.16
   5   2 -11  208.97    8.28
   5   2 -10  326.83   14.32
   5   2  -9   20.67    3.68
   5   2  -8  384.01   14.90
   5   2  -7  135.72    8.26
   5   2  -6   35.19    4.25
   5   2  -5  118.67    7.24
   5   2  -4  104.83    6.63
   5   2  -3  179.88    8.53
   5   2  -2  401.26   13.03
   5   2  -1  103.72    5.93
   5   2   0  334.12   10.87
   5   2   1  177.20    7.24
   5   2   2   20.10    2.34
   5   2   3  294.35    8.84
   5   2   3  294.07   11.47
   5   2   4  332.27   12.08
   5   2   5   13.79    2.57
   5   2   6  156.04    7.69
   5   3 -16    8.55    2.98
   5   3 -15  256.71   14.20
   5   3 -14  143.75   10.31
   5   3 -13   28.64    5.08
   5   3 -12  174.56   10.91
   5   3 -12  183.24    6.96
   5   3 -11  176.20   10.59
   5   3 -11  167.14    7.01
   5   3 -10   58.01    5.93
   5   3  -9  430.71   16.34
   5   3  -8    2.86    2.22
   5   3  -7   70.34    6.02
   5   3  -6  391.85   14.38
   5   3  -5   96.38    6.62
   5   3  -4  190.13    9.11
   5   3  -3  442.35   14.40
   5   3  -2    7.30    2.06
   5   3  -1  631.62   17.10
   5   3   0  246.49    9.32
   5   3   1    8.97    1.81
   5   3   2  351.51   10.81
   5   3   3  322.86    9.91
   5   3   4  184.41    8.85
   5   3   5  161.14    8.11
   5   4 -16  143.84   10.98
   5   4 -15   95.52    8.55
   5   4 -14   27.83    4.86
   5   4 -13  235.73   13.08
   5   4 -12   71.57    7.13
   5   4 -11   27.42    4.45
   5   4 -10  251.19    9.40
   5   4 -10  242.42   12.37
   5   4  -9    3.38    1.51
   5   4  -9    6.16    2.49
   5   4  -8   65.69    5.00
   5   4  -8   62.42    6.00
   5   4  -7  210.08    9.39
   5   4  -7  223.84   10.87
   5   4  -6    3.71    1.67
   5   4  -6    3.45    1.83
   5   4  -5  306.22   12.08
   5   4  -5  311.94   12.45
   5   4  -4  118.57    7.23
   5   4  -3   -1.54    1.74
   5   4  -2  841.54   21.53
   5   4  -1  154.96    7.63
   5   4   0   10.17    2.13
   5   4   1  198.48    8.38
   5   4   2   24.84    2.97
   5   5 -15   44.37    6.13
   5   5 -14  157.42   10.85
   5   5 -13   39.91    5.59
   5   5 -12   96.10    8.27
   5   5 -11  145.83    9.87
   5   5 -10   10.81    3.38
   5   5  -9  161.74    7.81
   5   5  -9  162.54    9.83
   5   5  -8  166.96    8.13
   5   5  -8  157.05    9.52
   5   5  -7   22.64    3.08
   5   5  -7   26.23    4.13
   5   5  -6  333.00   12.56
   5   5  -6  323.54   13.29
   5   5  -5  187.19    9.48
   5   5  -5  195.59    9.83
   5   5  -4    4.71    2.03
   5   5  -3  200.23    9.50
   5   5  -2   26.87    3.48
   5   5  -1  248.29   10.21
   5   5   0  549.15   16.22
   5   5   1   28.06    3.51
   5   6 -15   98.53    8.83
   5   6 -14    4.35    3.07
   5   6 -13   89.55    8.17
   5   6 -12  113.93    9.00
   5   6 -11   -0.71    2.54
   5   6 -10  101.28    8.03
   5   6  -9  108.91    6.48
   5   6  -9   98.08    7.76
   5   6  -8   24.50    3.41
   5   6  -8   25.60    4.18
   5   6  -7  371.79   13.39
   5   6  -7  358.42   14.68
   5   6  -6   50.34    4.82
   5   6  -6   45.78    5.09
   5   6  -5   78.65    6.62
   5   6  -4  271.24   11.78
   5   6  -3   32.47    3.99
   5   6  -2  193.37    9.52
   5   6  -1  189.22    9.26
   5   6   0   13.49    2.92
   5   6   1  182.74    8.82
   5   7 -15    7.24    3.53
   5   7 -14  123.08    9.78
   5   7 -13   75.42    7.68
   5   7 -12   50.72    6.31
   5   7 -11  153.39   10.34
   5   7 -10   39.63    5.46
   5   7  -9   21.99    4.06
   5   7  -8  311.74   12.05
   5   7  -8  301.41   13.93
   5   7  -7  188.62    9.39
   5   7  -7  188.60   10.56
   5   7  -6  195.22   10.47
   5   7  -5  162.43    9.38
   5   7  -4    1.64    2.02
   5   7  -3  172.72    9.44
   5   7  -2   46.45    4.91
   5   7  -1   31.40    4.13
   5   7   0  312.58   12.69
   5   8 -14   45.87    6.30
   5   8 -13   48.94    6.31
   5   8 -12  175.51   11.50
   5   8 -11    1.39    2.34
   5   8 -10   20.30    4.08
   5   8  -9  288.47   14.13
   5   8  -8    4.41    2.75
   5   8  -7  219.15   11.76
   5   8  -6  256.02   12.54
   5   8  -5    0.33    1.81
   5   8  -4  288.97   13.04
   5   8  -3   10.94    3.22
   5   8  -2    3.65    2.33
   5   8  -1  107.63    7.69
   5   9 -13  134.61   10.44
   5   9 -12    2.43    2.62
   5   9 -11  188.15   11.82
   5   9 -10   52.71    6.29
   5   9  -9   24.23    4.63
   5   9  -8  283.24   14.00
   5   9  -7  132.11    9.31
   5   9  -6   30.03    4.81
   5   9  -5  257.75   12.87
   5   9  -4   23.98    4.17
   5   9  -3   98.40    7.76
   5   9  -2  171.48   10.21
   5  10 -13    8.51    4.21
   5  10 -12  112.99    9.54
   5  10 -11   70.58    7.54
   5  10 -10   71.75    7.37
   5  10  -9  142.05   10.17
   5  10  -8   13.53    4.04
   5  10  -7   86.35    7.97
   5  10  -6  269.36   13.84
   5  10  -5    1.79    2.41
   5  10  -4   98.48    8.30
   5  10  -3   94.06    8.12
   5  11 -12   39.37    6.14
   5  11 -11   45.19    6.32
   5  11 -10  154.98   11.18
   5  11  -9    9.05    3.32
   5  11  -8  128.12   10.06
   5  11  -7   57.57    6.74
   5  11  -6    5.59    2.86
   5  11  -5  168.54   11.38
   5  11  -4   27.71    5.00
   5  12 -10   -0.07    2.57
   5  12  -9   52.74    6.81
   5  12  -8   44.26    6.39
   5  12  -7   10.65    4.05
   5  12  -6  129.84   10.60
   5  12  -5    5.58    2.82
   5  13  -9   37.23    6.28
   5  13  -8   16.96    4.49
   5  13  -7  133.36   11.09
   6 -15   1   99.98    9.23
   6 -14   1    6.85    3.11
   6 -14   2   36.19    5.67
   6 -14   3  105.58    9.61
   6 -14   4    3.61    2.78
   6 -13  -2   51.68    6.81
   6 -13  -1   87.83    8.55
   6 -13   0   15.42    3.80
   6 -13   0   13.17    4.09
   6 -13   1   36.30    5.51
   6 -13   1   26.32    5.12
   6 -13   2   87.69    8.44
   6 -13   3   -1.73    2.99
   6 -13   4   62.79    7.12
   6 -13   5  145.87   11.27
   6 -13   6    0.84    2.61
   6 -12  -7   19.00    4.38
   6 -12  -6   64.66    7.34
   6 -12  -5   90.30    8.62
   6 -12  -4    7.15    3.18
   6 -12  -3  127.23   10.11
   6 -12  -2  155.50   11.16
   6 -12  -1    9.50    3.52
   6 -12  -1    5.53    2.46
   6 -12   0  121.93    9.38
   6 -12   0  111.30    9.25
   6 -12   1   65.82    7.07
   6 -12   1   79.96    8.04
   6 -12   2    3.54    2.87
   6 -12   2    3.77    2.43
   6 -12   3  195.85   12.24
   6 -12   3  169.22   11.42
   6 -12   4   83.05    8.18
   6 -12   4   79.77    8.21
   6 -12   5    6.72    3.55
   6 -12   5    3.75    2.60
   6 -12   6  160.33   11.68
   6 -12   7    7.43    2.82
   6 -11 -10   58.58    7.20
   6 -11  -9  142.26   10.86
   6 -11  -8   -2.12    2.54
   6 -11  -7  126.12   10.08
   6 -11  -6  110.20    9.30
   6 -11  -5    8.59    3.39
   6 -11  -4  111.57    9.32
   6 -11  -3   47.68    6.17
   6 -11  -2   63.12    7.04
   6 -11  -1  105.45    8.38
   6 -11  -1  127.25    9.86
   6 -11   0   51.96    6.12
   6 -11   0   48.34    6.36
   6 -11   1   25.03    4.73
   6 -11   1   17.34    4.07
   6 -11   2  169.62   11.12
   6 -11   2  206.21   12.76
   6 -11   3   10.68    3.81
   6 -11   3    7.03    3.17
   6 -11   4   85.78    8.17
   6 -11   4   97.36    8.69
   6 -11   5  324.76   16.23
   6 -11   5  318.77   16.24
   6 -11   6    6.46    3.35
   6 -11   6    2.69    2.14
   6 -11   7   73.09    7.88
   6 -11   8   80.18    8.66
   6 -10 -12    7.33    3.57
   6 -10 -11   23.37    4.56
   6 -10 -10  158.30   11.26
   6 -10  -9    0.53    2.72
   6 -10  -8  137.56   10.21
   6 -10  -7   80.83    7.86
   6 -10  -6   14.81    3.66
   6 -10  -5  149.23   10.47
   6 -10  -4   21.66    4.32
   6 -10  -3  199.73   12.21
   6 -10  -2  101.56    7.81
   6 -10  -2  103.46    8.73
   6 -10  -1   28.14    4.39
   6 -10  -1   26.95    5.01
   6 -10   0   31.63    4.69
   6 -10   0   34.60    5.39
   6 -10   1  294.73   14.18
   6 -10   1  308.94   15.41
   6 -10   2    4.31    2.85
   6 -10   2    3.84    2.65
   6 -10   3   94.51    8.26
   6 -10   3   87.56    8.14
   6 -10   4  170.73   11.17
   6 -10   5   18.07    4.90
   6 -10   6  123.36    9.91
   6 -10   7   75.34    7.97
   6 -10   8   20.85    4.61
   6  -9 -12  105.77    9.21
   6  -9 -11  146.35   10.65
   6  -9 -10    7.05    3.30
   6  -9  -9   93.43    8.35
   6  -9  -8   23.27    4.50
   6  -9  -7   35.33    5.14
   6  -9  -6  338.03   15.79
   6  -9  -5   67.47    7.02
   6  -9  -4   74.42    7.22
   6  -9  -3   52.72    5.48
   6  -9  -3   64.94    7.63
   6  -9  -2    4.57    2.00
   6  -9  -2    4.16    2.93
   6  -9  -1   76.12    6.66
   6  -9  -1   79.51    7.59
   6  -9   0  199.09   11.00
   6  -9   0  224.14   12.68
   6  -9   1   -1.01    2.60
   6  -9   1   -1.90    2.84
   6  -9   2  207.28   11.56
   6  -9   3  142.66    9.75
   6  -9   4   16.41    3.86
   6  -9   5  175.84   11.24
   6  -9   6   74.08    7.70
   6  -9   7   28.89    5.46
   6  -8 -12   43.23    6.00
   6  -8 -11   20.44    4.20
   6  -8 -10  128.62    9.49
   6  -8  -9   10.55    3.36
   6  -8  -8   49.59    6.10
   6  -8  -7   93.80    7.94
   6  -8  -6    6.19    2.63
   6  -8  -5  158.20   10.33
   6  -8  -4  142.69    8.33
   6  -8  -4  146.51   10.00
   6  -8  -3    4.50    2.20
   6  -8  -3    7.94    3.08
   6  -8  -2  142.62    8.54
   6  -8  -2  144.69    9.87
   6  -8  -1  199.99   10.39
   6  -8  -1  193.11   11.59
   6  -8   0    4.06    2.27
   6  -8   1  199.91   10.89
   6  -8   2  110.62    8.24
   6  -8   3   86.88    7.46
   6  -8   4   71.34    7.13
   6  -8   5    3.65    2.83
   6  -7 -12  102.81    8.52
   6  -7 -11  133.83    9.55
   6  -7 -10    0.16    2.04
   6  -7  -9  143.50    9.70
   6  -7  -8  104.31    8.14
   6  -7  -7   -0.81    2.14
   6  -7  -6  133.69    7.54
   6  -7  -6  157.77    9.99
   6  -7  -5  155.14    8.17
   6  -7  -5  169.71   10.57
   6  -7  -4   12.49    2.63
   6  -7  -4    6.89    2.67
   6  -7  -3   92.96    6.51
   6  -7  -3   91.10    7.72
   6  -7  -2   72.25    5.82
   6  -7  -2   72.37    7.16
   6  -7  -1   22.21    3.52
   6  -7   0  417.84   15.53
   6  -7   1   75.79    6.48
   6  -7   2   22.44    3.83
   6  -7   3  289.66   13.54
   6  -7   4   26.62    4.37
   6  -6 -12  109.72    8.37
   6  -6 -11   16.98    3.82
   6  -6 -11   17.14    3.79
   6  -6 -10  198.25   12.16
   6  -6 -10  187.10   10.82
   6  -6  -9   38.69    5.09
   6  -6  -8   13.57    3.29
   6  -6  -7  180.66    8.18
   6  -6  -7  181.04   10.57
   6  -6  -6   69.69    5.01
   6  -6  -6   63.13    6.30
   6  -6  -5  144.32    7.45
   6  -6  -5  144.12    9.44
   6  -6  -4  165.57    8.20
   6  -6  -4  151.72    9.68
   6  -6  -3   94.30    6.24
   6  -6  -2   67.35    5.48
   6  -6  -1  318.37   12.63
   6  -6   0   25.44    3.59
   6  -6   1   84.87    6.57
   6  -6   2  299.89   11.13
   6  -6   2  304.94   13.30
   6  -6   3   32.50    3.46
   6  -6   4  119.75    6.06
   6  -5 -12   40.03    5.86
   6  -5 -12   43.01    5.13
   6  -5 -11   91.96    8.44
   6  -5 -11   83.32    7.03
   6  -5 -10    9.92    3.49
   6  -5 -10   13.31    3.24
   6  -5  -9  104.34    8.47
   6  -5  -9   85.65    7.07
   6  -5  -8  257.56   13.22
   6  -5  -8  249.93   12.23
   6  -5  -7   54.50    6.00
   6  -5  -7   32.81    4.72
   6  -5  -6   78.51    4.93
   6  -5  -6   81.88    6.91
   6  -5  -6   65.10    6.32
   6  -5  -5  128.84    6.59
   6  -5  -5  125.74    8.67
   6  -5  -5  130.79    8.57
   6  -5  -4   17.56    3.37
   6  -5  -4   16.99    2.62
   6  -5  -3  156.71    7.83
   6  -5  -3  145.18    8.66
   6  -5  -2  172.91    8.50
   6  -5  -2  166.12    8.97
   6  -5  -1   62.21    5.18
   6  -5  -1   59.91    5.12
   6  -5   0  271.00   11.57
   6  -5   0  277.68   11.11
   6  -5   1  266.69   10.47
   6  -5   2    2.56    1.47
   6  -5   3  178.74    7.64
   6  -5   4   39.27    3.25
   6  -4 -12   90.69    8.43
   6  -4 -12   90.41    7.04
   6  -4 -11    0.10    2.33
   6  -4 -11    5.35    2.29
   6  -4 -10   70.23    7.28
   6  -4 -10   67.36    6.03
   6  -4  -9  127.35    9.25
   6  -4  -9  117.15    8.02
   6  -4  -8    1.58    2.71
   6  -4  -8   -0.93    1.90
   6  -4  -7  144.34    9.00
   6  -4  -7  123.64    8.84
   6  -4  -6   92.69    4.94
   6  -4  -6   86.47    6.97
   6  -4  -6   99.80    7.60
   6  -4  -5   15.39    3.40
   6  -4  -5   19.80    2.58
   6  -4  -5   15.66    3.38
   6  -4  -4  201.86   10.31
   6  -4  -4  204.70    8.27
   6  -4  -3   43.74    4.75
   6  -4  -3   37.49    3.70
   6  -4  -2  111.24    7.21
   6  -4  -2  121.53    6.79
   6  -4  -1  157.66    8.27
   6  -4   0    4.49    1.75
   6  -4   1  294.82   10.76
   6  -4   2  107.82    5.93
   6  -4   3   38.42    3.33
   6  -3 -13  124.02   10.12
   6  -3 -12    4.16    3.19
   6  -3 -12    4.59    2.16
   6  -3 -11  104.72    8.74
   6  -3 -11  108.43    7.38
   6  -3 -10  130.58    9.55
   6  -3 -10  130.27    8.23
   6  -3  -9    6.74    3.24
   6  -3  -9    9.76    2.69
   6  -3  -8  205.71   10.54
   6  -3  -8  188.44   11.07
   6  -3  -7  132.44    8.36
   6  -3  -7  115.45    8.43
   6  -3  -6   18.00    2.95
   6  -3  -6   18.71    3.54
   6  -3  -5   89.05    6.30
   6  -3  -5   97.73    7.36
   6  -3  -4  173.47    9.20
   6  -3  -4  182.23    9.65
   6  -3  -3   88.56    6.53
   6  -3  -2  272.04   11.27
   6  -3  -1   -1.03    2.10
   6  -3   0   98.30    6.07
   6  -3   1  171.68    7.79
   6  -3   2   44.43    3.70
   6  -3   3   46.10    3.50
   6  -2 -13    6.85    2.72
   6  -2 -12  179.46   11.65
   6  -2 -11   65.16    7.06
   6  -2 -11   70.39    6.06
   6  -2 -10    1.18    2.74
   6  -2 -10    0.45    1.46
   6  -2  -9  207.19   10.44
   6  -2  -9  205.52   11.67
   6  -2  -8   51.92    5.21
   6  -2  -8   58.24    6.03
   6  -2  -7  106.36    7.85
   6  -2  -6  139.74    8.85
   6  -2  -6  140.28    7.53
   6  -2  -5   52.13    5.24
   6  -2  -5   45.41    4.50
   6  -2  -4   53.53    5.16
   6  -2  -4   53.28    5.23
   6  -2  -3  336.57   12.96
   6  -2  -3  327.20   13.11
   6  -2  -2    1.73    1.69
   6  -2  -1  161.61    8.13
   6  -2   0   93.86    5.89
   6  -2   1  111.11    6.09
   6  -2   2  158.68    6.90
   6  -2   3  142.55    6.04
   6  -1 -13   73.86    7.58
   6  -1 -12   42.20    5.80
   6  -1 -11   26.06    4.50
   6  -1 -11   23.63    3.47
   6  -1 -10  174.20    9.17
   6  -1 -10  161.92   10.55
   6  -1  -9   58.36    5.40
   6  -1  -9   45.55    5.64
   6  -1  -8  135.55    9.16
   6  -1  -7  120.21    8.35
   6  -1  -6    2.36    1.94
   6  -1  -5  227.57    9.88
   6  -1  -5  220.59   10.86
   6  -1  -4  262.44   11.05
   6  -1  -4  259.28   11.53
   6  -1  -3   11.74    2.59
   6  -1  -3   13.36    2.76
   6  -1  -2  182.28    8.91
   6  -1  -1  211.12    9.31
   6  -1   0   33.92    3.62
   6  -1   1  106.24    5.87
   6  -1   2   49.90    3.76
   6  -1   3   46.69    3.29
   6   0 -13   28.78    4.98
   6   0 -12   78.39    7.70
   6   0 -11  168.72   10.97
   6   0 -11  160.65    8.43
   6   0 -10   22.81    4.52
   6   0 -10   17.15    3.04
   6   0  -9   73.42    6.99
   6   0  -8   76.54    6.90
   6   0  -7    1.02    2.21
   6   0  -6  236.54   11.55
   6   0  -5    7.26    2.59
   6   0  -5   10.32    2.32
   6   0  -4   77.34    6.10
   6   0  -4   54.88    4.81
   6   0  -3  231.72   10.49
   6   0  -3  234.26   10.57
   6   0  -2   28.04    3.56
   6   0  -1  146.52    7.63
   6   0   0  148.13    7.36
   6   0   1   59.09    4.33
   6   0   2  122.16    5.90
   6   1 -13   79.81    7.99
   6   1 -12  136.40   10.13
   6   1 -11   10.53    3.40
   6   1 -11    6.66    2.19
   6   1 -10  217.02    9.91
   6   1 -10  206.55   12.28
   6   1  -9   87.59    7.64
   6   1  -8   20.11    3.75
   6   1  -7  163.26    9.78
   6   1  -6   72.47    6.36
   6   1  -5  202.65   10.34
   6   1  -4  151.54    8.69
   6   1  -3   86.54    6.29
   6   1  -2  115.16    7.03
   6   1  -1  191.18    8.85
   6   1   0    0.35    1.58
   6   1   1   86.36    5.30
   6   1   2  156.14    6.77
   6   2 -13   24.32    4.49
   6   2 -12   13.34    4.07
   6   2 -11  193.35   11.75
   6   2 -10   56.06    6.32
   6   2  -9   58.75    6.32
   6   2  -8  102.57    7.99
   6   2  -7    4.96    2.62
   6   2  -6  167.55    9.67
   6   2  -5  274.55   12.26
   6   2  -4    8.19    2.31
   6   2  -3   76.90    6.00
   6   2  -2  149.55    8.09
   6   2  -1   31.86    3.64
   6   2   0  107.77    6.33
   6   2   1  104.78    5.94
   6   2   2   22.79    2.83
   6   3 -13   48.08    6.29
   6   3 -12   97.59    8.63
   6   3 -11    2.01    2.65
   6   3 -10  161.02   10.61
   6   3  -9  135.65    9.49
   6   3  -8   -0.01    2.12
   6   3  -7  170.35   10.14
   6   3  -6   76.36    6.55
   6   3  -5   53.65    5.39
   6   3  -4  160.43    9.00
   6   3  -3   99.72    6.85
   6   3  -2   24.87    3.51
   6   3  -1   88.29    6.06
   6   3   0   21.12    3.04
   6   3   1  100.49    5.96
   6   4 -13   72.92    7.61
   6   4 -12   -3.06    3.27
   6   4 -11  152.01   10.62
   6   4 -10   50.34    6.01
   6   4  -9    9.45    3.42
   6   4  -8  169.82   10.51
   6   4  -7   12.79    3.30
   6   4  -6   63.15    6.10
   6   4  -5  200.96   10.57
   6   4  -4   28.25    3.98
   6   4  -3   41.26    4.55
   6   4  -2   68.37    5.59
   6   4  -1   15.30    2.78
   6   4   0   99.97    6.38
   6   4   1   68.98    5.20
   6   5 -13    8.23    3.07
   6   5 -12  162.06   11.25
   6   5 -11   49.01    6.16
   6   5 -10   24.62    4.84
   6   5  -9  145.64   10.05
   6   5  -8   61.78    6.47
   6   5  -7   59.03    6.17
   6   5  -6   77.32    6.86
   6   5  -5    7.28    3.58
   6   5  -4  186.15   10.09
   6   5  -3  171.70    9.39
   6   5  -2   19.43    3.32
   6   5  -1  111.72    7.23
   6   5   0   83.28    6.10
   6   6 -12   45.12    6.34
   6   6 -11   63.85    7.23
   6   6 -10   88.39    8.06
   6   6  -9    9.85    3.47
   6   6  -8  111.63    8.75
   6   6  -7  156.68   10.06
   6   6  -6    3.63    2.65
   6   6  -5   58.53    5.91
   6   6  -4   54.52    5.63
   6   6  -3    8.95    2.84
   6   6  -2   54.76    5.45
   6   6  -1   73.52    6.21
   6   6   0   48.53    5.09
   6   7 -12   92.31    8.80
   6   7 -11  140.81   10.57
   6   7 -10   -2.04    2.85
   6   7  -9   52.77    6.40
   6   7  -8   93.98    8.23
   6   7  -7    5.09    3.01
   6   7  -6   75.20    7.10
   6   7  -5   39.16    5.15
   6   7  -4   58.13    6.03
   6   7  -3  137.13    9.04
   6   7  -2   29.50    4.45
   6   7  -1   34.26    4.55
   6   8 -11   19.44    4.43
   6   8 -10  142.46   10.54
   6   8  -9   32.79    5.13
   6   8  -8    5.55    2.99
   6   8  -7  148.55   10.32
   6   8  -6   68.74    6.93
   6   8  -5   34.40    5.06
   6   8  -4   46.59    5.71
   6   8  -3    2.71    2.53
   6   8  -2  133.53    9.20
   6   8  -1   63.43    6.38
   6   9 -10    3.58    2.04
   6   9  -9   66.22    7.24
   6   9  -8   66.91    7.32
   6   9  -7    7.86    3.57
   6   9  -6   96.13    8.47
   6   9  -5  142.76   10.12
   6   9  -4    5.54    3.03
   6   9  -3  148.30   10.30
   6   9  -2   49.92    6.08
   6  10  -9   33.66    5.57
   6  10  -8    4.82    3.92
   6  10  -7   62.84    7.34
   6  10  -6   26.20    4.96
   6  10  -5    4.71    3.09
   6  10  -4   99.36    8.82
   6  10  -3    4.88    3.32
   6  11  -8   56.37    7.36
   6  11  -7   33.53    5.58
   6  11  -6   20.84    4.54
   6  11  -5   62.52    7.59
   6  11  -4    4.57    3.00
   6  12  -6   54.78    7.45
   7 -13  -1   58.38    7.42
   7 -13   0    3.38    2.91
   7 -13   1  101.00    9.34
   7 -13   2   26.30    5.75
   7 -12  -1   32.68    5.49
   7 -12   0  115.26    9.48
   7 -12   1   26.67    5.10
   7 -12   2   78.51    8.08
   7 -12   3   86.36    8.65
   7 -11  -1   98.66    8.61
   7 -11   0   -0.30    3.05
   7 -11   1   99.25    8.87
   7 -11   2   82.26    8.34
   7 -11   3   -0.66    5.09
   7 -11   4   60.10    7.22
   7 -11   5   18.93    4.82
   7 -10  -1    1.49    2.73
   7 -10   0   83.64    7.86
   7 -10   1   21.04    4.53
   7 -10   2    7.64    3.25
   7 -10   3   99.81    9.05
   7 -10   4   19.43    4.53
   7 -10   5   16.77    4.41
   7  -9  -8   12.48    4.00
   7  -9  -7   72.91    7.74
   7  -9  -6   98.48    8.92
   7  -9  -5    8.01    3.04
   7  -9  -4  143.80   10.81
   7  -9  -3   61.88    7.35
   7  -9  -2   15.07    4.05
   7  -9  -1   99.65    7.86
   7  -9   0   13.39    3.53
   7  -9   1   18.93    4.42
   7  -9   2  154.87   10.62
   7  -9   3   21.19    4.45
   7  -8 -10   26.08    5.07
   7  -8  -9    4.63    3.21
   7  -8  -8  151.63   10.86
   7  -8  -7  108.61    9.16
   7  -8  -6   13.21    3.27
   7  -8  -5  198.24   12.37
   7  -8  -4   76.88    7.88
   7  -8  -3   12.94    3.57
   7  -8  -2  119.54    9.81
   7  -8  -1    7.69    2.65
   7  -8  -1    2.19    2.36
   7  -8   0   36.68    4.79
   7  -8   1   70.12    6.76
   7  -8   2    1.24    2.90
   7  -7 -10   11.96    3.82
   7  -7  -9   96.41    8.54
   7  -7  -8   60.88    6.98
   7  -7  -7   15.30    4.15
   7  -7  -7   18.71    3.99
   7  -7  -6  109.07    8.95
   7  -7  -6  139.39   10.08
   7  -7  -5   26.76    4.80
   7  -7  -5   20.41    4.25
   7  -7  -4   74.47    7.02
   7  -7  -4   65.79    7.08
   7  -7  -3  188.93   10.98
   7  -7  -3  176.61   11.63
   7  -7  -2   13.26    3.47
   7  -7  -2   23.57    8.02
   7  -7  -1  116.69    8.02
   7  -7  -1   99.27    7.46
   7  -7   0   92.61    7.37
   7  -7   0   98.64    7.18
   7  -6 -10  121.65    9.46
   7  -6  -9    9.96    3.23
   7  -6  -8   85.24    8.03
   7  -6  -8   75.44    7.35
   7  -6  -7  124.17    9.57
   7  -6  -7  118.22    9.34
   7  -6  -6    0.74    2.44
   7  -6  -6   -7.30    2.99
   7  -6  -5   48.56    5.92
   7  -6  -5   52.14    6.28
   7  -6  -4  115.80    8.96
   7  -6  -4  133.62    9.85
   7  -6  -3    2.86    2.43
   7  -6  -2  150.39    9.28
   7  -6  -1   64.53    5.99
   7  -6   0    4.35    2.25
   7  -5 -10   -3.90    2.73
   7  -5  -9   56.37    6.79
   7  -5  -9   61.00    6.82
   7  -5  -8   84.65    8.01
   7  -5  -8   74.29    7.17
   7  -5  -7   11.75    3.61
   7  -5  -7    7.96    2.77
   7  -5  -6   81.95    7.64
   7  -5  -6   71.20    7.22
   7  -5  -5    8.49    3.12
   7  -5  -5   17.22    3.94
   7  -5  -4   34.58    4.99
   7  -5  -3  189.98   10.63
   7  -5  -2   47.29    5.25
   7  -5  -1   52.46    5.28
   7  -5   0  197.48    9.73
   7  -4 -10  117.48    8.91
   7  -4  -9   74.53    7.52
   7  -4  -9   64.45    6.62
   7  -4  -8   18.02    3.77
   7  -4  -8   13.82    3.71
   7  -4  -7   93.48    8.08
   7  -4  -7  102.75    8.48
   7  -4  -6   36.25    5.43
   7  -4  -6   38.78    5.30
   7  -4  -5   12.24    3.40
   7  -4  -4   41.92    5.39
   7  -4  -3    5.59    2.49
   7  -4  -2  141.09    8.62
   7  -4  -1  157.98    8.83
   7  -4   0    0.10    1.78
   7  -3 -10   22.88    4.55
   7  -3 -10   30.50    4.60
   7  -3  -9   26.01    4.51
   7  -3  -9   21.90    3.11
   7  -3  -8  175.95   11.30
   7  -3  -8  180.52   10.90
   7  -3  -7   23.27    4.18
   7  -3  -7   15.19    3.74
   7  -3  -6   41.07    5.34
   7  -3  -5   95.04    7.69
   7  -3  -4    8.99    2.75
   7  -3  -3   97.58    7.33
   7  -3  -2  101.85    7.25
   7  -3  -1    5.07    2.13
   7  -3   0  152.08    8.27
   7  -2 -10   81.93    7.97
   7  -2 -10   76.37    6.95
   7  -2  -9  124.15    9.61
   7  -2  -9  128.93    8.96
   7  -2  -8   -2.45    3.05
   7  -2  -8    3.34    2.84
   7  -2  -7  109.12    8.69
   7  -2  -6   83.25    7.46
   7  -2  -5    3.81    2.54
   7  -2  -4   96.98    7.63
   7  -2  -3   87.63    7.00
   7  -2  -2   37.57    4.38
   7  -2  -1  255.59   11.20
   7  -1 -10   78.67    7.96
   7  -1 -10   65.41    6.51
   7  -1  -9   21.89    4.48
   7  -1  -9   34.64    4.80
   7  -1  -8  172.08   11.04
   7  -1  -7   61.77    6.51
   7  -1  -6   29.56    4.81
   7  -1  -5  216.56   11.60
   7  -1  -4   41.85    4.97
   7  -1  -3    8.53    2.68
   7  -1  -2  232.83   10.90
   7  -1  -1    6.22    2.16
   7   0 -10   46.75    6.17
   7   0  -9  101.23    8.69
   7   0  -8   33.12    5.33
   7   0  -7   43.11    6.05
   7   0  -6  125.88    9.01
   7   0  -5    0.76    2.35
   7   0  -4  170.77    9.93
   7   0  -3  130.08    8.35
   7   0  -2   12.25    2.67
   7   0  -1  160.74    8.70
   7   1 -10  167.74   11.45
   7   1  -9   14.74    3.87
   7   1  -8   60.26    6.61
   7   1  -7  171.34   10.79
   7   1  -6    0.96    3.41
   7   1  -5   93.94    7.69
   7   1  -4   93.06    7.33
   7   1  -3   17.30    3.35
   7   1  -2   96.51    6.89
   7   2 -10    5.74    3.41
   7   2  -9  110.39    8.99
   7   2  -8   42.34    5.55
   7   2  -7    0.39    2.77
   7   2  -6  125.89    9.09
   7   2  -5   45.91    5.50
   7   2  -4   59.13    5.84
   7   2  -3  117.92    8.12
   7   2  -2   25.01    3.88
   7   3 -10  101.64    8.81
   7   3  -9   17.37    3.95
   7   3  -8   18.95    4.23
   7   3  -7  163.74   10.77
   7   3  -6   35.21    5.14
   7   3  -5   23.58    3.94
   7   3  -4  131.24    8.83
   7   3  -3    5.91    2.28
   7   4 -10   20.37    5.06
   7   4  -9   22.94    5.75
   7   4  -8  104.06    8.70
   7   4  -7   -0.19    2.71
   7   4  -6   82.49    7.44
   7   4  -5   77.28    7.28
   7   4  -4    5.73    2.89
   7   4  -3  118.86    8.22
   7   5  -9   49.88    6.23
   7   5  -8    2.75    2.66
   7   5  -7   98.79    8.54
   7   5  -6   78.07    7.52
   7   5  -5   18.85    4.13
   7   5  -4  103.54    8.47
   7   5  -3   57.40    6.08
   7   6  -9   -0.18    3.47
   7   6  -8   58.54    6.74
   7   6  -7   19.12    4.36
   7   6  -6   52.37    6.50
   7   6  -5  131.38    9.53
   7   6  -4   13.76    3.54
   7   7  -8    7.99    3.04
   7   7  -7   56.48    6.63
   7   7  -6  124.49    9.67
   7   7  -5    4.97    3.36
   7   8  -7   36.13    5.62
   7   8  -6    3.60    2.52
   7   8  -5  126.60    9.95
   8  -6  -5   82.96    8.38
   8  -6  -4   21.88    4.75
   8  -5  -5   -1.20    2.60
   8  -4  -6    5.93    3.32
   8  -4  -5   78.28    7.62
   8  -3  -7   11.90    3.82
   8  -3  -6   51.18    6.72
   8  -3  -5   51.55    6.24
   8  -2  -6   32.62    5.37
   8  -2  -5   71.18    7.20
   8  -1  -7   19.87    5.01
   8  -1  -6   63.02    7.01
   8   0  -7   84.07    8.21
   8   0  -6   61.24    6.99
   8   1  -7   30.67    5.26
   8   1  -6   23.67    4.75
   0   0   0    0.00    0.00


TITL OAV-499_auto in P1
REM P1 (#1 in standard setting)
CELL 0.71073   5.999333  15.870609  16.313686 102.8529  97.6335  96.8878
ZERR   21.00   0.000117   0.000353   0.000350   0.0019   0.0017   0.0017
LATT -1
SFAC C H N O Cd
UNIT 21.00 21.00 21.00 21.00 21.00
REM  CrysAlisPro recorded range (K): Min=294.7; max=294.7; aver:294.7
TEMP 22
TREF
HKLF 4
END
_computing_structure_solution     'SHELXT 2018/2 (Sheldrick, 2018)'
;
_shelx_hkl_checksum   59475

