 
data_OAV-389_a
 
_audit_creation_method            'SHELXL-2019/3'
_shelx_SHELXL_version_number      '2019/3'
_chemical_name_systematic         ?
_chemical_name_common             ?
_chemical_melting_point           ?
_chemical_formula_moiety          ?
_chemical_formula_sum
 'C H Cd N O' 
_chemical_formula_weight          155.43

loop_
 _atom_type_symbol
 _atom_type_description
 _atom_type_scat_dispersion_real
 _atom_type_scat_dispersion_imag
 _atom_type_scat_source
 'C'  'C'   0.0033   0.0016
 'International Tables Vol C Tables 4.2.6.8 and 6.1.1.4'
 'H'  'H'   0.0000   0.0000
 'International Tables Vol C Tables 4.2.6.8 and 6.1.1.4'
 'N'  'N'   0.0061   0.0033
 'International Tables Vol C Tables 4.2.6.8 and 6.1.1.4'
 'O'  'O'   0.0106   0.0060
 'International Tables Vol C Tables 4.2.6.8 and 6.1.1.4'
 'Cd'  'Cd'  -0.8075   1.2024
 'International Tables Vol C Tables 4.2.6.8 and 6.1.1.4'
 
_space_group_crystal_system       monoclinic
_space_group_IT_number            14
_space_group_name_H-M_alt         'P 21/c'
_space_group_name_Hall            '-P 2ybc'
 
_shelx_space_group_comment
;
The symmetry employed for this shelxl refinement is uniquely defined
by the following loop, which should always be used as a source of
symmetry information in preference to the above space-group names.
They are only intended as comments.
;
 
loop_
 _space_group_symop_operation_xyz
 'x, y, z'
 '-x, y+1/2, -z+1/2'
 '-x, -y, -z'
 'x, -y-1/2, z-1/2'
 
_cell_length_a                    8.18250(10)
_cell_length_b                    9.6535(2)
_cell_length_c                    16.3348(3)
_cell_angle_alpha                 90
_cell_angle_beta                  94.3120(10)
_cell_angle_gamma                 90
_cell_volume                      1286.63(4)
_cell_formula_units_Z             15
_cell_measurement_temperature     150(2)
_cell_measurement_reflns_used     ?
_cell_measurement_theta_min       ?
_cell_measurement_theta_max       ?
 
_exptl_crystal_description        ?
_exptl_crystal_colour             ?
_exptl_crystal_density_meas       ?
_exptl_crystal_density_method     ?
_exptl_crystal_density_diffrn     3.009          
_exptl_crystal_F_000              1050
_exptl_transmission_factor_min    ?
_exptl_transmission_factor_max    ?
_exptl_crystal_size_max           ?
_exptl_crystal_size_mid           ?
_exptl_crystal_size_min           ?
_exptl_absorpt_coefficient_mu     6.114
_shelx_estimated_absorpt_T_min    ?
_shelx_estimated_absorpt_T_max    ?
_exptl_absorpt_correction_type    ?
_exptl_absorpt_correction_T_min   ?
_exptl_absorpt_correction_T_max   ?
_exptl_absorpt_process_details    ?
_exptl_absorpt_special_details    ?
_diffrn_ambient_temperature       150(2)
_diffrn_radiation_wavelength      0.71073
_diffrn_radiation_type            MoK\a
_diffrn_source                    ?
_diffrn_measurement_device_type   ?
_diffrn_measurement_method        ?
_diffrn_detector_area_resol_mean  ?
_diffrn_reflns_number             17460
_diffrn_reflns_av_unetI/netI      0.0316
_diffrn_reflns_av_R_equivalents   0.0316
_diffrn_reflns_limit_h_min        -10
_diffrn_reflns_limit_h_max        12
_diffrn_reflns_limit_k_min        -14
_diffrn_reflns_limit_k_max        14
_diffrn_reflns_limit_l_min        -24
_diffrn_reflns_limit_l_max        19
_diffrn_reflns_theta_min          2.453
_diffrn_reflns_theta_max          31.548
_diffrn_reflns_theta_full         25.242
_diffrn_measured_fraction_theta_max   0.998
_diffrn_measured_fraction_theta_full  1.000
_diffrn_reflns_Laue_measured_fraction_max    0.998
_diffrn_reflns_Laue_measured_fraction_full   1.000
_diffrn_reflns_point_group_measured_fraction_max   0.998
_diffrn_reflns_point_group_measured_fraction_full  1.000
_reflns_number_total              4280
_reflns_number_gt                 3503
_reflns_threshold_expression      'I > 2\s(I)'
_reflns_Friedel_coverage          0.000
_reflns_Friedel_fraction_max      .
_reflns_Friedel_fraction_full     .
 
_reflns_special_details
;
 Reflections were merged by SHELXL according to the crystal
 class for the calculation of statistics and refinement.
 
 _reflns_Friedel_fraction is defined as the number of unique
 Friedel pairs measured divided by the number that would be
 possible theoretically, ignoring centric projections and
 systematic absences.
;
 
_computing_data_collection        ?
_computing_cell_refinement        ?
_computing_data_reduction         ?
_computing_structure_solution     'SHELXT 2018/2 (Sheldrick, 2018)'
_computing_structure_refinement 'SHELXL-2019/2 (Sheldrick, 2019)'
_computing_molecular_graphics     ?
_computing_publication_material   ?
_refine_special_details           ?
_refine_ls_structure_factor_coef  Fsqd
_refine_ls_matrix_type            full
_refine_ls_weighting_scheme       calc
_refine_ls_weighting_details
'w=1/[\s^2^(Fo^2^)+(0.1000P)^2^] where P=(Fo^2^+2Fc^2^)/3'
_atom_sites_solution_primary      ?
_atom_sites_solution_secondary    ?
_atom_sites_solution_hydrogens    geom
_refine_ls_hydrogen_treatment     constr
_refine_ls_extinction_method      none
_refine_ls_extinction_coef        .
_refine_ls_number_reflns          4280
_refine_ls_number_parameters      190
_refine_ls_number_restraints      0
_refine_ls_R_factor_all           0.0358
_refine_ls_R_factor_gt            0.0250
_refine_ls_wR_factor_ref          0.0938
_refine_ls_wR_factor_gt           0.0826
_refine_ls_goodness_of_fit_ref    0.703
_refine_ls_restrained_S_all       0.703
_refine_ls_shift/su_max           0.001
_refine_ls_shift/su_mean          0.000
 
loop_
 _atom_site_label
 _atom_site_type_symbol
 _atom_site_fract_x
 _atom_site_fract_y
 _atom_site_fract_z
 _atom_site_U_iso_or_equiv
 _atom_site_adp_type
 _atom_site_occupancy
 _atom_site_site_symmetry_order  
 _atom_site_calc_flag
 _atom_site_refinement_flags_posn
 _atom_site_refinement_flags_adp
 _atom_site_refinement_flags_occupancy
 _atom_site_disorder_assembly
 _atom_site_disorder_group
Cd01 Cd 0.04394(2) 0.57349(2) 0.38348(2) 0.02195(7) Uani 1 1 d . . . . .
N1 N 0.1379(2) 0.7861(2) 0.47923(11) 0.0282(4) Uani 1 1 d . . . . .
N2 N 0.0658(2) 0.77157(19) 0.31356(11) 0.0265(4) Uani 1 1 d . . . . .
N3 N 0.3187(2) 0.5003(3) 0.32350(12) 0.0361(5) Uani 1 1 d . . . . .
N4 N 0.1998(2) 0.43652(18) 0.47015(12) 0.0230(4) Uani 1 1 d . . . . .
N5 N 0.3888(3) 0.4992(4) 0.25415(14) 0.0496(7) Uani 1 1 d . . . . .
N8 N 0.1879(2) 0.4002(2) 0.55056(12) 0.0259(4) Uani 1 1 d . . . . .
N9 N 0.1817(3) 0.8205(2) 0.55539(12) 0.0342(4) Uani 1 1 d . . . . .
N12 N 0.4318(2) 0.3247(2) 0.51405(11) 0.0305(4) Uani 1 1 d . . . . .
N13 N 0.1052(2) 1.00073(18) 0.29933(10) 0.0238(4) Uani 1 1 d . . . . .
N15 N 0.1536(2) 0.90061(19) 0.43291(11) 0.0245(4) Uani 1 1 d . . . . .
N17 N 0.0565(3) 0.94399(19) 0.22353(12) 0.0250(4) Uani 1 1 d . . . . .
N18 N 0.4019(2) 0.4112(2) 0.37470(13) 0.0274(4) Uani 1 1 d . . . . .
C14 C 0.1093(3) 0.8932(2) 0.34846(13) 0.0219(4) Uani 1 1 d . . . . .
C16 C 0.0355(3) 0.8096(2) 0.23432(12) 0.0268(4) Uani 1 1 d . . . . .
H16 H 0.002767 0.747071 0.191278 0.032 Uiso 1 1 calc R U . . .
C19 C 0.5162(4) 0.4089(4) 0.26116(18) 0.0515(9) Uani 1 1 d . . . . .
H19 H 0.586201 0.387442 0.219076 0.062 Uiso 1 1 calc R U . . .
C00E C 0.3464(3) 0.3900(2) 0.45340(13) 0.0232(4) Uani 1 1 d . . . . .
C00H C 0.3265(3) 0.3352(2) 0.57333(13) 0.0300(5) Uani 1 1 d . . . . .
H00H H 0.349679 0.298954 0.627012 0.036 Uiso 1 1 calc R U . . .
C00I C 0.2089(3) 1.0087(3) 0.47947(15) 0.0363(5) Uani 1 1 d . . . . .
H00I H 0.231302 1.100209 0.462156 0.044 Uiso 1 1 calc R U . . .
C00J C 0.2253(4) 0.9559(3) 0.55738(16) 0.0380(6) Uani 1 1 d . . . . .
H00J H 0.261515 1.006248 0.605314 0.046 Uiso 1 1 calc R U . . .
C00K C 0.5278(3) 0.3536(4) 0.33887(16) 0.0423(6) Uani 1 1 d . . . . .
H00K H 0.606547 0.289587 0.361903 0.051 Uiso 1 1 calc R U . . .
 
loop_
 _atom_site_aniso_label
 _atom_site_aniso_U_11
 _atom_site_aniso_U_22
 _atom_site_aniso_U_33
 _atom_site_aniso_U_23
 _atom_site_aniso_U_13
 _atom_site_aniso_U_12
Cd01 0.03546(11) 0.01715(9) 0.01291(9) 0.00172(4) -0.00035(6) 0.00271(5)
N1 0.0400(11) 0.0271(9) 0.0169(8) 0.0038(7) -0.0018(7) 0.0031(8)
N2 0.0447(11) 0.0184(8) 0.0165(8) 0.0002(6) 0.0021(7) -0.0001(7)
N3 0.0350(10) 0.0490(14) 0.0241(10) 0.0133(9) 0.0006(8) 0.0072(9)
N4 0.0303(9) 0.0221(9) 0.0164(8) 0.0015(6) 0.0005(7) -0.0008(6)
N5 0.0350(12) 0.087(2) 0.0271(11) 0.0198(13) 0.0030(9) 0.0040(12)
N8 0.0370(10) 0.0253(9) 0.0153(8) 0.0004(7) 0.0008(7) 0.0009(7)
N9 0.0452(12) 0.0382(12) 0.0181(9) 0.0035(8) -0.0042(8) 0.0040(9)
N12 0.0332(10) 0.0361(11) 0.0217(9) 0.0068(8) -0.0016(7) 0.0028(8)
N13 0.0362(9) 0.0201(8) 0.0147(8) -0.0003(6) -0.0002(6) -0.0009(7)
N15 0.0349(10) 0.0206(8) 0.0173(8) 0.0005(7) -0.0029(7) 0.0004(7)
N17 0.0375(10) 0.0208(8) 0.0163(8) 0.0015(6) 0.0002(7) -0.0001(7)
N18 0.0264(9) 0.0339(10) 0.0214(9) 0.0046(7) -0.0004(7) -0.0007(7)
C14 0.0310(10) 0.0182(9) 0.0163(9) -0.0004(7) 0.0015(7) 0.0005(7)
C16 0.0445(12) 0.0201(10) 0.0153(9) 0.0003(7) -0.0006(8) 0.0000(8)
C19 0.0314(14) 0.098(3) 0.0263(14) 0.0079(14) 0.0078(10) 0.0091(13)
C00E 0.0272(10) 0.0221(9) 0.0200(9) 0.0005(8) -0.0006(7) -0.0001(8)
C00H 0.0386(12) 0.0323(12) 0.0182(10) 0.0039(8) -0.0031(8) 0.0019(9)
C00I 0.0552(15) 0.0283(12) 0.0239(11) -0.0054(9) -0.0069(10) -0.0085(11)
C00J 0.0531(16) 0.0367(13) 0.0229(11) -0.0059(10) -0.0067(10) 0.0004(12)
C00K 0.0321(12) 0.067(2) 0.0288(12) 0.0066(12) 0.0057(9) 0.0125(12)
 
_geom_special_details
;
 All esds (except the esd in the dihedral angle between two l.s. planes)
 are estimated using the full covariance matrix.  The cell esds are taken
 into account individually in the estimation of esds in distances, angles
 and torsion angles; correlations between esds in cell parameters are only
 used when they are defined by crystal symmetry.  An approximate (isotropic)
 treatment of cell esds is used for estimating esds involving l.s. planes.
;
 
loop_
 _geom_bond_atom_site_label_1
 _geom_bond_atom_site_label_2
 _geom_bond_distance
 _geom_bond_site_symmetry_2
 _geom_bond_publ_flag
Cd01 N2 2.2414(18) . ?
Cd01 N17 2.2535(19) 2_545 ?
Cd01 N4 2.2601(19) . ?
Cd01 N8 2.265(2) 3_566 ?
Cd01 N3 2.616(2) . ?
Cd01 N1 2.658(2) . ?
N1 N9 1.311(3) . ?
N1 N15 1.351(3) . ?
N2 C14 1.341(3) . ?
N2 C16 1.351(3) . ?
N3 N5 1.308(3) . ?
N3 N18 1.348(3) . ?
N4 C00E 1.328(3) . ?
N4 N8 1.370(3) . ?
N5 C19 1.357(4) . ?
N8 C00H 1.324(3) . ?
N9 C00J 1.355(3) . ?
N12 C00E 1.328(3) . ?
N12 C00H 1.348(3) . ?
N13 C14 1.311(3) . ?
N13 N17 1.385(3) . ?
N15 C00I 1.349(3) . ?
N15 C14 1.401(3) . ?
N17 C16 1.322(3) . ?
N18 C00K 1.343(3) . ?
N18 C00E 1.410(3) . ?
C19 C00K 1.374(4) . ?
C00I C00J 1.368(4) . ?
 
loop_
 _geom_angle_atom_site_label_1
 _geom_angle_atom_site_label_2
 _geom_angle_atom_site_label_3
 _geom_angle
 _geom_angle_site_symmetry_1
 _geom_angle_site_symmetry_3
 _geom_angle_publ_flag
N2 Cd01 N17 96.69(7) . 2_545 ?
N2 Cd01 N4 139.05(7) . . ?
N17 Cd01 N4 108.49(7) 2_545 . ?
N2 Cd01 N8 104.39(7) . 3_566 ?
N17 Cd01 N8 99.28(7) 2_545 3_566 ?
N4 Cd01 N8 102.78(7) . 3_566 ?
N2 Cd01 N3 86.32(7) . . ?
N17 Cd01 N3 80.40(7) 2_545 . ?
N4 Cd01 N3 67.43(7) . . ?
N8 Cd01 N3 169.21(7) 3_566 . ?
N2 Cd01 N1 67.08(6) . . ?
N17 Cd01 N1 163.15(6) 2_545 . ?
N4 Cd01 N1 87.62(6) . . ?
N8 Cd01 N1 81.33(7) 3_566 . ?
N3 Cd01 N1 102.13(7) . . ?
N9 N1 N15 107.05(19) . . ?
N9 N1 Cd01 143.13(16) . . ?
N15 N1 Cd01 109.74(12) . . ?
C14 N2 C16 101.13(17) . . ?
C14 N2 Cd01 123.98(14) . . ?
C16 N2 Cd01 134.80(15) . . ?
N5 N3 N18 107.4(2) . . ?
N5 N3 Cd01 140.52(16) . . ?
N18 N3 Cd01 110.37(14) . . ?
C00E N4 N8 103.97(18) . . ?
C00E N4 Cd01 122.98(15) . . ?
N8 N4 Cd01 132.29(15) . . ?
N3 N5 C19 108.4(2) . . ?
C00H N8 N4 105.64(18) . . ?
C00H N8 Cd01 130.50(16) . 3_566 ?
N4 N8 Cd01 123.34(15) . 3_566 ?
N1 N9 C00J 108.6(2) . . ?
C00E N12 C00H 99.89(18) . . ?
C14 N13 N17 103.10(17) . . ?
C00I N15 N1 111.04(18) . . ?
C00I N15 C14 130.2(2) . . ?
N1 N15 C14 118.74(18) . . ?
C16 N17 N13 107.48(17) . . ?
C16 N17 Cd01 127.17(15) . 2 ?
N13 N17 Cd01 122.53(13) . 2 ?
C00K N18 N3 111.2(2) . . ?
C00K N18 C00E 130.4(2) . . ?
N3 N18 C00E 118.43(19) . . ?
N13 C14 N2 116.04(18) . . ?
N13 C14 N15 123.70(19) . . ?
N2 C14 N15 120.26(18) . . ?
N17 C16 N2 112.24(19) . . ?
N5 C19 C00K 109.1(2) . . ?
N12 C00E N4 116.04(19) . . ?
N12 C00E N18 124.2(2) . . ?
N4 C00E N18 119.76(19) . . ?
N8 C00H N12 114.45(19) . . ?
N15 C00I C00J 104.0(2) . . ?
N9 C00J C00I 109.3(2) . . ?
N18 C00K C19 103.9(2) . . ?
 
_refine_diff_density_max    0.596
_refine_diff_density_min   -0.587
_refine_diff_density_rms    0.084

_shelx_res_file
;
TITL OAV-389_a.res in P2(1)/c
    OAV-389_a.res
    created by SHELXL-2019/3 at 13:11:57 on 06-Dec-2023
REM Old TITL OAV-389 in P2(1)/c
REM SHELXT solution in P2(1)/c: R1 0.111, Rweak 0.003, Alpha 0.032
REM <I/s>   0.488 for  170 systematic absences,  Orientation as input
REM Formula found by SHELXT:  C20 Cd
CELL  0.71073   8.1825   9.6535  16.3348   90.000   94.312   90.000
ZERR   15.000   0.0001   0.0002   0.0003    0.000    0.001    0.000
LATT  1
SYMM -X, 1/2+Y, 1/2-Z
SFAC C H N O CD
UNIT 15 15 15 15 15
ACTA
TEMP -123.150
L.S. 10
BOND
LIST 6
FMAP 2
PLAN 20
WGHT    0.100000
FVAR       0.38888
CD01  5    0.043938    0.573491    0.383484    11.00000    0.03546    0.01715 =
         0.01291    0.00172   -0.00035    0.00271
N1    3    0.137936    0.786065    0.479227    11.00000    0.04003    0.02707 =
         0.01690    0.00381   -0.00176    0.00312
N2    3    0.065840    0.771569    0.313561    11.00000    0.04473    0.01837 =
         0.01650    0.00021    0.00210   -0.00013
N3    3    0.318706    0.500269    0.323503    11.00000    0.03501    0.04904 =
         0.02413    0.01331    0.00062    0.00717
N4    3    0.199828    0.436520    0.470155    11.00000    0.03026    0.02205 =
         0.01637    0.00154    0.00054   -0.00082
N5    3    0.388815    0.499187    0.254155    11.00000    0.03500    0.08670 =
         0.02707    0.01977    0.00297    0.00399
N8    3    0.187939    0.400197    0.550564    11.00000    0.03705    0.02529 =
         0.01526    0.00038    0.00078    0.00086
N9    3    0.181688    0.820474    0.555394    11.00000    0.04520    0.03822 =
         0.01814    0.00354   -0.00422    0.00400
N12   3    0.431767    0.324712    0.514049    11.00000    0.03321    0.03606 =
         0.02166    0.00676   -0.00160    0.00277
N13   3    0.105171    1.000730    0.299329    11.00000    0.03625    0.02007 =
         0.01474   -0.00033   -0.00020   -0.00086
N15   3    0.153593    0.900607    0.432915    11.00000    0.03492    0.02061 =
         0.01731    0.00049   -0.00285    0.00040
N17   3    0.056527    0.943987    0.223527    11.00000    0.03754    0.02085 =
         0.01632    0.00149    0.00015   -0.00014
N18   3    0.401874    0.411174    0.374698    11.00000    0.02641    0.03395 =
         0.02140    0.00458   -0.00044   -0.00073
C14   1    0.109337    0.893170    0.348463    11.00000    0.03100    0.01822 =
         0.01634   -0.00038    0.00147    0.00050
C16   1    0.035483    0.809646    0.234316    11.00000    0.04446    0.02011 =
         0.01533    0.00026   -0.00062   -0.00001
AFIX  43
H16   2    0.002767    0.747071    0.191278    11.00000   -1.20000
AFIX   0
C19   1    0.516230    0.408935    0.261156    11.00000    0.03140    0.09762 =
         0.02628    0.00788    0.00775    0.00915
AFIX  43
H19   2    0.586201    0.387442    0.219076    11.00000   -1.20000
AFIX   0
C00E  1    0.346444    0.390047    0.453399    11.00000    0.02723    0.02212 =
         0.01996    0.00047   -0.00064   -0.00011
C00H  1    0.326458    0.335199    0.573326    11.00000    0.03864    0.03229 =
         0.01817    0.00388   -0.00305    0.00186
AFIX  43
H00H  2    0.349679    0.298954    0.627012    11.00000   -1.20000
AFIX   0
C00I  1    0.208903    1.008653    0.479466    11.00000    0.05523    0.02828 =
         0.02394   -0.00544   -0.00690   -0.00853
AFIX  43
H00I  2    0.231302    1.100209    0.462156    11.00000   -1.20000
AFIX   0
C00J  1    0.225283    0.955882    0.557379    11.00000    0.05306    0.03673 =
         0.02288   -0.00588   -0.00672    0.00043
AFIX  43
H00J  2    0.261515    1.006248    0.605314    11.00000   -1.20000
AFIX   0
C00K  1    0.527799    0.353629    0.338870    11.00000    0.03212    0.06659 =
         0.02878    0.00662    0.00569    0.01248
AFIX  43
H00K  2    0.606547    0.289587    0.361903    11.00000   -1.20000
AFIX   0
HKLF 4




REM  OAV-389_a.res in P2(1)/c
REM wR2 = 0.0938, GooF = S = 0.703, Restrained GooF = 0.703 for all data
REM R1 = 0.0250 for 3503 Fo > 4sig(Fo) and 0.0358 for all 4280 data
REM 190 parameters refined using 0 restraints

END

WGHT      0.0253      0.2190

REM Highest difference peak  0.596,  deepest hole -0.587,  1-sigma level  0.084
Q1    1   0.1155  0.5883  0.4120  11.00000  0.05    0.60
Q2    1   0.2714  0.4213  0.4569  11.00000  0.05    0.38
Q3    1   0.5214  0.4711  0.2849  11.00000  0.05    0.38
Q4    1   0.0546  0.7890  0.2791  11.00000  0.05    0.36
Q5    1   0.5013  0.3881  0.2976  11.00000  0.05    0.34
Q6    1   0.4853  0.4022  0.3653  11.00000  0.05    0.34
Q7    1   0.2591  0.5591  0.3377  11.00000  0.05    0.33
Q8    1   0.5787  0.2132  0.5356  11.00000  0.05    0.32
Q9    1   0.0606  0.8447  0.3338  11.00000  0.05    0.32
Q10   1   0.1021  0.9008  0.3889  11.00000  0.05    0.32
Q11   1   0.0416  0.8800  0.2371  11.00000  0.05    0.32
Q12   1   0.4219  0.3729  0.4873  11.00000  0.05    0.32
Q13   1   0.1553  0.4232  0.5041  11.00000  0.05    0.30
Q14   1   0.3830  0.2807  0.5293  11.00000  0.05    0.30
Q15   1   0.1964  0.9609  0.4501  11.00000  0.05    0.29
Q16   1   0.5862  0.4283  0.2073  11.00000  0.05    0.29
Q17   1   0.5021  0.2778  0.5051  11.00000  0.05    0.28
Q18   1   0.2163  0.4805  0.3336  11.00000  0.05    0.28
Q19   1  -0.0719  0.6014  0.3803  11.00000  0.05    0.27
Q20   1   0.3144  0.2609  0.6155  11.00000  0.05    0.27
;
_shelx_res_checksum   72668

_shelx_hkl_file
;
   1   0   0 5361.46  136.89
   2   0   0 2677.73   54.79
   2   0   0 2627.74   57.19
  -2   0   0 2514.35   56.99
   2   0   0 2673.93   54.69
  -3   0   0  296.77    9.80
   3   0   0  299.27    7.10
   3   0   0  290.57    9.80
   3   0   0  289.57    6.90
   4   0   0   23.10    3.40
   4   0   0   18.70    1.10
   4   0   0   18.80    1.20
  -4   0   0   12.40    2.30
   5   0   0  185.58    4.70
   5   0   0  176.48    4.60
   5   0   0  181.78    9.00
  -5   0   0  186.08    9.20
   6   0   0    6.10    2.60
   7   0   0  220.18   11.90
   8   0   0  240.68   13.70
   9   0   0  125.29   11.00
  10   0   0   72.09   10.00
  11   0   0  101.19   12.90
   0  -1   0    1.40    0.30
   0   1   0    0.20    0.20
   0   1   0    0.10    0.20
  -1  -1   0  240.08    6.60
   1  -1   0  237.18    5.90
  -1  -1   0  236.78    6.10
   1  -1   0  232.98    6.50
   1   1   0  229.88    6.50
  -1   1   0  236.28    5.90
   1   1   0  235.88    6.10
  -1   1   0  228.08    6.40
  -2  -1   0 3361.76   69.79
   2  -1   0 3324.77   69.29
  -2  -1   0 3230.78   71.29
   2  -1   0 3302.07   71.39
  -2   1   0 3323.67   69.29
  -2   1   0 3305.97   71.39
   2   1   0 3314.37   69.69
  -3  -1   0  965.40   24.50
  -3  -1   0  986.10   22.00
   3  -1   0  985.70   21.40
   3  -1   0  983.30   24.60
  -3   1   0  963.80   24.40
   3   1   0  970.00   21.80
  -3   1   0  975.90   21.40
   3   1   0  969.60   24.80
  -4  -1   0  550.84   13.10
  -4  -1   0  506.45   16.10
   4  -1   0  526.75   12.20
  -4   1   0  533.95   12.30
   4   1   0  538.45   12.70
   4   1   0  520.55   16.40
  -4   1   0  524.95   16.20
   5  -1   0  413.76   10.00
   5  -1   0  436.96   15.20
   5  -1   0  425.16    9.80
  -5  -1   0  406.56   14.80
  -5   1   0  409.36   14.90
   5   1   0  426.36   10.50
   5   1   0  429.76   15.30
   5   1   0  426.06   10.40
   6  -1   0  109.09    7.50
   6   1   0  104.29    7.40
   6   1   0  110.19    3.60
   6   1   0  106.79    3.60
   7  -1   0  137.59    9.50
   7   1   0  145.69    9.70
   8  -1   0   52.79    8.00
   8   1   0   78.69    8.10
   9  -1   0   62.69    8.80
   9   1   0   61.69    9.20
  10  -1   0    3.70    5.30
  10   1   0   -3.60    5.10
  11  -1   0    9.30    6.50
  11   1   0    7.70    6.80
   0  -2   0 4954.10  140.19
   0   2   0 4976.70  139.79
   1  -2   0  943.71   21.70
  -1  -2   0  934.41   22.00
   1  -2   0  965.10   23.10
  -1   2   0  942.61   22.20
   1   2   0  934.91   21.90
  -2  -2   0   99.99    4.60
   2  -2   0  102.99    4.60
  -2  -2   0   97.49    4.10
   2  -2   0  101.19    3.80
   2   2   0   99.89    4.00
  -2   2   0   99.79    4.60
   3  -2   0  369.26    9.70
   3  -2   0  367.56   11.80
  -3   2   0  390.36   12.10
   3   2   0  364.66   10.10
   3   2   0  367.26   12.10
   4  -2   0   95.79    5.70
   4  -2   0   92.89    3.70
  -4  -2   0   93.09    5.80
  -4  -2   0   94.19    4.40
  -4   2   0   94.09    5.90
   4   2   0   97.19    4.20
  -4   2   0  116.19    5.90
   5  -2   0   69.29    5.50
  -5  -2   0   63.79    5.70
  -5  -2   0   68.49    3.80
   5  -2   0   66.59    3.00
   5   2   0   68.19    5.60
   5   2   0   70.19    3.60
  -5   2   0   56.69    5.50
   6  -2   0   14.20    3.80
   6  -2   0   13.50    1.50
   6  -2   0   13.60    1.70
  -6  -2   0   11.40    2.00
   6   2   0    7.70    3.20
   6   2   0   15.80    2.10
   7  -2   0   91.79    7.70
   7   2   0   99.59    8.20
   7   2   0  105.19    4.90
   7   2   0   97.49    4.00
   8  -2   0   44.20    7.50
   8   2   0   39.20    6.90
   9   2   0   25.60    6.80
  10  -2   0    6.60    4.90
  10   2   0    7.30    5.90
  11  -2   0   20.10    7.50
  11   2   0   31.20    9.20
   0  -3   0    1.60    0.80
   0  -3   0    0.10    0.60
   0   3   0    0.80    0.80
   0   3   0    0.90    0.60
  -1  -3   0    1.10    0.80
   1  -3   0    1.10    0.70
  -1  -3   0    0.90    0.80
  -1   3   0    0.60    0.80
   1   3   0    1.60    0.90
  -1   3   0   -0.40    0.80
  -1   3   0    0.80    0.60
   1   3   0    0.40    0.70
   2  -3   0  947.21   23.50
  -2  -3   0  935.51   23.20
  -2  -3   0  908.11   23.30
   2  -3   0  972.60   22.70
   2   3   0  935.81   22.80
  -2   3   0  912.81   23.50
   2   3   0  930.21   23.70
  -2   3   0  928.81   22.50
  -3  -3   0 1334.17   33.10
  -3  -3   0 1363.76   32.00
   3  -3   0 1371.76   33.20
   3  -3   0 1376.76   31.20
   3   3   0 1327.27   33.40
  -3   3   0 1322.37   33.20
   3   3   0 1346.97   31.50
  -3   3   0 1329.97   31.00
   4  -3   0 1671.43   41.20
  -4  -3   0 1664.93   41.20
  -4  -3   0 1641.24   38.80
   4  -3   0 1704.13   37.90
  -4   3   0 1658.83   41.40
  -4   3   0 1694.33   37.90
   4   3   0 1673.23   38.40
   5  -3   0 1454.35   33.10
  -5  -3   0 1444.66   34.50
   5  -3   0 1495.15   38.00
   5   3   0 1432.06   38.20
  -5   3   0 1431.96   33.10
   5   3   0 1477.75   33.90
  -5   3   0 1376.16   37.50
  -6  -3   0  348.67   11.30
   6  -3   0  345.47    9.90
   6  -3   0  339.27   14.40
  -6   3   0  347.97   10.00
   6   3   0  340.77   10.50
   6   3   0  334.17   14.80
   7  -3   0  391.66   16.70
  -7  -3   0  397.96   12.30
   7  -3   0  381.46   11.50
   7  -3   0  387.86   10.30
   7   3   0  386.36   11.30
   7   3   0  371.56   16.80
   8  -3   0  165.58   11.30
   8   3   0  163.38   11.60
   8   3   0  151.78    5.90
   8   3   0  159.18    5.90
   9  -3   0  139.39   11.50
   9   3   0  123.39   11.40
  10  -3   0    4.40    6.00
  10   3   0   24.80    6.80
  11  -3   0    1.90    6.70
  11   3   0    6.20    6.90
   0  -4   0  187.18    7.40
   0  -4   0  184.28    7.00
   0   4   0  171.78    6.90
   0   4   0  181.08    7.20
  -1  -4   0    4.50    1.40
   1  -4   0    2.30    1.20
  -1  -4   0    2.10    1.00
  -1   4   0    4.80    1.50
  -1   4   0    4.40    1.70
  -1   4   0    3.90    1.60
   1   4   0    3.20    1.40
   1   4   0    1.50    1.00
   2  -4   0  204.68    8.10
  -2  -4   0  191.38    7.90
   2  -4   0  195.18    7.50
  -2  -4   0  199.08    8.00
  -2   4   0  195.38    7.50
   2   4   0  190.68    7.90
  -2   4   0  170.68    7.80
   2   4   0  184.88    7.50
  -3  -4   0    3.70    2.10
  -3  -4   0    5.40    1.80
   3  -4   0    4.90    1.70
   3  -4   0    3.60    1.60
   3   4   0    7.30    2.00
  -3   4   0    4.50    2.10
  -3   4   0    6.90    1.80
   3   4   0    5.00    1.90
   4  -4   0   14.80    3.40
  -4  -4   0   14.40    3.50
  -4  -4   0   13.70    2.70
   4  -4   0   16.60    2.70
   4   4   0   13.20    2.60
  -4   4   0    8.90    2.80
   4   4   0   18.90    3.90
  -4   4   0   15.50    2.60
   5  -4   0   11.10    2.20
   5  -4   0    4.80    2.80
  -5  -4   0    9.00    2.30
   5   4   0    6.40    2.20
   5   4   0    9.70    2.90
  -5   4   0    5.50    2.00
   6  -4   0   22.40    2.90
  -6  -4   0   29.40    4.10
   6  -4   0   24.90    4.50
   6   4   0   20.60    3.40
   6   4   0   32.20    5.70
  -6   4   0   18.70    2.90
  -7  -4   0    2.30    2.40
   7  -4   0    0.00    1.80
   7  -4   0    0.60    2.90
  -7   4   0   -1.80    2.00
   7   4   0    4.40    2.70
   7   4   0    2.20    3.10
  -8  -4   0   10.50    3.30
   8  -4   0    6.90    3.90
   8  -4   0   11.20    2.50
   8   4   0   11.30    5.00
   8   4   0    8.80    3.20
   9  -4   0   16.60    6.10
   9   4   0    8.90    3.00
   9   4   0   14.50    2.70
   9   4   0   13.50    5.90
  10  -4   0   14.50    6.40
  10   4   0   22.70    7.70
  11  -4   0    4.70    6.80
  11   4   0   -2.70   10.90
   0  -5   0    0.50    1.10
   0  -5   0    1.70    1.40
   0   5   0   -1.10    1.50
   0   5   0    0.40    0.90
  -1  -5   0  167.48    7.50
   1  -5   0  184.28    8.00
  -1  -5   0  173.78    8.10
  -1   5   0  160.68    7.80
  -1   5   0  173.18    7.80
   1   5   0  182.38    7.80
   1   5   0  172.58    7.80
  -1   5   0  177.28    7.50
  -2  -5   0  236.58    9.70
  -2  -5   0  252.87   10.30
   2  -5   0  254.97    9.80
  -2   5   0  255.97    9.70
  -2   5   0  257.27   10.50
   2   5   0  269.77   10.40
  -2   5   0  259.67    9.80
  -3  -5   0  844.92   23.60
   3  -5   0  848.42   22.70
   3  -5   0  822.42   23.70
  -3  -5   0  821.62   23.50
  -3   5   0  814.52   22.40
   3   5   0  830.82   22.90
   3   5   0  836.22   24.10
  -3   5   0  850.01   24.20
   4  -5   0 1118.69   30.20
  -4  -5   0 1111.09   29.60
   4  -5   0 1117.99   28.20
   4   5   0 1080.99   28.40
  -4   5   0 1079.49   30.60
   4   5   0 1082.29   33.50
  -4   5   0 1065.19   28.00
  -5  -5   0  636.94   19.30
   5  -5   0  574.34   20.20
   5  -5   0  633.94   18.00
   5   5   0  626.54   21.40
   5   5   0  598.64   18.20
  -5   5   0  589.84   17.80
   6  -5   0  323.27   14.60
  -6  -5   0  343.57   13.00
   6  -5   0  327.37   11.50
  -6   5   0  295.67   11.30
   6   5   0  315.67   12.00
   6   5   0  326.87   15.10
   7  -5   0  179.88    8.20
   7  -5   0  212.28   12.20
  -7  -5   0  206.68   10.00
  -7   5   0  180.68    8.50
   7   5   0  215.38   13.00
   7   5   0  202.48    9.40
   8  -5   0   96.39    5.80
   8  -5   0  108.09    9.70
  -8  -5   0  110.89    7.80
   8   5   0   75.89   10.30
  -8   5   0   91.09    6.20
   8   5   0   87.39    7.50
   9  -5   0   43.70    8.00
   9  -5   0   50.69    3.40
  -9  -5   0   47.70    5.50
   9   5   0   62.49   10.10
  10  -5   0   23.90    7.60
  10   5   0   42.50    9.80
  11  -5   0    6.20    8.20
  11   5   0    8.00    8.40
   0  -6   0 1591.14   40.00
   0   6   0 1540.65   39.30
   0   6   0 1622.04   39.30
   1  -6   0 2145.89   50.69
  -1  -6   0 2203.08   51.29
  -1  -6   0 2029.40   49.50
  -1   6   0 2090.79   49.60
   1   6   0 2039.80   49.99
  -1   6   0 2068.19   49.99
  -1   6   0 2058.49   50.69
   1   6   0 2156.08   50.29
   2  -6   0 1111.99   29.50
  -2  -6   0 1076.29   29.20
  -2  -6   0 1163.28   30.50
   2   6   0 1141.99   30.20
  -2   6   0 1085.79   29.00
  -2   6   0 1076.39   29.10
  -2   6   0 1084.69   30.10
   2   6   0 1061.49   29.20
   3  -6   0  278.57   11.90
  -3  -6   0  297.77   12.20
   3  -6   0  279.07   11.30
  -3   6   0  274.67   11.20
   3   6   0  277.57   12.30
  -3   6   0  290.37   12.60
   4  -6   0  126.39    7.20
   4  -6   0  139.59    8.40
  -4  -6   0  118.69    7.70
  -4   6   0  126.89    7.60
   4   6   0  133.79    8.50
   5  -6   0   52.19    6.80
   5  -6   0   43.80    4.60
  -5  -6   0   62.89    7.10
  -5   6   0   61.39    6.10
   5   6   0   42.60    6.10
   6  -6   0    3.20    2.60
   6  -6   0    7.80    3.10
  -6  -6   0    5.70    3.20
  -6   6   0    6.70    3.30
   6   6   0    7.00    3.50
   7  -6   0   73.49    8.10
   7  -6   0   69.19    5.90
  -7   6   0   67.89    6.90
   7   6   0   71.29    9.30
   8  -6   0   32.20    7.70
   8  -6   0   69.49    6.00
  -8   6   0   46.30    5.70
   8   6   0   59.49    8.90
   9  -6   0  140.89   12.60
  -9  -6   0  152.48   10.50
   9  -6   0  152.28    7.50
   9   6   0  153.08   14.10
  10  -6   0   63.99   10.00
  10   6   0   68.39   12.10
   0  -7   0    0.70    2.40
   0   7   0    1.40    1.80
   1  -7   0   -2.00    1.80
  -1  -7   0    0.90    2.40
   1   7   0   -0.70    1.60
  -1   7   0    1.20    1.60
  -1   7   0    4.80    2.70
   2  -7   0   12.90    3.60
  -2  -7   0   11.10    3.30
   2   7   0   17.40    3.90
  -2   7   0   15.90    3.70
  -3  -7   0   48.40    6.20
   3   7   0   33.40    4.80
  -3   7   0   48.30    5.10
   4  -7   0   12.50    3.70
  -4  -7   0    9.80    3.30
   4   7   0   11.00    3.30
   5  -7   0    1.30    3.50
  -5  -7   0    6.10    2.90
   5  -7   0    3.20    3.00
   5   7   0    4.50    3.50
   6  -7   0   32.60    5.50
   6  -7   0   41.00    6.50
  -6  -7   0   38.60    6.10
   6   7   0   47.50    8.30
  -7  -7   0   -0.80    3.90
   7  -7   0   -1.90    3.50
   7   7   0   11.70    6.40
   8  -7   0    4.00    3.70
   8  -7   0   -3.10    4.70
  -8  -7   0    8.90    5.30
   8   7   0    6.80    5.90
   9  -7   0    3.80    4.40
  -9  -7   0    1.80    5.70
   9  -7   0    2.70    5.40
   9   7   0    5.60    6.40
  10  -7   0   -5.50    6.70
  10   7   0   15.10    9.20
   0  -8   0  832.32   26.30
   0   8   0  811.82   24.90
   1  -8   0  809.02   25.80
  -1  -8   0  824.02   26.30
   1   8   0  835.22   25.40
  -1   8   0  805.92   24.70
  -2  -8   0  620.14   21.70
   2  -8   0  620.14   21.20
  -2   8   0  598.44   20.10
   2   8   0  581.74   20.70
  -3  -8   0  257.97   13.00
   3  -8   0  251.57   12.40
  -3   8   0  245.28   12.00
   3   8   0  260.27   12.80
   4  -8   0  245.08   12.30
  -4  -8   0  259.97   13.60
  -4   8   0  277.67   13.00
   4   8   0  267.87   13.80
  -5  -8   0  108.69    9.30
   5  -8   0  107.49    8.40
  -5   8   0   94.39    8.30
   5   8   0  104.19    9.30
   6  -8   0    1.20    3.30
  -6  -8   0    2.80    3.70
   6  -8   0   -3.90    3.20
   6   8   0   -2.50    3.50
  -7  -8   0   13.90    5.20
   7  -8   0   11.10    4.50
   7  -8   0   11.00    5.50
   7   8   0    6.50    4.80
   8  -8   0   71.59    7.90
  -8  -8   0   93.39   10.10
   8  -8   0   79.39   10.80
   8   8   0   78.79   10.80
   9  -8   0   78.39   12.10
   9  -8   0   87.39    8.60
  -9  -8   0   84.19   10.50
   9   8   0   64.29   11.50
   0  -9   0    2.20    2.90
   0   9   0   -2.10    2.40
  -1  -9   0   45.50    6.90
   1  -9   0   50.19    7.20
   1   9   0   56.99    7.30
  -1   9   0   48.90    6.70
   2  -9   0  304.57   14.60
  -2  -9   0  283.27   14.60
  -2   9   0  299.17   13.60
   2   9   0  298.07   14.20
   3  -9   0  270.57   13.80
  -3  -9   0  260.17   14.20
  -3   9   0  266.87   13.20
   3   9   0  274.97   14.10
   4  -9   0  406.36   17.20
  -4  -9   0  377.86   17.90
   4   9   0  403.86   18.30
  -4   9   0  409.66   17.40
  -5  -9   0  191.08   12.90
   5  -9   0  212.78   12.30
  -5   9   0  207.48   12.50
   5   9   0  203.68   13.40
   6  -9   0  172.58   11.40
  -6  -9   0  176.88   12.70
   6   9   0  175.88   13.30
   7  -9   0  135.59   12.30
  -7  -9   0  144.39   12.90
   7  -9   0  153.38   10.90
   7   9   0  146.69   13.40
  -8  -9   0   69.09   10.40
   8  -9   0   97.99   12.40
   8  -9   0   73.29    8.90
   8   9   0   62.99   10.70
   9  -9   0   51.89   11.50
   9  -9   0   37.20    9.00
  -9  -9   0   30.40    9.70
   9   9   0   43.50   10.90
   0 -10   0   49.90    7.10
   0  10   0   65.49    7.20
   1 -10   0    1.10    3.50
  -1 -10   0   -1.00    3.60
   1  10   0    5.30    3.60
  -1  10   0   -1.20    3.10
   2 -10   0    8.80    4.00
  -2 -10   0   17.40    5.60
  -2  10   0   19.80    4.90
   2  10   0   13.60    4.80
   3 -10   0   20.20    5.20
  -3 -10   0   30.00    6.60
   3  10   0   19.40    5.10
  -3  10   0   30.40    6.00
   4 -10   0   72.49    9.30
  -4 -10   0   65.19    9.60
  -4  10   0   64.59    8.60
   4  10   0   83.99   10.50
  -5 -10   0   -0.90    4.70
   5 -10   0    6.70    4.90
   5  10   0    0.90    4.80
  -5  10   0   -1.90    4.60
  -6 -10   0    3.00    7.20
   6 -10   0   -3.40    4.50
   6  10   0   -5.50    5.50
  -6  10   0    3.50    5.50
   7 -10   0    8.20    5.60
  -7 -10   0   -3.30    6.70
   7  10   0    6.10    6.40
  -7  10   0   -3.20    6.00
  -8 -10   0    1.40    8.60
   8 -10   0   -4.80    6.80
  -8  10   0   -1.10    7.10
   0  11   0    0.70    3.60
  -1 -11   0    7.20    5.90
   1  11   0    4.10    4.40
  -1  11   0   18.40    5.10
  -2 -11   0   56.09    8.40
   2  11   0   56.99    8.30
  -2  11   0   66.49    9.30
   3 -11   0  143.39   14.70
  -3 -11   0  116.39   11.50
   3  11   0  146.19   12.00
  -3  11   0  155.98   13.50
   4 -11   0  245.58   15.30
  -4 -11   0  272.77   16.80
   4  11   0  251.37   15.80
  -4  11   0  245.88   14.80
  -5 -11   0  267.67   17.50
   5 -11   0  236.18   15.10
  -5  11   0  260.17   16.30
   5  11   0  252.77   16.90
   6 -11   0  204.88   14.70
  -6 -11   0  254.07   17.70
   6  11   0  184.18   15.60
  -6  11   0  219.08   15.90
  -7 -11   0  112.29   13.80
   7 -11   0  104.99   11.90
  -7  11   0  132.39   14.30
   7  11   0  100.19   13.80
   0 -12   0  281.37   17.40
   0  12   0  317.27   16.90
  -1 -12   0  138.39   12.90
   1 -12   0  150.98   13.10
   1  12   0  154.98   12.30
  -1  12   0  143.69   11.70
  -2 -12   0   81.09   10.40
   2 -12   0   82.99   10.30
   2  12   0  107.39   11.40
  -2  12   0   99.29   11.00
   3 -12   0   57.29    9.40
  -3 -12   0   45.50    8.40
   3  12   0   53.89    9.70
  -3  12   0   71.19   10.40
  -4 -12   0    7.00    6.80
   4 -12   0   25.40    7.10
   4  12   0    9.10    6.10
  -4  12   0   12.60    6.20
  -5 -12   0   -0.40    7.00
   5 -12   0    1.80    6.40
  -5  12   0   11.90    6.70
   5  12   0    0.80    5.90
   6 -12   0   14.60    7.60
  -6 -12   0    1.50    8.10
   6  12   0    6.00   13.30
  -6  12   0   10.60    7.90
   0 -13   0   -2.20    6.00
   0  13   0   -4.20    5.60
  -1 -13   0   11.70    7.20
   1 -13   0    6.00    6.50
   1  13   0    7.10    6.40
  -1  13   0   11.50    6.40
   2 -13   0    5.40    6.50
  -2 -13   0   -7.90    7.00
   2  13   0   -4.70    6.10
  -2  13   0    5.30    6.00
  -3 -13   0    8.70    7.50
   3 -13   0   14.30    8.00
   3  13   0   21.70    7.90
  -3  13   0   16.90    7.90
  -4 -13   0   28.10    8.80
   4 -13   0   17.30    8.00
   4  13   0   12.60    7.80
  -4  13   0   19.90    7.20
   0 -14   0  139.79   16.50
   0  14   0  166.88   15.20
  -1 -14   0  185.08   17.20
  -1  14   0  193.08   15.60
   1  14   0  189.18   16.20
   2  14   0  180.88   26.20
  -2  14   0  143.29   14.80
  12   0  -1    5.70    8.00
  11   0  -1    0.60    6.30
  10   0  -1    1.60    5.40
   9   0  -1   -3.50    3.50
   8   0  -1   -0.40    3.50
   7   0  -1   -0.70    0.90
   7   0  -1    0.60    2.30
   7   0  -1    0.00    0.70
   6   0  -1    0.60    0.80
   6   0  -1    1.90    1.90
   6   0  -1   -1.00    1.00
   5   0  -1    2.00    1.70
   5   0  -1   -0.30    0.90
  -5   0   1   -4.70    1.90
   5   0  -1    0.00    0.70
  -4   0   1   -1.00    1.40
   4   0  -1   -0.10    0.70
   4   0  -1   -0.40    0.50
   4   0  -1    1.20    1.30
   3   0  -1   -0.20    0.70
   3   0  -1    0.30    0.60
   3   0  -1   -0.20    0.50
  -3   0   1    0.50    0.90
   2   0  -1    0.90    0.40
   2   0  -1    0.10    0.40
  -2   0   1    0.40    0.70
   2   0  -1    0.00    0.40
  -1   0   1    0.50    0.30
   1   0  -1    0.40    0.30
   1   0  -1   -0.10    0.30
   1   0  -1    0.00    0.20
   0   0   1    0.00    0.10
  -1   0  -1    0.00    0.30
   1   0   1   -0.30    0.20
  -2   0  -1    0.60    0.70
   2   0   1    0.70    0.60
   3   0   1   -0.40    0.70
  -3   0  -1    1.00    1.00
   4   0   1    1.30    1.30
  -4   0  -1   -1.20    1.30
   5   0   1    0.90    1.50
  -5   0  -1    0.60    2.20
   6   0   1   -0.90    1.60
   7   0   1   -2.00    2.40
   8   0   1   -1.10    3.30
   9   0   1   -0.60    4.30
  10   0   1   -2.80    4.80
  11   0   1   -3.50    5.90
  11  -1  -1   31.80    8.00
  11   1  -1   52.69   10.40
  10  -1  -1  102.69   11.30
  10   1  -1   77.39   10.60
   9  -1  -1  114.89   10.40
   9   1  -1  136.39   11.50
   8  -1  -1  585.74   22.80
   8   1  -1  603.04   23.20
   7  -1  -1  347.67   15.20
   7  -1  -1  329.07    8.10
   7  -1  -1  324.87    7.90
   7   1  -1  336.77   15.20
   7   1  -1  330.97   10.10
   7   1  -1  338.87    8.80
   6  -1  -1  497.15   12.10
   6  -1  -1  519.95   18.20
   6  -1  -1  504.05   12.50
   6   1  -1  481.15   12.60
   6   1  -1  489.75   12.70
   6   1  -1  521.35   18.40
   5  -1  -1   36.20    2.90
  -5  -1   1   38.80    4.70
   5  -1  -1   43.20    2.30
   5  -1  -1   36.70    4.00
   5   1  -1   37.20    2.60
   5   1  -1   40.70    4.20
   5   1  -1   37.20    2.50
  -5   1   1   55.09    6.20
   4  -1  -1   49.60    4.10
  -4  -1   1   56.19    3.00
  -4  -1   1   46.10    4.10
   4  -1  -1   47.00    2.40
  -4   1   1   47.80    4.10
   4   1  -1   48.30    2.80
   4   1  -1   48.00    4.10
  -4   1   1   49.80    2.50
  -3  -1   1  820.32   21.50
   3  -1  -1  832.92   21.50
   3  -1  -1  849.12   19.10
  -3  -1   1  865.91   19.90
   3   1  -1  831.22   19.60
  -3   1   1  842.42   19.20
   3   1  -1  824.92   21.70
  -2  -1   1 3507.55   74.49
   2  -1  -1 3359.46   72.79
  -2  -1   1 3500.25   73.49
   2  -1  -1 3506.05   74.29
   2   1  -1 3505.05   74.69
   2   1  -1 3493.15   73.29
  -2   1   1 3410.56   74.39
  -2   1   1 3408.46   72.89
  -1  -1   1   15.50    1.20
   1  -1  -1   15.10    1.10
   1  -1  -1   14.00    1.10
  -1  -1   1   14.20    1.20
   1   1  -1   14.30    1.20
  -1   1   1   15.30    1.10
   1   1  -1   17.40    1.30
  -1   1   1   16.20    1.20
   0  -1   1 3349.26   87.19
   0  -1  -1 2944.01   87.19
  -1  -1  -1  853.01   18.80
  -1  -1  -1  871.41   19.40
   1  -1   1  852.51   18.70
   1  -1   1  817.62   19.50
   1   1   1  846.42   18.70
   1   1   1  859.01   19.40
  -1   1  -1  856.61   19.60
  -1   1  -1  841.82   18.60
   2  -1   1  630.64   16.50
  -2  -1  -1  662.43   16.60
   2  -1   1  650.03   14.50
  -2  -1  -1  647.44   14.80
  -2   1  -1  657.33   14.40
  -2   1  -1  655.33   16.60
   2   1   1  655.63   14.70
  -3  -1  -1 2264.87   51.49
   3  -1   1 2280.97   47.60
  -3  -1  -1 2277.37   48.20
  -3   1  -1 2223.78   47.50
   3   1   1 2249.07   51.59
   3   1   1 2312.27   48.00
  -4  -1  -1 1019.40   22.20
   4  -1   1  995.40   21.10
   4  -1   1 1021.00   26.80
  -4  -1  -1  972.50   26.50
   4   1   1 1001.60   21.90
  -4   1  -1 1001.40   26.50
  -5  -1  -1  515.15   17.30
   5  -1   1  520.15   17.40
   5   1   1  525.35   11.70
  -5   1  -1  515.05   17.30
   5   1   1  520.75   17.50
   5   1   1  509.25   11.60
   6  -1   1  616.14   21.10
   6   1   1  638.54   21.40
   7  -1   1   17.20    4.50
   7   1   1   12.50    4.00
   8  -1   1   -0.40    3.40
   8   1   1    4.60    3.60
  10  -1   1    4.80    5.50
  10   1   1    6.10    5.50
  11  -1   1   40.90    9.40
  11   1   1   25.50    8.50
  11  -2  -1   -4.90    6.30
  11   2  -1   -6.90    6.20
  10  -2  -1   20.10    6.20
  10   2  -1   24.90    7.20
   9  -2  -1   19.50    6.00
   9   2  -1    9.20    6.90
   8  -2  -1    2.00    3.30
   8   2  -1    7.40    3.90
   8   2  -1    1.80    1.30
   8   2  -1    2.30    1.90
   7  -2  -1   50.89    6.60
   7  -2  -1   57.59    2.90
   7   2  -1   48.60    3.60
   7   2  -1   52.69    3.50
   7   2  -1   61.79    6.60
   6  -2  -1  180.28    6.60
  -6  -2   1  200.18    7.40
   6  -2  -1  198.08   10.20
   6   2  -1  206.28   10.70
   6   2  -1  189.08    6.90
   5  -2  -1 1463.15   33.10
   5  -2  -1 1462.15   37.80
  -5  -2   1 1480.85   34.50
  -5  -2   1 1481.35   38.00
   5   2  -1 1478.25   33.80
  -5   2   1 1431.96   37.60
   5   2  -1 1511.95   38.70
  -5   2   1 1481.25   33.20
  -4  -2   1 2258.27   49.50
  -4  -2   1 2225.48   51.99
   4  -2  -1 2235.48   49.00
   4  -2  -1 2205.38   51.69
   4   2  -1 2232.28   49.00
   4   2  -1 2193.88   52.29
  -4   2   1 2220.18   48.40
  -4   2   1 2136.69   51.59
   3  -2  -1 1483.65   35.20
  -3  -2   1 1492.05   35.60
  -3  -2   1 1461.45   34.00
  -3   2   1 1484.75   33.30
   3   2  -1 1488.05   35.80
   3   2  -1 1495.15   33.80
  -3   2   1 1507.75   35.40
  -2  -2   1  179.58    6.30
  -2  -2   1  180.68    6.60
   2  -2  -1  179.48    6.40
   2  -2  -1  186.18    5.90
   2   2  -1  188.88    6.20
  -2   2   1  179.28    5.80
  -2   2   1  178.68    6.40
   1  -2  -1   35.60    2.10
  -1  -2   1   34.90    2.30
  -1  -2   1   35.00    2.30
   1  -2  -1   37.20    2.20
   1   2  -1   33.80    2.30
  -1   2   1   37.80    2.20
  -1   2   1   35.80    2.20
   1   2  -1   38.40    2.30
   0  -2   1    2.80    0.70
   0  -2  -1    0.90    0.50
   0  -2   1    1.30    0.60
   0  -2  -1    4.20    0.80
   0   2   1    1.20    0.60
   0   2   1    2.70    0.90
   0   2  -1    1.80    0.70
  -1  -2  -1 4680.83  143.79
  -1   2  -1 4857.41  134.49
  -1   2  -1 4814.02  133.69
   1   2   1 4727.23  143.69
  -2  -2  -1   59.89    3.00
   2  -2   1   67.99    3.00
  -2  -2  -1   66.09    3.60
   2   2   1   60.89    3.50
  -2   2  -1   67.09    3.80
  -2   2  -1   62.29    2.90
   2   2   1   65.19    3.00
   3  -2   1   17.90    1.60
  -3  -2  -1   19.30    2.60
   3  -2   1   24.90    3.30
  -3  -2  -1   18.00    1.80
  -3   2  -1   17.40    1.50
   3   2   1   22.00    3.00
  -3   2  -1   19.50    3.10
   3   2   1   19.00    1.70
   4  -2   1  671.13   19.60
  -4  -2  -1  667.33   17.30
   4  -2   1  656.13   15.60
  -4  -2  -1  665.53   19.50
  -4   2  -1  667.53   19.70
   4   2   1  669.73   19.90
  -4   2  -1  648.24   15.50
   4   2   1  660.43   16.00
  -5  -2  -1  543.65   18.00
   5  -2   1  539.25   12.90
  -5  -2  -1  537.55   14.50
   5  -2   1  557.44   18.30
   5   2   1  544.75   18.30
  -5   2  -1  549.45   12.90
  -5   2  -1  525.85   18.00
   5   2   1  553.04   13.60
   6  -2   1  204.28   10.80
  -6  -2  -1  209.88    6.70
   6   2   1  214.48   11.10
   7  -2   1  172.88   10.60
   7   2   1  175.08    4.60
   7   2   1  181.58    4.70
   7   2   1  172.68   10.80
   8  -2   1  264.57   14.60
   8   2   1  290.17   15.40
   9  -2   1  152.88   14.00
   9   2   1  162.38   12.70
  10  -2   1   54.09    9.50
  10   2   1   33.30    7.80
  11  -2   1   12.50    6.90
  11   2   1   21.60    7.20
  11  -3  -1    5.50    6.90
  11   3  -1    5.00    7.30
  10  -3  -1    4.90    5.90
  10   3  -1    7.30    6.30
   9  -3  -1   39.50   11.20
   9   3  -1   34.80    6.60
   9   3  -1   41.20    4.40
   8  -3  -1   13.00    4.80
   8  -3  -1    9.70    1.70
   8   3  -1    8.90    4.20
   8   3  -1    8.10    2.60
   8   3  -1    8.90    2.30
   7  -3  -1   16.60    2.80
   7  -3  -1   25.20    2.60
   7  -3  -1   24.00    4.70
  -7  -3   1   21.10    3.40
   7   3  -1   34.60    6.30
   7   3  -1   28.40    3.40
   6  -3  -1    2.80    1.40
  -6  -3   1    0.60    1.70
   6  -3  -1    0.40    2.10
  -6   3   1    1.70    1.70
   6   3  -1    0.40    1.80
   6   3  -1    6.10    2.60
   5  -3  -1   25.80    2.40
   5  -3  -1   18.40    3.60
  -5  -3   1   25.40    3.40
  -5   3   1   20.70    2.60
   5   3  -1   22.30    4.10
   5   3  -1   21.10    3.00
  -5   3   1   29.20    4.60
   4  -3  -1   65.09    4.90
  -4  -3   1   53.39    4.80
   4  -3  -1   57.49    3.50
  -4  -3   1   57.89    4.10
   4   3  -1   54.99    3.90
  -4   3   1   56.69    3.50
  -4   3   1   51.29    4.70
   4   3  -1   54.19    4.70
   3  -3  -1   65.69    4.30
  -3  -3   1   63.89    4.40
  -3  -3   1   53.39    3.70
   3  -3  -1   59.19    3.50
   3   3  -1   54.89    4.20
   3   3  -1   69.79    4.00
  -3   3   1   54.39    4.10
  -3   3   1   50.89    3.30
  -2  -3   1  272.17    9.30
  -2  -3   1  266.97    9.10
   2  -3  -1  274.87    8.60
   2  -3  -1  256.27    8.90
   2   3  -1  268.57    9.40
  -2   3   1  287.77    8.70
  -2   3   1  282.87    9.20
   2   3  -1  271.27    8.90
  -1  -3   1  144.29    5.90
   1  -3  -1  142.29    5.60
  -1  -3   1  136.49    5.60
  -1   3   1  153.88    5.70
  -1   3   1  149.99    5.40
   1   3  -1  144.29    5.80
   1   3  -1  142.89    5.80
  -1   3   1  146.09    5.60
   0  -3  -1   17.50    1.90
   0  -3   1   24.10    2.20
   0  -3  -1   14.90    1.70
   0  -3   1   17.30    1.90
   0   3   1   19.30    2.00
   0   3  -1   19.30    2.00
   0   3  -1   19.50    1.90
   0   3   1   13.70    1.70
  -1  -3  -1 1628.64   37.10
   1  -3   1 1663.83   37.40
  -1  -3  -1 1645.44   37.50
  -1   3  -1 1674.73   38.00
  -1   3  -1 1557.04   37.20
  -1   3  -1 1650.13   37.30
   1   3   1 1656.83   37.20
   1   3   1 1647.74   37.30
  -2  -3  -1   70.59    4.00
  -2  -3  -1   67.79    3.80
   2  -3   1   61.49    3.50
   2  -3   1   71.69    4.20
  -2   3  -1   71.59    3.70
  -2   3  -1   73.39    4.50
   2   3   1   62.29    3.90
   2   3   1   66.79    3.70
   3  -3   1   29.20    3.00
   3  -3   1   32.70    2.60
  -3  -3  -1   33.90    2.80
  -3  -3  -1   34.40    4.10
   3   3   1   27.70    2.60
  -3   3  -1   33.20    2.60
   3   3   1   32.10    3.20
  -3   3  -1   27.30    3.40
   4  -3   1   23.00    2.30
   4  -3   1   19.70    3.50
  -4  -3  -1   27.10    2.80
  -4  -3  -1   21.00    3.50
  -4   3  -1   26.60    2.70
   4   3   1   25.80    2.80
   4   3   1   24.30    4.00
  -4   3  -1   24.60    4.00
   5  -3   1   19.90    2.30
  -5  -3  -1   24.30    3.10
   5  -3   1   12.30    2.80
  -5   3  -1   23.90    2.50
   5   3   1   19.90    2.60
   5   3   1   24.20    4.30
   6  -3   1   55.99    6.00
   6  -3   1   60.19    3.30
  -6  -3  -1   65.49    4.30
   6   3   1   59.29    6.10
  -6   3  -1   60.69    3.30
   6   3   1   60.89    3.90
   7  -3   1   52.79    7.10
  -7  -3  -1   59.39    4.10
   7  -3   1   54.29    2.40
   7  -3   1   54.09    2.20
   7   3   1   53.99    3.70
   7   3   1   74.19    9.00
   8  -3   1    4.60    3.70
   8   3   1    5.80    1.50
   8   3   1    3.20    3.70
   8   3   1    5.80    2.00
   9  -3   1    5.50    4.80
   9   3   1    7.60    4.80
  10  -3   1   -5.40    5.10
  10   3   1    6.90    5.80
  11  -3   1    4.90    6.60
  11   3   1   14.90    8.00
  11  -4  -1   48.40    9.30
  10  -4  -1    6.00    6.00
  10   4  -1    5.70    5.80
   9  -4  -1    2.70    4.00
   9   4  -1    3.70    3.40
   9   4  -1   -3.70    4.40
   9   4  -1   -0.90    2.60
   8  -4  -1   25.00    3.60
  -8  -4   1   31.20    4.50
   8  -4  -1   26.20    3.30
   8  -4  -1   31.10    6.40
   8   4  -1   56.99    8.90
   8   4  -1   30.40    4.30
   7  -4  -1  128.39    9.20
   7  -4  -1  123.69    6.00
  -7  -4   1  123.39    7.30
  -7   4   1  123.89    6.40
   7   4  -1  124.79    6.90
   6  -4  -1  172.58    9.80
   6  -4  -1  161.98    7.00
  -6  -4   1  181.08    8.50
  -6   4   1  160.98    7.30
   6   4  -1  162.48    7.80
   6   4  -1  168.68   10.30
  -5  -4   1  781.72   21.90
   5  -4  -1  790.82   23.60
   5  -4  -1  767.42   20.40
   5   4  -1  751.82   20.90
  -5   4   1  748.03   20.30
   4  -4  -1 1984.10   47.70
  -4  -4   1 2001.50   46.70
   4  -4  -1 2024.80   45.40
  -4  -4   1 1924.71   47.70
  -4   4   1 1961.60   45.40
  -4   4   1 1921.31   47.70
   4   4  -1 1963.20   45.80
   4   4  -1 1969.70   48.60
  -3  -4   1 2562.44   60.19
  -3  -4   1 2720.63   60.09
   3  -4  -1 2670.23   58.79
   3  -4  -1 2608.44   59.99
   3   4  -1 2572.04   59.09
  -3   4   1 2603.84   58.79
  -3   4   1 2585.64   60.19
   3   4  -1 2658.13   60.89
   2  -4  -1 1982.00   44.40
  -2  -4   1 1900.61   44.80
   2  -4  -1 1893.31   44.60
  -2  -4   1 1973.60   45.20
  -2   4   1 1935.41   44.80
  -2   4   1 1901.61   44.10
   2   4  -1 1878.11   44.40
   2   4  -1 1893.01   45.20
  -1  -4   1 1993.70   47.00
  -1  -4   1 2125.79   47.90
   1  -4  -1 2061.39   47.30
   1   4  -1 2069.69   47.30
  -1   4   1 2104.19   47.40
   1   4  -1 2052.29   47.50
  -1   4   1 2030.20   46.40
  -1   4   1 2076.19   47.20
   0  -4  -1  691.63   18.70
   0  -4   1  696.93   19.10
   0  -4  -1  702.23   18.10
   0  -4   1  703.93   18.60
   0   4  -1  708.33   18.70
   0   4   1  680.83   18.10
   0   4  -1  707.33   18.80
   0   4   1  701.03   18.70
   1  -4   1  999.20   25.00
  -1  -4  -1  961.90   24.30
  -1  -4  -1 1034.50   25.10
  -1   4  -1  976.00   24.70
  -1   4  -1  991.40   25.60
   1   4   1  987.10   24.80
  -1   4  -1  976.10   24.60
   1   4   1  961.10   24.50
  -2  -4  -1  144.99    6.50
   2  -4   1  141.69    6.30
   2  -4   1  147.09    6.90
  -2  -4  -1  132.39    6.30
   2   4   1  148.79    6.80
  -2   4  -1  140.79    6.20
   2   4   1  137.39    6.30
  -2   4  -1  150.18    7.20
   3  -4   1   89.89    4.80
  -3  -4  -1   81.39    4.90
  -3  -4  -1   77.99    5.20
   3  -4   1   85.09    5.40
  -3   4  -1   71.09    5.40
  -3   4  -1   75.59    4.50
   3   4   1   85.79    4.90
   3   4   1   73.19    5.10
  -4  -4  -1  170.88    7.50
   4  -4   1  158.68    6.70
   4  -4   1  169.78    8.50
  -4  -4  -1  142.59    8.00
   4   4   1  149.88    6.80
  -4   4  -1  154.88    8.60
   4   4   1  161.98    8.50
  -4   4  -1  158.18    6.60
   5  -4   1  309.17   13.10
  -5  -4  -1  321.67   11.40
   5  -4   1  327.17   10.40
  -5   4  -1  298.07   10.10
   5   4   1  307.57   10.60
   5   4   1  323.87   13.60
   6  -4   1  230.38   11.90
   6  -4   1  240.18    8.30
  -6  -4  -1  241.98    9.60
  -6   4  -1  230.48    8.20
   6   4   1  209.78    8.50
  -7  -4  -1  439.86   13.80
   7  -4   1  420.96   17.90
   7  -4   1  419.36   11.90
   7   4   1  407.56   12.70
  -7   4  -1  402.86   11.70
   7   4   1  408.56   18.10
  -8  -4  -1  279.97   10.20
   8  -4   1  272.97   15.10
   8   4   1  291.37   15.90
   8   4   1  286.47    9.60
   9  -4   1  167.88   12.90
   9   4   1  141.59   12.70
   9   4   1  155.28    5.20
  10  -4   1  143.99   13.10
  10   4   1  106.49   13.30
  11  -4   1   11.90   12.70
  11   4   1    3.50   11.00
  11  -5  -1   -5.90    8.20
  11   5  -1   -5.60    7.90
  10  -5  -1   37.10    7.90
  10   5  -1   32.80    8.00
  10   5  -1   33.40    5.30
  -9  -5   1   94.49    7.90
   9  -5  -1   99.09   10.40
   9  -5  -1   76.09    5.40
   9   5  -1  103.09   12.60
   8  -5  -1  151.38   11.10
  -8  -5   1  152.48    9.10
   8  -5  -1  135.39    7.10
   8   5  -1  143.69   12.50
   8   5  -1  141.29    8.80
  -8   5   1  130.79    7.90
   7  -5  -1  219.18   12.40
  -7  -5   1  228.48   11.00
   7  -5  -1  225.08    9.20
   7   5  -1  243.98   13.80
  -7   5   1  219.18   11.20
   7   5  -1  228.18   10.50
  -6  -5   1  196.38    9.80
   6  -5  -1  183.38   10.60
   6  -5  -1  187.88    8.30
   6   5  -1  194.08    9.30
   6   5  -1  183.88   11.20
  -5  -5   1   59.79    5.50
   5  -5  -1   70.59    6.10
   5  -5  -1   67.19    4.90
   5   5  -1   55.99    5.70
   5   5  -1   64.79    6.30
   4  -5  -1  134.69    7.70
  -4  -5   1  147.09    7.90
   4  -5  -1  148.79    7.20
   4   5  -1  180.98   14.00
   4   5  -1  143.59    7.50
  -4   5   1  135.39    8.40
  -3  -5   1  160.78    8.10
  -3  -5   1  141.49    7.70
   3  -5  -1  156.08    7.70
   3  -5  -1  149.39    7.20
   3   5  -1  157.58    8.20
  -3   5   1  138.79    7.90
  -3   5   1  145.19    8.90
   3   5  -1  147.39    7.50
  -2  -5   1    9.50    2.70
   2  -5  -1   10.10    2.20
  -2  -5   1    6.60    2.00
   2   5  -1   12.30    2.90
  -2   5   1   12.50    2.70
  -2   5   1   14.20    2.60
  -2   5   1   16.40    3.30
   2   5  -1   11.70    2.60
  -1  -5   1  669.33   20.00
   1  -5  -1  698.93   19.70
  -1  -5   1  701.43   19.50
  -1   5   1  711.93   19.00
   1   5  -1  703.33   19.80
   1   5  -1  691.73   21.20
  -1   5   1  683.73   19.60
  -1   5   1  658.33   19.30
   0  -5   1 1547.95   37.40
   0  -5   1 1558.64   38.30
   0  -5  -1 1538.75   36.90
   0  -5  -1 1544.95   37.90
   0   5  -1 1533.45   37.70
   0   5   1 1537.45   37.70
   0   5  -1 1584.54   37.80
   0   5   1 1600.14   37.30
  -1  -5  -1  990.30   25.80
   1  -5   1  995.10   25.90
  -1  -5  -1  939.81   24.80
  -1   5  -1  991.20   25.30
  -1   5  -1  957.30   25.20
   1   5   1  912.31   25.20
   1   5   1  972.70   25.20
  -1   5  -1  954.10   26.10
  -2  -5  -1  612.34   17.90
   2  -5   1  624.74   18.20
  -2  -5  -1  626.44   18.50
  -2   5  -1  606.44   17.80
  -2   5  -1  588.84   18.80
   2   5   1  600.04   18.20
  -2   5  -1  635.04   18.20
   3  -5   1  640.34   19.70
  -3  -5  -1  668.73   19.30
  -3  -5  -1  625.34   19.00
   3  -5   1  639.04   18.40
   3   5   1  592.54   19.50
  -3   5  -1  630.44   18.10
   3   5   1  610.64   19.40
  -3   5  -1  633.34   20.00
   4  -5   1  672.23   21.30
  -4  -5  -1  664.73   19.90
   4  -5   1  670.73   19.10
   4   5   1  670.93   21.40
  -4   5  -1  645.34   18.70
   4   5   1  665.63   19.20
   5  -5   1  690.23   22.20
   5  -5   1  681.53   19.10
  -5  -5  -1  652.23   20.10
  -5   5  -1  642.54   18.60
   5   5   1  641.64   19.10
   5   5   1  648.04   22.30
   6  -5   1  185.18   10.80
  -6  -5  -1  192.18    9.40
   6  -5   1  188.28    8.20
  -6   5  -1  171.88    8.00
   6   5   1  181.88    8.60
   6   5   1  187.38   11.20
   7  -5   1    7.70    2.60
  -7  -5  -1    4.40    2.80
   7  -5   1    6.00    3.70
  -7   5  -1   -0.70    2.50
   7   5   1    8.20    4.10
   7   5   1    3.80    3.40
   8  -5   1    1.50    2.30
   8  -5   1   -3.40    3.70
  -8  -5  -1   -2.20    3.10
   8   5   1   -0.40    4.80
   8   5   1   -3.80    4.20
  -8   5  -1   -1.80    2.70
  -9  -5  -1   12.70    3.90
   9  -5   1    4.90    4.70
   9   5   1    3.30    5.60
  10  -5   1    3.80    5.70
  10   5   1   -1.00    6.10
  11  -5   1    4.50    7.70
  11   5   1   13.30    9.00
  10  -6  -1   -2.20    5.60
  10   6  -1   -7.30    5.20
  10   6  -1   -2.20    6.30
   9  -6  -1   12.40    4.00
   9  -6  -1    3.70    4.60
  -9  -6   1   11.50    5.00
   9   6  -1   12.80    6.30
   8  -6  -1    8.40    5.10
   8  -6  -1   21.00    4.20
  -8  -6   1   18.40    5.00
  -8   6   1    6.10    5.10
   8   6  -1   15.50    5.10
   7  -6  -1   25.70    5.80
   7  -6  -1   28.50    4.20
  -7  -6   1   30.50    5.70
  -7   6   1   27.80    5.60
   7   6  -1   44.20    7.30
   6  -6  -1   78.79    5.90
   6  -6  -1   71.29    7.10
   6   6  -1   71.29    7.70
  -5  -6   1   24.00    4.40
   5  -6  -1   34.90    4.70
   5  -6  -1   18.70    4.20
  -5   6   1   27.50    4.70
   5   6  -1   22.80    4.80
   4  -6  -1  161.18    9.20
  -4  -6   1  170.78    9.50
   4  -6  -1  170.88    8.40
   4   6  -1  180.58   10.00
  -4   6   1  162.28    8.70
  -3  -6   1   95.49    6.80
   3  -6  -1   93.99    6.10
  -3   6   1   90.29    6.90
  -3   6   1   82.49    6.20
   2  -6  -1   28.70    4.00
  -2  -6   1   34.70    4.80
  -2  -6   1   19.40    3.30
   2   6  -1   35.00    4.90
   2   6  -1   26.00    4.10
  -2   6   1   26.00    3.90
  -2   6   1   24.70    3.50
  -2   6   1   27.00    4.20
   1  -6  -1    3.10    1.80
  -1  -6   1    0.10    1.60
  -1  -6   1    1.70    2.00
  -1   6   1    0.90    2.00
   1   6  -1    1.00    2.40
   1   6  -1    3.50    1.80
  -1   6   1   13.40    3.30
  -1   6   1    3.10    1.60
   0  -6  -1   59.69    4.70
   0  -6   1   53.29    4.90
   0  -6   1   63.79    5.30
   0  -6  -1   59.29    5.00
   0   6   1   57.59    5.20
   0   6  -1   66.19    4.90
   0   6   1   60.79    4.50
   0   6  -1   68.29    5.40
   1  -6   1    2.90    1.80
  -1  -6  -1   -0.10    1.40
  -1   6  -1    2.00    1.70
   1   6   1    1.30    1.40
  -1   6  -1    1.10    1.90
   1   6   1   -0.40    1.90
  -1   6  -1    1.20    2.20
  -2  -6  -1    4.10    2.30
   2  -6   1    0.50    1.80
  -2  -6  -1    8.70    2.60
   2   6   1    6.90    2.80
   2   6   1    5.00    2.00
  -2   6  -1    3.80    1.60
  -2   6  -1    5.60    2.50
  -2   6  -1    5.60    2.70
  -3  -6  -1   61.99    5.40
   3  -6   1   60.69    5.20
  -3  -6  -1   68.09    8.50
   3  -6   1   59.89    5.50
   3   6   1   61.29    5.40
  -3   6  -1   48.40    5.30
   4  -6   1   93.59    6.30
  -4  -6  -1  111.89    7.20
   4  -6   1   87.49    6.90
   4   6   1   87.19    6.90
  -4   6  -1   78.49    6.20
   5  -6   1    8.90    3.20
   5  -6   1    8.90    2.70
  -5  -6  -1   11.70    3.40
   5   6   1   11.60    3.90
  -5   6  -1   12.20    3.10
  -6  -6  -1   32.50    5.20
   6  -6   1   33.50    6.10
   6  -6   1   35.70    4.50
   6   6   1   21.00    5.20
  -6   6  -1   20.10    4.20
   7  -6   1   18.20    4.90
   7  -6   1   29.30    4.30
  -7  -6  -1   31.00    5.00
   7   6   1   18.20    5.00
  -7   6  -1   28.40    4.50
  -8  -6  -1    7.50    4.10
   8  -6   1    8.90    3.40
   8  -6   1    3.90    4.70
   8   6   1   11.60    6.00
  -8   6  -1   13.50    4.20
   9  -6   1    7.00    5.50
  -9  -6  -1    3.00    4.70
   9  -6   1   10.70    3.20
   9   6   1   14.60    6.60
  10  -6   1    4.50    6.30
  10   6   1    2.80    7.10
  10  -7  -1   35.80    8.90
  10   7  -1   32.70   10.20
   9  -7  -1  131.69    9.00
   9  -7  -1  114.09   12.20
  -9  -7   1  118.59   11.30
   9   7  -1   98.99   12.40
   8  -7  -1  164.18   12.40
   8  -7  -1  176.78   11.60
  -8  -7   1  180.68   12.00
   8   7  -1  186.88   14.30
   7  -7  -1  247.78   14.20
   7  -7  -1  240.08   11.40
  -7  -7   1  234.58   13.10
   6  -7  -1  216.98   12.40
   6  -7  -1  204.38   10.40
  -6  -7   1  221.78   12.20
   6   7  -1  209.48   13.20
   5  -7  -1   30.20    4.80
  -5  -7   1   30.20    5.10
   5  -7  -1   27.30    5.30
   5   7  -1   24.60    5.40
  -4  -7   1    2.80    2.50
   4  -7  -1   -1.30    2.00
   4  -7  -1    3.90    2.40
   4   7  -1    5.70    3.20
   3  -7  -1    5.20    3.10
  -3  -7   1    1.10    2.40
  -3   7   1    2.30    2.20
   3   7  -1    0.70    2.10
  -2  -7   1   61.59    7.20
  -2   7   1   60.59    6.30
  -2   7   1   54.09    4.90
   2   7  -1   47.50    5.00
  -1  -7   1  465.55   18.90
  -1   7   1  485.15   17.20
  -1   7   1  507.45   16.40
   0  -7  -1  750.42   22.30
   0   7  -1  778.22   23.10
   0   7   1  786.62   22.70
  -1  -7  -1  982.60   27.90
  -1  -7  -1 1032.00   32.20
   1  -7   1 1087.29   32.30
  -1   7  -1 1020.00   30.70
   1   7   1 1010.10   28.40
  -2  -7  -1 1030.90   29.50
   2  -7   1  993.00   29.80
  -2   7  -1 1017.40   28.50
   3  -7   1  751.52   25.10
  -3  -7  -1  823.72   24.90
  -3   7  -1  773.42   23.70
   3   7   1  763.22   24.40
   4  -7   1  555.44   20.30
  -4  -7  -1  563.34   20.10
   4  -7   1  595.84   21.50
   4   7   1  591.24   21.00
  -5  -7  -1  588.44   20.60
   5  -7   1  573.34   21.10
   5  -7   1  560.44   21.10
   5   7   1  562.44   21.60
   6  -7   1   58.19    8.40
   6  -7   1   66.69    7.60
  -6  -7  -1   63.39    7.60
   6   7   1   53.99    8.40
   7  -7   1    6.30    4.40
   7  -7   1   -2.60    3.10
  -7  -7  -1    2.50    4.00
   7   7   1    8.20    4.50
  -8  -7  -1    1.00    4.60
   8  -7   1    0.90    4.70
   8  -7   1    1.80    4.00
   8   7   1    2.40    4.80
   9  -7   1    3.70    4.50
   9  -7   1   12.10    6.20
  -9  -7  -1    1.20    5.90
   9   7   1    2.20    5.50
  10  -7   1    1.60   11.60
  10   7   1    2.30    8.40
   9  -8  -1    1.50    5.70
   9  -8  -1    2.70    6.40
  -9  -8   1    1.70    7.30
   9   8  -1    8.40    7.60
   8  -8  -1    3.50    4.50
  -8  -8   1    0.10    6.00
   8  -8  -1   -0.40    5.30
   8   8  -1   -2.40    5.20
   7  -8  -1    9.30    4.20
  -7  -8   1    0.30    4.80
   7   8  -1   16.60    6.10
   6  -8  -1   48.90    6.50
  -6  -8   1   56.09    7.80
   6  -8  -1   44.40    7.20
   6   8  -1   71.09   10.00
  -5  -8   1  212.48   12.50
   5  -8  -1  232.78   11.90
  -5   8   1  205.88   11.60
   5   8  -1  210.98   13.00
  -4  -8   1  319.07   15.50
   4  -8  -1  331.27   14.40
   4   8  -1  355.06   16.10
  -4   8   1  352.76   14.80
   3  -8  -1  105.19    7.80
  -3  -8   1  114.49    8.70
   3   8  -1  110.39    8.50
  -3   8   1  106.79    7.60
  -2  -8   1   85.39    7.70
   2  -8  -1   97.09    7.50
  -2   8   1   88.19    6.70
   2   8  -1   87.39    7.20
  -1  -8   1   62.29    7.50
   1  -8  -1   61.09    6.20
  -1   8   1   58.39    5.50
   1   8  -1   59.69    5.80
   0  -8   1   17.40    3.80
   0  -8  -1   17.50    4.00
   0   8  -1   21.40    4.20
   0   8   1   17.40    3.40
  -1  -8  -1  144.99    9.40
   1  -8   1  144.89    9.40
  -1   8  -1  150.78    8.90
   1   8   1  142.09    8.60
   2  -8   1   59.99    7.40
  -2  -8  -1   44.40    6.00
   2   8   1   57.99    5.90
  -2   8  -1   52.99    5.70
  -3  -8  -1    1.80    3.00
   3  -8   1    2.90    2.70
   3   8   1    5.70    2.80
  -3   8  -1    0.40    2.30
   4  -8   1   28.50    5.10
  -4  -8  -1   24.70    5.30
  -4   8  -1   25.20    5.20
   4   8   1   19.10    4.60
  -5  -8  -1  122.39    9.60
   5  -8   1  137.19    9.30
  -5   8  -1  120.69    9.40
   5   8   1  102.69    9.50
   6  -8   1   61.39    7.20
   6  -8   1   57.49    8.30
  -6  -8  -1   57.09    7.70
   6   8   1   54.49    8.60
   7  -8   1   48.60    7.70
   7  -8   1   56.09    7.10
  -7  -8  -1   75.69    8.80
   7   8   1   75.59   10.30
   8  -8   1   36.80    6.20
   8  -8   1   33.40    8.00
  -8  -8  -1   20.30    6.80
   8   8   1   30.10    7.90
   9  -8   1   12.30    6.50
  -9  -8  -1   19.70    7.70
   9   8   1   23.70    8.60
   9  -9  -1   26.50    8.30
   9  -9  -1   18.60    7.80
   9   9  -1   22.00    8.60
   8  -9  -1   37.70    6.70
  -8  -9   1   24.10    7.80
   8  -9  -1   30.30    8.50
   8   9  -1   31.40    8.40
   7  -9  -1    3.80    5.10
   7  -9  -1    2.90    4.60
  -7  -9   1    0.70    5.40
   7   9  -1    0.60    5.10
  -6  -9   1   29.90    7.00
   6  -9  -1   21.90    5.20
   6   9  -1   27.90    7.20
  -6   9   1   30.60    6.50
  -5  -9   1   26.50    6.50
   5  -9  -1   33.90    6.30
   5   9  -1   38.70    7.50
  -5   9   1   31.30    6.20
   4  -9  -1    8.00    4.10
  -4  -9   1    8.20    4.60
   4   9  -1    5.80    3.60
  -4   9   1    6.40    3.40
  -3  -9   1   17.10    4.80
   3  -9  -1   25.20    5.60
   3   9  -1   24.50    6.00
  -3   9   1   28.10    5.20
  -2  -9   1    3.00    3.50
   2  -9  -1    5.80    3.50
   2   9  -1    5.40    3.00
  -2   9   1    5.10    3.00
   1  -9  -1  110.39    8.80
  -1  -9   1  104.09    8.90
  -1   9   1  112.49    8.00
   1   9  -1  103.29    8.20
   0  -9  -1  335.17   15.40
   0  -9   1  305.87   15.10
   0   9   1  327.57   14.20
   0   9  -1  313.77   14.20
   1  -9   1  345.27   15.90
  -1  -9  -1  367.66   16.40
  -1   9  -1  333.87   14.90
   1   9   1  358.56   15.20
   2  -9   1  594.24   21.70
  -2  -9  -1  570.84   21.80
  -2   9  -1  538.85   20.20
   2   9   1  586.24   21.10
  -3  -9  -1   96.59    8.80
   3  -9   1   94.89    8.50
   3   9   1  120.79    9.40
  -3   9  -1  114.79    8.80
   4  -9   1   71.09    8.40
  -4  -9  -1   52.79    7.50
  -4   9  -1   64.79    7.90
   4   9   1   79.29    9.60
  -5  -9  -1   56.59    8.30
   5  -9   1   51.39    7.30
   5   9   1   44.40    7.20
  -5   9  -1   37.20    6.30
   6  -9   1    8.50    4.50
  -6  -9  -1   15.50    5.90
  -6   9  -1    5.50    4.80
   6   9   1    7.10    4.90
  -7  -9  -1   18.10    6.70
   7  -9   1    9.40    5.90
   7  -9   1    7.80    5.20
   7   9   1   14.30    6.60
   8  -9   1    3.40    5.80
  -8  -9  -1   -9.20    6.60
   8  -9   1    6.10    6.10
   8   9   1    2.60    7.00
  -9  -9  -1    1.60    8.70
   9  -9   1    3.70    9.70
   9   9   1   -1.10    8.00
   8 -10  -1   -4.50    6.40
  -8 -10   1    7.30    8.40
  -8  10   1   -0.60    7.20
  -7 -10   1   -0.70    6.90
   7 -10  -1    9.90    5.60
  -7  10   1   14.90    7.30
   7  10  -1   23.00    8.20
   6 -10  -1   71.29    8.80
  -6 -10   1   80.29   10.50
  -6  10   1   91.39   10.80
   6  10  -1   71.09   10.00
   5 -10  -1  150.98   11.70
  -5 -10   1  156.58   12.70
  -5  10   1  176.98   12.60
   5  10  -1  159.48   12.80
   4 -10  -1  457.25   20.00
  -4 -10   1  499.25   22.10
  -4  10   1  519.55   20.70
   4  10  -1  535.35   31.10
   3 -10  -1  515.15   21.30
  -3 -10   1  550.34   22.90
  -3  10   1  547.25   20.60
   3  10  -1  509.25   21.60
   2 -10  -1  547.95   22.20
  -2 -10   1  580.84   23.40
  -2  10   1  581.14   21.30
   2  10  -1  571.54   22.40
  -1 -10   1  395.26   18.40
   1 -10  -1  369.36   17.50
  -1  10   1  369.86   16.20
   1  10  -1  394.06   17.30
   0 -10   1  305.37   15.90
   0 -10  -1  319.97   16.20
   0  10   1  319.77   14.80
   0  10  -1  315.67   15.30
  -1 -10  -1  184.38   12.30
   1 -10   1  181.38   12.10
  -1  10  -1  196.38   11.70
   1  10   1  194.88   11.50
  -2 -10  -1    3.50    3.80
   2 -10   1    2.00    3.50
   2  10   1    8.30    4.00
  -2  10  -1    0.00    3.10
  -3 -10  -1   14.40    5.60
   3 -10   1   17.50    5.20
   3  10   1   19.90    5.50
  -3  10  -1   17.30    5.00
  -4 -10  -1  182.38   12.90
   4 -10   1  157.28   11.60
  -4  10  -1  176.08   12.00
   4  10   1  148.09   11.60
   5 -10   1  144.29   11.50
  -5 -10  -1  150.18   12.50
  -5  10  -1  162.38   12.30
   5  10   1  144.19   12.10
   6 -10   1  121.09   10.90
   6  10   1  116.89   12.20
  -6  10  -1  122.49   11.90
  -7 -10  -1  113.09   13.00
   7 -10   1  133.39   12.40
   7  10   1  131.29   13.60
  -7  10  -1  130.79   13.10
  -8 -10  -1  110.39   13.30
   8 -10   1  124.19   13.20
   8  10   1  127.59   19.60
  -8  10  -1  117.89   14.40
  -7 -11   1   20.80    9.40
   7 -11  -1   14.40    6.40
   7  11  -1   34.90   15.80
  -7  11   1   31.30    8.30
   6 -11  -1   46.00    8.40
  -6 -11   1   28.90    9.40
   6  11  -1   59.69   11.10
  -6  11   1   49.00    9.20
  -5 -11   1   33.60    7.60
   5 -11  -1   14.90    5.80
   5  11  -1   15.50    6.50
  -5  11   1   44.40    7.90
  -4 -11   1    4.40    5.90
   4 -11  -1   21.10    5.80
   4  11  -1   16.70    5.70
  -4  11   1   18.70    5.50
  -3 -11   1   -2.50    4.50
   3 -11  -1   -2.70    4.20
  -3  11   1   -0.70    4.10
   3  11  -1    3.00    4.60
  -2 -11   1   26.30    6.50
   2 -11  -1   29.80   11.50
  -2  11   1   32.50    6.20
  -1 -11   1    3.90    5.20
   1  11  -1    3.40    4.10
  -1  11   1    3.10    3.70
   0  11   1   69.69    9.10
   0  11  -1   57.59    7.70
  -1 -11  -1   11.00    5.60
  -1  11  -1   28.70    6.40
   1  11   1   20.30    5.30
  -2 -11  -1   35.00    7.50
  -2  11  -1   36.40    7.20
   2  11   1   43.50    7.80
  -3 -11  -1  140.49   12.10
  -3  11  -1  130.29   11.00
   3  11   1   97.79   12.30
  -4 -11  -1   24.00    6.80
   4 -11   1   42.30    7.90
  -4  11  -1   44.50    7.40
   4  11   1   47.80    8.70
   5 -11   1   36.50    7.20
  -5 -11  -1   24.40    7.50
  -5  11  -1   22.60    7.30
   5  11   1   11.30    6.20
  -6 -11  -1   10.90    7.10
   6 -11   1   16.40    6.60
  -6  11  -1   10.20    6.60
   6  11   1    4.80    6.00
   7 -11   1    6.70    7.20
  -7 -11  -1   -4.80    8.00
  -7  11  -1    2.70    7.00
   7  11   1   -1.60    7.20
  -6 -12   1   23.40    9.50
   6 -12  -1   17.30    7.50
   6  12  -1   20.90   10.30
  -6  12   1   44.10    9.70
   5 -12  -1   24.70    7.90
  -5 -12   1   51.39   10.20
   5  12  -1   35.40    8.40
  -5  12   1   49.70    9.00
   4 -12  -1   61.99   10.00
  -4 -12   1   69.69   11.10
   4  12  -1   74.89   11.20
  -4  12   1   78.09   10.30
  -3 -12   1  191.58   15.40
   3 -12  -1  161.78   13.70
   3  12  -1  187.78   14.60
  -3  12   1  201.08   13.70
   2 -12  -1  133.29   12.30
  -2 -12   1  128.89   12.90
   2  12  -1  111.29   11.40
  -2  12   1  114.79   10.80
  -1 -12   1  124.39   12.70
   1 -12  -1  139.49   12.70
  -1  12   1  140.59   11.50
   1  12  -1  129.99   11.70
   0 -12   1   67.99   10.70
   0 -12  -1   76.59   10.80
   0  12   1   67.89    9.80
   0  12  -1   67.39    9.90
   1 -12   1    5.30    5.70
  -1 -12  -1   11.30    5.80
   1  12   1    4.60    5.10
  -1  12  -1   13.40    5.40
   2 -12   1    8.90    5.70
  -2 -12  -1    4.80    5.50
  -2  12  -1   -0.40    5.00
   2  12   1    2.50    5.30
   3 -12   1    3.10    5.70
  -3 -12  -1    5.70    6.30
   3  12   1   12.30    5.80
  -3  12  -1    3.00    4.80
  -4 -12  -1   12.70    6.70
   4 -12   1    6.10    6.20
   4  12   1    9.60    6.80
  -4  12  -1    7.00    5.70
   5 -12   1    7.20    6.80
  -5 -12  -1   17.70    7.50
   5  12   1   19.80    8.10
  -5  12  -1    6.90    6.50
   6 -12   1    6.10    8.20
  -6 -12  -1    7.70    8.80
  -6  12  -1   29.10    8.90
   6  12   1   31.50   10.50
  -4 -13   1   12.60    8.30
   4 -13  -1   -5.30    7.20
  -4  13   1   18.10    7.40
   4  13  -1    6.10    7.50
   3 -13  -1    9.20    6.90
  -3 -13   1    6.40    7.10
  -3  13   1    1.10    5.90
   3  13  -1   -4.80    6.50
   2 -13  -1   10.30    6.30
  -2 -13   1    8.70    7.40
   2  13  -1   25.10    7.90
  -2  13   1   29.60    8.50
  -1 -13   1   86.39   12.30
   1 -13  -1   45.00    9.00
   1  13  -1   76.59   10.10
  -1  13   1   72.49   10.20
   0 -13  -1  128.69   13.90
   0 -13   1  151.58   14.70
   0  13  -1  136.89   13.00
   0  13   1  133.89   12.70
  -1 -13  -1  192.88   16.20
   1 -13   1  198.78   16.20
  -1  13  -1  184.78   14.60
   1  13   1  179.08   14.60
   2 -13   1  186.58   15.80
  -2 -13  -1  170.48   15.40
  -2  13  -1  172.48   14.20
   2  13   1  160.58   14.20
   3 -13   1  191.58   16.10
  -3 -13  -1  158.58   15.90
  -3  13  -1  171.78   14.60
   3  13   1  163.88   14.80
   4 -13   1  142.19   15.60
  -4 -13  -1  131.99   15.90
   4  13   1  142.99   14.80
  -4  13  -1  146.09   14.50
  -1 -14   1    2.40    7.60
   1 -14  -1    0.10    8.10
  -1  14   1    2.40    7.80
   1  14  -1    9.70    8.10
   0 -14  -1    4.40    7.60
   0 -14   1   -4.20    8.20
   0  14  -1    8.80    7.90
   0  14   1    8.70    7.60
  -1 -14  -1    2.30    8.00
   1 -14   1   16.50    8.00
  -1  14  -1    3.30    7.30
   1  14   1    9.00    7.70
  12   0  -2    2.50    8.00
  11   0  -2    2.50    7.00
  10   0  -2   85.09   11.70
   9   0  -2   15.00    5.50
   8   0  -2  481.75   11.70
   8   0  -2  495.25   20.20
   8   0  -2  484.25   11.60
   7   0  -2  167.28    6.00
   7   0  -2  163.38   10.10
   6   0  -2  391.96   11.10
   6   0  -2  399.06   10.80
   6   0  -2  398.06   15.50
   5   0  -2  122.59    5.00
   5   0  -2  118.49    4.70
   5   0  -2  124.69    7.20
  -5   0   2  120.19    7.20
   4   0  -2 2512.55   58.19
   4   0  -2 2560.34   55.29
   4   0  -2 2477.95   55.69
  -4   0   2 2581.24   58.19
   3   0  -2 7158.68  149.79
  -3   0   2 7205.38  151.88
   3   0  -2 6897.81  151.78
   3   0  -2 7376.96  151.28
   2   0  -2 7731.53  231.08
  -2   0   2 9999.00  260.37
   1   0  -2  791.72   18.00
  -1   0   2  778.22   17.30
   1   0  -2  767.12   17.30
   1   0  -2  773.52   17.60
  -1   0   2  762.02   17.50
   0   0  -2  430.46   10.50
   0   0   2  464.05   10.00
  -1   0  -2 1303.27   27.80
   1   0   2 1301.97   27.80
  -1   0  -2 1292.87   28.70
   1   0   2 1307.27   28.70
  -2   0  -2   98.69    2.60
  -2   0  -2  104.29    4.50
  -2   0  -2  100.49    2.70
   3   0   2  928.11   23.50
  -3   0  -2  885.71   23.20
  -4   0  -2 2107.19   50.69
   4   0   2 2208.58   51.09
  -5   0  -2 2228.48   54.39
   5   0   2 2296.27   54.89
   6   0   2 1257.67   35.20
   7   0   2  329.17   15.10
   8   0   2  133.49   10.50
   9   0   2  146.19   19.20
  10   0   2   16.90    6.60
  11   0   2    4.40    6.90
  12  -1  -2   11.90    8.90
  12   1  -2   15.50    8.50
  11  -1  -2   28.40    8.30
  11   1  -2   30.70    9.10
  10  -1  -2   27.90    7.20
  10   1  -2   21.80    7.10
   9  -1  -2    1.30    4.00
   9   1  -2    8.70    4.80
   8  -1  -2    5.70    3.80
   8  -1  -2    3.10    1.50
   8  -1  -2    8.30    1.40
   8   1  -2    6.30    3.80
   8   1  -2    5.20    1.80
   8   1  -2    6.00    2.50
   7  -1  -2   33.30    5.00
   7  -1  -2   42.30    3.30
   7   1  -2   39.30    6.40
   7   1  -2   33.80    3.30
   7   1  -2   36.90    3.00
   6  -1  -2   15.60    3.30
   6  -1  -2   27.70    2.90
   6  -1  -2   20.70    2.20
   6   1  -2   23.90    2.80
   6   1  -2   22.80    2.50
   6   1  -2   32.40    5.00
   5  -1  -2  173.08    6.50
   5  -1  -2  192.48    9.00
  -5  -1   2  184.58    9.00
   5  -1  -2  185.08    6.10
   5   1  -2  186.98    6.60
   5   1  -2  187.68    9.10
  -5   1   2  165.98    8.60
   5   1  -2  180.68    6.40
  -4  -1   2   12.80    2.70
  -4  -1   2    8.50    1.70
   4  -1  -2    6.30    1.80
   4  -1  -2    6.00    1.70
  -4   1   2   11.60    1.60
  -4   1   2    7.00    2.20
   4   1  -2    4.50    1.50
   4   1  -2    9.60    1.70
   3  -1  -2   34.40    2.90
  -3  -1   2   40.00    3.20
   3   1  -2   38.80    2.60
  -3   1   2   35.20    2.30
  -3   1   2   51.39    3.40
   3   1  -2   41.20    3.20
  -2  -1   2 1196.78   27.90
   2  -1  -2 1208.58   27.00
  -2  -1   2 1207.28   27.60
   2  -1  -2 1221.18   27.60
   2   1  -2 1169.08   27.90
   2   1  -2 1222.98   27.50
  -2   1   2 1185.18   27.50
   1  -1  -2 1381.46   30.10
  -1  -1   2 1374.76   30.50
  -1  -1   2 1360.26   30.20
   1  -1  -2 1368.76   29.40
   1   1  -2 1347.67   30.40
  -1   1   2 1336.17   30.10
   1   1  -2 1369.76   30.30
  -1   1   2 1381.46   29.40
   0  -1  -2 1156.38   24.00
   0  -1   2 1111.39   25.00
   0  -1   2 1136.99   25.40
   0  -1  -2 1145.39   25.20
   0   1  -2 1130.49   25.40
   0   1  -2 1133.59   25.10
   0   1   2 1123.19   25.10
   0   1   2 1163.38   24.00
  -1  -1  -2 2717.73   57.09
   1  -1   2 2670.53   57.59
   1  -1   2 2644.84   56.79
   1   1   2 2714.93   57.09
   1   1   2 2653.43   56.69
  -1   1  -2 2677.53   57.69
  -2  -1  -2   20.90    1.30
   2  -1   2   20.70    2.00
  -2  -1  -2   21.00    2.00
   2  -1   2   20.80    1.30
  -2   1  -2   19.50    2.00
   2   1   2   18.80    1.20
  -2   1  -2   18.60    1.20
   2   1   2   17.50    1.80
   3  -1   2  797.52   17.40
  -3  -1  -2  781.92   21.00
  -3  -1  -2  799.82   18.00
   3  -1   2  815.62   21.40
   3   1   2  809.82   17.80
  -3   1  -2  813.32   21.40
   3   1   2  809.22   21.30
  -3   1  -2  807.72   17.30
  -4  -1  -2   42.90    4.20
  -4  -1  -2   44.70    1.90
   4  -1   2   36.00    3.70
   4   1   2   44.70    1.70
  -4   1  -2   39.90    4.00
   4   1   2   47.80    4.10
   5  -1   2   42.50    4.60
  -5  -1  -2   43.40    5.50
   5   1   2   40.90    4.40
  -5   1  -2   37.70    4.90
   6  -1   2   -0.30    2.20
   6   1   2    3.00    2.50
   7  -1   2    1.00    2.40
   7   1   2   -2.40    2.30
   8  -1   2  106.99    9.40
   8   1   2  101.59    9.30
   9  -1   2   33.20    7.90
   9   1   2   31.80    7.70
  10  -1   2   33.40    8.10
  10   1   2   26.50    6.80
  11  -1   2   15.90    7.60
  11   1   2   15.80    7.70
  11  -2  -2   -3.00    6.20
  11   2  -2    7.40    6.70
  10  -2  -2   24.30    7.20
  10   2  -2   32.10    8.20
   9  -2  -2   20.30    6.20
   9   2  -2   20.10    2.20
   8  -2  -2  121.99    9.70
   8  -2  -2  124.19    5.30
   8  -2  -2  128.29    4.80
   8   2  -2  114.49    5.70
   8   2  -2  129.09    5.60
   8   2  -2  120.29   10.10
   7  -2  -2  379.46   10.70
   7  -2  -2  357.56   11.10
   7  -2  -2  388.96   16.10
   7   2  -2  380.66   11.50
   7   2  -2  391.76   16.80
   7   2  -2  381.96   11.50
  -6  -2   2  200.58    8.10
   6  -2  -2  187.08    7.40
   6  -2  -2  197.88   10.20
   6  -2  -2  205.18    6.90
   6   2  -2  212.78   10.90
   6   2  -2  197.48    7.60
  -5  -2   2   41.10    5.20
  -5  -2   2   31.20    3.30
   5  -2  -2   35.80    2.70
   5  -2  -2   45.00    5.40
  -5   2   2   35.50    3.00
   5   2  -2   45.50    5.80
  -5   2   2   41.20    4.90
   5   2  -2   35.50    3.30
  -4  -2   2   21.90    2.80
   4  -2  -2   19.90    2.10
  -4  -2   2   22.00    3.70
   4  -2  -2   23.10    3.30
  -4   2   2   20.30    2.40
   4   2  -2   14.90    2.60
  -4   2   2   17.90    2.90
   4   2  -2   17.80    2.40
  -3  -2   2  679.23   17.70
   3  -2  -2  679.43   18.10
  -3  -2   2  659.23   18.50
   3  -2  -2  700.33   17.00
  -3   2   2  652.73   18.00
   3   2  -2  683.23   18.80
  -3   2   2  651.73   16.80
   3   2  -2  707.93   17.60
  -2  -2   2  285.47    9.00
  -2  -2   2  285.07    9.10
   2  -2  -2  291.47    8.50
   2  -2  -2  279.57    8.50
   2   2  -2  292.37    8.90
  -2   2   2  288.47    8.50
   2   2  -2  281.07    9.30
  -2   2   2  284.27    8.60
  -1  -2   2   61.39    3.30
  -1  -2   2   63.99    3.20
   1  -2  -2   61.19    2.70
   1  -2  -2   55.49    2.90
   1   2  -2   61.49    3.30
   1   2  -2   69.49    3.40
  -1   2   2   62.89    3.10
  -1   2   2   60.89    2.70
   0  -2   2  108.59    4.90
   0  -2  -2  103.29    3.40
   0   2   2  104.49    4.10
   0   2   2  109.39    3.50
   0   2  -2  102.59    4.10
   0   2  -2  102.59    4.20
   1  -2   2 1864.71   40.60
  -1  -2  -2 1865.71   40.30
  -1  -2  -2 1846.52   40.50
   1  -2   2 1859.71   41.40
   1   2   2 1822.12   40.40
  -1   2  -2 1817.92   41.30
   1   2   2 1819.12   40.30
  -1   2  -2 1818.32   40.40
  -2  -2  -2    1.20    0.90
  -2  -2  -2    1.00    0.60
   2  -2   2    2.10    0.70
   2  -2   2    0.40    0.60
   2   2   2    2.30    0.80
   2   2   2    2.70    1.00
  -2   2  -2    3.20    1.20
  -3  -2  -2  557.74   16.10
   3  -2   2  554.14   13.60
  -3  -2  -2  563.04   14.10
   3  -2   2  547.15   16.30
  -3   2  -2  557.14   16.50
   3   2   2  556.44   13.80
  -3   2  -2  570.14   13.50
   3   2   2  552.14   16.20
   4  -2   2 1482.35   32.30
   4  -2   2 1471.45   37.00
  -4  -2  -2 1452.05   36.60
  -4  -2  -2 1498.05   33.20
   4   2   2 1485.55   37.10
  -4   2  -2 1408.56   37.00
  -4   2  -2 1488.15   32.10
   4   2   2 1498.95   32.70
   5  -2   2  522.55   17.70
   5  -2   2  514.75   11.90
  -5  -2  -2  526.35   13.30
  -5  -2  -2  510.25   17.40
  -5   2  -2  530.85   11.90
   5   2   2  516.75   17.80
  -6  -2  -2  239.88    6.90
   6  -2   2  249.48   11.90
   6   2   2  234.38    6.40
   7  -2   2   70.49    7.00
   7   2   2   69.49    7.10
   8  -2   2   27.60    5.60
   8   2   2   33.10    6.40
   9  -2   2   19.80    6.30
   9   2   2   18.00    6.10
  10  -2   2    7.20    6.20
  10   2   2   12.80    6.10
  11  -2   2    8.90    7.20
  11   2   2    8.10    7.00
  11  -3  -2   69.59   11.30
  11   3  -2   60.89   10.00
  10  -3  -2   62.79    9.50
  10   3  -2   54.99    9.50
   9  -3  -2   61.09    9.30
   9   3  -2   85.99    5.10
   9   3  -2   74.69    5.50
   9   3  -2   81.49   10.60
   8  -3  -2   27.50    5.50
   8  -3  -2   25.70    2.90
   8  -3  -2   24.70    3.50
   8   3  -2   22.00    5.10
   8   3  -2   25.00    3.40
   8   3  -2   35.40    4.20
  -7  -3   2   28.10    4.00
   7  -3  -2   30.60    3.10
   7  -3  -2   30.90    5.10
   7   3  -2   32.60    3.90
  -7   3   2   37.40    3.90
   7   3  -2   28.60    5.40
   6  -3  -2   12.00    3.40
   6  -3  -2   11.40    2.20
  -6  -3   2    9.90    2.50
   6   3  -2    9.10    3.00
   6   3  -2    8.60    2.50
  -6   3   2   10.80    2.40
   5  -3  -2  100.19    4.90
   5  -3  -2  100.99    6.70
  -5  -3   2  109.39    6.00
   5   3  -2  105.79    7.20
  -5   3   2  100.89    5.20
  -5   3   2  110.29    7.10
   5   3  -2  105.29    5.80
  -4  -3   2  631.24   19.20
   4  -3  -2  623.44   18.70
  -4  -3   2  641.74   18.10
   4  -3  -2  644.54   16.90
   4   3  -2  663.03   19.90
  -4   3   2  633.44   17.00
   4   3  -2  635.84   17.50
  -4   3   2  625.34   18.80
  -3  -3   2  676.83   18.70
   3  -3  -2  702.93   17.90
   3  -3  -2  690.43   18.70
  -3  -3   2  693.33   19.30
  -3   3   2  702.63   18.90
   3   3  -2  684.73   18.40
   3   3  -2  683.23   19.60
  -3   3   2  666.83   17.80
   2  -3  -2 1330.57   31.80
  -2  -3   2 1350.36   32.70
   2  -3  -2 1388.16   31.90
  -2  -3   2 1381.36   32.70
  -2   3   2 1362.06   31.90
  -2   3   2 1342.97   31.90
   2   3  -2 1335.37   32.30
   2   3  -2 1433.16   33.20
   1  -3  -2 2628.84   57.79
  -1  -3   2 2581.14   57.99
  -1  -3   2 2662.83   58.59
  -1   3   2 2603.04   57.29
  -1   3   2 2651.43   56.79
   1   3  -2 2615.64   58.29
  -1   3   2 2646.94   57.89
   1   3  -2 2632.64   58.19
   0  -3  -2 2375.96   51.79
   0  -3   2 2280.97   52.09
   0  -3   2 2348.57   51.69
   0   3   2 2303.77   51.59
   0   3   2 2348.17   50.69
   0   3  -2 2356.76   51.89
   0   3  -2 2308.37   51.79
  -1   3  -2 6031.70  128.89
   2  -3   2 1724.53   40.20
  -2  -3  -2 1685.43   38.80
  -2  -3  -2 1717.23   39.30
   2  -3   2 1718.93   38.90
   2   3   2 1697.23   38.70
  -2   3  -2 1742.63   38.60
  -2   3  -2 1667.63   40.30
   2   3   2 1688.63   39.50
   3  -3   2  398.06   13.30
   3  -3   2  405.06   11.40
  -3  -3  -2  392.36   11.60
  -3  -3  -2  392.96   12.80
   3   3   2  405.86   13.20
  -3   3  -2  391.96   11.10
   3   3   2  383.36   11.30
  -4  -3  -2   36.20    2.90
  -4  -3  -2   42.30    5.80
   4  -3   2   38.60    3.90
   4  -3   2   36.30    2.70
  -4   3  -2   40.80    5.10
  -4   3  -2   35.70    2.70
   4   3   2   39.40    4.10
   4   3   2   34.80    2.80
  -5  -3  -2    9.50    2.00
   5   3   2   10.20    1.90
   5   3   2    8.20    3.10
  -5   3  -2   10.10    1.70
   6  -3   2    2.10    1.20
  -6  -3  -2    0.00    1.50
   6  -3   2   -1.20    2.20
  -6   3  -2    1.30    1.20
   6   3   2   -0.10    1.40
   6   3   2    2.20    2.50
   7  -3   2    9.20    3.80
  -7  -3  -2   11.30    2.30
   7   3   2    6.80    3.40
   7   3   2   11.50    1.90
   8  -3   2  188.48   12.60
   8   3   2  210.08   13.20
   9  -3   2  129.59   11.80
   9   3   2  119.19   11.40
  10  -3   2  127.69   13.00
  10   3   2  132.69   13.20
  11  -3   2   33.10    8.50
  11   3   2   35.90   10.00
  11  -4  -2   -3.90    6.20
  10  -4  -2   -4.00    5.20
  10   4  -2   16.60    6.50
  10   4  -2   -0.30    2.90
   9  -4  -2   12.10    3.50
   9  -4  -2   10.50    2.60
   9  -4  -2    9.90    5.30
   9   4  -2   16.40    6.20
   9   4  -2   12.20    3.40
   9   4  -2    9.40    4.50
  -8  -4   2   82.69    6.70
   8  -4  -2   60.69    6.20
   8  -4  -2   75.09    5.00
   8  -4  -2   82.29    8.50
   8   4  -2   69.89    6.80
   8   4  -2   66.69    9.00
   7  -4  -2    3.80    2.00
  -7  -4   2    0.00    2.40
   7  -4  -2    1.40    2.60
   7   4  -2   -5.60    2.70
  -7   4   2    4.20    2.80
   7   4  -2    2.70    3.20
   6  -4  -2   62.39    6.00
   6  -4  -2   58.19    4.50
  -6  -4   2   62.49    5.50
   6   4  -2   68.39    6.60
   6   4  -2   57.69    5.90
  -6   4   2   56.99    4.90
   5  -4  -2   30.40    4.50
   5  -4  -2   29.50    3.20
  -5  -4   2   28.40    4.20
   5   4  -2   32.90    4.20
  -5   4   2   28.00    4.50
  -5   4   2   26.40    3.60
   5   4  -2   32.10    5.20
  -4  -4   2  252.67   10.80
  -4  -4   2  261.77   10.30
   4  -4  -2  248.68   10.20
   4  -4  -2  252.07    9.20
   4   4  -2  251.87   11.10
  -4   4   2  250.37   11.90
  -4   4   2  235.58    9.10
   4   4  -2  236.38    9.50
   3  -4  -2    1.00    1.20
   3  -4  -2    2.00    1.20
  -3  -4   2    0.80    1.40
  -3   4   2    1.00    1.40
   3   4  -2    1.50    1.40
   3   4  -2    0.80    1.50
  -3   4   2    0.40    1.40
   2  -4  -2   31.40    2.90
  -2  -4   2   32.00    4.00
   2  -4  -2   18.10    2.60
  -2  -4   2   24.90    3.20
   2   4  -2   25.70    3.70
  -2   4   2   21.00    2.90
   2   4  -2   28.70    3.60
  -2   4   2   25.60    2.80
  -1  -4   2   17.70    2.80
  -1  -4   2   13.80    2.60
   1  -4  -2   10.20    1.90
  -1   4   2   14.50    2.10
  -1   4   2   15.20    2.40
   1   4  -2   12.60    2.20
  -1   4   2   16.40    2.60
   1   4  -2   11.20    2.10
   0  -4   2  449.95   13.90
   0  -4  -2  441.36   12.60
   0  -4   2  469.45   13.70
   0  -4  -2  459.55   13.60
   0   4  -2  456.05   13.60
   0   4  -2  455.25   13.70
   0   4   2  449.06   13.50
   0   4   2  472.05   12.90
   1  -4   2   36.50    3.30
  -1  -4  -2   30.30    3.00
  -1  -4  -2   42.20    3.10
   1   4   2   37.40    3.30
  -1   4  -2   34.30    3.20
   1   4   2   37.70    2.90
  -1   4  -2   35.60    3.10
   2  -4   2   51.49    3.80
  -2  -4  -2   53.19    3.80
  -2  -4  -2   53.19    3.80
   2  -4   2   57.99    4.30
  -2   4  -2   50.29    3.70
   2   4   2   49.50    3.70
  -2   4  -2   55.99    4.50
   2   4   2   49.50    3.80
   3  -4   2  439.86   13.30
  -3  -4  -2  438.56   14.20
   3  -4   2  438.36   14.80
  -3  -4  -2  456.35   14.00
   3   4   2  446.66   13.40
   3   4   2  445.56   14.60
  -3   4  -2  442.66   13.10
  -4  -4  -2   10.70    2.40
   4  -4   2   18.10    2.70
   4  -4   2    7.10    2.20
  -4  -4  -2    9.10    2.80
  -4   4  -2   12.90    2.30
  -4   4  -2   11.80    3.50
   4   4   2   14.70    2.60
   4   4   2   13.20    2.80
   5  -4   2   58.29    5.50
  -5  -4  -2   50.99    4.30
   5  -4   2   45.20    3.70
   5   4   2   49.60    5.20
  -5   4  -2   35.80    3.50
   5   4   2   47.60    4.00
  -6  -4  -2   70.79    5.20
   6  -4   2   69.69    6.80
   6  -4   2   73.89    4.40
   6   4   2   72.69    4.80
  -6   4  -2   76.19    4.40
   6   4   2   77.39    7.10
   7  -4   2    1.50    2.80
  -7  -4  -2    0.30    2.10
   7   4   2    3.60    2.30
  -7   4  -2    2.20    1.70
   7   4   2    1.80    2.80
  -8  -4  -2    7.60    2.80
   8  -4   2    8.90    4.30
   8   4   2    4.00    2.40
   8   4   2    7.50    4.40
   9  -4   2    6.30    5.30
   9   4   2   17.60    6.50
  10  -4   2   -4.80    4.90
  10   4   2    4.80    6.60
  11  -4   2   -4.10    7.00
  11   4   2   10.40    8.30
  11  -5  -2   17.50   12.80
  11   5  -2   29.70    9.10
  10  -5  -2   27.30    7.90
  10   5  -2   25.60    5.00
  10   5  -2   17.70    7.40
   9  -5  -2   28.00    4.00
  -9  -5   2   28.90    5.50
   9  -5  -2   34.20    7.30
   9   5  -2   20.50    6.20
  -8  -5   2   30.20    5.20
   8  -5  -2   18.90    5.30
   8  -5  -2   27.50    4.00
   8   5  -2   46.50   10.90
  -8   5   2   23.20    5.10
  -7  -5   2   19.50    4.30
   7  -5  -2   32.00    5.90
   7  -5  -2   23.10    3.70
  -7   5   2   20.70    4.10
   7   5  -2   29.50    6.40
   6  -5  -2   11.90    2.70
   6  -5  -2   10.10    3.70
  -6  -5   2    8.80    3.00
   6   5  -2    7.70    3.20
  -6   5   2    2.90    2.80
   6   5  -2   10.90    3.80
  -5  -5   2    9.10    2.80
   5  -5  -2    4.10    2.50
   5  -5  -2    8.50    2.40
   5   5  -2    6.20    2.60
  -5   5   2    6.90    2.60
   5   5  -2    8.10    3.00
   4  -5  -2  191.88    9.00
   4  -5  -2  191.48    8.30
  -4  -5   2  188.28    9.20
   4   5  -2  154.68    8.20
   4   5  -2  193.88    9.90
  -4   5   2  183.28    9.40
  -4   5   2  179.38    8.40
   3  -5  -2  397.06   13.50
  -3  -5   2  380.76   13.80
  -3  -5   2  420.66   14.40
   3  -5  -2  407.06   13.20
  -3   5   2  359.56   12.90
  -3   5   2  381.36   13.60
   3   5  -2  410.16   14.60
   3   5  -2  370.86   13.30
  -2  -5   2  580.54   17.80
   2  -5  -2  606.94   17.50
  -2  -5   2  552.74   18.00
  -2   5   2  567.34   17.30
   2   5  -2  578.74   18.00
  -2   5   2  609.04   16.80
   2   5  -2  566.94   17.40
  -1  -5   2 1231.98   31.60
  -1  -5   2 1158.28   30.50
   1  -5  -2 1223.38   30.70
  -1   5   2 1184.98   30.20
  -1   5   2 1169.88   29.40
   1   5  -2 1202.88   31.10
   1   5  -2 1317.27   35.00
   0  -5   2 1104.69   28.40
   0  -5   2 1050.39   27.50
   0  -5  -2 1039.90   27.60
   0  -5  -2 1066.39   26.50
   0   5  -2 1080.39   27.70
   0   5   2 1090.49   26.80
   0   5   2 1024.50   28.90
   0   5  -2 1076.39   28.80
  -1  -5  -2 1201.58   30.50
  -1  -5  -2 1204.88   29.50
   1  -5   2 1186.68   30.70
  -1   5  -2 1187.08   30.30
  -1   5  -2 1193.58   31.30
   1   5   2 1209.98   29.80
  -1   5  -2 1164.88   30.10
  -2  -5  -2 1651.03   39.70
   2  -5   2 1712.03   40.40
  -2  -5  -2 1651.33   40.30
  -2   5  -2 1654.33   40.30
  -2   5  -2 1623.44   41.60
   2   5   2 1669.63   40.20
  -2   5  -2 1601.54   39.40
   3  -5   2  233.58   10.40
   3  -5   2  214.98    9.10
  -3  -5  -2  232.08    9.70
  -3  -5  -2  225.68    9.70
  -3   5  -2  223.68   10.70
   3   5   2  224.48   10.30
  -3   5  -2  228.08    9.10
   3   5   2  237.88   10.20
   4  -5   2  112.99    7.50
  -4  -5  -2  141.79    7.30
   4  -5   2  118.39    6.50
  -4   5  -2  126.09    6.50
   4   5   2  110.69    6.60
   4   5   2  128.79    7.90
   5  -5   2    4.70    2.40
  -5  -5  -2    5.80    2.60
   5  -5   2    8.10    2.30
   5   5   2    3.70    2.60
  -5   5  -2    5.70    2.40
   5   5   2    1.50    2.50
   6  -5   2   12.80    3.50
  -6  -5  -2   17.30    3.50
   6  -5   2   14.10    2.90
   6   5   2   12.80    3.30
  -6   5  -2   16.30    3.10
   6   5   2   12.80    4.30
   7  -5   2   25.30    5.80
   7  -5   2   22.00    3.20
  -7  -5  -2   13.60    3.70
  -7   5  -2   17.80    3.20
   7   5   2   29.00    6.50
   7   5   2   20.10    4.10
  -8  -5  -2   50.29    5.40
   8   5   2   41.60    4.70
   8   5   2   40.20    7.90
  -8   5  -2   44.90    4.20
  -9  -5  -2  110.19    6.80
   9  -5   2  111.89   11.50
   9   5   2  120.99   12.00
  10  -5   2  111.59   13.70
  10   5   2  105.49   13.70
  11  -5   2    9.80    7.50
  11   5   2   33.70    9.90
  10  -6  -2   14.20    6.80
  10   6  -2    3.40    7.10
   9  -6  -2   61.49    6.60
  -9  -6   2   76.99    8.60
   9  -6  -2   59.49    9.20
   9   6  -2   77.79   11.60
  -8  -6   2  114.59    9.50
   8  -6  -2  104.29    7.50
   8  -6  -2  105.79   10.10
   8   6  -2  114.19   11.00
   7  -6  -2  275.77   14.30
  -7  -6   2  266.17   13.20
   7  -6  -2  284.07   11.60
   7   6  -2  261.57   15.20
   6  -6  -2  366.96   15.80
   6  -6  -2  370.16   13.60
  -6  -6   2  370.26   15.40
   5  -6  -2  517.45   18.80
   5  -6  -2  524.45   17.20
   5   6  -2  543.75   20.30
  -4  -6   2  729.63   23.20
   4  -6  -2  735.53   21.80
   4  -6  -2  733.03   22.70
   4   6  -2  762.12   24.30
  -3  -6   2  730.43   23.20
   3  -6  -2  768.12   22.30
  -3   6   2  768.32   24.20
   3   6  -2  744.63   23.50
  -3   6   2  726.83   22.50
  -3   6   2  779.22   21.80
   2  -6  -2  390.56   14.00
  -2  -6   2  402.36   15.00
  -2  -6   2  383.66   14.10
  -2   6   2  372.86   13.90
  -2   6   2  403.76   13.30
  -2   6   2  411.46   14.40
   2   6  -2  395.56   14.60
  -1  -6   2  105.69    6.80
   1  -6  -2   99.09    6.30
  -1  -6   2   96.69    6.30
   1   6  -2   88.79    6.40
  -1   6   2   99.29    6.30
   1   6  -2   92.19    6.20
  -1   6   2  101.99    5.70
  -1   6   2  100.29    6.60
   0  -6   2   66.49    5.40
   0  -6  -2   60.49    5.00
   0  -6   2   53.29    5.00
   0  -6  -2   52.39    4.40
   0   6  -2   61.39    5.40
   0   6   2   64.99    5.40
   0   6  -2   62.29    5.00
   0   6   2   64.69    4.60
  -1  -6  -2  599.64   17.90
   1  -6   2  633.44   19.50
  -1  -6  -2  607.24   19.00
   1   6   2  595.24   18.70
  -1   6  -2  586.64   18.50
  -1   6  -2  645.04   19.10
   1   6   2  601.14   18.20
  -1   6  -2  601.84   19.70
   2  -6   2  287.97   11.70
  -2  -6  -2  310.17   11.60
  -2  -6  -2  325.47   12.40
   2   6   2  291.87   11.70
   2   6   2  296.17   11.90
  -2   6  -2  286.27   11.50
  -2   6  -2  291.67   12.80
  -2   6  -2  306.07   11.90
   3  -6   2 1039.30   30.00
  -3  -6  -2 1111.79   29.70
   3  -6   2 1084.99   29.00
  -3  -6  -2 1022.40   28.80
  -3   6  -2 1038.50   28.30
   3   6   2 1072.39   29.70
  -4  -6  -2  420.76   15.30
   4  -6   2  413.76   16.20
   4  -6   2  418.36   14.60
  -4   6  -2  382.96   14.00
   4   6   2  428.96   16.20
   5  -6   2  606.94   21.60
  -5  -6  -2  617.34   20.00
   5  -6   2  602.14   18.70
  -5   6  -2  568.64   18.20
   5   6   2  604.74   21.70
   6  -6   2  558.04   21.40
  -6  -6  -2  579.84   19.30
   6  -6   2  568.04   17.80
   6   6   2  577.44   21.90
  -6   6  -2  531.15   17.50
  -7  -6  -2  238.98   11.60
   7  -6   2  242.88   10.40
   7  -6   2  257.37   14.40
   7   6   2  247.88   14.50
  -7   6  -2  236.28   10.50
   8  -6   2  177.78    8.30
  -8  -6  -2  188.58   10.30
   8  -6   2  161.98   12.40
   8   6   2  182.78   13.50
  -8   6  -2  156.48    8.60
   9  -6   2   43.90    8.50
  -9  -6  -2   39.40    5.90
   9   6   2   25.10    7.50
  10  -6   2   10.70    6.60
  10   6   2   12.40    7.80
  10  -7  -2    1.80    6.80
 -10  -7   2   11.20    7.60
  10   7  -2   -3.70    8.10
  -9  -7   2   -1.60    5.80
   9  -7  -2    7.90    6.10
   9  -7  -2    1.00    5.80
   9   7  -2   -1.00    5.90
   8  -7  -2    0.50    4.30
   8  -7  -2   -0.30    3.80
  -8  -7   2    0.80    4.70
   8   7  -2    4.60    5.30
   7  -7  -2    0.50    3.20
   7  -7  -2    4.00    3.90
  -7  -7   2   -2.90    3.90
   7   7  -2   -2.50    4.00
   6  -7  -2    3.50    2.90
  -6  -7   2    6.30    3.50
   6  -7  -2    2.90    2.80
   6   7  -2    2.60    3.70
  -5  -7   2    5.50    3.60
   5  -7  -2    4.10    2.90
   5  -7  -2    9.10    3.10
   5   7  -2    2.90    3.00
  -4  -7   2    6.00    2.70
   4  -7  -2    7.50    2.90
   4   7  -2    0.20    2.40
  -3  -7   2    4.50    2.60
   3  -7  -2    7.30    2.70
  -3   7   2    7.40    2.70
   3   7  -2    9.30    3.00
  -2  -7   2    0.90    2.10
   2  -7  -2    0.60    2.00
  -2   7   2    2.40    2.70
  -2   7   2   -1.10    1.60
   2   7  -2   -1.30    1.70
   1  -7  -2  142.99    8.80
  -1  -7   2  143.49    8.80
  -1   7   2  135.09    8.10
   1   7  -2  139.59    8.30
  -1   7   2  152.48    7.80
   0  -7   2  138.99   11.10
   0  -7  -2  108.39    8.40
   0  -7  -2  115.19    6.90
   0   7  -2  116.99    7.60
   0   7   2  120.19    7.00
  -1  -7  -2  260.27   11.90
  -1  -7  -2  241.48   10.50
  -1   7  -2  255.47   11.20
   1   7   2  249.88   10.80
   2  -7   2    3.10    2.40
  -2  -7  -2    1.10    1.90
  -2   7  -2    1.00    1.90
   2   7   2    4.00    2.30
  -3  -7  -2  142.99    8.80
   3  -7   2  135.09    9.10
  -3   7  -2  156.28    8.80
   3   7   2  140.39    8.60
   4  -7   2    0.80    2.50
   4  -7   2   -2.10    2.20
  -4  -7  -2   -3.00    2.30
   4   7   2   -0.10    2.00
   5  -7   2   21.10    4.20
   5  -7   2   10.60    4.10
  -5  -7  -2   16.00    4.40
   5   7   2   18.40    4.80
   6  -7   2    3.90    3.70
  -6  -7  -2    3.50    3.30
   6  -7   2    2.70    2.80
   6   7   2    3.90    3.40
   7  -7   2   13.70    4.20
  -7  -7  -2   11.40    4.60
   7   7   2    8.60    4.80
  -8  -7  -2   21.50    5.70
   8  -7   2   24.30    4.60
   8  -7   2   35.30    7.80
   8   7   2   23.00    7.20
  -9  -7  -2   -4.90    5.50
   9  -7   2    8.60    6.50
   9  -7   2    7.40    5.40
   9   7   2   11.30    6.60
  10  -7   2    2.20    7.40
  10   7   2    6.80    8.00
   9  -8  -2   28.40    6.50
   9  -8  -2   13.10    6.70
  -9  -8   2   22.90    7.80
   9   8  -2   34.50    9.00
   8  -8  -2  121.79   10.10
   8  -8  -2  128.69   12.10
  -8  -8   2  140.89   12.70
   8   8  -2  137.59   13.10
   7  -8  -2  122.09    9.50
  -7  -8   2  144.49   11.80
   7  -8  -2  137.89   11.20
   7   8  -2  143.49   12.40
  -6  -8   2  327.77   16.50
   6  -8  -2  300.97   15.50
   6  -8  -2  332.17   14.60
   6   8  -2  334.77   17.60
   5  -8  -2  390.36   16.00
  -5  -8   2  365.56   17.20
   5   8  -2  400.86   18.40
  -5   8   2  398.86   16.50
  -4  -8   2  311.77   15.00
   4  -8  -2  312.37   13.70
  -4   8   2  284.57   13.20
   4   8  -2  296.97   14.90
   3  -8  -2  300.87   13.60
  -3  -8   2  327.27   15.10
  -3   8   2  310.87   13.00
   3   8  -2  279.87   14.00
   2  -8  -2  137.09    8.80
  -2  -8   2  126.59    9.20
   2   8  -2  135.89    9.00
  -2   8   2  117.59    7.60
   1  -8  -2    6.00    2.70
  -1  -8   2    4.30    3.00
   1   8  -2    2.50    2.50
  -1   8   2    2.60    2.30
   0  -8   2   68.39    6.60
   0  -8  -2   57.79    6.20
   0   8   2   70.89    5.90
   0   8  -2   55.29    5.70
  -1  -8  -2    4.80    2.70
   1  -8   2    0.70    2.50
  -1   8  -2    2.30    2.20
   1   8   2    4.60    2.50
   2  -8   2   93.09    7.80
  -2  -8  -2  107.89    8.00
   2   8   2   95.39    7.40
  -2   8  -2   91.29    7.30
   3  -8   2  136.69    9.10
  -3  -8  -2  146.59    9.60
   3   8   2  129.99    9.00
  -3   8  -2  145.59    9.10
   4  -8   2  146.89    9.50
  -4  -8  -2  174.48   10.70
  -4   8  -2  152.88   10.00
   4   8   2  159.98   10.40
  -5  -8  -2  392.26   17.00
   5  -8   2  355.46   15.40
  -5   8  -2  419.56   17.80
   5   8   2  368.16   17.40
  -6  -8  -2  223.78   13.10
   6  -8   2  225.28   11.90
   6  -8   2  218.88   13.70
   6   8   2  217.98   13.90
  -7  -8  -2  181.98   12.40
   7  -8   2  168.08   12.90
   7  -8   2  175.68   10.90
   7   8   2  172.88   13.40
  -8  -8  -2   79.29    9.30
   8  -8   2   64.59    9.50
   8  -8   2   89.19    8.70
   8   8   2   91.29   11.70
   9  -8   2   40.60    8.70
  -9  -8  -2   46.00    8.20
   9   8   2   35.50   10.00
   9  -9  -2   28.10    8.00
   9  -9  -2   24.30    7.70
  -9  -9   2   32.20    9.60
   9   9  -2   21.20    9.10
   8  -9  -2   23.30    7.10
  -8  -9   2   27.00    9.20
   8  -9  -2   22.30    6.30
   8   9  -2   15.20    7.70
   7  -9  -2   12.50    5.70
  -7  -9   2   17.20    6.80
   7   9  -2    5.00    5.90
   6  -9  -2    5.20    4.30
  -6  -9   2   -1.80    5.10
  -6   9   2   -2.80    4.10
   6   9  -2    4.60    4.90
  -5  -9   2    1.80    4.20
   5  -9  -2    1.00    3.50
   5   9  -2    1.70    4.00
  -5   9   2    1.50    3.60
   4  -9  -2  101.69    8.70
  -4  -9   2  105.49    9.90
  -4   9   2  118.29    8.90
   4   9  -2  104.99    9.70
  -3  -9   2  170.18   11.70
   3  -9  -2  168.08   10.90
   3   9  -2  173.68   11.50
  -3   9   2  189.28   10.40
  -2  -9   2  423.46   18.70
   2  -9  -2  410.16   17.50
  -2   9   2  441.56   16.60
   2   9  -2  437.46   18.00
  -1  -9   2  601.64   23.00
   1  -9  -2  623.64   22.50
  -1   9   2  601.24   20.70
   1   9  -2  656.13   22.60
   0  -9   2  582.04   22.20
   0  -9  -2  603.64   22.10
   0   9   2  610.24   20.70
   0   9  -2  602.84   21.40
   1  -9   2  590.24   21.90
  -1  -9  -2  580.04   21.80
   1   9   2  559.14   20.20
  -1   9  -2  575.04   20.80
   2  -9   2  225.48   12.50
  -2  -9  -2  228.28   12.60
  -2   9  -2  211.48   11.80
   2   9   2  230.38   12.00
  -3  -9  -2   78.69    8.10
   3  -9   2   84.79    8.00
  -3   9  -2   84.29    7.90
   3   9   2   89.69    8.00
  -4  -9  -2   41.00    6.60
   4  -9   2   54.79    7.30
  -4   9  -2   74.09    9.10
   4   9   2   50.59    7.10
   5  -9   2   10.10    4.30
  -5  -9  -2    4.50    4.30
  -5   9  -2    5.20    3.90
   5   9   2    6.50    4.20
   6  -9   2   -0.90    4.30
  -6  -9  -2   -4.10    4.30
  -6   9  -2   -4.70    4.30
   6   9   2    2.00    4.60
   7  -9   2   24.40    6.30
  -7  -9  -2   22.40    6.90
   7   9   2   34.80    8.60
   8  -9   2   47.50    7.30
   8  -9   2   37.70    8.20
  -8  -9  -2   36.60    8.50
   8   9   2   44.20    8.80
   9  -9   2   40.40    9.10
  -9  -9  -2   41.00   10.10
   9   9   2   39.60    9.30
  -8 -10   2  -16.10    8.30
  -8  10   2    0.90    7.10
   8  10  -2   -1.00    7.90
  -7 -10   2    6.80    7.30
   7 -10  -2    8.60    6.00
  -7  10   2   12.90    6.60
   7  10  -2   -1.80    6.10
  -6 -10   2   25.00    7.60
   6 -10  -2   25.70    6.30
  -6  10   2   30.70    7.40
   6  10  -2   28.80    7.60
  -5 -10   2   12.40    7.00
   5 -10  -2   20.60    5.70
  -5  10   2   21.40    6.30
   5  10  -2   15.30    5.50
   4 -10  -2   -0.70    3.70
  -4 -10   2    5.40    4.90
  -4  10   2    1.80    4.00
   4  10  -2    8.20    5.00
   3 -10  -2   19.50    5.50
  -3 -10   2   37.40    8.20
   3  10  -2   29.80    6.70
  -3  10   2   27.40    5.50
  -2 -10   2   -0.30    4.00
   2 -10  -2    2.90    3.50
  -2  10   2    3.80    3.30
   2  10  -2    2.20    3.30
   1 -10  -2   13.40    5.00
  -1 -10   2   16.10    4.90
   1  10  -2    7.30    3.90
  -1  10   2   19.50    4.70
   0 -10   2    0.40    3.40
   0 -10  -2    2.30    3.70
   0  10   2    4.90    3.30
   0  10  -2    9.70    4.20
   1 -10   2   32.00    6.00
  -1 -10  -2   20.30    5.50
  -1  10  -2   32.70    5.70
   1  10   2   34.40    6.50
   2 -10   2    3.40    3.40
  -2 -10  -2    4.40    3.90
   2  10   2    3.70    3.60
  -2  10  -2    0.60    3.20
  -3 -10  -2   -3.80    3.70
   3 -10   2    2.50    4.20
   3  10   2    8.00    4.20
  -3  10  -2    4.90    3.50
   4 -10   2    1.90    4.10
  -4 -10  -2    1.00    4.70
  -4  10  -2    6.20    4.70
   4  10   2   -3.40    3.80
  -5 -10  -2   -0.80    5.10
   5 -10   2   -0.50    4.40
   5  10   2   10.60    5.60
  -5  10  -2    9.20    5.50
   6 -10   2    3.30    5.60
  -6  10  -2   11.30    5.60
   6  10   2    3.70    5.40
   7 -10   2    4.60    6.30
  -7 -10  -2   12.80    7.60
   7  10   2    0.30    6.80
  -7  10  -2    3.20    6.90
   8 -10   2   17.70    7.50
  -8 -10  -2   -4.30    7.90
  -8  10  -2    9.30   10.00
   8  10   2   19.60    8.90
   7 -11  -2   15.50    7.30
  -7 -11   2    7.70    8.30
  -7  11   2   19.50    7.60
  -6 -11   2   -1.20    7.50
   6 -11  -2    8.20    5.80
  -6  11   2    4.30    6.20
   6  11  -2    3.80    6.00
   5 -11  -2   13.80    6.50
  -5 -11   2   25.50    7.50
  -5  11   2   16.60    6.10
   5  11  -2   13.80    7.10
   4 -11  -2  137.89   11.80
  -4 -11   2  112.99   12.40
   4  11  -2   96.49   11.70
  -4  11   2  129.99   12.40
  -3 -11   2  266.17   16.70
   3 -11  -2  241.98   15.20
  -3  11   2  261.97   14.30
   3  11  -2  256.47   15.90
   2 -11  -2  217.88   14.60
  -2 -11   2  215.58   15.00
   2  11  -2  239.28   14.60
  -2  11   2  234.38   13.30
   1 -11  -2  250.87   17.60
  -1 -11   2  249.58   15.90
   1  11  -2  246.58   18.20
  -1  11   2  265.47   14.10
   0 -11  -2  323.17   20.10
   0  11   2  325.77   15.80
   0  11  -2  325.27   16.60
  -1 -11  -2  299.37   17.00
  -1  11  -2  316.77   17.20
   1  11   2  313.27   15.80
  -2 -11  -2  286.17   16.30
   2  11   2  246.78   14.70
  -2  11  -2  282.67   17.60
   3 -11   2  195.48   21.20
  -3 -11  -2  222.18   14.80
   3  11   2  212.38   16.10
  -3  11  -2  221.28   13.90
   4 -11   2   34.90    7.20
  -4 -11  -2   41.10    7.80
  -4  11  -2   34.20    7.60
   4  11   2   40.20    8.10
  -5 -11  -2    1.80    5.80
   5 -11   2    0.10    6.00
   5  11   2    2.90    5.80
  -5  11  -2    2.60    5.70
   6 -11   2   12.10    6.80
  -6 -11  -2    6.00    6.80
   6  11   2   -1.70    6.80
  -6  11  -2    5.40    6.60
  -7 -11  -2   33.40    9.30
   7 -11   2   15.60    7.90
  -7  11  -2   15.90    8.10
   7  11   2   19.00    8.80
   6 -12  -2   49.30    9.30
  -6 -12   2   87.59   13.00
   6  12  -2   56.19   11.30
  -6  12   2   85.19   11.80
  -5 -12   2   64.09   11.00
   5 -12  -2   95.19   12.10
   5  12  -2   72.49   11.00
  -5  12   2   75.49   11.30
   4 -12  -2   57.09    9.10
  -4 -12   2   68.29   10.60
  -4  12   2   60.79    9.80
   4  12  -2   62.29   10.20
   3 -12  -2   69.39   10.10
  -3 -12   2  118.49   13.90
  -3  12   2   68.79    9.00
   3  12  -2   75.09   10.30
   2 -12  -2   32.70    7.60
  -2 -12   2   42.30    9.00
  -2  12   2   34.30    6.70
   2  12  -2   20.10    6.50
   1 -12  -2    8.30    5.50
  -1 -12   2   12.70    6.00
  -1  12   2   12.60    9.50
   1  12  -2    5.40    5.00
   0 -12  -2    6.90    5.50
   0 -12   2   -0.20    5.20
   0  12   2   10.20    6.80
   0  12  -2    6.40    5.30
   1 -12   2   42.40    9.00
  -1 -12  -2   30.20    7.10
   1  12   2   35.20    7.20
  -1  12  -2   34.30    6.70
  -2 -12  -2   78.89   10.70
   2 -12   2   77.49   10.70
   2  12   2   72.79   10.00
  -2  12  -2   87.09   11.30
   3 -12   2  136.89   13.20
  -3 -12  -2  164.68   14.10
  -3  12  -2  135.19   12.40
   3  12   2  129.59   12.30
   4 -12   2  156.08   14.70
  -4 -12  -2  160.38   14.80
   4  12   2  146.79   13.70
  -4  12  -2  171.38   13.90
   5 -12   2  160.58   15.10
  -5 -12  -2  163.88   15.80
   5  12   2  149.79   15.20
  -5  12  -2  158.88   14.20
   6 -12   2   82.49   12.60
  -6 -12  -2   72.09   11.20
   6  12   2   97.49   13.50
  -6  12  -2   98.39   22.50
  -4 -13   2    5.30    7.50
   4 -13  -2    0.00    7.60
   4  13  -2    5.40   11.50
  -4  13   2    9.30    7.20
  -3 -13   2   21.80    9.00
   3 -13  -2    9.50    7.10
   3  13  -2   20.20    7.30
  -3  13   2   15.50    6.80
  -2 -13   2   17.10    7.20
   2 -13  -2   10.10    6.80
   2  13  -2    4.40    6.40
  -2  13   2    9.80    6.40
  -1 -13   2    0.00    6.40
   1 -13  -2    9.50    6.50
   1  13  -2   10.00    7.00
  -1  13   2    3.00    6.10
   0 -13  -2    6.40    5.80
   0 -13   2    6.10    6.70
   0  13  -2   17.80    6.80
   0  13   2   12.80    6.80
  -1 -13  -2    8.50    6.20
   1 -13   2    6.10    6.60
   1  13   2    8.20    6.50
  -1  13  -2  -11.30    5.60
   2 -13   2   34.60    8.40
  -2 -13  -2    9.80    7.20
  -2  13  -2   33.50    7.90
   2  13   2   13.60    7.40
   3 -13   2   20.50    8.00
  -3 -13  -2   12.40    7.10
  -3  13  -2   25.60    7.90
   3  13   2   21.20    7.80
   4 -13   2    6.90    8.20
  -4 -13  -2   14.00    8.20
   4  13   2   10.70    7.40
  -4  13  -2   19.30    8.40
  -1 -14   2    5.00    8.30
   1 -14  -2    3.40    7.20
   1  14  -2    1.90   10.20
  -1  14   2    1.60    7.10
   0 -14  -2   -7.80    7.30
   0 -14   2    1.60    8.10
   0  14   2   -3.70    7.00
   1 -14   2   41.20   10.80
  -1 -14  -2   45.70   10.20
  -1  14  -2   27.50   16.10
   1  14   2   60.79   10.20
  12   0  -3    8.60    8.60
  11   0  -3   -2.00    6.50
  10   0  -3   -8.10    4.30
   9   0  -3   -2.60    2.90
   9   0  -3   -2.30    3.90
   9   0  -3   -0.70    1.30
   8   0  -3   -0.90    2.10
   8   0  -3   -0.10    1.50
   8   0  -3   -2.20    2.80
   7   0  -3   -1.40    1.90
   7   0  -3    1.00    1.40
   7   0  -3   -3.80    2.20
   6   0  -3    0.20    1.20
   6   0  -3   -0.40    1.60
   6   0  -3   -1.90    1.80
  -5   0   3    5.40    2.40
   5   0  -3   -1.20    1.00
   5   0  -3    1.90    1.50
   5   0  -3    0.40    1.30
   4   0  -3    1.80    1.30
   4   0  -3   -0.60    0.90
  -4   0   3    1.90    1.50
   4   0  -3    2.20    1.70
   3   0  -3    1.00    0.90
   3   0  -3    1.10    0.70
   3   0  -3    0.10    0.90
  -3   0   3    1.30    1.10
   2   0  -3   -0.40    0.60
   2   0  -3    0.50    0.70
   2   0  -3   -0.20    0.60
   1   0  -3    0.20    0.40
   1   0  -3    0.20    0.40
  -1   0   3    0.50    0.40
   0   0   3   -0.20    0.40
   0   0  -3    1.30    0.40
   0   0  -3    0.40    0.40
   1   0   3    0.00    0.40
  -1   0  -3    0.00    0.40
   1   0   3   -0.10    0.50
  -1   0  -3   -0.10    0.40
  -2   0  -3    0.30    0.50
  -2   0  -3    0.30    0.60
   2   0   3    0.00    0.60
  -2   0  -3    0.50    0.30
  -3   0  -3   -1.40    0.90
   3   0   3   -0.10    0.80
  -3   0  -3    0.50    0.30
  -3   0  -3    1.20    0.40
   4   0   3    0.60    1.20
  -4   0  -3    2.30    1.70
   5   0   3    0.30    1.60
  -5   0  -3   -2.10    2.20
   6   0   3    0.60    1.80
   7   0   3    0.30    2.60
   8   0   3   -3.70    3.20
   9   0   3   -8.50    4.10
  10   0   3    0.20    5.50
  11   0   3    0.10    6.90
  11  -1  -3   29.30    7.90
  11   1  -3   38.80    9.40
  10  -1  -3    6.40    5.90
  10   1  -3   10.80    6.00
   9  -1  -3    3.90    1.40
   9  -1  -3    3.60    4.30
   9  -1  -3    4.10    2.00
   9   1  -3    0.90    2.10
   9   1  -3    7.00    4.60
   8  -1  -3    4.70    1.80
   8  -1  -3    5.70    3.60
   8  -1  -3    2.40    2.30
   8   1  -3    3.20    1.90
   8   1  -3    3.50    3.50
   8   1  -3    3.00    2.50
   7  -1  -3  161.08    9.70
   7  -1  -3  157.58    6.10
   7  -1  -3  148.49    6.70
   7   1  -3  159.18   10.00
   7   1  -3  150.58    6.80
   7   1  -3  164.38    6.70
   6  -1  -3  655.13   17.90
   6  -1  -3  667.73   17.30
   6   1  -3  670.83   17.70
   6   1  -3  656.43   17.90
   6   1  -3  706.43   22.30
   5  -1  -3 1720.33   38.80
   5  -1  -3 1702.13   39.50
  -5  -1   3 1706.83   42.50
   5  -1  -3 1716.63   42.50
   5   1  -3 1679.03   39.40
   5   1  -3 1706.13   39.10
   5   1  -3 1700.73   42.80
  -5   1   3 1717.23   42.30
   4  -1  -3 2737.63   60.79
  -4  -1   3 2710.03   59.49
  -4  -1   3 2576.04   60.69
   4  -1  -3 2673.23   58.29
   4   1  -3 2685.43   61.29
   4   1  -3 2623.84   58.89
  -4   1   3 2582.24   60.39
   4   1  -3 2676.93   58.59
  -4   1   3 2712.43   58.39
  -3  -1   3 3284.47   70.49
  -3  -1   3 3244.28   70.89
   3  -1  -3 3204.98   70.49
   3  -1  -3 3209.58   69.49
   3   1  -3 3246.18   70.19
  -3   1   3 3210.68   70.49
  -3   1   3 3133.99   69.39
   3   1  -3 3229.08   71.29
   2  -1  -3 2863.41   62.09
   2  -1  -3 2992.60   62.89
  -2  -1   3 2945.71   62.99
  -2  -1   3 2817.92   62.39
  -2   1   3 2744.13   61.99
  -2   1   3 2926.31   61.89
   2   1  -3 2811.62   62.59
   2   1  -3 2902.31   62.69
  -1  -1   3 1169.48   26.20
  -1  -1   3 1174.88   27.20
   1  -1  -3 1151.08   26.50
   1  -1  -3 1194.38   25.10
   1   1  -3 1173.38   26.30
   1   1  -3 1168.28   27.00
  -1   1   3 1190.68   25.10
  -1   1   3 1103.89   26.40
   0  -1   3 1871.61   41.80
   0  -1  -3 1913.31   39.50
   0  -1  -3 1906.71   41.40
   0   1   3 1916.61   39.50
   0   1  -3 1885.41   41.10
  -1  -1  -3   34.10    1.90
   1  -1   3   43.20    2.50
   1  -1   3   34.10    2.10
  -1  -1  -3   36.00    2.00
   1   1   3   30.90    1.90
   1   1   3   39.10    2.10
  -1   1  -3   35.90    2.10
   2  -1   3   20.00    2.50
  -2  -1  -3   19.30    2.30
   2  -1   3   15.80    1.30
  -2  -1  -3   15.10    1.20
  -2   1  -3   13.90    1.20
   2   1   3   15.40    2.00
  -2   1  -3   17.70    2.30
   2   1   3   15.00    1.30
   3  -1   3   50.79    2.10
   3  -1   3   53.89    3.90
  -3  -1  -3   55.09    3.90
  -3  -1  -3   52.39    2.20
   3   1   3   49.80    2.20
  -3   1  -3   53.69    4.00
   3   1   3   51.99    3.80
  -3   1  -3   49.99    2.00
  -4  -1  -3  253.47   10.20
  -4  -1  -3  255.87    6.40
   4  -1   3  239.78   10.10
   4   1   3  248.58    6.20
   4   1   3  258.87   10.30
  -4   1  -3  249.48   10.30
  -5  -1  -3  907.11   26.20
   5  -1   3  951.70   26.70
  -5   1  -3  849.02   25.90
   5   1   3  925.61   26.50
   6  -1   3  538.45   19.20
   6   1   3  503.35   18.70
   7  -1   3  428.06   17.70
   7   1   3  379.76   16.80
   8  -1   3  221.78   13.30
   8   1   3  202.48   13.00
   9  -1   3  254.47   15.50
   9   1   3  232.68   15.10
  10  -1   3   79.39   10.00
  10   1   3   87.59   11.00
  11  -1   3   78.89   11.50
  11   1   3   53.79   10.60
  11  -2  -3   27.00    8.20
  11   2  -3   39.10    8.40
  10  -2  -3   57.99    9.30
  10   2  -3   87.69   11.70
   9  -2  -3  179.88    6.90
   9  -2  -3  219.88   13.50
   9  -2  -3  159.48    8.50
   9   2  -3  161.88    7.20
   9   2  -3  171.88    6.90
   8  -2  -3  243.38    8.30
   8  -2  -3  240.38    8.90
   8  -2  -3  257.77   13.90
   8   2  -3  283.87   14.80
   8   2  -3  259.77    9.30
   8   2  -3  261.47    9.60
   7  -2  -3  777.12   25.10
   7  -2  -3  704.73   19.80
   7  -2  -3  737.43   19.10
   7   2  -3  749.62   25.60
   7   2  -3  768.32   20.30
   7   2  -3  758.82   20.10
   6  -2  -3  189.88    8.10
   6  -2  -3  205.38    7.40
   6  -2  -3  201.18   10.80
   6   2  -3  202.68    8.20
   6   2  -3  200.78   10.70
   6   2  -3  195.58    7.90
   5  -2  -3  175.48    6.70
  -5  -2   3  175.48    9.00
  -5  -2   3  174.58    7.60
   5  -2  -3  174.68    8.60
  -5   2   3  166.88    6.80
   5   2  -3  167.58    7.30
   5   2  -3  190.08    9.40
  -5   2   3  168.48    8.60
  -4  -2   3  316.37   11.40
   4  -2  -3  297.77    9.50
  -4  -2   3  313.77   10.60
   4  -2  -3  305.37   10.90
   4   2  -3  304.37   11.70
   4   2  -3  296.97   10.10
  -4   2   3  306.37   11.00
  -4   2   3  302.77    9.70
  -3  -2   3   39.80    3.20
   3  -2  -3   42.10    3.10
  -3  -2   3   37.50    3.30
   3  -2  -3   39.80    2.70
   3   2  -3   38.40    3.20
   3   2  -3   37.50    3.30
  -3   2   3   36.50    2.80
  -3   2   3   38.30    3.10
  -2  -2   3  386.26   11.30
   2  -2  -3  353.76   10.40
  -2  -2   3  366.96   11.00
   2  -2  -3  361.16   10.00
   2   2  -3  357.76   10.90
   2   2  -3  370.06   11.20
  -2   2   3  367.96   10.60
  -1  -2   3  299.27    9.30
   1  -2  -3  288.57    8.70
   1  -2  -3  302.87    7.60
  -1  -2   3  286.17    8.70
   1   2  -3  267.47    8.80
   1   2  -3  280.27    8.70
  -1   2   3  288.07    7.50
  -1   2   3  290.17    8.70
   0  -2  -3 3308.07   69.69
   0  -2   3 3134.59   69.59
   0  -2  -3 3355.66   67.99
   0  -2   3 3209.28   70.09
   0   2   3 3294.57   67.99
   0   2  -3 3231.58   69.69
   0   2  -3 3148.89   69.99
   0   2   3 3229.38   69.69
   1  -2   3 4572.24   98.29
   1   2   3 4594.34   97.29
  -1   2  -3 4595.64   98.39
  -2  -2  -3 2561.84   54.59
   2  -2   3 2483.05   56.39
   2  -2   3 2472.85   54.49
  -2  -2  -3 2526.65   55.39
   2   2   3 2521.05   55.59
   2   2   3 2506.85   54.39
  -2   2  -3 2510.25   56.49
  -2   2  -3 2514.85   54.39
   3  -2   3 1299.27   32.40
   3  -2   3 1295.37   29.30
  -3  -2  -3 1320.17   31.80
   3   2   3 1325.77   29.40
  -3   2  -3 1276.37   29.80
   3   2   3 1344.97   32.20
  -3   2  -3 1247.98   32.30
  -4  -2  -3 1003.40   22.90
  -4  -2  -3  984.90   26.40
   4  -2   3  972.20   26.70
   4  -2   3  976.60   22.10
   4   2   3  961.60   22.40
  -4   2  -3  970.70   21.80
  -4   2  -3  932.81   26.70
   4   2   3 1000.70   26.70
   5  -2   3  393.96    9.00
  -5  -2  -3  396.86   14.80
  -5  -2  -3  405.16   10.60
   5  -2   3  413.96   15.30
  -5   2  -3  403.46    9.00
   5   2   3  388.96   14.90
   5   2   3  383.26   11.20
   6  -2   3  205.78   11.00
  -6  -2  -3  199.48    5.60
   6   2   3  214.18   11.10
   6   2   3  200.88    5.30
   7  -2   3   97.59    8.20
   7   2   3   76.39    7.60
   8  -2   3   25.00    5.30
   8   2   3   39.00    7.20
   9  -2   3    4.60    4.60
   9   2   3   11.80    4.90
  10  -2   3   21.80    6.60
  10   2   3   20.70    7.40
  11  -2   3   35.70    9.80
  11   2   3   34.90    9.60
  11  -3  -3    9.00    7.20
  11   3  -3    0.50    6.90
  10  -3  -3   -8.70    5.10
  10   3  -3    7.40    5.90
  10   3  -3    1.90    2.60
   9  -3  -3    2.90    3.10
   9  -3  -3    1.70    4.20
   9  -3  -3    4.30    2.30
   9   3  -3    1.20    3.60
   9   3  -3    2.40    4.50
   9   3  -3    7.60    2.90
   8  -3  -3   26.80    6.00
   8  -3  -3   27.10    4.20
   8  -3  -3   22.30    3.00
   8   3  -3   20.50    3.60
   8   3  -3   22.10    3.90
   8   3  -3   18.00    5.40
   7  -3  -3    3.60    2.00
   7  -3  -3    3.00    2.90
  -7  -3   3    6.50    2.60
  -7   3   3    3.10    2.40
   7   3  -3    1.20    2.80
   7   3  -3    2.20    2.60
  -6  -3   3   13.20    3.00
   6  -3  -3   17.60    3.90
   6  -3  -3   13.50    2.40
  -6   3   3   10.90    2.80
   6   3  -3   11.50    3.00
   6   3  -3   11.80    3.60
   5  -3  -3   66.09    5.30
   5  -3  -3   63.79    4.10
  -5  -3   3   65.59    5.00
  -5   3   3   61.49    4.40
   5   3  -3   58.19    6.40
   5   3  -3   55.39    4.70
  -5   3   3   54.39    5.30
  -4  -3   3  122.79    7.00
  -4  -3   3  126.79    6.60
   4  -3  -3  127.59    5.80
   4  -3  -3  128.59    6.50
  -4   3   3  115.79    5.70
   4   3  -3  137.79    7.40
   4   3  -3  115.59    6.20
  -4   3   3  124.09    6.70
  -3  -3   3  363.96   12.20
   3  -3  -3  381.16   11.40
  -3  -3   3  366.16   12.30
   3  -3  -3  351.26   11.30
   3   3  -3  357.76   11.80
  -3   3   3  372.16   11.40
   3   3  -3  383.46   12.80
  -3   3   3  365.96   11.60
   2  -3  -3  127.29    5.50
  -2  -3   3  125.49    5.90
  -2  -3   3  127.79    6.10
   2  -3  -3  124.49    5.10
  -2   3   3  117.79    5.50
  -2   3   3  123.09    5.20
   2   3  -3  125.79    5.90
   2   3  -3  125.49    6.00
  -1  -3   3   25.10    2.50
  -1  -3   3   25.50    3.20
   1  -3  -3   21.10    2.20
  -1   3   3   22.90    2.70
  -1   3   3   24.60    2.00
   1   3  -3   23.40    2.90
   1   3  -3   21.90    2.30
   0  -3  -3  208.08    7.30
   0  -3   3  200.18    7.60
   0  -3   3  194.58    7.20
   0  -3  -3  201.98    6.10
   0   3   3  199.28    7.20
   0   3   3  203.38    6.30
   0   3  -3  199.18    7.30
   0   3  -3  207.18    7.50
  -1  -3  -3   77.19    3.60
  -1  -3  -3   73.69    3.90
   1  -3   3   67.09    4.00
  -1   3  -3   67.09    3.90
  -1   3  -3   66.29    3.90
  -1   3  -3   65.39    4.20
   1   3   3   72.09    4.00
   1   3   3   68.79    3.50
  -2  -3  -3  115.79    5.10
   2  -3   3  115.99    5.20
  -2  -3  -3  119.09    5.30
   2  -3   3  117.79    6.00
  -2   3  -3  110.29    6.00
   2   3   3  118.79    5.10
  -2   3  -3  114.59    5.00
   2   3   3  116.09    5.40
  -3  -3  -3  144.89    5.90
   3  -3   3  142.89    7.20
  -3  -3  -3  133.19    6.60
   3  -3   3  142.79    5.80
   3   3   3  138.89    6.80
   3   3   3  138.49    5.70
  -3   3  -3  141.79    7.30
  -3   3  -3  144.79    5.60
   4  -3   3   12.20    1.90
   4  -3   3   13.30    3.20
  -4  -3  -3   11.20    2.70
  -4  -3  -3   16.00    2.30
   4   3   3    8.50    2.30
   4   3   3    9.50    1.80
  -4   3  -3   15.20    2.00
  -4   3  -3    8.20    2.90
   5  -3   3    3.40    1.60
  -5  -3  -3    3.80    1.60
   5  -3   3    0.60    1.90
   5   3   3    4.60    1.60
   5   3   3   10.00    3.10
  -5   3  -3    3.90    1.30
   6  -3   3    1.80    1.00
  -6  -3  -3   -1.10    1.40
   6  -3   3    1.30    2.10
   6   3   3   -1.30    2.20
   6   3   3    0.30    1.40
  -6   3  -3   -0.10    0.90
  -7  -3  -3   18.80    2.40
   7  -3   3   14.90    4.50
   7   3   3   15.30    4.70
   8  -3   3   29.80    6.50
   8   3   3   20.60    5.10
   9  -3   3   -1.20    4.40
   9   3   3    2.40    4.60
  10  -3   3   13.50    6.20
  10   3   3   13.10    6.30
  11   3   3  -12.20   13.90
  11  -4  -3   34.10    9.20
  10  -4  -3   79.09   11.20
  10   4  -3   68.09    6.40
  10   4  -3   64.09    9.80
   9  -4  -3  137.39    8.50
   9  -4  -3  127.19   17.60
   9  -4  -3  158.18    7.20
   9   4  -3  162.28    8.40
   9   4  -3  148.49   12.70
   9   4  -3  160.78    9.60
   8  -4  -3  142.09   10.60
  -8  -4   3  149.49    8.70
   8  -4  -3  133.29    6.90
   8  -4  -3  115.29    8.10
   8   4  -3  132.89    8.50
  -8   4   3  127.89    7.60
   8   4  -3  135.69   11.00
  -7  -4   3  489.85   16.60
   7  -4  -3  462.75   18.20
   7  -4  -3  450.95   14.20
   7   4  -3  465.45   15.40
  -7   4   3  421.26   15.90
   7   4  -3  455.85   19.30
   6  -4  -3  605.14   20.70
  -6  -4   3  638.64   20.00
   6  -4  -3  638.14   18.00
   6   4  -3  637.44   22.50
   6   4  -3  606.34   18.70
  -6   4   3  625.94   18.40
   5  -4  -3  332.57   12.80
  -5  -4   3  318.67   12.40
   5  -4  -3  316.07   11.00
  -5   4   3  305.27   11.10
   5   4  -3  306.27   11.80
   5   4  -3  338.27   14.00
  -5   4   3  315.07   12.90
   4  -4  -3   21.60    3.00
  -4  -4   3   21.50    3.50
   4  -4  -3   23.80    3.40
  -4  -4   3   18.90    3.20
   4   4  -3   16.90    3.00
  -4   4   3   24.50    3.70
  -4   4   3   29.10    3.80
   3  -4  -3  104.99    5.50
  -3  -4   3  104.89    6.20
   3  -4  -3  104.59    5.50
  -3  -4   3   88.69    5.80
  -3   4   3  101.49    5.70
   3   4  -3   89.09    5.90
   3   4  -3   98.59    5.90
  -3   4   3   94.99    5.50
  -2  -4   3  204.58    8.50
   2  -4  -3  207.78    8.20
   2  -4  -3  218.68    7.90
  -2  -4   3  211.58    8.90
  -2   4   3  220.38    8.00
   2   4  -3  204.38    8.60
  -2   4   3  203.98    8.30
   2   4  -3  222.28    9.00
  -1  -4   3  971.60   25.80
   1  -4  -3 1001.70   25.10
  -1  -4   3  984.10   25.10
  -1   4   3 1012.70   24.10
   1   4  -3  946.81   25.20
  -1   4   3 1010.00   23.50
   1   4  -3  958.80   25.30
  -1   4   3  950.10   24.80
   0  -4   3  971.10   25.30
   0  -4  -3  960.50   24.70
   0  -4  -3  964.40   23.20
   0  -4   3  966.20   24.70
   0   4   3  967.40   24.60
   0   4   3  990.60   23.40
   0   4  -3  952.20   24.80
   0   4  -3  975.30   24.90
   1  -4   3 2162.58   50.59
  -1  -4  -3 2189.58   49.00
  -1  -4  -3 2259.97   50.19
   1   4   3 2207.28   49.99
  -1   4  -3 2193.78   50.09
  -1   4  -3 2129.19   50.29
  -1   4  -3 2198.88   51.39
   1   4   3 2187.38   49.20
  -2  -4  -3 3029.50   66.59
   2  -4   3 3068.79   67.09
  -2  -4  -3 3046.00   66.99
   2  -4   3 2983.60   68.29
   2   4   3 2975.70   66.89
  -2   4  -3 2878.61   66.29
  -2   4  -3 3038.40   68.69
   2   4   3 2944.11   66.49
  -3  -4  -3  875.91   22.50
   3  -4   3  881.11   22.40
   3  -4   3  840.52   24.10
  -3  -4  -3  833.62   22.90
   3   4   3  869.71   23.60
  -3   4  -3  846.92   21.80
   3   4   3  848.02   22.00
  -3   4  -3  785.22   24.00
   4  -4   3 1816.22   41.90
   4  -4   3 1845.82   45.60
  -4  -4  -3 1681.33   43.90
  -4  -4  -3 1858.41   42.70
   4   4   3 1772.22   41.80
   4   4   3 1805.42   44.90
  -4   4  -3 1851.01   49.10
  -4   4  -3 1788.42   41.40
  -5  -4  -3  392.66   12.70
   5  -4   3  396.26   15.60
   5  -4   3  374.96   11.80
   5   4   3  383.96   15.30
  -5   4  -3  381.46   11.50
   5   4   3  384.76   12.10
  -6  -4  -3  257.17    9.60
   6  -4   3  246.58    8.30
   6  -4   3  256.77   12.80
   6   4   3  232.38    8.70
   6   4   3  226.18   12.20
  -6   4  -3  243.58    8.10
   7  -4   3   32.70    6.70
   7  -4   3   24.90    2.50
  -7  -4  -3   28.00    3.50
   7   4   3   28.90    3.40
   7   4   3   35.20    6.50
   8  -4   3   -4.00    3.60
  -8  -4  -3    0.00    2.20
   8   4   3   -0.40    2.10
   8   4   3   -3.60    3.20
   9  -4   3   13.10    5.60
   9   4   3   13.00    5.50
  10  -4   3   33.10    7.80
  10   4   3   50.29    9.30
  11  -4   3   43.00    9.50
  11   4   3   37.80   10.50
  11  -5  -3   10.80    8.10
  11   5  -3   22.30    8.60
  10  -5  -3    6.90    5.90
  10   5  -3    2.00    4.50
  10   5  -3   -1.80    6.50
   9  -5  -3   10.50    5.00
   9  -5  -3    1.00    3.30
   9   5  -3    5.60    3.90
   9   5  -3    2.50    5.40
  -8  -5   3    0.30    6.50
   8  -5  -3    1.80    2.80
   8  -5  -3    0.80    3.40
  -8   5   3    3.40    4.20
   7  -5  -3   44.10    5.10
  -7  -5   3   51.39    6.30
   7  -5  -3   35.10    5.40
  -7   5   3   42.80    5.40
   7   5  -3   46.30    7.80
  -6  -5   3   37.00    5.70
   6  -5  -3   31.10    4.10
   6  -5  -3   23.50    4.40
   6   5  -3   32.30    5.90
  -6   5   3   31.10    4.70
   5  -5  -3  263.77   13.20
  -5  -5   3  288.87   12.20
   5  -5  -3  265.77   10.60
   5   5  -3  274.67   13.00
  -5   5   3  254.07   10.80
   4  -5  -3  589.74   18.00
  -4  -5   3  617.14   19.70
   4  -5  -3  575.44   18.40
  -4   5   3  577.94   18.10
   4   5  -3  619.54   18.90
  -4   5   3  630.34   19.30
   4   5  -3  620.04   20.50
  -3  -5   3  974.00   27.20
  -3  -5   3  990.90   27.60
   3  -5  -3 1008.80   26.50
   3  -5  -3 1029.30   26.40
  -3   5   3  976.80   26.50
   3   5  -3  943.31   26.60
   3   5  -3  997.80   28.00
  -3   5   3  994.50   26.50
  -2  -5   3  372.76   13.60
   2  -5  -3  395.16   13.00
  -2  -5   3  336.97   12.60
  -2   5   3  347.97   12.50
   2   5  -3  372.16   13.40
  -2   5   3  382.16   11.70
  -2   5   3  350.96   12.10
   2   5  -3  364.26   13.00
   1  -5  -3  321.07   11.30
  -1  -5   3  304.97   11.80
  -1  -5   3  296.97   12.20
   1   5  -3  315.07   11.60
  -1   5   3  310.87   10.60
  -1   5   3  278.27   10.90
   1   5  -3  302.57   11.30
  -1   5   3  302.17   10.00
   0  -5   3   85.39    5.40
   0  -5  -3   80.19    4.60
   0  -5   3   92.69    5.90
   0  -5  -3   85.69    5.30
   0   5  -3   96.59    5.60
   0   5   3   80.29    4.60
   0   5   3   81.59    5.40
   0   5  -3   83.69    6.20
   1  -5   3   59.69    4.70
  -1  -5  -3   59.89    4.10
  -1  -5  -3   53.79    4.40
   1   5   3   56.69    4.00
   1   5   3   61.39    4.70
  -1   5  -3   58.09    4.50
  -1   5  -3   64.79    5.50
  -2  -5  -3 1385.36   34.00
  -2  -5  -3 1395.66   34.80
   2  -5   3 1395.86   34.90
  -2   5  -3 1390.96   35.10
  -2   5  -3 1392.76   36.40
   2   5   3 1371.96   34.50
   2   5   3 1397.06   34.60
  -2   5  -3 1369.56   34.30
   3  -5   3   38.00    3.90
   3  -5   3   35.00    4.90
  -3  -5  -3   34.00    3.70
  -3  -5  -3   34.20    4.00
  -3   5  -3   41.60    4.00
   3   5   3   31.70    3.80
   3   5   3   41.40    4.10
  -3   5  -3   42.90    5.70
   4  -5   3  157.08    9.00
   4  -5   3  149.59    7.30
  -4  -5  -3  146.39    7.60
  -4   5  -3  136.29    6.90
   4   5   3  157.08    8.70
   4   5   3  145.69    7.50
   5  -5   3  209.78    8.80
  -5  -5  -3  221.98    9.60
   5  -5   3  197.48   10.90
   5   5   3  206.48    9.00
   5   5   3  201.88   10.80
  -5   5  -3  196.48    8.50
  -6  -5  -3  492.65   16.10
   6  -5   3  509.65   19.70
   6  -5   3  496.75   14.90
   6   5   3  470.35   15.20
   6   5   3  483.05   19.30
  -6   5  -3  470.35   14.50
  -7  -5  -3   76.99    6.20
   7  -5   3   73.89    5.10
   7  -5   3   80.29    8.30
  -7   5  -3   73.09    5.10
   7   5   3   80.59    8.40
  -8  -5  -3   83.49    6.50
   8  -5   3   86.19   10.80
   8  -5   3   76.09    3.60
   8   5   3   59.09   13.20
   8   5   3   77.59    6.50
  -8   5  -3   71.49    5.70
   9  -5   3   78.29   10.00
  -9  -5  -3   95.49    5.80
   9   5   3   71.09    9.60
  10  -5   3   47.50    9.70
  10   5   3   36.00    8.50
  11  -5   3   -0.90    7.00
  11   5   3    9.60    8.10
  10  -6  -3   53.79    9.20
  10   6  -3   38.70   10.00
  10   6  -3   50.99    7.10
   9  -6  -3   17.30    5.80
   9  -6  -3   17.60    4.70
  -9  -6   3   17.50    5.80
   9   6  -3   22.30    7.30
   8  -6  -3   50.39    5.80
   8  -6  -3   40.50    7.00
  -8  -6   3   55.49    7.70
   8   6  -3   46.90    8.70
   7  -6  -3   22.30    4.00
   7  -6  -3   21.20    4.90
  -7  -6   3   19.20    4.80
   7   6  -3   16.10    4.80
   6  -6  -3   23.50    4.30
   6  -6  -3   17.40    3.70
  -6  -6   3   21.90    4.50
   6   6  -3   20.90    4.30
   5  -6  -3    6.50    2.70
  -5  -6   3    7.80    3.00
   5  -6  -3    8.70    2.70
   5   6  -3    7.50    3.10
   4  -6  -3   -3.20    1.80
   4  -6  -3   -1.40    1.70
  -4  -6   3    3.30    2.70
  -4   6   3    5.30    3.10
   4   6  -3    1.30    2.00
  -3  -6   3   29.00    5.00
   3  -6  -3   25.80    4.10
  -3   6   3   30.40    4.20
   3   6  -3   15.20    3.30
  -3   6   3   22.50    4.30
  -2  -6   3   10.10    3.20
   2  -6  -3    6.60    2.30
  -2   6   3    7.60    2.20
  -2   6   3    7.70    2.70
   2   6  -3    6.50    2.30
  -1  -6   3   93.19    6.50
  -1  -6   3   99.09    6.80
   1  -6  -3   96.29    6.30
   1   6  -3   94.79    6.40
  -1   6   3   96.59    5.50
  -1   6   3  103.99    6.20
   0  -6   3  529.35   17.50
   0  -6  -3  583.74   18.20
   0  -6   3  545.65   18.40
   0  -6  -3  540.65   16.40
   0   6   3  588.04   16.90
   0   6  -3  558.94   18.00
   0   6   3  581.54   19.80
   0   6  -3  559.94   18.10
  -1  -6  -3  536.35   16.50
   1  -6   3  549.15   18.20
  -1  -6  -3  560.04   17.90
   1   6   3  576.64   17.10
  -1   6  -3  545.15   18.70
  -1   6  -3  589.64   18.00
   1   6   3  489.55   19.30
  -1   6  -3  586.14   18.10
  -2  -6  -3  483.55   16.10
   2  -6   3  464.85   16.10
  -2  -6  -3  463.45   15.20
  -2   6  -3  441.06   15.40
   2   6   3  477.25   15.80
  -2   6  -3  483.55   16.40
  -3  -6  -3  330.57   12.80
  -3  -6  -3  348.57   13.30
   3  -6   3  335.87   13.00
   3   6   3  358.36   13.60
  -3   6  -3  315.87   12.40
   4  -6   3   70.69    5.80
   4  -6   3   50.09    6.40
  -4  -6  -3   63.49    5.50
   4   6   3   60.79    5.90
  -4   6  -3   74.99    5.90
   5  -6   3   51.89    5.30
  -5  -6  -3   52.09    6.00
   5  -6   3   66.59    8.10
   5   6   3   56.49    6.20
  -5   6  -3   56.09    5.90
   6  -6   3   21.30    5.40
  -6  -6  -3   17.20    4.10
   6  -6   3   16.60    3.50
  -6   6  -3   11.90    3.90
   6   6   3   14.20    4.30
   7  -6   3    0.40    3.50
   7  -6   3    2.40    2.80
  -7  -6  -3    0.30    3.30
   7   6   3    2.70    4.30
  -8  -6  -3   -2.10    3.70
   8  -6   3    4.30    4.80
   8  -6   3    0.60    3.00
   8   6   3    1.20    4.90
   8   6   3   -2.00    8.50
  -8   6  -3   -0.10    4.30
   9  -6   3   -2.60    4.80
  -9  -6  -3    6.60    4.30
   9   6   3   -3.20    5.80
  10  -6   3    3.00    6.40
  10   6   3    1.20    7.00
 -10  -7   3    8.10    7.80
  10  -7  -3   17.80    7.50
  10   7  -3   -3.70    6.90
   9  -7  -3    1.10    4.70
  -9  -7   3    2.60    6.20
   9  -7  -3   10.20    6.00
   9   7  -3   11.80    6.20
   8  -7  -3   47.00    9.10
   8  -7  -3   49.50    6.20
  -8  -7   3   50.29    8.00
   8   7  -3   50.29    8.40
   7  -7  -3  208.98   12.60
   7  -7  -3  191.88   10.50
  -7  -7   3  212.68   13.00
   7   7  -3  198.28   13.90
  -6  -7   3  332.17   15.70
   6  -7  -3  321.77   13.70
   6  -7  -3  317.67   15.00
   6   7  -3  352.96   17.40
   5  -7  -3  585.14   19.50
  -5  -7   3  596.94   21.50
   5  -7  -3  563.74   20.10
   5   7  -3  542.75   21.70
  -4  -7   3  519.15   19.90
   4  -7  -3  562.34   18.90
  -4   7   3  547.25   18.30
   4   7  -3  544.55   20.60
  -3  -7   3 1081.19   32.60
   3  -7  -3 1099.69   31.20
  -3   7   3 1098.99   31.20
  -3   7   3 1171.58   30.30
   3   7  -3 1142.39   32.90
   2  -7  -3  977.00   28.50
  -2  -7   3 1011.00   30.00
  -2   7   3  994.90   28.10
   2   7  -3  986.40   29.30
  -2   7   3 1024.40   27.20
   1  -7  -3 1192.38   32.60
  -1  -7   3 1232.58   34.10
  -1   7   3 1120.89   31.50
   1   7  -3 1202.08   33.00
  -1   7   3 1179.88   30.80
   0  -7  -3  380.66   13.70
   0  -7   3  396.86   15.70
   0  -7  -3  429.66   15.60
   0   7   3  417.86   14.20
   0   7  -3  399.06   15.20
  -1  -7  -3  116.59    7.50
   1  -7   3  115.79    9.20
  -1  -7  -3  120.69    7.10
  -1   7  -3  121.29    7.60
   1   7   3  116.09    7.00
  -2  -7  -3   98.59    6.90
  -2  -7  -3  114.39    7.60
   2   7   3  126.79    7.50
  -2   7  -3  109.99    7.30
   3  -7   3   82.49   11.40
  -3  -7  -3   77.89    6.60
   3   7   3   69.89    6.30
  -3   7  -3   87.29    6.80
   4  -7   3  373.66   16.60
  -4  -7  -3  383.86   15.50
   4   7   3  381.96   15.80
  -5  -7  -3  504.65   18.50
   5  -7   3  482.05   19.70
   5  -7   3  506.35   17.70
   5   7   3  473.05   19.40
  -6  -7  -3  585.44   20.50
   6  -7   3  557.14   22.50
   6  -7   3  580.84   19.30
   6   7   3  531.35   21.80
  -7  -7  -3  208.58   11.70
   7  -7   3  198.28   10.00
   7  -7   3  211.18   13.70
   7   7   3  184.98   13.70
  -8  -7  -3  106.39    9.80
   8  -7   3  117.09    8.30
   8  -7   3  122.99   11.90
   8   7   3  109.29   13.10
  -9  -7  -3  104.19   10.00
   9  -7   3   88.19   11.10
   9   7   3   77.29   10.70
  10  -7   3   59.29   11.40
  10   7   3   55.29   10.60
   9  -8  -3   47.50    7.30
  -9  -8   3   44.60    9.80
   9  -8  -3   51.49    9.10
   9   8  -3   47.90   11.00
   8  -8  -3   48.20    8.20
  -8  -8   3   62.79    9.80
   8  -8  -3   57.49    7.50
   8   8  -3   73.19   11.80
   7  -8  -3  110.19    9.20
   7  -8  -3  106.09   10.00
  -7  -8   3  100.39   10.90
   7   8  -3   79.59   10.00
   6  -8  -3   64.59    8.70
  -6  -8   3   51.29    7.60
   6  -8  -3   56.09    6.90
   6   8  -3   92.69   14.20
   5  -8  -3    0.40    2.80
  -5  -8   3    2.10    3.70
   5   8  -3    6.30    4.10
  -5   8   3    1.30    2.80
   4  -8  -3   13.30    3.90
  -4  -8   3    3.80    3.20
   4   8  -3    8.10    3.50
  -4   8   3   11.70    3.60
   3  -8  -3   35.50    5.60
  -3  -8   3   26.70    5.20
  -3   8   3   35.60    5.40
   3   8  -3   35.30    6.40
  -2  -8   3   41.60    6.10
   2  -8  -3   56.49    6.80
  -2   8   3   55.39    7.30
   2   8  -3   40.40    6.10
   1  -8  -3  123.29    8.50
  -1  -8   3  130.89    9.30
  -1   8   3  122.89    7.40
   1   8  -3  124.79    8.50
   0  -8  -3   34.30    5.10
   0  -8   3   36.80    5.70
   0   8   3   44.20    4.90
   0   8  -3   50.99    6.70
   1  -8   3  267.27   13.20
  -1  -8  -3  281.27   13.20
  -1   8  -3  269.57   12.50
   1   8   3  268.77   12.00
  -2  -8  -3  442.56   17.30
   2  -8   3  437.66   17.40
   2   8   3  419.16   16.10
  -2   8  -3  439.46   17.00
  -3  -8  -3   63.39    6.80
   3  -8   3   87.99    7.60
   3   8   3   71.69    6.80
  -3   8  -3   73.69    7.00
  -4  -8  -3  167.68   10.50
   4  -8   3  161.58   10.00
  -4   8  -3  169.48   10.60
   4   8   3  182.58   11.00
   5  -8   3    0.20    3.20
  -5  -8  -3    6.50    3.80
  -5   8  -3    6.40    3.70
   5   8   3    8.40    4.20
   6  -8   3    6.70    4.10
  -6  -8  -3   12.90    4.60
   6   8   3   12.50    5.70
   7  -8   3    3.30    4.80
  -7  -8  -3   -1.00    4.60
   7  -8   3    0.60    4.10
   7   8   3   -1.80    5.10
   8  -8   3    3.30    4.90
  -8  -8  -3   -0.80    5.50
   8  -8   3    2.20    5.00
   8   8   3    0.90    6.00
  -9  -8  -3    3.60    7.00
   9  -8   3    3.60    6.60
   9   8   3    7.50    7.40
  -9  -9   3   -7.20    8.50
   9  -9  -3   -8.60    6.90
   9  -9  -3   -6.20    6.50
   9   9  -3    0.40    7.60
   8  -9  -3   36.20    7.60
  -8  -9   3   37.30    9.90
   8  -9  -3   27.90    6.80
   8   9  -3    8.50    7.00
  -7  -9   3   11.30    6.30
   7  -9  -3    5.90    5.00
   7   9  -3    8.80    5.60
   6  -9  -3   80.69    8.90
  -6  -9   3   74.29    9.80
   6   9  -3   55.49    9.20
  -6   9   3   79.89   10.10
   5  -9  -3   45.70    7.10
  -5  -9   3   36.40    7.40
  -5   9   3   49.99    6.90
   4  -9  -3   30.40    5.70
  -4  -9   3   36.40    7.20
  -4   9   3   31.20    5.40
   4   9  -3   29.70    6.70
   3  -9  -3  184.58   11.20
  -3  -9   3  187.68   12.30
   3   9  -3  177.08   11.70
  -3   9   3  166.58    9.80
   2  -9  -3  555.24   20.90
  -2  -9   3  553.24   22.10
   2   9  -3  534.95   21.10
  -2   9   3  578.84   19.50
   1  -9  -3  425.16   17.90
  -1  -9   3  425.96   18.90
  -1   9   3  469.35   16.80
   1   9  -3  435.46   18.00
   0  -9  -3  112.79    9.00
   0  -9   3  107.69    9.20
   0   9   3  108.29    7.80
   0   9  -3  118.79    8.70
   1  -9   3   56.39    7.70
  -1  -9  -3   47.30    7.10
   1   9   3   60.69    6.20
  -1   9  -3   54.69    6.80
  -2  -9  -3    2.60    3.10
   2  -9   3    3.00    3.40
   2   9   3    1.80    2.80
  -2   9  -3    1.90    3.10
  -3  -9  -3   -2.40    3.20
   3  -9   3    3.20    3.50
   3   9   3   -0.20    3.00
  -3   9  -3    0.10    3.00
  -4  -9  -3    0.30    3.30
   4  -9   3    8.70    4.20
  -4   9  -3   -0.80    3.50
   4   9   3    3.60    3.40
   5  -9   3  113.99    9.70
  -5  -9  -3  129.09   10.70
  -5   9  -3  151.88   19.10
   5   9   3  142.99   11.10
   6  -9   3  126.89   10.70
  -6  -9  -3  128.49   11.30
  -6   9  -3  131.49   11.90
   6   9   3  110.99   11.10
  -7  -9  -3  106.69   11.70
   7  -9   3  109.19   10.30
   7   9   3  124.79   12.40
   8  -9   3   39.70    8.40
  -8  -9  -3   47.70    9.20
   8  -9   3   52.29    7.90
   8   9   3   43.70    9.10
  -9  -9  -3   31.00    9.50
   9  -9   3   32.10    9.80
   9   9   3   26.80    9.50
  -8 -10   3  104.29   13.60
   8 -10  -3   92.59   10.50
   8  10  -3   80.99   13.00
  -8  10   3  139.39   13.90
   7 -10  -3  110.19   15.70
  -7 -10   3  151.88   14.80
   7  10  -3  120.69   15.40
  -7  10   3  164.48   13.80
  -6 -10   3   91.99   11.50
   6 -10  -3   88.99   10.20
  -6  10   3  104.89   10.60
   6  10  -3   87.19   11.50
   5 -10  -3  134.69   11.30
  -5 -10   3  118.29   17.50
  -5  10   3  130.39   10.60
   5  10  -3  105.19   11.00
   4 -10  -3   15.90    5.30
  -4 -10   3   18.90    5.60
  -4  10   3   15.90    5.00
   4  10  -3   13.50    5.50
   3 -10  -3   14.10    5.20
  -3 -10   3    6.00    4.90
  -3  10   3   14.80    4.70
   3  10  -3    9.70    4.50
  -2 -10   3   41.70    7.90
   2 -10  -3   40.40    6.90
  -2  10   3   54.99    7.30
   2  10  -3   63.29    8.90
   1 -10  -3  187.38   12.30
  -1 -10   3  179.78   12.70
   1  10  -3  170.18   11.60
  -1  10   3  175.98   10.50
   0 -10  -3  502.95   20.90
   0 -10   3  509.65   21.70
   0  10  -3  503.55   20.50
   0  10   3  509.75   19.20
   1 -10   3  661.43   25.40
  -1 -10  -3  648.14   24.70
  -1  10  -3  653.23   24.20
   1  10   3  677.33   23.30
   2 -10   3  671.13   25.60
  -2 -10  -3  720.63   26.10
   2  10   3  667.63   24.10
  -2  10  -3  702.63   25.00
  -3 -10  -3  552.94   22.30
   3 -10   3  567.54   22.50
   3  10   3  502.75   21.00
  -3  10  -3  517.85   21.40
  -4 -10  -3  241.38   14.70
   4 -10   3  282.57   15.50
  -4  10  -3  274.17   15.30
   4  10   3  242.58   14.70
  -5 -10  -3  207.28   14.30
   5 -10   3  197.18   13.60
   5  10   3  188.08   13.70
  -5  10  -3  214.38   14.50
   6 -10   3  114.09   11.40
  -6  10  -3  138.09   12.70
   6  10   3  114.29   12.40
  -7 -10  -3   17.50    7.30
   7 -10   3   25.50    7.10
   7  10   3   17.10    7.90
  -7  10  -3   29.00    7.50
   8 -10   3    0.70    7.80
  -8 -10  -3   -0.30    8.80
   8  10   3    3.10    8.00
  -8  10  -3    9.20    8.00
  -7 -11   3    3.50    8.40
   7 -11  -3   10.80    7.20
  -7  11   3   -5.20    6.80
   7  11  -3    5.80    6.90
   6 -11  -3   -2.00    6.10
  -6 -11   3   -0.50    7.20
   6  11  -3    4.10    6.70
  -6  11   3    8.20    6.50
   5 -11  -3   38.30    8.20
  -5 -11   3   43.70    9.90
  -5  11   3   45.50    7.80
   5  11  -3   33.60    8.10
  -4 -11   3   69.49   10.90
   4 -11  -3   63.09    8.90
   4  11  -3   58.99    9.40
  -4  11   3   64.29    8.90
   3 -11  -3   99.99   10.40
  -3 -11   3   91.19   11.90
   3  11  -3  121.09   11.20
  -3  11   3  109.09    9.80
   2 -11  -3   19.80    5.90
  -2 -11   3   35.60    8.20
  -2  11   3   22.90    5.50
   2  11  -3   23.30    6.30
  -1 -11   3   21.50    6.60
   1 -11  -3   15.60    5.10
   1  11  -3   11.90    5.00
  -1  11   3   19.70    5.30
   0 -11  -3   16.10    5.40
   0 -11   3   11.30    4.90
   0  11   3   10.80    4.40
   0  11  -3   20.50    7.70
   1 -11   3   18.90    6.90
  -1 -11  -3   14.20    5.50
  -1  11  -3   14.50    5.40
   1  11   3   18.50    5.50
  -2 -11  -3    2.70    4.30
   2 -11   3   -1.70    6.90
   2  11   3   -2.10    4.10
  -2  11  -3   -3.20    3.50
  -3 -11  -3    3.10    4.70
   3 -11   3    3.60    5.40
  -3  11  -3    4.50    4.90
   3  11   3    0.80    4.60
  -4 -11  -3   12.20    5.80
   4 -11   3   10.20    5.30
   4  11   3   16.40    6.10
  -4  11  -3    4.90    5.30
  -5 -11  -3   16.90    6.90
   5 -11   3    7.90    6.20
  -5  11  -3   -2.60    5.70
   5  11   3    7.30    6.20
  -6 -11  -3   16.50    7.90
   6 -11   3   10.00    7.30
  -6  11  -3   18.20    7.80
   6  11   3   -0.50    6.00
   7 -11   3   19.50    7.70
  -7 -11  -3   17.00    8.60
   7  11   3   12.50    8.60
  -7  11  -3   17.30   10.60
   6 -12  -3   37.50    8.30
  -6 -12   3   22.40    9.90
   6  12  -3   31.30    9.10
  -6  12   3   18.20    8.10
   5 -12  -3   19.00    7.10
  -5 -12   3   27.80    9.30
   5  12  -3   10.70    6.80
  -5  12   3   29.20    7.50
   4 -12  -3   -2.10    5.80
  -4 -12   3    0.30    6.90
   4  12  -3    5.50    6.20
  -4  12   3    9.60    5.80
  -3 -12   3   25.20    7.70
   3 -12  -3   22.30    6.80
  -3  12   3   14.80    5.70
   3  12  -3    8.30    6.00
  -2 -12   3   12.60    6.50
   2 -12  -3   13.70    5.70
   2  12  -3   10.50    5.80
  -1 -12   3   55.49   10.10
   1 -12  -3   59.89    9.60
   1  12  -3   47.90    8.40
  -1  12   3   54.49    8.40
   0 -12   3   88.39   11.70
   0 -12  -3  115.39   12.00
   0  12  -3  114.39   11.40
   0  12   3  102.19   11.20
  -1 -12  -3  127.19   12.60
   1 -12   3  148.39   13.40
  -1  12  -3  119.59   11.70
  -2 -12  -3  193.78   15.00
   2 -12   3  206.28   15.70
  -2  12  -3  190.98   14.00
   2  12   3  190.48   13.90
   3 -12   3  119.39   12.90
  -3 -12  -3  140.59   13.60
  -3  12  -3  159.68   13.20
   3  12   3  151.08   13.00
  -4 -12  -3   35.10    9.20
   4 -12   3   35.60    8.70
   4  12   3   26.50    8.20
  -4  12  -3   35.80    8.20
  -5 -12  -3   20.30    8.40
   5 -12   3   25.60    8.40
  -5  12  -3   30.90    7.70
   5  12   3   26.40    8.00
  -6 -12  -3   16.90    8.20
   6 -12   3    8.90    8.30
  -6  12  -3   12.40    8.60
   6  12   3    4.40    8.00
  -4 -13   3  148.09   19.20
   4 -13  -3  100.09   12.30
  -4  13   3   94.19   11.30
   4  13  -3  112.99   15.80
   3 -13  -3  222.38   17.00
  -3 -13   3  244.08   18.80
   3  13  -3  234.48   17.40
  -3  13   3  211.98   15.50
  -2 -13   3  202.08   16.70
   2 -13  -3  179.18   15.40
  -2  13   3  174.78   14.10
   2  13  -3  210.58   15.90
   1 -13  -3   80.99   12.00
  -1 -13   3  100.39   13.40
  -1  13   3  100.59   11.90
   1  13  -3   83.79   11.50
   0 -13   3   91.39   13.20
   0 -13  -3   85.29   12.20
   0  13  -3   60.89    9.50
   0  13   3   60.29    9.90
  -1 -13  -3    8.20    6.80
   1 -13   3    6.50    6.80
  -1  13  -3    3.10    5.80
   1  13   3   11.50    6.50
  -2 -13  -3    1.20    6.50
   2 -13   3    9.10    7.80
   2  13   3   -2.80    5.90
  -2  13  -3    2.70    6.20
   3 -13   3   12.60    7.90
  -3 -13  -3   23.80    8.00
  -3  13  -3    4.90    6.70
   3  13   3   -5.90    6.50
  -4 -13  -3   31.30    9.40
   4 -13   3   35.30    9.70
   4  13   3   21.50    9.10
   1 -14  -3    3.80    8.10
  -1 -14   3    0.50    8.40
  -1  14   3    5.90    7.30
   1  14  -3    0.40    7.50
   0 -14  -3    8.60    8.00
   0 -14   3   13.20    8.50
   0  14  -3   -8.30    7.20
   0  14   3    9.30    7.40
  -1 -14  -3   -1.40    7.80
   1 -14   3    7.20    8.20
  -1  14  -3    3.60    7.70
   1  14   3   -5.70    7.10
  11   0  -4   88.89   13.10
  10   0  -4   92.49   11.40
   9   0  -4    2.20    4.10
   9   0  -4    8.20    3.10
   9   0  -4    5.40    2.20
   8   0  -4   11.20    4.00
   8   0  -4   14.30    3.40
   8   0  -4   13.10    2.50
   7   0  -4    4.40    2.40
   7   0  -4    3.30    2.50
   7   0  -4    3.50    1.90
   6   0  -4   10.30    2.20
   6   0  -4    8.80    2.50
   6   0  -4   10.00    3.70
   5   0  -4   34.90    3.90
   5   0  -4   40.10    3.80
   5   0  -4   34.90    3.10
  -5   0   4   46.20    5.40
   4   0  -4  275.87    9.60
  -4   0   4  262.87    9.90
   4   0  -4  269.97   10.10
   4   0  -4  279.57    9.10
   3   0  -4 2822.12   62.69
  -3   0   4 2809.92   62.39
   3   0  -4 2820.72   62.09
   3   0  -4 2873.01   62.89
   2   0  -4 2277.87   50.19
   2   0  -4 2295.37   49.80
   2   0  -4 2247.88   50.79
   1   0  -4  977.70   22.20
   1   0  -4  980.40   23.60
  -1   0   4 1025.60   22.20
   1   0  -4 1035.40   24.40
   0   0  -4  435.96   10.20
   0   0  -4  447.06   12.20
   0   0  -4  417.56   11.70
   0   0   4  413.76   11.20
   0   0  -4  430.06   10.10
  -1   0  -4 3983.60   84.79
   1   0   4 4013.30   84.79
   2   0   4 1644.54   38.20
  -2   0  -4 1654.93   38.20
  -2   0  -4 1697.13   36.80
  -2   0  -4 1687.03   36.40
  -3   0  -4 1303.57   28.20
  -3   0  -4 1260.77   27.80
   3   0   4 1292.77   31.60
  -3   0  -4 1264.77   31.40
  -4   0  -4  186.78    8.70
   4   0   4  195.38    8.80
   5   0   4   64.49    5.60
  -5   0  -4   81.39    6.50
   6   0   4  133.69    8.70
   7   0   4  114.19    8.90
   8   0   4  185.98   12.40
   9   0   4  333.57   18.00
  10   0   4   75.59   11.20
  11   0   4   62.59   10.60
  11  -1  -4    4.40    6.40
  11   1  -4    3.30    6.90
  10  -1  -4   11.60    5.70
  10   1  -4   12.20    3.30
  10   1  -4    8.70    5.50
   9  -1  -4    7.30    3.20
   9  -1  -4   13.10    5.00
   9  -1  -4    9.10    2.30
   9   1  -4    7.10    2.60
   9   1  -4   11.40    3.40
   9   1  -4   14.10    4.90
   8  -1  -4   14.20    2.60
   8  -1  -4   14.60    3.60
   8  -1  -4   13.20    4.40
   8   1  -4   13.90    2.90
   8   1  -4   15.60    4.80
   8   1  -4    9.80    3.30
   7  -1  -4   27.70    5.20
   7  -1  -4   34.60    4.20
   7  -1  -4   33.00    3.50
   7   1  -4   31.50    3.70
   7   1  -4   36.80    5.40
   7   1  -4   36.80    4.30
   6  -1  -4   46.50    6.70
   6  -1  -4   45.20    4.50
   6  -1  -4   37.80    3.40
   6   1  -4   53.19    6.70
   6   1  -4   40.60    4.40
   6   1  -4   32.20    3.50
   5  -1  -4  341.87   12.60
   5  -1  -4  333.67   11.20
  -5  -1   4  319.37   12.50
   5  -1  -4  324.27   10.40
  -5   1   4  322.57   13.80
   5   1  -4  332.17   10.80
   5   1  -4  331.67   11.10
   5   1  -4  310.37   12.60
   4  -1  -4   60.49    4.30
  -4  -1   4   56.99    4.40
   4  -1  -4   54.19    3.60
   4   1  -4   49.70    4.20
   4   1  -4   63.69    4.20
  -4   1   4   58.79    3.80
   4   1  -4   56.39    3.70
  -4   1   4   57.89    4.30
  -3  -1   4  200.98    7.80
   3  -1  -4  205.28    7.20
  -3  -1   4  192.58    7.50
   3  -1  -4  197.48    7.20
  -3   1   4  194.98    7.10
   3   1  -4  190.88    7.60
  -3   1   4  203.28    7.30
   3   1  -4  197.48    7.60
  -2  -1   4    5.90    1.50
   2  -1  -4    7.50    1.30
  -2  -1   4    5.30    1.30
   2  -1  -4    6.90    1.20
   2   1  -4    5.80    1.50
  -2   1   4    6.60    1.20
  -2   1   4    7.00    1.50
   2   1  -4   10.30    1.80
   1  -1  -4   85.59    3.90
  -1  -1   4   84.89    3.50
   1  -1  -4   84.79    2.60
  -1  -1   4   85.69    4.30
   1   1  -4   87.59    4.10
   1   1  -4   90.29    4.40
  -1   1   4   78.69    3.90
  -1   1   4   85.29    2.50
   0  -1  -4  125.39    3.10
   0  -1  -4  128.19    4.80
   0  -1   4  124.29    5.20
   0   1   4  118.19    4.70
   0   1  -4  124.39    5.00
   0   1   4  129.09    3.10
   0   1  -4  112.69    4.30
   0   1  -4  124.19    4.60
  -1  -1  -4    9.60    1.30
  -1  -1  -4    7.10    1.30
   1  -1   4   11.30    1.70
   1  -1   4   12.90    1.80
   1   1   4    9.30    1.30
  -1   1  -4    8.20    1.50
  -1   1  -4    9.30    1.60
   1   1   4    5.30    1.00
   2  -1   4  304.07    9.70
  -2  -1  -4  298.77    8.20
   2  -1   4  313.97    8.70
  -2  -1  -4  303.07    9.30
   2   1   4  303.37    9.40
  -2   1  -4  295.77    9.80
   2   1   4  300.67    8.90
  -2   1  -4  288.97    8.40
   3  -1   4  185.88    7.90
  -3  -1  -4  185.58    7.70
  -3  -1  -4  187.28    5.60
  -3   1  -4  198.68    5.50
   3   1   4  192.08    7.80
  -3   1  -4  178.28    7.80
   3   1   4  186.28    5.60
  -3   1  -4  186.88    5.50
  -4  -1  -4  183.68    5.20
   4  -1   4  182.38    8.60
  -4  -1  -4  181.18    8.50
  -4   1  -4  185.68    4.60
   4   1   4  180.38    8.50
   4   1   4  182.08    5.10
  -4   1  -4  182.18    4.60
   5  -1   4  263.47   11.50
  -5  -1  -4  240.38   11.20
   5   1   4  252.47   11.40
   6  -1   4  207.48   11.10
   6   1   4  214.78   11.20
   7  -1   4  158.58   10.40
   7   1   4  162.18   10.40
   8  -1   4    3.60    3.90
   8   1   4    3.10    3.60
   9  -1   4    7.00    4.90
   9   1   4    1.30    4.50
  10  -1   4   -1.80    4.90
  10   1   4   -7.30    5.30
  11  -1   4    9.80    6.80
  11   1   4    9.90    7.30
  11  -2  -4   59.69   10.40
  11   2  -4   48.50    9.70
  10  -2  -4   89.29   11.30
  10   2  -4   94.79   12.30
  10   2  -4   73.29    5.00
   9  -2  -4   25.30    4.30
   9  -2  -4   29.00    3.20
   9  -2  -4   29.10    6.70
   9   2  -4   25.20    3.50
   9   2  -4   27.50    4.40
   8  -2  -4    7.40    3.30
   8  -2  -4   11.70    4.60
   8  -2  -4    5.60    2.20
   8   2  -4   12.10    2.90
   8   2  -4    7.90    3.50
   8   2  -4   15.90    4.60
   7  -2  -4   78.29    7.30
   7  -2  -4   77.19    4.80
   7  -2  -4   72.79    5.90
   7   2  -4   77.39    6.20
   7   2  -4   79.69    7.30
   7   2  -4   77.09    5.30
   6  -2  -4   84.99    4.90
   6  -2  -4   71.29    5.60
   6   2  -4   72.29    5.50
   6   2  -4   80.39    6.70
   6   2  -4   94.19    5.50
   5  -2  -4   89.39    5.90
  -5  -2   4   75.09    6.00
   5  -2  -4   94.69    5.00
  -5  -2   4   86.49    5.50
   5   2  -4   86.49    6.20
  -5   2   4   82.79    6.90
   5   2  -4   75.99    5.30
  -5   2   4   85.19    5.00
  -4  -2   4  126.39    6.60
   4  -2  -4  120.49    6.20
   4  -2  -4  114.29    5.50
  -4  -2   4  121.29    6.70
  -4   2   4  124.39    6.40
   4   2  -4  129.59    6.30
  -4   2   4  125.79    5.80
   4   2  -4  123.99    6.80
   3  -2  -4  779.82   19.90
  -3  -2   4  767.22   20.60
   3  -2  -4  792.62   19.80
  -3  -2   4  778.52   20.90
  -3   2   4  766.52   19.90
  -3   2   4  766.42   19.70
   3   2  -4  767.82   20.50
   3   2  -4  753.92   20.90
   2  -2  -4 1550.74   36.10
  -2  -2   4 1539.65   36.90
   2  -2  -4 1561.74   35.60
  -2  -2   4 1562.14   36.20
  -2   2   4 1575.64   34.80
   2   2  -4 1571.34   36.50
   2   2  -4 1602.44   36.80
  -2   2   4 1535.55   36.00
  -1  -2   4 1321.27   31.50
  -1  -2   4 1417.16   32.80
   1  -2  -4 1401.46   29.60
   1  -2  -4 1404.76   32.00
   1   2  -4 1361.96   32.40
  -1   2   4 1361.66   29.50
  -1   2   4 1362.76   31.90
   1   2  -4 1348.97   31.80
   0  -2   4  722.53   19.00
   0  -2  -4  750.82   16.30
   0  -2   4  746.43   18.40
   0  -2  -4  751.22   18.60
   0   2   4  759.32   18.70
   0   2   4  748.93   16.40
   0   2  -4  724.53   18.90
   0   2  -4  738.53   18.50
  -1  -2  -4 1260.77   29.40
  -1  -2  -4 1270.77   28.50
   1  -2   4 1256.47   29.80
   1  -2   4 1275.87   30.30
   1   2   4 1286.47   28.60
  -1   2  -4 1284.87   30.40
  -1   2  -4 1275.77   29.60
   1   2   4 1262.77   29.40
  -2  -2  -4  622.94   16.10
   2  -2   4  619.34   15.80
  -2  -2  -4  600.24   15.40
  -2   2  -4  631.54   15.60
   2   2   4  596.54   16.20
   2   2   4  605.34   15.50
  -2   2  -4  610.34   17.20
   3  -2   4  214.18    8.80
  -3  -2  -4  203.18    8.10
  -3  -2  -4  195.88    6.60
   3  -2   4  206.18    6.70
   3   2   4  199.58    6.60
  -3   2  -4  210.48    6.60
   3   2   4  209.78    8.30
   4  -2   4   45.90    2.70
   4  -2   4   39.30    4.20
  -4  -2  -4   45.10    4.50
  -4  -2  -4   46.90    3.20
  -4   2  -4   47.10    2.50
  -4   2  -4   47.70    4.80
   4   2   4   45.60    2.80
   4   2   4   46.40    4.20
  -5  -2  -4   35.30    2.50
  -5  -2  -4   45.60    5.90
   5  -2   4   45.10    6.90
   5   2   4   42.10    5.60
  -5   2  -4   36.50    1.60
  -5   2  -4   34.30    1.60
  -6  -2  -4   95.19    3.20
   6  -2   4  107.19    7.90
   6   2   4  100.89    7.70
   6   2   4   99.99    3.00
   7  -2   4   26.70    5.60
   7   2   4   13.40    3.70
   8  -2   4   89.49    8.90
   8   2   4   64.19    8.30
   9  -2   4   28.30    6.20
   9   2   4   32.40    7.30
  10  -2   4   35.80    8.20
  10   2   4   25.20    7.50
  11  -2   4   14.70   12.40
  11   2   4   10.40    8.90
  11  -3  -4   -2.40    6.90
  11   3  -4   -1.30    7.30
  10  -3  -4   64.39   10.20
  10   3  -4   55.49    9.80
  10   3  -4   67.49    5.90
   9  -3  -4  212.28    9.80
   9  -3  -4  209.38    8.30
   9  -3  -4  239.88   14.30
   9   3  -4  240.78   15.30
   9   3  -4  217.28   10.50
   9   3  -4  241.78    9.90
   8  -3  -4  289.37   14.50
   8  -3  -4  293.37   10.10
   8  -3  -4  229.88   10.80
   8   3  -4  271.87   10.80
   8   3  -4  277.97   15.30
   8   3  -4  271.07   11.40
   7  -3  -4  522.05   19.20
   7  -3  -4  496.75   15.00
  -7  -3   4  542.25   17.40
  -7   3   4  479.15   15.60
   7   3  -4  519.05   16.10
   7   3  -4  495.25   20.10
   7   3  -4  485.55   16.10
  -6  -3   4  574.24   18.40
   6  -3  -4  602.84   19.90
   6  -3  -4  581.84   16.70
   6   3  -4  534.65   17.30
  -6   3   4  567.54   16.90
   6   3  -4  596.74   20.80
   5  -3  -4  626.64   19.00
   5  -3  -4  593.64   17.10
  -5  -3   4  626.24   18.90
   5   3  -4  603.54   18.10
  -5   3   4  599.94   17.50
  -5   3   4  579.44   18.80
   4  -3  -4  846.02   22.30
  -4  -3   4  819.52   22.90
   4  -3  -4  818.92   21.50
  -4  -3   4  795.32   23.00
  -4   3   4  787.82   21.50
  -4   3   4  796.72   22.20
   4   3  -4  833.62   23.80
   4   3  -4  826.92   22.40
   3  -3  -4  640.44   17.90
  -3  -3   4  676.83   19.20
  -3  -3   4  628.24   18.60
   3  -3  -4  656.43   17.60
   3   3  -4  677.23   18.80
  -3   3   4  649.64   18.10
   3   3  -4  681.33   19.50
  -3   3   4  660.43   17.70
  -2  -3   4  608.34   17.10
  -2  -3   4  575.94   16.30
   2  -3  -4  575.84   14.70
   2  -3  -4  575.64   16.00
  -2   3   4  561.44   14.70
   2   3  -4  567.44   16.50
   2   3  -4  556.34   16.40
  -2   3   4  563.34   16.00
  -1  -3   4   20.60    3.00
   1  -3  -4   17.00    2.40
  -1  -3   4   21.30    2.90
  -1   3   4   15.00    2.10
   1   3  -4   13.30    2.10
   1   3  -4   11.30    2.10
  -1   3   4   12.90    1.30
  -1   3   4   17.20    1.60
   0  -3   4  310.57   10.00
   0  -3  -4  322.47    8.40
   0  -3   4  312.57   10.50
   0  -3  -4  312.67   10.00
   0   3  -4  306.37   10.30
   0   3   4  326.27    8.50
   0   3   4  315.77   10.20
   0   3  -4  314.37   10.20
  -1  -3  -4 1837.72   42.60
  -1  -3  -4 1904.71   41.50
   1  -3   4 1881.21   43.30
  -1   3  -4 1849.91   42.80
   1   3   4 1843.62   42.60
  -1   3  -4 1848.81   43.00
  -1   3  -4 1879.31   43.90
   1   3   4 1935.21   41.70
   2  -3   4 3300.37   71.59
   2  -3   4 3285.17   73.09
  -2  -3  -4 3203.58   71.09
  -2  -3  -4 3307.87   71.29
   2   3   4 3270.17   71.59
   2   3   4 3224.48   71.09
  -2   3  -4 3199.08   71.09
  -2   3  -4 3263.07   73.19
   3  -3   4  683.43   17.90
  -3  -3  -4  666.53   18.90
   3  -3   4  667.73   20.00
  -3  -3  -4  684.73   17.90
   3   3   4  666.63   19.20
  -3   3  -4  676.13   17.50
   3   3   4  698.83   17.80
  -3   3  -4  711.13   20.60
  -4  -3  -4 1319.77   30.60
  -4  -3  -4 1294.67   33.30
   4  -3   4 1285.47   30.20
   4  -3   4 1273.97   34.10
   4   3   4 1337.07   33.90
  -4   3  -4 1261.37   34.30
   4   3   4 1267.97   30.20
  -4   3  -4 1269.97   29.70
   5  -3   4  617.14   20.50
  -5  -3  -4  612.64   16.40
  -5   3  -4  592.44   15.10
   5   3   4  628.34   22.60
   5   3   4  604.54   15.90
  -6  -3  -4  621.04   16.10
   6  -3   4  597.24   14.00
   6  -3   4  649.64   22.10
   6   3   4  579.94   15.40
   6   3   4  641.14   21.80
  -6   3  -4  606.04   14.00
  -7  -3  -4  399.16   10.40
   7  -3   4  398.46   17.60
   7   3   4  408.46   17.70
   7   3   4  390.26   10.10
   8  -3   4   40.30    7.20
   8   3   4   32.80    6.90
   9  -3   4    8.90    4.70
   9   3   4    4.80    4.80
  10  -3   4    8.90    5.90
  10   3   4   11.60    6.70
  11  -3   4    4.30    7.10
  11   3   4   -5.10    9.90
  11  -4  -4    5.60    7.70
  10  -4  -4   -1.20    5.10
  10  -4  -4    1.90    3.20
  10   4  -4   -4.40    5.30
  10   4  -4    3.50    3.90
   9  -4  -4    2.40    4.70
   9  -4  -4    3.30    3.00
   9  -4  -4    3.00    8.90
   9   4  -4    2.50    5.00
   9   4  -4    1.90    3.20
   8  -4  -4    4.50    4.30
  -8  -4   4    5.30    3.40
   8  -4  -4    2.90    2.70
   8  -4  -4    4.80    3.70
   8   4  -4    1.20    2.80
  -8   4   4    7.90    3.90
   8   4  -4    7.10    3.90
  -7  -4   4   -0.60    2.90
   7  -4  -4    2.30    2.20
   7  -4  -4   -2.20    2.80
   7   4  -4    0.30    3.20
  -7   4   4    0.40    3.10
  -6  -4   4   37.70    5.10
   6  -4  -4   34.30    5.10
   6  -4  -4   29.40    3.80
  -6   4   4   32.30    4.70
   6   4  -4   33.20    5.10
   6   4  -4   38.20    5.10
  -5  -4   4   29.40    4.30
   5  -4  -4   22.60    3.30
   5  -4  -4   18.90    3.40
   5   4  -4   16.10    3.50
   5   4  -4   23.50    4.60
  -5   4   4   12.30    3.00
  -5   4   4   26.00    4.40
  -4  -4   4   51.19    5.90
   4  -4  -4   43.00    4.00
  -4  -4   4   47.10    5.50
   4  -4  -4   48.40    4.00
   4   4  -4   42.00    4.60
  -4   4   4   40.90    4.20
   4   4  -4   41.40    4.40
  -3  -4   4  156.98    8.00
   3  -4  -4  184.68    7.70
  -3  -4   4  166.18    8.00
   3  -4  -4  164.18    7.00
  -3   4   4  160.38    7.20
  -3   4   4  159.18    7.40
   2  -4  -4  136.39    5.80
  -2  -4   4  135.89    6.80
  -2  -4   4  140.39    7.20
   2  -4  -4  138.89    6.50
  -2   4   4  129.79    6.60
   2   4  -4  136.89    7.00
  -2   4   4  138.59    5.80
   2   4  -4  134.59    6.90
  -1  -4   4  661.53   18.50
   1  -4  -4  667.43   18.50
  -1  -4   4  689.43   19.50
  -1   4   4  657.73   18.50
   1   4  -4  631.34   18.70
  -1   4   4  665.93   16.50
   1   4  -4  650.13   18.80
  -1   4   4  659.43   16.90
   0  -4   4  785.62   21.50
   0  -4  -4  817.42   19.70
   0  -4  -4  808.22   21.60
   0  -4   4  811.52   22.20
   0   4   4  837.82   19.90
   0   4  -4  808.52   21.90
   0   4   4  798.02   21.60
   0   4  -4  811.32   21.90
   1  -4   4   85.29    5.20
  -1  -4  -4   81.29    4.80
  -1  -4  -4   85.19    4.30
  -1   4  -4   76.99    4.90
  -1   4  -4   78.79    4.90
   1   4   4   83.59    4.30
   1   4   4   83.29    5.00
   2  -4   4  113.99    6.10
  -2  -4  -4  119.89    5.90
  -2  -4  -4  128.19    5.90
   2  -4   4  122.29    6.70
   2   4   4  120.59    6.10
  -2   4  -4  125.09    7.10
   2   4   4  123.39    5.90
  -2   4  -4  116.19    5.90
   3  -4   4   26.50    4.30
  -3  -4  -4   17.30    3.00
  -3  -4  -4   19.70    3.00
   3  -4   4   21.20    3.00
  -3   4  -4   21.20    3.70
  -3   4  -4   26.90    3.30
   3   4   4   18.40    2.70
   3   4   4   24.20    3.70
   4  -4   4  171.98    7.30
  -4  -4  -4  174.28    8.70
  -4  -4  -4  180.08    7.70
  -4   4  -4  165.18    7.00
   4   4   4  176.28    8.90
   4   4   4  169.38    7.30
  -5  -4  -4    1.10    1.70
   5  -4   4    3.20    2.30
   5  -4   4   -0.80    1.60
  -5   4  -4    2.60    1.70
   5   4   4    0.50    2.00
   5   4   4    0.50    2.00
  -6  -4  -4   18.30    3.30
   6  -4   4   23.00    2.70
   6  -4   4   24.10    5.00
   6   4   4   26.20    5.50
   6   4   4   22.50    3.30
  -6   4  -4   21.40    2.70
  -7  -4  -4   19.00    3.30
   7  -4   4   14.50    1.60
   7  -4   4    6.90    3.90
  -7   4  -4   14.20    1.70
   7   4   4   16.30    2.90
   7   4   4   15.20    5.00
   8  -4   4    0.80    6.40
   8   4   4   -3.40    3.70
   8   4   4    3.60    3.20
   9  -4   4   17.80    5.70
   9   4   4   33.50    7.40
  10  -4   4   -6.50    5.20
  10   4   4    1.10    6.30
  11  -4   4    3.00    6.80
  11   4   4    8.70    8.60
  11  -5  -4    4.90    7.30
  11   5  -4   10.00    8.90
  10  -5  -4   15.60    4.60
  10  -5  -4   31.00    7.40
  10   5  -4   19.80    7.40
   9  -5  -4   75.09    6.50
   9  -5  -4   58.09    8.50
   9   5  -4   74.59    7.80
   9   5  -4   51.39    9.20
   8  -5  -4   90.49    8.90
  -8  -5   4   83.19    8.30
   8  -5  -4   79.69    6.60
   7  -5  -4  165.98   10.40
   7  -5  -4  170.98    8.50
  -7  -5   4  181.78   10.60
   7   5  -4  150.08   11.40
  -6  -5   4  381.56   15.50
   6  -5  -4  367.06   13.50
   6  -5  -4  377.26   15.20
   6   5  -4  386.66   17.00
   5  -5  -4  285.67   11.10
  -5  -5   4  260.97   12.20
   5  -5  -4  285.47   11.70
  -5   5   4  261.97   12.10
   5   5  -4  272.57   13.10
  -5   5   4  258.87   11.30
  -4  -5   4  521.65   17.80
   4  -5  -4  490.85   15.90
   4  -5  -4  475.55   15.80
   4   5  -4  506.25   17.90
  -4   5   4  467.75   16.00
   3  -5  -4   52.29    4.20
  -3  -5   4   45.40    5.30
  -3  -5   4   51.79    5.10
   3  -5  -4   46.80    4.30
  -3   5   4   46.10    4.30
   3   5  -4   45.10    4.60
  -3   5   4   52.99    5.60
   3   5  -4   54.09    5.90
  -2  -5   4  103.89    6.80
  -2  -5   4  106.19    6.50
   2  -5  -4   98.59    6.00
   2   5  -4  117.79    6.80
  -2   5   4  101.49    5.10
   2   5  -4  109.09    6.80
  -2   5   4  105.89    5.70
  -2   5   4  100.09    6.50
  -1  -5   4    4.10    1.90
  -1  -5   4    3.00    1.80
   1  -5  -4   10.30    2.60
   1   5  -4    6.50    2.20
  -1   5   4    9.00    2.50
  -1   5   4    6.10    1.90
  -1   5   4    8.30    1.90
   1   5  -4    4.50    2.30
   0  -5  -4    3.50    1.40
   0  -5  -4    1.40    1.20
   0  -5   4   -1.10    1.40
   0  -5   4   -0.10    1.70
   0   5   4    1.60    1.20
   0   5   4    3.80    1.80
   0   5  -4    4.00    1.80
   0   5  -4    3.50    2.30
  -1  -5  -4  345.77   11.10
   1  -5   4  348.07   12.80
  -1  -5  -4  361.96   12.40
  -1   5  -4  349.27   13.40
  -1   5  -4  350.16   12.50
   1   5   4  352.46   11.30
  -1   5  -4  337.47   12.30
   1   5   4  335.47   12.20
   2  -5   4  662.13   19.60
  -2  -5  -4  626.44   18.20
  -2  -5  -4  662.63   19.20
  -2   5  -4  670.33   19.80
   2   5   4  628.64   18.80
  -2   5  -4  643.04   20.70
   2   5   4  646.04   18.70
   3  -5   4  243.18   10.20
  -3  -5  -4  240.78   11.20
  -3  -5  -4  263.67   10.40
   3   5   4  273.17   10.40
  -3   5  -4  250.67   10.00
   3   5   4  260.97   10.70
  -4  -5  -4  413.56   14.10
  -4  -5  -4  381.86   16.00
   4  -5   4  426.56   13.90
   4   5   4  433.46   15.60
   4   5   4  392.96   13.60
  -4   5  -4  397.36   13.30
   5  -5   4  297.47   10.90
   5  -5   4  286.87   13.50
  -5  -5  -4  297.67   11.60
   5   5   4  287.17   11.00
   5   5   4  302.67   13.50
  -5   5  -4  278.07   10.50
  -6  -5  -4  416.56   14.40
   6  -5   4  413.56   13.20
   6  -5   4  432.36   17.90
   6   5   4  409.66   17.30
  -6   5  -4  388.46   12.80
   6   5   4  395.56   13.50
   7  -5   4  229.38    8.50
  -7  -5  -4  242.98   10.30
   7  -5   4  244.68   13.90
   7   5   4  205.48   14.10
   7   5   4  250.27   14.10
  -7   5  -4  222.78    8.40
  -8  -5  -4   76.49    6.00
   8  -5   4  100.79   12.20
   8   5   4   50.59   12.20
   8   5   4   71.09    6.00
   9  -5   4    9.50    5.20
   9   5   4    0.80    5.20
  10  -5   4    1.30    6.40
  10   5   4    1.60    7.10
  10  -6  -4   30.30    8.00
  10  -6  -4   16.80    7.10
  10   6  -4   21.00    8.00
  10   6  -4   20.60    6.30
   9  -6  -4   55.69    9.10
  -9  -6   4   63.49    8.30
   9  -6  -4   59.89    6.80
   9   6  -4   39.10    8.10
   8  -6  -4   25.20    4.80
   8  -6  -4   26.70    6.00
  -8  -6   4   30.10    6.40
   8   6  -4   31.70    7.00
   7  -6  -4    3.40    3.10
  -7  -6   4    9.20    4.00
   7  -6  -4    2.20    3.20
   7   6  -4    1.10    3.90
   6  -6  -4   46.50    6.70
   6  -6  -4   30.50    4.50
  -6  -6   4   48.50    6.90
   6   6  -4   32.90    6.10
  -5  -6   4   74.29    7.10
   5  -6  -4   67.59    6.20
   5   6  -4   74.69    7.10
   4  -6  -4  181.18    9.20
   4  -6  -4  198.98    9.40
  -4  -6   4  196.48   10.70
   4   6  -4  200.18   11.00
  -4   6   4  190.38   10.00
  -3  -6   4  851.91   28.40
   3  -6  -4  850.81   24.20
  -3   6   4  794.72   23.50
   3   6  -4  798.72   25.30
  -3   6   4  848.62   22.80
  -2  -6   4 1286.97   34.50
   2  -6  -4 1234.08   32.90
   2   6  -4 1254.97   37.20
  -2   6   4 1273.77   31.00
  -2   6   4 1189.58   31.70
  -1  -6   4 2275.17   55.89
   1  -6  -4 2233.18   54.49
  -1  -6   4 2661.43   66.09
   1   6  -4 2222.08   54.99
  -1   6   4 2166.78   52.79
  -1   6   4 2219.08   52.19
   0  -6   4 1977.30   49.10
   0  -6  -4 1940.71   47.80
   0  -6  -4 1974.00   45.80
   0   6   4 1992.70   46.00
   0   6  -4 1918.31   49.00
   0   6  -4 2001.40   48.40
  -1  -6  -4  419.66   15.10
  -1  -6  -4  417.16   13.60
   1  -6   4  441.46   15.70
   1   6   4  437.86   14.10
  -1   6  -4  433.46   15.30
  -1   6  -4  435.46   16.60
  -2  -6  -4  913.51   25.60
   2  -6   4  924.01   26.10
  -2   6  -4  867.21   25.70
  -2   6  -4  886.01   25.20
   2   6   4  894.61   24.90
  -3  -6  -4  226.68   10.30
   3  -6   4  235.18   10.50
  -3  -6  -4  224.38   10.20
  -3   6  -4  214.78   10.00
  -3   6  -4  227.28   10.70
   3   6   4  226.78   10.30
   4  -6   4   -1.80    2.10
   4  -6   4    1.60    2.20
  -4  -6  -4   -0.90    2.00
   4   6   4    0.30    2.10
  -4   6  -4    1.30    2.70
   5  -6   4   90.59    8.00
   5  -6   4   90.99    6.60
  -5  -6  -4   98.99    7.20
   5   6   4  114.19    8.30
  -5   6  -4  104.29    7.10
  -6  -6  -4   96.29    7.40
   6  -6   4   89.19    8.80
   6  -6   4   99.99    7.00
  -6   6  -4   91.69    7.10
   6   6   4   95.99    8.70
   7  -6   4   68.19    6.10
   7  -6   4   76.19    9.40
  -7  -6  -4   68.49    6.80
  -7   6  -4   69.09    6.70
   7   6   4   83.49   10.60
   8  -6   4   77.99    5.60
   8  -6   4   71.99    9.90
  -8  -6  -4   85.39    7.60
   8   6   4   90.39   11.30
  -9  -6  -4   86.89    7.90
   9  -6   4   72.49   10.30
   9   6   4  108.49   13.70
  10   6   4   62.59   11.40
  10  -7  -4    0.60    6.60
 -10  -7   4   -0.90    7.40
  10   7  -4    1.10    7.00
  -9  -7   4    9.10    7.20
   9  -7  -4    2.80    5.60
   9  -7  -4    7.60    4.70
   9   7  -4   16.50    6.40
   8  -7  -4    3.00    5.00
   8  -7  -4    4.30    3.80
  -8  -7   4   -4.40    5.00
   8   7  -4    1.30    5.00
   7  -7  -4   -1.50    3.50
  -7  -7   4   -1.20    4.30
   7  -7  -4    3.10    3.90
   7   7  -4   -0.10    3.90
  -6  -7   4    2.90    3.70
   6  -7  -4    2.00    3.00
   6  -7  -4    3.00    3.30
   6   7  -4    3.40    3.30
   5  -7  -4   38.80    5.60
   5  -7  -4   30.00    5.20
  -5  -7   4   35.30    6.30
   5   7  -4   34.90    6.30
  -4  -7   4   48.20    6.70
   4  -7  -4   36.40    4.90
   4   7  -4   35.20    5.50
  -3  -7   4  207.98   11.40
   3  -7  -4  193.28   10.10
   3   7  -4  205.98   11.20
  -3   7   4  201.98    9.20
  -3   7   4  190.48   10.20
   2  -7  -4  251.27   11.70
  -2  -7   4  264.27   12.80
   2   7  -4  268.37   12.50
  -2   7   4  275.07   10.70
  -2   7   4  266.97   11.50
  -1  -7   4    0.00    2.10
   1  -7  -4    1.60    2.10
   1   7  -4   -0.30    1.70
  -1   7   4    1.60    1.60
   0  -7  -4    6.00    2.40
   0  -7   4    4.80    2.70
   0   7   4    7.40    2.40
   0   7  -4    6.40    2.10
  -1  -7  -4   49.00    4.90
  -1  -7  -4   44.20    5.80
   1  -7   4   43.20    5.70
   1   7   4   44.80    4.50
  -1   7  -4   48.30    6.10
  -2  -7  -4    4.60    2.60
  -2  -7  -4    1.60    1.80
   2  -7   4    4.10    2.50
   2   7   4    1.10    1.90
  -2   7  -4    4.30    2.50
  -3  -7  -4   67.39    6.20
   3   7   4   67.49    5.90
  -3   7  -4   62.89    6.10
  -4  -7  -4  103.69    7.90
   4   7   4  118.89    8.40
  -4   7  -4  113.69    8.40
   5  -7   4   57.79    6.40
  -5  -7  -4   65.09    6.90
   5  -7   4   54.79    8.10
   5   7   4   70.09    7.30
  -6  -7  -4   21.10    4.90
   6  -7   4   24.40    4.80
   6  -7   4   11.40    4.60
   6   7   4   19.80    5.40
   7  -7   4    7.60    4.50
  -7  -7  -4   10.90    4.60
   7  -7   4    8.20    3.80
   7   7   4    7.50    5.00
  -8  -7  -4    4.90    4.70
   8  -7   4    5.30    5.10
   8  -7   4    7.40    4.00
   8   7   4    3.80    5.30
   9  -7   4   -4.50    6.00
   9   7   4    9.90    6.50
  10  -7   4   -0.30    7.20
  10   7   4   -1.30    8.50
  -9  -8   4   48.40    9.60
   9  -8  -4   55.99    9.50
   9  -8  -4   41.90    6.90
   9   8  -4   35.10    9.80
   8  -8  -4   -4.00    5.00
  -8  -8   4   11.00    6.30
   8  -8  -4    6.60    5.20
   8   8  -4    0.00    6.20
  -7  -8   4    1.60    5.30
   7  -8  -4    7.50    5.00
   7  -8  -4   12.60    4.60
   7   8  -4    6.20    5.40
   6  -8  -4    8.60    4.30
  -6  -8   4    7.70    4.90
   6  -8  -4    1.10    3.80
   6   8  -4    5.00    5.30
   5  -8  -4  102.19    8.20
  -5  -8   4   96.09    9.40
   5   8  -4   85.99    9.10
  -5   8   4  119.19    8.40
   4  -8  -4  275.87   13.20
  -4  -8   4  277.07   14.80
  -4   8   4  293.87   12.60
   4   8  -4  259.17   14.30
  -3  -8   4  574.54   22.00
   3  -8  -4  582.34   20.70
   3   8  -4  612.74   22.30
  -3   8   4  580.74   19.10
  -2  -8   4  655.93   23.70
   2  -8  -4  643.84   22.30
   2   8  -4  698.93   23.40
  -2   8   4  654.93   20.40
   1  -8  -4  549.74   19.70
  -1  -8   4  596.34   21.40
  -1   8   4  519.55   18.40
   1   8  -4  552.64   20.10
  -1   8   4  548.55   17.80
   0  -8   4  453.35   18.10
   0  -8  -4  424.86   17.00
   0   8  -4  436.76   17.10
   0   8   4  434.06   16.10
   0   8   4  454.05   15.60
  -1  -8  -4  345.97   14.80
   1  -8   4  336.17   15.30
  -1   8  -4  350.16   14.80
   1   8   4  356.76   14.10
  -2  -8  -4  103.69    8.10
   2  -8   4  116.49    8.80
  -2   8  -4  118.39    8.30
   2   8   4  117.79    7.90
   3  -8   4   83.29    7.50
  -3  -8  -4   77.79    7.30
   3   8   4   73.09    6.90
  -3   8  -4   81.39    7.50
   4  -8   4    1.80    3.00
  -4  -8  -4   -0.70    3.00
  -4   8  -4    5.20    3.20
   4   8   4   -0.90    2.90
  -5  -8  -4    6.80    3.80
   5  -8   4    0.10    3.50
   5   8   4    5.40    3.80
  -5   8  -4    2.90    3.50
   6  -8   4   17.70    6.00
   6  -8   4   21.10    5.10
  -6  -8  -4   13.80    4.90
   6   8   4   15.30    5.20
  -7  -8  -4   37.60    7.00
   7  -8   4   44.50    8.20
   7  -8   4   45.60    6.70
   7   8   4   32.80    7.30
   8  -8   4   30.50    7.90
  -8  -8  -4   24.20    6.90
   8   8   4   21.50    6.80
   9  -8   4   58.69   15.30
  -9  -8  -4   44.20    8.20
   9   8   4   25.50    8.40
   9  -9  -4   36.70    8.70
   9  -9  -4   26.30    7.50
  -9  -9   4   25.30   10.10
   9   9  -4   18.70    9.00
   8  -9  -4   42.00    7.30
  -8  -9   4   47.70    9.80
   8  -9  -4   47.10    8.40
   8   9  -4   55.29    9.10
   7  -9  -4  123.79   10.70
  -7  -9   4  127.89   19.90
  -7   9   4  131.09   14.30
   7   9  -4  119.59   12.40
  -6  -9   4  169.08   13.60
   6  -9  -4  187.88   12.10
  -6   9   4  202.38   12.70
   6   9  -4  166.68   13.40
  -5  -9   4  188.38   13.70
   5  -9  -4  181.28   11.70
  -5   9   4  207.78   11.60
   5   9  -4  185.18   13.20
  -4  -9   4  204.18   13.80
   4  -9  -4  224.98   12.60
   4   9  -4  235.28   14.20
  -4   9   4  222.48   11.60
  -3  -9   4  121.59   10.20
   3  -9  -4  123.29    9.60
   3   9  -4  116.69    9.70
  -3   9   4  123.89    8.40
   2  -9  -4   67.59    7.40
  -2  -9   4   71.89    9.10
   2   9  -4   72.69    7.60
  -2   9   4   74.19    6.50
   1  -9  -4   10.50    4.10
  -1  -9   4    0.50    3.60
  -1   9   4    7.80    3.00
   1   9  -4    2.60    2.60
   0  -9   4   65.39    8.20
   0  -9  -4   86.69    7.70
   0   9   4   70.49    6.50
   0   9  -4   63.89    6.80
   1  -9   4  140.89   10.50
  -1  -9  -4  171.38   10.80
  -1   9  -4  176.68   10.80
   1   9   4  160.18    9.60
   2  -9   4  235.88   13.30
  -2  -9  -4  240.28   13.10
  -2   9  -4  256.57   13.40
   2   9   4  226.08   12.10
  -3  -9  -4  240.18   13.40
   3  -9   4  238.88   13.20
  -3   9  -4  245.38   13.50
   3   9   4  258.17   13.10
  -4  -9  -4  318.17   16.00
   4  -9   4  326.17   15.90
  -4   9  -4  347.57   16.50
   4   9   4  321.77   15.80
  -5  -9  -4  288.17   15.10
   5  -9   4  266.47   14.40
  -5   9  -4  279.67   15.30
   5   9   4  254.17   15.10
  -6  -9  -4  156.58   12.00
   6  -9   4  147.59   11.30
  -6   9  -4  149.19   12.60
   6   9   4  149.99   12.40
  -7  -9  -4   68.49    9.70
   7  -9   4   76.19    8.90
  -7   9  -4   87.39   10.80
   7   9   4   67.29    9.60
  -8  -9  -4   15.90    7.80
   8  -9   4   23.30    7.00
   8  -9   4   32.70    7.00
   8   9   4   11.20    7.70
  -8 -10   4    9.90    9.00
   8 -10  -4   -2.30    6.70
   8  10  -4   -0.80    8.50
  -8  10   4    1.60    7.20
  -7 -10   4    4.10    7.00
   7 -10  -4   -5.60    5.30
  -7  10   4    4.70    6.30
   7  10  -4  -12.60    6.50
  -6 -10   4    1.40    6.30
   6  10  -4    8.20    6.20
  -6  10   4   15.00    6.20
  -5 -10   4   15.40    6.20
   5 -10  -4   13.10    5.80
  -5  10   4    6.80    4.70
   5  10  -4    4.50    5.60
  -4 -10   4    1.50    5.40
   4 -10  -4    6.40    4.80
  -4  10   4   17.60    5.10
   4  10  -4    5.60    4.90
  -3 -10   4   12.70    5.10
   3 -10  -4   21.30    5.60
  -3  10   4   10.30    4.20
   3  10  -4   17.80    6.10
   2 -10  -4   27.80    5.50
  -2 -10   4   23.70    5.90
   2  10  -4   30.00    6.30
  -2  10   4   20.50    4.90
   1 -10  -4    6.00    4.20
  -1 -10   4   -4.20    3.60
   1  10  -4    6.00    4.00
  -1  10   4    3.60    3.30
   0 -10   4   16.50    5.00
   0 -10  -4    8.40    3.90
   0  10   4   14.60    4.10
   0  10  -4   12.50    4.60
   1 -10   4    0.70    4.00
  -1 -10  -4    1.00    3.60
   1  10   4   -1.00    3.20
  -1  10  -4    1.40    3.60
   2 -10   4   -0.30    4.30
  -2 -10  -4    2.90    4.20
   2  10   4    5.80    3.70
  -2  10  -4    6.80    3.70
   3 -10   4    5.00    5.10
  -3 -10  -4    0.30    4.00
   3  10   4   -2.10    3.60
  -3  10  -4   -1.50    5.70
   4 -10   4    6.70    5.10
  -4 -10  -4    6.10    5.30
   4  10   4    4.60    4.50
  -4  10  -4    6.70    4.80
   5 -10   4   -5.70    4.80
  -5 -10  -4   -5.30    4.60
   5  10   4   -3.60    4.50
  -5  10  -4    4.70    5.00
   6 -10   4   13.80    6.00
  -6 -10  -4   15.40    7.90
   6  10   4    6.20    6.10
  -6  10  -4   12.40    6.30
   7 -10   4   -1.80    6.50
  -7 -10  -4    0.30    7.10
  -7  10  -4    9.10    6.30
   7  10   4    4.90    6.50
   8 -10   4    5.90    8.40
  -8 -10  -4   -4.50    8.60
   8  10   4    0.90   13.80
  -8  10  -4   -6.10    7.70
   7 -11  -4  131.69   14.20
  -7 -11   4  157.48   17.10
  -7  11   4  212.58   15.70
   7  11  -4  146.39   16.10
   6 -11  -4  176.18   14.10
  -6 -11   4  158.88   15.40
   6  11  -4  170.48   15.20
  -6  11   4  152.28   13.50
  -5 -11   4  261.07   18.10
   5 -11  -4  263.97   16.20
  -5  11   4  275.67   18.80
   5  11  -4  239.38   16.90
   4 -11  -4  127.19   12.00
  -4 -11   4  126.69   13.90
  -4  11   4  132.09   10.70
   4  11  -4  135.59   12.60
   3 -11  -4   39.60    7.50
  -3 -11   4   23.90    6.90
   3  11  -4   32.70    7.50
  -3  11   4   28.20    6.20
  -2 -11   4   37.80    9.70
   2 -11  -4   24.90    6.90
  -2  11   4   36.30    6.40
   2  11  -4   36.90    7.40
   1 -11  -4    1.80    4.30
  -1 -11   4   10.30    5.20
   1  11  -4    8.30    4.80
  -1  11   4   12.20    4.80
   0 -11   4   27.20    6.70
   0 -11  -4   37.80    7.50
   0  11  -4   33.90    6.80
   0  11   4   17.40    5.30
   1 -11   4   54.59    9.50
  -1 -11  -4   43.10    7.70
   1  11   4   45.00    7.40
  -1  11  -4   39.70    7.20
   2 -11   4  186.28   14.50
  -2 -11  -4  209.98   14.10
  -2  11  -4  199.48   13.50
   2  11   4  210.38   13.20
  -3 -11  -4  312.87   17.60
   3 -11   4  313.97   17.70
   3  11   4  304.97   16.50
  -3  11  -4  340.67   17.70
   4 -11   4  178.08   14.00
  -4 -11  -4  157.78   13.10
   4  11   4  163.58   13.00
  -4  11  -4  165.98   13.50
  -5 -11  -4  158.98   14.40
   5 -11   4  175.28   14.00
   5  11   4  168.78   14.10
  -5  11  -4  163.48   14.20
  -6 -11  -4  149.09   14.50
   6 -11   4  147.69   13.80
  -6  11  -4  177.18   15.20
   6  11   4  150.78   14.50
   7 -11   4   57.89   10.30
  -7 -11  -4   69.09   11.50
  -7  11  -4   73.99   11.80
   7  11   4   75.69   12.60
  -6 -12   4   -5.40    8.40
   6 -12  -4    1.00    7.30
   6  12  -4   13.40    8.60
  -6  12   4    7.30    7.40
   5 -12  -4   22.30    7.40
  -5 -12   4   30.70    9.50
   5  12  -4   17.60    7.80
  -5  12   4    4.70    6.50
   4 -12  -4   13.70    6.30
  -4 -12   4    9.30    8.00
  -4  12   4   18.00    6.40
   4  12  -4   20.00    7.00
   3 -12  -4   65.79    9.60
  -3 -12   4   71.29   11.00
   3  12  -4   74.99   10.50
  -2 -12   4  198.18   15.40
   2 -12  -4  146.19   13.00
  -2  12   4  174.28   12.30
   2  12  -4  167.48   14.00
  -1 -12   4  141.49   13.50
   1 -12  -4  135.79   12.70
   1  12  -4  144.49   12.60
  -1  12   4  146.39   11.30
   0 -12  -4  198.48   14.80
   0 -12   4  223.68   16.30
   0  12  -4  210.48   14.70
   0  12   4  209.68   13.50
   1 -12   4  217.78   15.90
  -1 -12  -4  189.68   15.00
  -1  12  -4  204.18   14.50
   1  12   4  210.28   13.80
   2 -12   4   70.29   10.40
  -2 -12  -4   66.39    9.50
   2  12   4   96.59   11.00
  -2  12  -4   91.99   11.00
   3 -12   4   73.99   10.80
  -3 -12  -4   81.79   11.60
   3  12   4   81.09   11.00
  -3  12  -4   49.30    8.00
   4 -12   4   11.00    7.30
  -4 -12  -4   18.10    7.20
  -4  12  -4   11.50    6.10
   4  12   4   10.60    6.90
  -5 -12  -4    6.90    7.50
   5 -12   4   19.50    7.80
   5  12   4   -0.60    7.10
  -5  12  -4   12.50    7.60
   4 -13  -4    2.60    8.30
   4  13  -4    3.50    6.90
  -4  13   4    7.20    7.10
  -3 -13   4    4.20    8.00
   3 -13  -4   -2.90    6.70
   3  13  -4    3.40    7.00
  -3  13   4    3.90    6.80
  -2 -13   4    7.80    7.90
   2 -13  -4    6.10    6.80
   2  13  -4   -0.50    6.00
  -2  13   4    7.80    6.30
  -1 -13   4    1.20    6.40
   1 -13  -4    2.40    6.10
  -1  13   4    0.60    5.80
   1  13  -4   -4.80    6.20
   0 -13  -4    8.90    6.70
   0 -13   4    4.80    6.50
   0  13   4    0.50    6.00
   0  13  -4    1.40    6.10
   1 -13   4   -0.80    6.90
  -1 -13  -4   -3.30    6.40
  -1  13  -4    0.80    6.80
   1  13   4   -6.30    5.80
   2 -13   4    7.00    7.30
  -2 -13  -4    1.80    6.70
  -2  13  -4    2.40    6.50
   2  13   4    3.00    6.70
  -3 -13  -4   11.90    7.30
   3 -13   4    2.40    7.20
  -3  13  -4    5.20    7.70
   3  13   4    6.00    7.20
   4 -13   4   -2.20    7.50
  -4 -13  -4    2.60    8.90
  -4  13  -4    4.20    6.70
   4  13   4   -3.90    7.30
   0  14   4  126.19   14.00
   0  14  -4  115.89   14.20
  11   0  -5    6.30    6.90
  10   0  -5    0.60    2.60
  10   0  -5   -1.90    4.90
   9   0  -5    5.80    4.00
   9   0  -5    1.60    2.40
   9   0  -5   -1.50    3.70
   8   0  -5    1.10    2.10
   8   0  -5   -0.30    3.30
   8   0  -5   -2.10    3.00
   7   0  -5    2.70    2.70
   7   0  -5   -0.90    1.90
   7   0  -5   -5.60    2.70
   6   0  -5   -1.70    2.20
   6   0  -5    1.30    1.70
   5   0  -5    2.60    1.90
   5   0  -5    1.90    1.40
  -5   0   5    3.70    2.30
   5   0  -5    2.40    1.60
   4   0  -5    1.80    1.60
  -4   0   5   -1.30    1.40
   4   0  -5    1.10    1.20
   4   0  -5    1.70    1.30
  -3   0   5   -0.50    1.00
   3   0  -5    1.80    1.00
   3   0  -5    0.20    0.90
   3   0  -5    0.70    1.30
   2   0  -5    0.70    0.80
   2   0  -5    1.70    1.30
   2   0  -5    0.00    0.60
   1   0  -5    0.10    0.90
   1   0  -5    0.30    0.40
   1   0  -5   -0.10    0.70
  -1   0   5    0.60    0.50
   0   0  -5    2.80    0.80
   0   0   5   -0.20    0.70
   0   0  -5   -0.10    0.80
   0   0  -5    0.00    0.40
   0   0  -5    0.20    0.60
   1   0   5    0.30    0.60
  -1   0  -5   -0.60    0.60
  -1   0  -5    1.20    0.70
  -1   0  -5    1.00    0.90
   2   0   5    0.80    0.90
  -2   0  -5    0.10    0.80
  -2   0  -5    0.70    0.70
  -2   0  -5    0.30    1.00
   3   0   5   -1.10    1.00
  -3   0  -5    0.30    1.40
  -3   0  -5   -1.10    0.80
  -3   0  -5   -0.30    0.60
  -4   0  -5    1.10    0.60
  -4   0  -5    0.50    0.70
   4   0   5    4.50    2.00
  -4   0  -5    1.10    2.20
   5   0   5    2.70    2.00
   6   0   5   -2.00    2.20
   7   0   5    0.20    2.70
   8   0   5   -0.80    3.60
   9   0   5   -0.80    4.40
  10   0   5   -2.70    5.20
  11   0   5   -0.30   10.20
  11  -1  -5   30.60    8.20
  11   1  -5   36.40    8.80
  10  -1  -5   64.29    9.60
  10  -1  -5   58.49    4.70
  10   1  -5   61.29    5.10
  10   1  -5   78.19   10.60
   9  -1  -5  119.39    7.90
   9  -1  -5  101.99   10.00
   9  -1  -5   99.59    5.90
   9   1  -5  114.99    6.50
   9   1  -5  103.89    7.90
   9   1  -5  108.19   10.40
   8  -1  -5  239.78   10.40
   8  -1  -5  244.98    9.30
   8  -1  -5  242.98   13.30
   8   1  -5  249.48    9.70
   8   1  -5  240.08   13.50
   7  -1  -5  391.76   14.00
   7  -1  -5  406.96   13.10
   7  -1  -5  414.96   16.80
   7   1  -5  421.46   14.20
   7   1  -5  408.96   17.00
   7   1  -5  442.66   13.90
   6  -1  -5  260.67   10.60
   6  -1  -5  278.27   10.00
   6  -1  -5  268.47   12.10
   6   1  -5  261.07   10.60
   6   1  -5  282.87   10.20
   6   1  -5  268.17   12.30
   5  -1  -5  146.59    6.60
   5  -1  -5  136.29    7.40
  -5  -1   5  137.29    7.80
   5  -1  -5  136.69    7.10
   5   1  -5  138.99    7.10
   5   1  -5  138.69    7.80
   5   1  -5  139.49    6.70
   4  -1  -5  132.99    6.80
   4  -1  -5  140.79    6.30
  -4  -1   5  143.69    7.10
   4  -1  -5  138.49    6.60
   4   1  -5  147.39    7.00
   4   1  -5  150.48    6.60
  -4   1   5  147.49    6.80
  -4   1   5  132.59    6.30
   4   1  -5  142.49    7.10
   3  -1  -5   41.00    3.20
   3  -1  -5   41.40    3.00
  -3  -1   5   40.20    3.30
  -3  -1   5   39.40    3.60
  -3   1   5   39.40    3.00
  -3   1   5   39.20    3.20
   3   1  -5   46.30    3.40
   3   1  -5   34.30    3.60
   3   1  -5   38.70    3.30
  -2  -1   5  371.26   11.80
  -2  -1   5  343.87   10.30
   2  -1  -5  367.46    9.60
   2  -1  -5  351.06   10.90
  -2   1   5  351.56    9.50
   2   1  -5  366.36   11.70
  -2   1   5  371.86   11.10
   2   1  -5  357.36   10.60
   1  -1  -5 1621.84   33.80
  -1  -1   5 1564.24   35.60
  -1  -1   5 1650.03   37.80
   1  -1  -5 1538.25   36.60
   1   1  -5 1627.74   37.50
   1   1  -5 1612.24   35.80
  -1   1   5 1575.34   36.60
  -1   1   5 1605.74   33.70
   0  -1   5 1582.74   37.90
   0  -1  -5 1633.34   34.60
   0  -1  -5 1596.04   37.20
   0   1   5 1612.54   37.20
   0   1   5 1717.43   34.60
   0   1  -5 1665.83   36.50
   0   1  -5 1680.63   38.00
   1  -1   5 3084.59   68.19
  -1  -1  -5 3125.99   67.59
  -1  -1  -5 3166.58   66.69
   1  -1   5 3167.88   67.99
   1   1   5 3158.58   66.69
  -1   1  -5 3074.29   68.09
   1   1   5 3094.89   67.59
  -1   1  -5 3139.29   67.99
  -2  -1  -5 2622.84   58.39
   2  -1   5 2664.23   59.29
  -2  -1  -5 2607.54   57.39
  -2   1  -5 2673.13   59.29
  -2   1  -5 2660.83   57.89
   2   1   5 2653.83   57.59
   2   1   5 2697.83   58.59
  -3  -1  -5 1723.43   38.30
  -3  -1  -5 1655.53   40.10
   3  -1   5 1670.23   40.60
  -3   1  -5 1717.53   37.40
  -3   1  -5 1683.03   40.70
   3   1   5 1704.03   37.50
   3   1   5 1729.13   40.40
  -4  -1  -5  670.33   19.90
  -4  -1  -5  674.13   15.80
   4  -1   5  666.63   20.20
   4   1   5  665.33   15.80
  -4   1  -5  672.43   15.40
  -4   1  -5  656.33   15.40
  -4   1  -5  665.43   20.20
   4   1   5  678.33   20.10
  -5  -1  -5  420.96   17.20
   5  -1   5  351.76   19.40
  -5  -1  -5  426.76    9.60
  -5  -1  -5  425.36    9.70
   5   1   5  419.06   15.60
   6  -1   5   21.20    4.30
   6   1   5   24.80    5.00
   7  -1   5   76.69    7.60
   7   1   5   94.09    8.20
   8  -1   5   32.80    6.60
   8   1   5   39.40    7.10
   9  -1   5   17.30    5.60
   9   1   5   17.40    5.60
  10   1   5    8.10    5.90
  11   1   5   59.09   16.80
  11  -2  -5   11.40    7.30
  11   2  -5   13.50    7.30
  10  -2  -5   11.20    2.90
  10  -2  -5   16.20    6.90
  10   2  -5   17.20    6.60
  10   2  -5   10.50    3.50
   9  -2  -5    2.60    4.20
   9  -2  -5    1.20    2.50
   9  -2  -5    5.00    4.30
   9   2  -5    4.20    3.00
   9   2  -5   -0.30    4.50
   8  -2  -5   46.20    7.10
   8  -2  -5   48.30    4.60
   8   2  -5   37.80    6.20
   8   2  -5   44.00    5.50
   8   2  -5   45.40    5.00
   7  -2  -5   79.69    7.20
   7  -2  -5   74.99    5.30
   7  -2  -5   77.59    8.60
   7   2  -5   68.49    7.10
   7   2  -5   81.09    6.70
   7   2  -5   76.09    5.50
   6  -2  -5  412.46   14.70
   6  -2  -5  450.25   16.50
   6  -2  -5  445.86   14.00
   6   2  -5  441.06   14.40
   6   2  -5  474.15   17.50
   5  -2  -5  560.54   17.50
   5  -2  -5  565.04   16.30
  -5  -2   5  574.24   17.70
  -5  -2   5  554.24   18.10
  -5   2   5  535.85   23.20
  -5   2   5  524.05   16.10
   5   2  -5  541.75   18.50
   5   2  -5  557.04   17.00
  -4  -2   5  926.81   24.90
   4  -2  -5  883.11   23.40
  -4  -2   5  940.71   25.10
   4  -2  -5  938.91   24.00
   4   2  -5  895.61   24.30
   4   2  -5  894.51   25.20
  -4   2   5  890.01   23.60
  -4   2   5  924.61   23.90
   3  -2  -5 1841.72   41.60
  -3  -2   5 1827.22   42.90
   3  -2  -5 1864.31   42.50
  -3  -2   5 1831.02   43.80
  -3   2   5 1802.92   42.50
   3   2  -5 1837.22   43.30
  -3   2   5 1844.42   41.60
   3   2  -5 1790.22   43.20
   2  -2  -5 1922.41   43.90
   2  -2  -5 1946.51   41.70
  -2  -2   5 1916.11   43.60
  -2  -2   5 1949.01   45.10
  -2   2   5 1888.81   43.90
   2   2  -5 1851.41   44.50
   2   2  -5 1913.61   44.00
  -2   2   5 1908.61   41.70
   1  -2  -5 1176.68   28.30
  -1  -2   5 1156.58   27.80
  -1  -2   5 1170.38   29.30
   1   2  -5 1195.88   28.10
  -1   2   5 1161.78   28.30
  -1   2   5 1205.08   25.10
   1   2  -5 1196.68   29.10
  -1   2   5 1160.98   25.00
   0  -2  -5  199.38    7.30
   0  -2   5  207.78    7.90
   0  -2  -5  206.58    5.00
   0   2  -5  202.48    7.50
   0   2  -5  195.98    7.60
   0   2   5  210.78    5.10
   0   2   5  209.88    7.40
   0   2  -5  208.18    7.20
   1  -2   5  427.26   12.80
  -1  -2  -5  440.56   11.00
   1  -2   5  424.26   12.60
  -1  -2  -5  426.36   12.10
   1   2   5  434.36   11.10
  -1   2  -5  425.46   12.80
  -1   2  -5  412.96   12.40
   1   2   5  428.56   12.20
   2  -2   5    9.90    2.20
   2  -2   5    7.80    1.70
  -2  -2  -5   11.90    2.00
  -2  -2  -5    9.00    1.60
   2   2   5    9.60    1.80
   2   2   5    7.50    1.60
  -2   2  -5    8.30    1.60
  -2   2  -5    7.60    2.00
  -3  -2  -5   12.40    2.50
   3  -2   5    5.30    1.50
  -3  -2  -5    9.50    1.70
   3  -2   5    5.90    1.70
   3   2   5    7.00    2.00
   3   2   5    5.00    1.40
  -3   2  -5    9.60    2.70
  -3   2  -5    7.50    1.50
  -4  -2  -5  197.48    6.50
   4  -2   5  192.28    9.10
  -4  -2  -5  181.18    9.70
   4  -2   5  175.78    6.20
  -4   2  -5  180.78    9.20
   4   2   5  187.68    6.40
  -4   2  -5  175.78    5.90
   4   2   5  188.18    8.80
   5  -2   5  547.95   19.30
  -5  -2  -5  589.34   17.60
  -5   2  -5  569.54   13.30
  -5   2  -5  593.74   13.40
   5   2   5  573.14   14.30
   5   2   5  578.44   19.40
  -6  -2  -5  194.98    5.40
   6  -2   5  196.38   11.00
   6   2   5  182.38   10.50
   7  -2   5  266.37   14.10
   7   2   5  303.17   14.90
   8  -2   5  132.99   10.90
   8   2   5  142.49   11.00
   9  -2   5  114.39   12.90
   9   2   5  121.09   11.50
  10  -2   5  111.89   13.40
  10   2   5  127.79   12.90
  11  -2   5   13.10    7.70
  11   2   5    3.00   10.50
  11  -3  -5   -4.00    6.40
  11   3  -5   -4.20    7.00
  10  -3  -5   -4.40    5.30
  10  -3  -5   -0.60    3.20
  10   3  -5    0.40    3.70
  10   3  -5    4.40    5.10
   9  -3  -5    0.90    2.90
   9  -3  -5    4.20    5.10
   9  -3  -5   -0.60    4.30
   9   3  -5   -2.40    4.50
   9   3  -5    0.50    3.10
   8  -3  -5    6.30    2.60
   8  -3  -5    7.40    4.20
   8  -3  -5    4.00    4.20
   8   3  -5    6.40    2.70
   8   3  -5    5.10    3.80
   8   3  -5    9.20    5.60
   7  -3  -5   16.30    4.30
   7  -3  -5   17.40    3.20
   7  -3  -5   16.40    3.90
   7   3  -5   11.00    3.60
  -7   3   5   19.90    3.90
   7   3  -5   20.50    3.70
   7   3  -5   22.70    4.50
  -6  -3   5    6.00    2.90
   6  -3  -5   12.50    2.70
   6   3  -5    6.60    3.00
   6   3  -5    7.80    3.40
  -6   3   5   11.40    3.20
   5  -3  -5    2.70    1.80
   5  -3  -5    3.20    1.70
  -5  -3   5    4.00    1.90
   5   3  -5    1.10    2.00
   5   3  -5    0.90    2.50
  -5   3   5    6.50    2.70
   4  -3  -5    7.30    1.90
  -4  -3   5    3.70    1.80
  -4  -3   5    7.00    2.60
   4  -3  -5    9.80    2.20
   4   3  -5    5.50    2.30
  -4   3   5    6.00    2.00
  -4   3   5    6.00    2.00
  -3  -3   5   39.00    4.70
   3  -3  -5   33.20    2.80
   3  -3  -5   31.40    3.10
  -3  -3   5   27.90    3.50
  -3   3   5   30.00    2.90
   3   3  -5   23.20    3.30
   3   3  -5   41.00    4.60
  -3   3   5   36.10    3.60
  -2  -3   5   49.10    4.00
  -2  -3   5   53.79    4.30
   2  -3  -5   64.69    4.20
   2  -3  -5   56.59    3.00
  -2   3   5   57.09    4.10
   2   3  -5   55.39    4.10
   2   3  -5   56.29    4.40
   1  -3  -5   62.39    4.00
  -1  -3   5   70.09    4.70
  -1  -3   5   68.29    4.20
  -1   3   5   65.29    4.30
  -1   3   5   66.29    2.70
   1   3  -5   62.49    4.10
   1   3  -5   60.69    4.40
  -1   3   5   71.09    2.80
   0  -3  -5  102.09    3.60
   0  -3   5   95.19    5.40
   0  -3  -5  105.29    5.20
   0   3  -5  115.59    5.80
   0   3   5  100.19    3.60
   0   3   5   95.69    5.10
   0   3  -5  110.79    5.70
   0   3  -5   96.39    5.00
  -1  -3  -5   63.29    3.60
   1  -3   5   62.19    4.30
  -1  -3  -5   68.79    4.10
   1   3   5   71.89    4.30
  -1   3  -5   71.09    4.70
   1   3   5   65.99    3.30
  -1   3  -5   65.99    4.20
  -1   3  -5   58.39    4.10
  -2  -3  -5  385.96   11.70
   2  -3   5  394.56   12.20
  -2  -3  -5  379.26   11.50
  -2   3  -5  394.36   11.90
   2   3   5  393.46   11.80
  -2   3  -5  392.86   13.30
   2   3   5  360.76   11.50
  -3  -3  -5   31.00    3.70
   3  -3   5   24.00    2.90
   3  -3   5   19.00    3.30
  -3  -3  -5   25.70    2.60
  -3   3  -5   16.00    2.90
  -3   3  -5   29.70    3.20
   3   3   5   24.10    2.90
   3   3   5   31.40    4.00
  -4  -3  -5  106.19    5.10
   4  -3   5  103.29    6.80
   4  -3   5  112.49    5.20
  -4  -3  -5  105.19    6.70
  -4   3  -5   89.19    7.00
   4   3   5   97.29    6.30
   4   3   5   98.19    5.10
  -4   3  -5  103.29    4.80
   5  -3   5   43.00    3.20
  -5  -3  -5   47.00    3.50
   5  -3   5   39.70    5.40
   5   3   5   41.70    3.50
  -5   3  -5   46.00    3.00
  -6  -3  -5   11.30    2.20
   6  -3   5    9.80    3.00
   6   3   5   11.50    2.10
   6   3   5   13.90    3.90
  -6   3  -5   11.40    1.50
  -6   3  -5   12.10    1.40
  -7  -3  -5   25.20    2.50
   7  -3   5   19.00    4.80
   7   3   5   25.30    2.30
   7   3   5   24.70    5.20
   8  -3   5    6.90    4.60
   8   3   5    3.00    4.00
   9  -3   5   -0.30    4.30
   9   3   5    3.80    5.20
  10  -3   5    8.50    5.70
  10   3   5    3.80    6.50
  11  -3   5   -0.10    6.60
  11   3   5  -10.70    7.30
  11  -4  -5   -9.40    6.60
  11   4  -5    6.40   10.00
  10  -4  -5   -1.10    5.70
  10  -4  -5   10.90    4.00
  10   4  -5    0.10    5.90
  10   4  -5    1.80    4.30
   9  -4  -5   -0.30    4.70
   9  -4  -5    4.00    3.10
   9  -4  -5   -5.40    7.80
   9   4  -5    6.50    5.20
   8  -4  -5    5.60    2.80
   8  -4  -5    2.00    3.60
   8   4  -5    6.30    3.00
   8   4  -5    3.60    4.00
   7  -4  -5  165.58   10.00
  -7  -4   5  147.69    9.50
   7  -4  -5  149.79    7.90
  -7   4   5  148.79    8.90
   7   4  -5  134.69   10.30
   6  -4  -5  657.23   21.20
   6  -4  -5  644.14   19.30
  -6  -4   5  668.33   21.60
  -6   4   5  645.44   19.80
   6   4  -5  646.94   23.10
   5  -4  -5  515.25   16.60
  -5  -4   5  501.45   17.60
   5  -4  -5  536.95   16.20
  -5   4   5  457.55   15.90
  -5   4   5  477.05   16.50
   5   4  -5  509.95   17.00
   5   4  -5  498.75   18.30
  -4  -4   5 1402.36   36.70
   4  -4  -5 1417.86   35.00
   4  -4  -5 1427.46   34.70
  -4   4   5 1368.36   34.70
  -4   4   5 1372.56   35.00
   4   4  -5 1416.96   35.90
   4   4  -5 1386.96   37.10
  -3  -4   5  542.35   17.20
   3  -4  -5  548.55   16.60
   3  -4  -5  561.14   15.50
  -3  -4   5  569.44   18.00
   3   4  -5  558.24   17.90
  -3   4   5  516.05   16.60
   3   4  -5  533.75   17.20
  -3   4   5  547.65   15.60
  -2  -4   5 1318.37   33.60
   2  -4  -5 1356.56   33.60
  -2  -4   5 1358.16   34.90
   2   4  -5 1316.57   34.20
  -2   4   5 1366.46   31.50
   2   4  -5 1410.16   34.60
  -2   4   5 1349.56   31.00
   1  -4  -5  604.84   17.30
  -1  -4   5  563.24   17.00
  -1  -4   5  608.64   18.30
  -1   4   5  578.74   14.60
   1   4  -5  588.14   17.50
   1   4  -5  601.34   17.90
  -1   4   5  573.14   17.20
  -1   4   5  579.84   15.00
   0  -4  -5 1069.69   24.70
   0  -4   5 1063.99   28.10
   0  -4  -5 1055.19   27.10
   0   4  -5 1047.10   27.50
   0   4   5 1087.59   24.80
   0   4  -5 1083.09   28.20
   0   4   5 1028.90   27.20
   0   4  -5 1076.79   27.60
  -1  -4  -5  133.69    6.40
  -1  -4  -5  131.29    5.40
   1  -4   5  140.69    7.00
   1   4   5  138.99    6.80
   1   4   5  137.59    5.60
  -1   4  -5  135.49    7.20
  -1   4  -5  124.09    6.50
  -1   4  -5  140.19    6.80
   2  -4   5    3.30    1.80
   2  -4   5    2.00    1.50
  -2  -4  -5    3.90    1.50
  -2  -4  -5    1.90    1.30
   2   4   5    2.50    1.60
   2   4   5    4.40    1.50
  -2   4  -5    2.10    1.80
  -2   4  -5    0.30    1.90
   3  -4   5   14.10    2.60
  -3  -4  -5    8.40    2.30
  -3  -4  -5   17.80    2.80
   3  -4   5   13.70    3.10
   3   4   5   13.10    2.90
  -3   4  -5   11.40    2.40
  -3   4  -5    8.60    2.80
   3   4   5   11.70    2.50
  -4  -4  -5  421.06   14.80
  -4  -4  -5  437.56   13.60
   4  -4   5  430.76   13.50
   4  -4   5  421.36   15.90
   4   4   5  426.46   13.40
  -4   4  -5  416.76   13.00
   4   4   5  431.86   15.40
   5  -4   5  430.76   13.00
  -5  -4  -5  433.06   13.70
   5  -4   5  440.86   17.00
   5   4   5  426.76   16.40
   5   4   5  425.16   13.20
  -5   4  -5  414.86   12.50
   6  -4   5  316.57   15.10
  -6  -4  -5  340.17   11.40
   6  -4   5  328.97   10.20
  -6   4  -5  308.97    9.80
   6   4   5  339.47   15.20
   6   4   5  321.57   10.90
   7  -4   5  573.94   22.20
  -7  -4  -5  537.65   15.40
   7   4   5  526.35   14.80
  -7   4  -5  546.75   12.30
  -7   4  -5  528.75   12.30
   7   4   5  557.04   21.80
  -8  -4  -5  259.67    8.00
   8  -4   5  275.07   15.70
   8   4   5  280.37    8.40
   8   4   5  282.27   15.90
   9  -4   5  152.08   12.90
   9   4   5  186.68   14.20
  10  -4   5   91.39   12.70
  10   4   5   73.99   11.40
  11  -4   5   23.30    9.30
  11   4   5   16.60    8.70
  11  -5  -5   24.60    8.40
  11   5  -5   23.40    8.30
  10  -5  -5    2.60    4.40
  10  -5  -5    5.80    6.10
  10   5  -5   12.30    7.60
  10   5  -5   12.90    5.10
   9  -5  -5   49.40    6.60
   9  -5  -5   56.19    8.80
   9   5  -5   53.99    9.50
   9   5  -5   47.90    6.80
   8  -5  -5  221.98   13.10
  -8  -5   5  212.98   12.20
   8   5  -5  213.78   15.20
  -7  -5   5   52.29    6.90
   7  -5  -5   67.49    6.20
   7  -5  -5   72.59    7.10
   7   5  -5   63.69    9.10
   6  -5  -5  190.88    9.30
  -6  -5   5  197.08   11.00
   6  -5  -5  177.38    9.80
   6   5  -5  176.48   11.30
   5  -5  -5    6.10    2.50
  -5  -5   5    3.50    3.00
   5  -5  -5    4.60    2.30
  -5   5   5    1.20    3.10
   5   5  -5    3.90    2.80
  -4  -5   5  147.49    9.00
   4  -5  -5  154.88    7.60
   4  -5  -5  156.68    8.00
  -4   5   5  154.78    8.10
   4   5  -5  156.38    9.20
   3  -5  -5  193.88    8.00
  -3  -5   5  189.28    9.80
   3  -5  -5  186.78    8.70
   3   5  -5  189.48    9.80
  -3   5   5  181.78    8.00
  -3   5   5  171.98    8.70
  -2  -5   5  177.98    8.90
   2  -5  -5  190.88    8.80
  -2  -5   5  194.48    9.70
  -2   5   5  198.68    7.20
  -2   5   5  196.48    7.70
   2   5  -5  192.28    9.20
   2   5  -5  186.88    9.20
  -2   5   5  191.18    9.00
   1  -5  -5   38.50    3.90
  -1  -5   5   36.60    4.70
  -1  -5   5   43.50    4.50
  -1   5   5   40.90    3.30
   1   5  -5   30.00    4.20
  -1   5   5   40.30    2.90
  -1   5   5   33.30    4.40
   1   5  -5   38.60    4.00
   0  -5  -5  356.26   12.70
   0  -5   5  358.76   13.40
   0  -5  -5  339.47   10.60
   0   5  -5  362.26   13.10
   0   5   5  365.26   12.90
   0   5   5  359.16   10.80
   0   5  -5  356.16   12.90
   0   5  -5  349.77   13.40
  -1  -5  -5  291.87   11.00
  -1  -5  -5  279.67    9.40
   1  -5   5  274.67   11.30
  -1   5  -5  286.17   11.20
  -1   5  -5  279.77   11.10
  -1   5  -5  280.67   11.90
   1   5   5  288.47    9.80
   1   5   5  286.87   11.10
  -2  -5  -5 1046.00   27.40
  -2  -5  -5 1025.10   26.30
   2  -5   5 1046.80   27.90
  -2   5  -5 1042.90   28.20
   2   5   5 1006.40   27.20
   2   5   5 1033.10   26.70
  -2   5  -5 1014.50   27.20
  -2   5  -5 1008.10   29.20
   3  -5   5 1017.40   27.40
  -3  -5  -5 1018.10   27.20
   3   5   5 1055.09   27.80
  -3   5  -5  972.50   28.00
   3   5   5  983.30   26.70
  -4  -5  -5   96.19    7.10
  -4  -5  -5  103.29    6.40
   4  -5   5  116.29    6.70
   4  -5   5  115.09    7.90
  -4   5  -5  101.09    6.30
   4   5   5  124.59    7.60
   4   5   5  105.89    6.70
   5  -5   5  230.48    9.60
   5  -5   5  220.78   11.80
  -5  -5  -5  228.88   10.00
  -5   5  -5  215.88    9.20
   5   5   5  229.08    9.80
   5   5   5  230.38   11.70
   6  -5   5   53.79    4.60
  -6  -5  -5   52.19    5.30
   6  -5   5   43.70    6.00
   6   5   5   53.39    5.50
   6   5   5   49.99    6.60
  -6   5  -5   49.40    4.90
  -7  -5  -5    6.40    2.90
   7  -5   5    8.90    4.20
   7  -5   5    7.80    2.50
   7   5   5   12.30    4.40
  -7   5  -5    5.40    2.50
  -8  -5  -5    5.40    3.10
   8  -5   5    1.70    4.00
   8   5   5    1.60    4.70
   8   5   5   -0.80    3.40
   9  -5   5   28.90    7.70
   9   5   5   42.40    8.30
  10  -5   5   83.29   12.50
  10   5   5   47.10   10.20
  10  -6  -5   13.20    6.10
  10  -6  -5   -5.60    5.00
  10   6  -5    2.60    5.70
  10   6  -5   -3.50    7.20
   9  -6  -5    0.80    5.00
   9  -6  -5    2.00    4.10
  -9  -6   5    3.80    5.40
   9   6  -5   -2.60    5.00
  -8  -6   5    4.60    4.60
   8  -6  -5    2.90    3.60
   8  -6  -5    9.00    5.00
   8   6  -5    0.70    4.40
  -7  -6   5   35.30    5.90
   7  -6  -5   25.40    5.50
   7  -6  -5   25.00    4.20
   7   6  -5   15.70    4.80
   6  -6  -5   13.30    4.00
   6  -6  -5   17.40    4.00
  -6  -6   5   14.00    4.20
   6   6  -5    8.70    3.70
   5  -6  -5   44.60    5.40
  -5  -6   5   41.90    6.30
   5   6  -5   51.39    7.60
   4  -6  -5   70.09    5.60
   4  -6  -5   66.89    5.80
  -4  -6   5   74.69    7.00
   4   6  -5   67.79    6.60
  -4   6   5   58.49    6.10
  -3  -6   5  149.19    9.10
  -3   6   5  131.29    6.60
  -3   6   5  127.39    7.30
   3   6  -5  152.28    9.10
  -2  -6   5  354.76   16.80
   2  -6  -5  372.66   14.00
  -2   6   5  372.96   12.70
  -2   6   5  378.16   12.00
   2   6  -5  368.76   14.50
   1  -6  -5  363.26   13.70
  -1  -6   5  366.66   14.70
  -1   6   5  355.66   11.60
  -1   6   5  377.56   12.30
   0  -6   5  142.99    8.50
   0  -6  -5  143.79    6.60
   0  -6  -5  145.29    8.00
   0   6   5  156.28    6.90
   0   6  -5  147.99    9.40
  -1  -6  -5   27.50    4.00
  -1  -6  -5   35.00    3.80
   1  -6   5   28.90    4.40
  -1   6  -5   50.59    6.70
   1   6   5   33.40    3.50
  -2  -6  -5    9.70    2.70
   2  -6   5   12.10    3.20
  -2  -6  -5   13.00    3.40
  -2   6  -5    7.60    2.50
   2   6   5    9.80    2.60
  -3  -6  -5   29.20    4.30
   3  -6   5   38.00    5.10
  -3  -6  -5   39.40    5.30
   3   6   5   37.80    5.20
  -3   6  -5   29.20    4.90
  -3   6  -5   45.00    6.10
   4  -6   5   10.80    3.20
  -4  -6  -5    8.60    3.00
   4  -6   5    4.40    2.70
  -4   6  -5   10.70    3.30
   4   6   5    8.40    3.00
  -5  -6  -5   34.20    5.00
   5  -6   5   26.60    4.30
   5  -6   5   35.20    6.50
  -5   6  -5   22.00    4.10
   5   6   5   30.10    5.60
   6  -6   5   31.60    5.70
   6  -6   5   24.10    4.10
  -6  -6  -5   19.20    4.20
  -6   6  -5   29.40    4.50
   6   6   5   22.30    4.80
  -7  -6  -5   34.50    5.30
   7  -6   5   22.70    8.80
   7  -6   5   17.10    3.70
  -7   6  -5   17.40    4.10
   7   6   5   24.20    6.00
   8  -6   5   25.00    6.90
  -8  -6  -5   38.90    5.50
   8  -6   5   42.00    4.10
   8   6   5   50.39    8.60
   9  -6   5   15.60    6.30
   9   6   5    7.50    5.80
  10  -6   5    9.20    7.30
  10   6   5   13.90    8.70
  10  -7  -5   73.69   11.20
  10   7  -5   61.09    9.40
  10   7  -5   73.89   12.80
   9  -7  -5  188.58   11.90
   9  -7  -5  209.98   14.60
  -9  -7   5  227.68   15.60
   9   7  -5  167.78   15.40
  -8  -7   5  223.88   14.80
   8  -7  -5  196.28   13.10
   8  -7  -5  213.38   11.70
   8   7  -5  213.58   15.60
   7  -7  -5   94.19    8.90
   7  -7  -5  100.29    8.40
  -7  -7   5   95.09   10.10
   7   7  -5  104.29   10.60
   6  -7  -5  110.99    8.20
   6  -7  -5  103.29    8.40
  -6  -7   5   99.49    9.90
   6   7  -5  115.39   10.00
   5  -7  -5   82.79    7.00
  -5  -7   5   77.59    8.30
   5  -7  -5   79.69    6.90
   5   7  -5   56.39    7.50
   4  -7  -5    4.80    2.70
  -4  -7   5    8.30    3.70
  -4   7   5    1.10    2.30
   4   7  -5    2.90    2.80
  -3  -7   5    8.40    3.50
   3  -7  -5    5.30    2.50
   3   7  -5    3.50    2.90
  -3   7   5   12.30    3.60
  -3   7   5    8.80    2.50
   2  -7  -5  306.87   13.20
  -2  -7   5  327.37   14.80
   2   7  -5  337.07   14.40
  -2   7   5  310.17   13.90
  -2   7   5  331.57   11.70
   1  -7  -5  442.16   16.30
  -1  -7   5  445.26   17.30
   1   7  -5  420.96   16.50
  -1   7   5  447.86   14.30
  -1   7   5  429.56   14.70
   0  -7  -5  831.52   25.40
   0  -7   5  876.31   26.80
   0   7  -5  837.72   25.80
   0   7   5  861.41   23.40
   0   7   5  830.92   23.60
  -1  -7  -5  779.02   24.10
   1  -7   5  833.02   25.80
  -1  -7  -5  800.72   24.70
  -1   7  -5  804.22   24.90
   1   7   5  804.42   22.90
  -2  -7  -5 1167.68   31.10
   2  -7   5 1180.68   33.60
  -2  -7  -5 1183.48   32.90
  -2   7  -5 1195.78   33.50
   2   7   5 1189.48   31.80
  -3  -7  -5 1385.56   37.70
   3  -7   5 1458.45   38.50
   3   7   5 1374.06   40.00
  -3   7  -5 1393.46   38.60
  -4  -7  -5  384.86   15.40
   4  -7   5  377.86   16.80
   4   7   5  387.36   16.00
  -4   7  -5  396.56   16.60
   5  -7   5  212.68   12.80
  -5  -7  -5  221.38   11.60
   5   7   5  234.08   12.60
  -6  -7  -5   61.19    7.20
   6  -7   5   56.89    8.30
   6  -7   5   63.59    6.80
   6   7   5   48.60    7.50
   7  -7   5   19.00    4.60
   7  -7   5   18.20    5.70
  -7  -7  -5   27.20    5.30
   7   7   5   21.70    6.60
  -8  -7  -5    6.40    5.00
   8  -7   5    1.50    4.90
   8  -7   5    4.00    3.90
   8   7   5   -1.00    5.40
   9  -7   5    6.50    7.60
   9   7   5    8.10    6.80
   9  -8  -5   -2.60    5.90
   9  -8  -5   -0.10    6.60
   9   8  -5    0.50    8.10
   8  -8  -5   -4.40    4.80
   8  -8  -5    6.40    4.90
  -8  -8   5    1.00    6.50
   8   8  -5    2.30    5.80
  -7  -8   5   28.00    7.50
   7  -8  -5   28.50    6.30
   7  -8  -5   31.70    5.80
   7   8  -5   35.00    7.90
   6  -8  -5  128.69    9.90
  -6  -8   5  152.48   12.10
   6  -8  -5  162.38   10.70
   6   8  -5  161.08   12.40
  -5  -8   5   90.89    9.50
   5  -8  -5   83.89    7.90
  -5   8   5   92.69    7.40
   5   8  -5   79.29    9.90
  -4  -8   5  287.07   15.50
   4  -8  -5  298.57   13.80
   4   8  -5  293.17   15.10
  -4   8   5  289.37   12.50
   3  -8  -5  173.28   10.20
  -3  -8   5  174.68   11.50
   3   8  -5  166.08   10.90
  -3   8   5  168.08    8.90
   2  -8  -5  254.57   12.50
  -2  -8   5  257.97   13.60
   2   8  -5  223.38   12.40
  -2   8   5  228.18   11.40
  -2   8   5  251.97   10.60
   1  -8  -5  122.99    8.80
  -1  -8   5  111.89    8.90
  -1   8   5  131.09    7.40
  -1   8   5  120.59    8.10
   1   8  -5  119.19    8.60
   0  -8  -5  128.99    8.80
   0  -8   5  136.59    9.70
   0   8   5  130.19    7.60
   0   8  -5  132.99    8.90
   0   8   5  138.39    8.50
  -1  -8  -5    2.70    3.00
   1  -8   5   -0.10    2.70
  -1  -8  -5    2.50    2.40
  -1   8  -5    2.20    2.30
   1   8   5    2.00    2.40
   2  -8   5   73.19    8.30
  -2  -8  -5   50.29    6.80
  -2   8  -5   59.39    7.30
   2   8   5   53.79    5.70
  -3  -8  -5   58.79    7.20
   3  -8   5   66.29    7.90
  -3   8  -5   69.19    7.20
   3   8   5   57.59    6.20
  -4  -8  -5  108.39    8.60
   4  -8   5  106.79    8.90
  -4   8  -5  118.19    9.30
   4   8   5  108.79    8.60
  -5  -8  -5   98.29    8.60
   5  -8   5   85.49    8.40
  -5   8  -5  124.89   10.30
   5   8   5  104.29    9.40
   6  -8   5   26.50    6.10
  -6  -8  -5   35.60    6.20
   6  -8   5   35.10    6.10
   6   8   5   34.20    6.90
   7  -8   5   70.49    9.20
   7  -8   5   71.89    8.10
  -7  -8  -5   74.19    8.90
   7   8   5   55.89    8.90
   8  -8   5   11.70    6.70
  -8  -8  -5    8.60    6.20
   8   8   5   38.00    9.10
   9  -8   5   16.90    8.30
   9   8   5   23.40    8.80
  -9  -9   5   52.89   11.20
   9  -9  -5   34.20    8.90
   9   9  -5   31.00    8.90
  -8  -9   5    6.60    7.80
   8  -9  -5    4.10    6.20
   8  -9  -5   17.10    6.90
   8   9  -5    6.00    6.60
  -7  -9   5    7.70    6.60
   7  -9  -5    8.70    5.20
  -7   9   5   10.10    5.50
   7   9  -5   18.50    6.50
  -6  -9   5   -4.80    5.20
   6  -9  -5    4.50    4.50
  -6   9   5    5.50    4.50
   6   9  -5   -2.80    4.70
  -5  -9   5   31.10    7.10
   5  -9  -5   25.40    5.70
  -5   9   5   32.00    5.70
   5   9  -5   22.80    6.70
  -4  -9   5   50.49    8.00
   4  -9  -5   53.79    7.50
  -4   9   5   69.29    7.60
   4   9  -5   58.79    8.50
  -3  -9   5    1.70    3.60
   3  -9  -5   -0.80    3.10
   3   9  -5    0.10    3.10
  -3   9   5   -0.50    2.70
   2  -9  -5   70.59    7.50
  -2  -9   5   79.59    9.50
   2   9  -5   62.29    8.50
  -2   9   5   59.29    5.80
  -1  -9   5   56.79    8.30
   1  -9  -5   61.79    7.70
  -1   9   5   63.49    5.90
   1   9  -5   67.99    8.40
   0  -9   5   16.90    4.90
   0  -9  -5   14.70    4.20
   0   9   5   15.80    4.00
   0   9  -5   21.90    5.10
   1  -9   5   21.10    4.90
  -1  -9  -5   25.00    5.50
   1   9   5   24.30    4.80
  -1   9  -5   19.40    5.00
   2  -9   5   34.40    6.40
  -2  -9  -5   33.90    6.00
   2   9   5   44.00    6.50
  -2   9  -5   38.10    6.20
   3  -9   5  525.25   20.90
  -3  -9  -5  513.55   20.50
  -3   9  -5  528.95   20.90
   3   9   5  477.05   19.20
  -4  -9  -5  354.36   16.80
   4  -9   5  376.66   17.00
  -4   9  -5  341.57   17.00
   4   9   5  354.66   16.70
  -5  -9  -5   65.69    8.30
   5  -9   5   67.39    8.60
  -5   9  -5   78.89   10.20
   5   9   5   67.69    9.20
   6  -9   5   65.39    8.60
  -6  -9  -5   63.79    8.80
   6   9   5   69.59   10.10
  -6   9  -5   44.40    8.00
  -7  -9  -5    5.10    6.10
   7  -9   5   -7.20    5.50
  -7   9  -5   -4.20    5.20
   7   9   5    4.80    5.90
  -8  -9  -5    3.00    7.10
   8  -9   5   -7.10    6.30
   8  -9   5   -8.40    6.40
   8   9   5   -0.50    7.50
   8 -10  -5   20.70    7.10
  -8 -10   5   12.70    8.80
   8  10  -5    9.80    8.60
  -8  10   5    5.00    7.50
  -7 -10   5   43.50   10.20
   7 -10  -5   34.40    7.60
   7  10  -5   35.80    8.90
  -7  10   5   32.10    7.70
   6 -10  -5   99.59   10.70
  -6 -10   5   90.09   12.20
   6  10  -5   89.99   12.20
  -6  10   5  102.99   10.50
  -5 -10   5  263.57   17.20
  -5  10   5  266.37   14.20
   5  10  -5  284.87   17.30
  -4 -10   5  339.97   21.00
   4 -10  -5  318.77   16.30
   4  10  -5  306.67   17.50
  -4  10   5  306.57   14.60
   3 -10  -5  296.37   15.60
  -3 -10   5  290.47   17.10
   3  10  -5  287.47   16.20
  -3  10   5  295.47   13.70
  -2 -10   5  388.26   19.20
   2 -10  -5  372.96   17.60
   2  10  -5  377.76   18.30
  -2  10   5  396.46   15.80
   1 -10  -5  389.86   17.90
  -1 -10   5  395.16   19.20
  -1  10   5  379.46   15.60
   1  10  -5  375.16   17.90
   0 -10   5  138.59   11.30
   0 -10  -5  125.59   10.20
   0  10   5  141.09    9.20
   0  10  -5  134.49   10.50
   1 -10   5  104.09   10.10
  -1 -10  -5   99.29    9.50
  -1  10  -5  105.09    9.50
   1  10   5  105.79    8.40
  -2 -10  -5   -1.00    3.50
   2 -10   5   10.00    4.20
  -2  10  -5    3.70    4.20
   2  10   5    4.20    4.00
   3 -10   5   21.00    5.70
  -3 -10  -5   21.40    5.70
  -3  10  -5   21.10    5.50
   3  10   5   31.30    6.30
   4 -10   5   37.90    7.30
  -4 -10  -5   33.10    7.20
  -4  10  -5   29.50    6.40
   4  10   5   25.50    6.40
  -5 -10  -5  141.19   18.10
   5 -10   5  166.98   12.80
  -5  10  -5  173.88   13.20
   5  10   5  160.18   15.00
   6 -10   5  219.68   14.80
  -6 -10  -5  221.68   15.10
   6  10   5  190.88   14.70
  -6  10  -5  190.98   14.80
   7 -10   5  174.08   14.50
  -7 -10  -5  166.58   15.10
  -7  10  -5  208.18   16.10
   7  10   5  136.99   14.30
   7 -11  -5   26.60    7.70
  -7 -11   5   18.30    9.90
  -7  11   5   34.80    8.60
   7  11  -5   25.80    9.00
   6 -11  -5   23.00    7.70
  -6 -11   5   27.90    9.90
   6  11  -5   33.10    9.20
  -6  11   5   36.30    8.10
   5 -11  -5    2.40    6.20
  -5 -11   5   13.90    7.10
  -5  11   5   18.90    6.50
   5  11  -5   16.90    6.60
   4 -11  -5    3.20    5.40
  -4 -11   5   -0.60    6.00
   4  11  -5   -3.30    4.60
  -4  11   5    3.10    4.90
  -3 -11   5    2.60    5.50
   3 -11  -5    5.10    5.20
   3  11  -5    1.90    5.20
  -3  11   5    2.40    4.40
  -2 -11   5    6.40    5.70
   2 -11  -5    5.30    4.60
  -2  11   5    8.20    4.60
   2  11  -5    6.20    5.10
  -1 -11   5    9.00    5.10
   1 -11  -5    2.60    4.20
  -1  11   5    6.20    4.40
   1  11  -5    5.50    5.00
   0 -11   5   58.69    8.90
   0 -11  -5   44.20    8.30
   0  11  -5   42.60    7.60
   0  11   5   55.49    7.90
   1 -11   5  105.19   11.50
  -1 -11  -5  130.69   11.60
  -1  11  -5  105.39   10.40
   1  11   5  115.79    9.90
   2 -11   5   36.20    7.40
  -2 -11  -5   47.00    8.40
  -2  11  -5   28.20    6.40
   2  11   5   42.80    7.60
   3 -11   5   24.00    6.70
  -3 -11  -5   18.90    6.70
   3  11   5   15.70    5.90
  -3  11  -5    6.30    5.00
  -4 -11  -5    5.90    5.90
   4 -11   5   16.10    6.20
   4  11   5    6.10    5.40
  -4  11  -5    7.00    5.80
   5 -11   5    7.00    6.60
  -5 -11  -5   18.90    7.40
   5  11   5   10.50    6.80
  -5  11  -5   19.00    6.90
   6 -11   5    3.10    7.40
  -6 -11  -5   -4.10    6.90
   6  11   5   -9.00    6.20
  -6  11  -5    2.00    7.10
  -6 -12   5   34.80   11.00
   6 -12  -5   40.20    9.20
   6  12  -5   31.60   10.30
  -6  12   5   50.19    9.40
   5 -12  -5   77.19   11.20
  -5 -12   5   85.59   13.10
   5  12  -5   97.59   14.40
  -5  12   5   69.09    9.80
  -4 -12   5  101.29   13.70
   4 -12  -5   55.09    9.50
  -4  12   5   76.69    9.60
   4  12  -5   64.79   10.00
   3 -12  -5   47.00    8.50
  -3 -12   5   54.39   10.40
   3  12  -5   69.19   11.10
  -3  12   5   46.70    7.70
  -2 -12   5   88.09   12.00
   2 -12  -5  112.59   13.30
   2  12  -5  115.39   12.00
  -2  12   5  100.29   10.30
  -1 -12   5  135.89   13.80
   1 -12  -5  134.79   12.70
   1  12  -5  155.78   13.10
  -1  12   5  149.79   11.40
   0 -12  -5   83.99   11.30
   0 -12   5   71.79   11.10
   0  12  -5   45.90    8.70
   0  12   5   53.09    8.10
   1 -12   5   16.20    7.20
  -1 -12  -5    1.70    5.20
   1  12   5    0.30    5.10
  -1  12  -5    3.90    5.50
   2 -12   5   25.10    7.00
  -2 -12  -5    7.10    6.30
  -2  12  -5   20.90    6.80
  -3 -12  -5   32.30    7.80
   3 -12   5   42.90    8.90
   3  12   5   48.10    8.50
  -3  12  -5   51.09    9.50
   4 -12   5    6.70    7.50
  -4 -12  -5    8.30    6.90
  -4  12  -5   14.00    6.90
   4  12   5   25.50    8.00
   5 -12   5   12.60    8.00
  -5 -12  -5   13.50    7.80
  -5  12  -5   27.30   12.70
   5  12   5   26.50    8.50
  -4 -13   5   -5.10    8.70
   4 -13  -5   10.70    8.60
   4  13  -5   19.50    8.50
  -4  13   5    4.70    7.30
  -3 -13   5   -2.40    8.30
   3 -13  -5   20.10    7.40
  -3  13   5   -2.30    6.90
   2 -13  -5   88.09   12.70
  -2 -13   5   95.59   13.60
   2  13  -5   83.69   12.30
  -2  13   5   99.09   11.40
  -1 -13   5  140.99   15.20
   1 -13  -5  122.39   14.20
  -1  13   5  150.58   12.90
   1  13  -5  119.09   13.70
   0 -13   5  278.47   19.70
   0 -13  -5  327.07   20.10
   0  13   5  353.76   18.00
   0  13  -5  301.77   18.80
  -1 -13  -5  363.76   21.10
   1 -13   5  349.87   21.60
   1  13   5  364.96   19.00
  -1  13  -5  316.57   19.60
  -2 -13  -5  207.48   16.10
   2 -13   5  194.18   17.10
  -2  13  -5  218.98   16.70
   2  13   5  221.38   15.70
   3 -13   5  136.29   15.00
  -3 -13  -5  156.18   15.20
  -3  13  -5  110.79   17.90
   3  13   5  171.48   15.00
  11   0  -6   25.60    8.00
  10   0  -6   65.19    5.80
  10   0  -6   49.90    9.20
   9   0  -6  191.18   10.80
   9   0  -6  223.98    9.60
   9   0  -6  233.78   14.20
   8   0  -6  406.06   13.30
   8   0  -6  353.56   16.60
   8   0  -6  325.47   13.50
   7   0  -6  693.03   19.80
   7   0  -6  630.74   20.10
   7   0  -6  709.23   23.50
   6   0  -6  728.13   20.60
   6   0  -6  726.83   23.10
  -5   0   6  948.41   26.10
   5   0  -6  966.90   26.60
   5   0  -6  913.11   25.80
   5   0  -6  981.60   25.30
  -4   0   6  437.96   13.80
   4   0  -6  446.46   13.90
   4   0  -6  450.95   14.20
   4   0  -6  424.16   14.50
  -3   0   6  359.76   10.90
   3   0  -6  349.87   12.30
   3   0  -6  366.76   11.10
   3   0  -6  355.26   11.70
  -2   0   6   83.89    3.70
   2   0  -6   80.59    3.70
   2   0  -6   73.89    4.80
   2   0  -6   80.99    4.60
  -1   0   6   48.30    2.30
   1   0  -6   54.59    3.50
   1   0  -6   47.00    3.80
   1   0  -6   46.90    2.30
   0   0  -6  301.77    8.10
   0   0  -6  303.57   10.20
   0   0  -6  285.27    7.80
   0   0  -6  294.37    9.50
   1   0   6  654.83   16.30
  -1   0  -6  651.83   16.30
  -1   0  -6  655.93   16.90
  -1   0  -6  643.74   17.50
  -2   0  -6  969.20   23.00
   2   0   6  960.60   23.80
  -2   0  -6  937.51   23.80
  -2   0  -6  967.40   23.60
  -3   0  -6 2395.16   55.79
  -3   0  -6 2441.66   53.59
   3   0   6 2461.45   55.99
  -3   0  -6 2441.86   52.99
  -4   0  -6 1123.99   30.50
  -4   0  -6 1116.99   27.80
   4   0   6 1188.68   30.70
  -4   0  -6 1169.58   25.80
  -5   0  -6 2242.68   47.80
   5   0   6 2349.86   59.49
  -5   0  -6 2278.27   47.80
   6   0   6 1179.58   34.20
   7   0   6  271.47   14.10
   8   0   6  227.58   13.80
   9   0   6    9.90    5.70
  10   0   6    0.70    6.20
  11   0   6    1.40    8.20
  11  -1  -6    9.70    6.90
  11   1  -6    3.10    7.10
  10  -1  -6   13.30    5.80
  10  -1  -6   15.40    3.60
  10   1  -6    8.60    5.90
  10   1  -6    8.50    3.50
   9  -1  -6    7.50    4.70
   9  -1  -6    7.20    3.00
   9  -1  -6   14.00    5.10
   9   1  -6    5.00    4.50
   9   1  -6    8.40    5.10
   9   1  -6    4.70    3.30
   8  -1  -6   -1.60    3.20
   8  -1  -6    1.50    2.30
   8  -1  -6    2.30    4.00
   8   1  -6   -1.10    3.40
   8   1  -6    3.50    4.00
   8   1  -6   -3.00    2.20
   7  -1  -6   11.00    3.60
   7  -1  -6   17.50    4.00
   7  -1  -6    7.50    2.40
   7   1  -6   11.40    3.90
   7   1  -6    3.70    3.50
   7   1  -6   10.60    2.80
   6  -1  -6   86.49    6.60
   6  -1  -6   84.39    5.60
   6  -1  -6   78.49    6.60
   6   1  -6   86.79    5.80
   6   1  -6   73.09    6.40
   6   1  -6   84.49    6.60
  -5  -1   6  121.19    7.30
   5  -1  -6  124.69    6.40
   5  -1  -6  115.09    6.80
   5  -1  -6  128.09    7.30
   5   1  -6  119.59    6.40
   5   1  -6  112.09    6.90
   5   1  -6  111.59    7.10
  -5   1   6  114.39    7.50
   4  -1  -6  124.69    6.90
   4  -1  -6  128.79    6.20
  -4  -1   6  110.69    6.30
   4  -1  -6  120.89    6.20
   4   1  -6  122.79    6.90
   4   1  -6  128.69    6.70
   4   1  -6  121.99    6.30
  -4   1   6  113.39    6.20
  -4   1   6  125.69    6.20
   3  -1  -6  406.36   12.70
   3  -1  -6  399.86   11.60
  -3  -1   6  401.76   12.20
  -3   1   6  399.86   11.40
   3   1  -6  390.96   12.30
   3   1  -6  387.26   13.20
  -3   1   6  384.26   12.40
   3   1  -6  397.96   12.70
  -2  -1   6  282.27    8.90
   2  -1  -6  282.57    9.80
   2  -1  -6  287.87    8.00
  -2  -1   6  284.17   10.50
   2   1  -6  289.17    9.90
   2   1  -6  290.37   10.60
   2   1  -6  290.47    9.10
  -2   1   6  281.37    7.80
  -2   1   6  278.77    9.70
   1  -1  -6  750.72   16.50
  -1  -1   6  770.12   18.50
  -1  -1   6  780.12   20.90
   1  -1  -6  770.12   20.00
  -1   1   6  756.62   19.80
  -1   1   6  755.12   16.40
   1   1  -6  767.92   18.70
   1   1  -6  757.32   20.70
   0  -1   6  410.46   13.10
   0  -1  -6  444.86   12.60
   0  -1  -6  434.16    9.80
   0   1   6  406.16   12.30
   0   1  -6  425.46   11.50
   0   1  -6  433.86   13.20
   0   1  -6  437.86   11.90
   1  -1   6  747.13   19.10
   1  -1   6  750.62   19.70
  -1  -1  -6  750.92   19.10
  -1  -1  -6  756.22   17.80
  -1   1  -6  755.72   19.60
   1   1   6  731.73   17.70
   1   1   6  723.63   18.90
  -1   1  -6  748.63   19.10
   2  -1   6  165.08    6.80
  -2  -1  -6  148.29    5.80
  -2  -1  -6  153.78    6.20
   2   1   6  159.68    6.30
  -2   1  -6  140.69    6.50
   2   1   6  147.89    5.80
  -2   1  -6  156.68    6.20
  -2   1  -6  158.08    5.90
  -3  -1  -6  177.38    6.20
  -3  -1  -6  164.98    7.50
   3  -1   6  182.38    8.00
  -3   1  -6  179.08    6.20
   3   1   6  184.38    6.30
  -3   1  -6  180.58    6.50
  -3   1  -6  177.58    8.10
   3   1   6  181.58    7.80
   4  -1   6  244.28   10.60
  -4   1  -6  254.37   11.00
  -4   1  -6  263.67    7.50
   4   1   6  257.97    7.70
   4   1   6  264.27   10.80
  -5  -1  -6   30.50    2.30
   5  -1   6   24.20    4.30
  -5  -1  -6   30.40    2.00
  -5   1  -6   27.30    1.40
   5   1   6   31.10    4.50
  -5   1  -6   30.20    1.50
   6  -1   6   28.60    4.70
   6   1   6   32.60    5.30
   7  -1   6  124.29    9.40
   7   1   6  113.79    9.30
   8  -1   6   87.09   10.40
   8   1   6   80.99    8.90
   9  -1   6   19.70    6.90
   9   1   6   16.60    5.80
  10  -1   6   19.00    7.40
  10   1   6   31.00    8.20
  11  -1   6   16.00    8.30
  11   1   6   20.10    9.10
  11  -2  -6   -4.00    6.40
  11   2  -6    1.20    7.10
  10  -2  -6   27.00    6.90
  10  -2  -6   21.20    3.90
  10   2  -6   13.10    6.10
  10   2  -6   28.70    4.80
   9  -2  -6  127.29   10.00
   9  -2  -6  150.48   11.40
   9  -2  -6  135.99    7.70
   9   2  -6  152.58    8.50
   8  -2  -6   82.39    6.00
   8  -2  -6   80.29    8.40
   8  -2  -6   84.89    8.10
   8   2  -6  101.59    9.40
   8   2  -6   95.39    6.70
   7  -2  -6  123.89    8.70
   7  -2  -6  138.09    7.10
   7  -2  -6  126.49    8.60
   7   2  -6  121.19    8.40
   7   2  -6  125.99    9.30
   7   2  -6  118.79    7.20
   6  -2  -6  479.05   15.10
   6  -2  -6  435.86   15.70
   6  -2  -6  459.95   16.50
   6   2  -6  452.65   15.80
   6   2  -6  471.55   15.40
   6   2  -6  469.05   17.60
  -5  -2   6  358.36   13.70
   5  -2  -6  355.16   12.80
   5  -2  -6  342.97   12.10
  -5  -2   6  358.86   13.60
   5   2  -6  360.36   14.00
  -5   2   6  357.16   13.70
   5   2  -6  345.17   12.60
  -5   2   6  373.96   13.20
   5   2  -6  342.37   13.00
  -4  -2   6  549.45   17.80
   4  -2  -6  566.34   16.30
   4  -2  -6  557.14   16.70
  -4   2   6  567.24   16.80
   4   2  -6  559.04   19.20
  -4   2   6  566.34   16.30
   4   2  -6  574.04   17.90
   3  -2  -6  568.84   16.70
  -3  -2   6  591.74   18.00
  -3  -2   6  561.84   16.50
   3  -2  -6  582.94   15.30
  -3   2   6  574.24   16.70
  -3   2   6  552.84   15.10
   3   2  -6  589.24   17.10
   3   2  -6  579.44   17.50
   2  -2  -6   47.80    3.60
  -2  -2   6   42.20    3.30
  -2  -2   6   42.40    4.00
   2  -2  -6   45.50    2.30
  -2   2   6   43.40    2.30
   2   2  -6   36.90    4.30
   2   2  -6   36.60    3.10
  -2   2   6   40.70    3.60
  -1  -2   6   19.50    2.80
   1  -2  -6   24.60    2.60
  -1  -2   6   20.80    2.30
   1   2  -6   24.60    3.50
   1   2  -6   21.40    2.20
  -1   2   6   13.70    2.30
   0  -2  -6  354.66   11.10
   0  -2  -6  357.96    7.80
   0  -2   6  351.46   11.80
   0   2  -6  341.07   10.60
   0   2  -6  362.16   11.20
   0   2   6  359.76    7.90
   0   2  -6  348.57   11.60
   0   2   6  343.97   11.10
  -1  -2  -6   61.49    3.80
   1  -2   6   58.39    4.00
  -1  -2  -6   64.09    3.00
   1  -2   6   65.59    4.20
  -1   2  -6   63.09    4.20
  -1   2  -6   60.99    4.10
   1   2   6   63.59    3.00
   1   2   6   66.29    4.00
   2  -2   6 1279.77   30.40
   2  -2   6 1221.28   30.90
  -2  -2  -6 1198.58   29.40
  -2  -2  -6 1275.57   29.50
  -2   2  -6 1245.18   29.90
  -2   2  -6 1230.18   31.20
   2   2   6 1220.68   29.60
   2   2   6 1289.77   29.70
   3  -2   6  599.34   18.20
   3  -2   6  595.54   16.20
  -3  -2  -6  606.34   15.80
  -3  -2  -6  591.04   17.20
  -3   2  -6  573.84   15.70
  -3   2  -6  600.64   18.40
   3   2   6  594.74   15.80
   3   2   6  610.44   17.50
   4  -2   6  510.55   17.00
  -4  -2  -6  499.85   13.40
  -4   2  -6  483.25   13.10
  -4   2  -6  502.25   17.20
   4   2   6  468.25   16.00
   4   2   6  491.55   13.40
   5  -2   6  654.83   21.30
  -5  -2  -6  636.84   16.00
   5   2   6  649.83   21.20
  -5   2  -6  620.74   15.00
   5   2   6  599.14   15.70
  -5   2  -6  635.84   15.10
   6  -2   6  138.89    9.20
  -6  -2  -6  117.49    4.50
  -6  -2  -6  125.19    4.40
   6   2   6  122.59    8.50
   7  -2   6   93.29    8.70
   7   2   6   92.69    8.70
   8  -2   6  113.79   10.20
   8   2   6   99.29    9.70
   9  -2   6    1.00    4.90
   9   2   6    2.80    4.60
  10  -2   6    4.10    6.10
  10   2   6    1.40    6.10
  11  -2   6    1.60    7.90
  11   2   6   -7.00    7.10
  11  -3  -6   53.29   10.00
  11   3  -6   52.39   10.80
  10  -3  -6  114.69   12.10
  10  -3  -6   87.89    7.10
  10   3  -6   92.79    8.10
  10   3  -6  119.39   14.20
   9  -3  -6   20.20    6.00
   9  -3  -6   23.10    4.10
   9   3  -6   17.70    5.50
   9   3  -6   23.30    4.90
   8  -3  -6   19.40    4.90
   8  -3  -6   18.40    3.50
   8   3  -6   19.60    5.20
   8   3  -6   13.70    3.90
   7  -3  -6   20.10    4.90
   7  -3  -6   26.50    4.90
   7  -3  -6   21.20    3.50
  -7   3   6   33.30    4.80
   7   3  -6   23.70    4.20
   7   3  -6   21.70    5.20
   6  -3  -6   34.60    4.20
   6  -3  -6   43.40    4.80
  -6  -3   6   34.90    5.20
  -6   3   6   49.20    5.50
   6   3  -6   38.20    5.30
   5  -3  -6   88.89    5.60
   5  -3  -6   72.49    5.30
  -5  -3   6   77.69    6.40
   5   3  -6   83.89    6.60
   5   3  -6   82.59    6.50
  -5   3   6   73.39    6.00
  -5   3   6   75.79    6.60
   4  -3  -6  751.32   21.00
  -4  -3   6  724.53   21.60
  -4  -3   6  737.93   22.40
   4  -3  -6  744.33   20.10
   4   3  -6  756.02   22.40
  -4   3   6  742.73   20.30
   4   3  -6  738.83   21.70
  -4   3   6  713.23   20.90
   3  -3  -6 1609.24   38.50
  -3  -3   6 1589.14   40.00
  -3  -3   6 1523.85   38.40
   3  -3  -6 1594.34   36.30
  -3   3   6 1589.74   36.40
   3   3  -6 1585.84   39.20
   3   3  -6 1589.54   39.30
  -2  -3   6 2957.50   66.59
  -2  -3   6 2975.70   68.39
   2  -3  -6 3009.30   66.99
   2  -3  -6 3050.59   63.69
  -2   3   6 3004.50   63.59
   2   3  -6 2904.51   67.59
   2   3  -6 2948.00   67.09
  -2   3   6 2923.91   66.89
  -1  -3   6 4198.28   92.19
   1  -3  -6 4341.57   92.89
  -1  -3   6 4198.78   93.89
  -1   3   6 4063.09   92.59
   1   3  -6 4305.07   92.79
  -1   3   6 4240.98   88.49
  -1   3   6 4276.47   88.39
   1   3  -6 4260.97   93.39
   0  -3  -6 3559.14   72.69
   0  -3  -6 3436.16   76.39
   0  -3   6 3448.85   77.49
   0   3   6 3395.06   76.39
   0   3  -6 3384.76   76.89
   0   3  -6 3439.96   76.39
   0   3  -6 3456.75   77.09
   0   3   6 3532.45   72.79
  -1  -3  -6 1802.92   42.50
   1  -3   6 1859.11   43.60
  -1   3  -6 1829.82   43.80
  -1   3  -6 1839.12   42.90
  -1   3  -6 1842.22   43.10
   1   3   6 1775.92   42.40
   1   3   6 1842.92   40.60
   2  -3   6  464.85   15.00
   2  -3   6  439.06   14.00
  -2  -3  -6  462.35   13.10
  -2  -3  -6  465.05   13.60
  -2   3  -6  444.46   15.00
  -2   3  -6  451.75   13.80
   2   3   6  432.26   13.50
   2   3   6  476.75   13.40
  -3  -3  -6  314.47   10.90
   3  -3   6  295.77   10.40
  -3  -3  -6  316.47   10.20
   3   3   6  295.87   10.00
  -3   3  -6  301.97   10.10
   3   3   6  297.37   10.80
  -3   3  -6  281.97   12.00
  -4  -3  -6   75.59    5.70
  -4  -3  -6   78.19    4.40
   4  -3   6   69.19    4.40
   4  -3   6   70.99    6.60
   4   3   6   70.59    4.50
   4   3   6   73.89    5.60
  -4   3  -6   77.49    4.40
   5  -3   6  127.19    8.40
  -5  -3  -6  112.69    5.50
   5  -3   6  119.99    5.30
   5   3   6  105.59    8.60
   5   3   6  108.09    5.40
  -5   3  -6  115.19    5.00
   6  -3   6  140.09    9.60
  -6  -3  -6  144.89    6.10
   6   3   6  144.39    5.90
  -6   3  -6  145.29    4.70
  -6   3  -6  135.59    4.60
   6   3   6  134.59    9.30
  -7  -3  -6  366.56    9.80
   7  -3   6  389.56   17.70
   7   3   6  372.66   17.10
   8   3   6  214.38   13.70
   9  -3   6   80.39   10.00
   9   3   6  117.99   11.60
  10  -3   6  126.79   13.50
  10   3   6  115.69   14.30
  11  -3   6   51.59   11.00
  11   3   6   45.10   11.00
  11  -4  -6    2.70    7.10
  11   4  -6   14.80    8.20
  10  -4  -6    4.00    4.10
  10  -4  -6   18.60    6.60
  10   4  -6    5.00    4.60
  10   4  -6    2.70    6.10
   9  -4  -6   -2.80    4.30
   9  -4  -6   -0.30    3.10
   9   4  -6   -6.70    3.80
   9   4  -6   -1.10    4.80
   8  -4  -6   43.30    5.30
   8  -4  -6   46.10    6.90
   8   4  -6   35.80    6.50
   8   4  -6   40.50    5.80
  -7  -4   6   18.80    4.50
   7  -4  -6   14.10    3.90
   7  -4  -6   11.90    3.20
   7   4  -6   22.70    5.70
  -6  -4   6   -1.70    2.70
   6  -4  -6   -1.30    2.50
   6  -4  -6   -1.40    2.00
   6   4  -6    2.80    2.40
   5  -4  -6  131.09    7.20
   5  -4  -6  111.99    6.80
  -5  -4   6  115.19    7.90
   5   4  -6  115.59    8.10
  -5   4   6  130.79    7.60
   4  -4  -6   42.30    4.30
  -4  -4   6   35.30    4.90
   4  -4  -6   37.30    3.60
  -4   4   6   27.90    3.90
   4   4  -6   34.70    5.60
  -4   4   6   40.10    4.10
   3  -4  -6  175.18    8.00
  -3  -4   6  153.18    8.10
   3  -4  -6  169.18    6.60
  -3  -4   6  162.78    8.70
  -3   4   6  149.49    7.90
   3   4  -6  152.48    8.40
   3   4  -6  178.98    8.80
  -3   4   6  161.88    6.70
  -2  -4   6  368.36   13.60
  -2  -4   6  338.47   13.70
   2  -4  -6  371.16   12.60
  -2   4   6  352.86   12.60
   2   4  -6  342.77   13.00
  -2   4   6  349.67    9.70
  -2   4   6  350.26   10.10
   2   4  -6  344.77   12.80
   1  -4  -6    6.90    1.80
  -1  -4   6    9.20    2.30
  -1  -4   6    8.10    2.40
   1   4  -6    8.00    1.90
  -1   4   6    7.90    1.50
   1   4  -6   12.30    2.90
  -1   4   6   11.70    2.70
  -1   4   6    8.60    1.40
   0  -4  -6  246.18    9.60
   0  -4  -6  247.68    7.30
   0  -4   6  246.08   10.30
   0   4  -6  235.08    9.60
   0   4  -6  260.77   10.50
   0   4   6  247.38    9.90
  -1  -4  -6  730.33   20.10
   1  -4   6  736.53   21.00
  -1  -4  -6  730.03   17.90
   1   4   6  712.63   18.10
  -1   4  -6  687.13   22.70
  -1   4  -6  711.73   20.30
  -1   4  -6  675.63   20.00
  -2  -4  -6  111.99    5.90
  -2  -4  -6  115.29    5.50
   2  -4   6  112.19    6.80
   2  -4   6  112.29    6.40
  -2   4  -6  109.09    6.10
   2   4   6  113.29    6.30
  -2   4  -6  115.29    7.30
   2   4   6  110.79    5.60
  -3  -4  -6  276.07   10.40
   3  -4   6  287.77   10.70
   3  -4   6  280.57   11.90
  -3  -4  -6  290.87   10.40
  -3   4  -6  274.17   13.70
  -3   4  -6  268.77   10.10
   3   4   6  270.17   10.20
   3   4   6  282.07   10.80
  -4  -4  -6   53.59    4.40
  -4  -4  -6   63.49    5.70
   4  -4   6   48.20    5.10
   4  -4   6   56.19    4.40
   4   4   6   63.19    5.30
  -4   4  -6   53.29    4.30
   4   4   6   55.19    4.70
   5  -4   6   34.80    5.60
   5  -4   6   37.70    4.10
  -5  -4  -6   31.30    3.90
   5   4   6   32.20    4.10
   5   4   6   31.60    4.60
  -5   4  -6   35.50    3.90
   6  -4   6  103.89    5.30
   6  -4   6  108.39    8.70
  -6  -4  -6  107.19    6.10
  -6   4  -6   95.99    5.00
   6   4   6   95.99    5.80
   6   4   6  111.49    8.60
   7  -4   6    1.60    3.40
  -7  -4  -6    0.80    2.30
   7   4   6    2.70    2.40
  -7   4  -6    1.50    1.10
   7   4   6   -1.60    3.60
  -7   4  -6   -1.20    1.00
   8  -4   6   -2.90    4.00
  -8  -4  -6    3.60    1.80
   8   4   6   -0.60    4.30
   9  -4   6   10.50    6.10
   9   4   6    2.80    5.70
  10  -4   6    2.10    7.00
  10   4   6   -4.80    6.80
  11  -5  -6    6.40    7.50
  11   5  -6    9.50    9.00
  10  -5  -6   22.50    7.10
  10  -5  -6   18.10    5.20
  10   5  -6   33.30    6.70
  10   5  -6   32.60    8.70
   9  -5  -6    9.70    4.20
   9   5  -6    9.10    6.10
   9   5  -6   14.80    5.10
   8  -5  -6   56.99    6.20
  -8  -5   6   61.99    8.20
   8  -5  -6   75.39    8.90
   8   5  -6   73.89   10.40
  -7  -5   6    1.40    3.70
   7  -5  -6   -1.40    2.80
   7  -5  -6    0.30    2.60
   7   5  -6   -0.60    3.60
   6  -5  -6   16.90    3.90
  -6  -5   6   28.70    5.70
   6  -5  -6   16.90    3.40
   6   5  -6   22.40    5.30
  -5  -5   6  143.09    9.40
   5  -5  -6  138.29    7.70
   5  -5  -6  138.79    9.00
  -5   5   6  132.39    8.30
   5   5  -6  134.79    9.20
   4  -5  -6  498.15   17.00
   4  -5  -6  534.45   16.30
  -4   5   6  511.45   16.30
   4   5  -6  545.45   19.20
   3  -5  -6  358.96   13.30
  -3  -5   6  357.36   14.60
   3  -5  -6  361.76   11.80
  -3   5   6  363.06   11.90
   3   5  -6  378.26   16.40
  -2  -5   6  641.64   20.10
  -2  -5   6  700.73   21.80
   2  -5  -6  684.83   20.20
   2   5  -6  684.43   21.00
  -2   5   6  644.94   17.10
  -2   5   6  649.74   17.60
  -1  -5   6 1133.49   30.50
   1  -5  -6 1203.38   30.80
  -1  -5   6 1168.78   32.10
  -1   5   6 1204.18   27.30
  -1   5   6 1185.78   27.70
   1   5  -6 1087.79   30.90
   1   5  -6 1188.08   31.20
  -1   5   6 1091.29   30.50
   0  -5  -6 1209.48   28.30
   0  -5   6 1225.08   32.80
   0  -5  -6 1257.37   31.70
   0   5   6 1121.59   31.20
   0   5  -6 1225.38   32.70
   0   5  -6 1194.38   31.80
   0   5  -6 1199.08   31.70
   0   5   6 1204.78   28.40
  -1  -5  -6  519.25   14.30
  -1  -5  -6  527.15   16.60
   1  -5   6  534.05   17.40
  -1   5  -6  486.95   16.50
   1   5   6  489.65   16.30
   1   5   6  510.45   14.60
  -1   5  -6  502.15   16.70
  -1   5  -6  509.15   17.70
  -2  -5  -6  305.27   10.80
  -2  -5  -6  316.37   12.00
   2  -5   6  326.37   12.60
  -2   5  -6  318.87   12.70
  -2   5  -6  333.87   12.20
   2   5   6  313.67   12.10
   2   5   6  335.87   11.40
   3  -5   6  189.58   10.00
  -3  -5  -6  191.68    8.70
   3  -5   6  195.68    9.20
  -3  -5  -6  182.28    9.60
  -3   5  -6  193.78    8.80
   3   5   6  190.58    8.90
   3   5   6  185.78    8.90
   4  -5   6   84.39    5.90
   4  -5   6   67.89    6.50
  -4  -5  -6   84.29    5.80
  -4  -5  -6   82.09    6.60
   4   5   6   83.69    6.30
  -4   5  -6   78.29    6.40
   4   5   6   84.99    6.40
  -5  -5  -6    2.20    2.10
   5  -5   6    2.40    2.70
   5  -5   6    0.90    2.10
   5   5   6    2.20    2.60
   5   5   6   -1.30    2.70
  -5   5  -6    3.80    2.70
  -6  -5  -6   43.20    5.10
   6  -5   6   45.30    7.30
   6  -5   6   49.50    4.70
   6   5   6   45.80    5.10
   6   5   6   43.90    6.90
  -6   5  -6   44.10    4.80
   7  -5   6  126.39    6.30
  -7  -5  -6  140.09    7.90
   7  -5   6  161.18   11.80
  -7   5  -6  127.19    6.30
   7   5   6  131.59   10.50
  -8  -5  -6   56.49    5.70
   8  -5   6   73.39   10.40
   8   5   6   60.29    8.80
   8   5   6   68.79    6.10
   9  -5   6   52.89    9.20
   9   5   6   51.69    9.80
  10   5   6   58.19   11.10
  10  -6  -6   31.30    8.10
  10  -6  -6   30.00    6.30
  10   6  -6   33.30    7.40
  10   6  -6   21.60    8.20
   9  -6  -6   47.60    8.00
   9  -6  -6   48.30    6.80
  -9  -6   6   44.30    8.50
   9   6  -6   57.69   11.00
  -8  -6   6  140.59   11.80
   8  -6  -6  159.18    9.60
   8  -6  -6  155.48   11.30
   8   6  -6  174.98   13.70
   7  -6  -6  132.79    8.80
  -7  -6   6  136.89   11.00
   7  -6  -6  139.99    9.90
   7   6  -6  127.99   11.50
   6  -6  -6  291.57   12.80
  -6  -6   6  301.07   15.10
   6  -6  -6  291.87   13.00
   6   6  -6  258.27   14.70
   5  -6  -6  555.04   18.30
   5  -6  -6  536.15   18.60
  -5  -6   6  544.65   20.70
   5   6  -6  549.45   21.20
  -4  -6   6  329.37   14.70
   4  -6  -6  310.67   11.90
   4  -6  -6  326.47   13.10
  -4   6   6  299.37   12.30
   4   6  -6  286.37   14.00
   3  -6  -6  578.34   19.20
  -3  -6   6  597.04   21.00
  -3   6   6  568.24   17.60
   3   6  -6  592.84   20.60
  -3   6   6  586.44   16.90
   2  -6  -6   58.29    5.40
  -2  -6   6   68.99    6.50
   2   6  -6   54.79    5.60
  -2   6   6   64.59    4.20
  -2   6   6   55.69    4.60
   1   6  -6   12.10    3.00
  -1   6   6   17.20    2.70
  -1   6   6   17.20    3.00
   0  -6  -6  191.18   10.90
   0  -6   6  211.98   10.70
   0   6   6  228.58    8.40
   0   6  -6  213.78   10.20
   1  -6   6  275.67   12.20
  -1  -6  -6  243.58    9.30
  -1  -6  -6  280.37   11.60
   1   6   6  254.77    9.60
  -1   6  -6  240.48   11.10
  -2  -6  -6  676.63   19.70
   2  -6   6  697.93   22.20
  -2  -6  -6  698.83   21.30
   2   6   6  695.73   20.10
  -2   6  -6  690.73   21.90
  -3  -6  -6  695.23   21.20
  -3  -6  -6  642.04   20.10
   3  -6   6  684.73   21.50
   3   6   6  648.64   20.60
  -3   6  -6  671.83   22.00
   4  -6   6  840.32   25.30
  -4  -6  -6  865.31   25.40
   4   6   6  883.21   26.20
   5  -6   6  524.45   17.60
  -5  -6  -6  519.45   18.10
   5  -6   6  532.95   20.80
   5   6   6  534.75   19.80
  -5   6  -6  491.95   16.90
   6  -6   6  313.17   16.10
  -6  -6  -6  342.17   13.70
   6  -6   6  318.07   12.50
   6   6   6  345.27   16.10
  -6   6  -6  310.77   12.30
  -7  -6  -6   88.49    7.70
   7  -6   6   88.69    6.60
   7  -6   6   97.19    9.80
   7   6   6   91.59    9.20
  -7   6  -6   87.39    7.20
   8  -6   6   30.90    7.50
   8  -6   6   35.70    4.30
  -8  -6  -6   24.50    5.10
   8   6   6   25.60    7.20
   9  -6   6    2.70    5.80
   9   6   6    5.30    6.40
  10  -6   6    2.30    7.30
  10  -7  -6   -0.10    6.80
  10  -7  -6    1.50    7.40
  10   7  -6    0.30    7.10
  10   7  -6    5.80    8.30
   9  -7  -6   12.90    6.50
  -9  -7   6   19.50    7.40
   9  -7  -6   12.80    6.00
   9   7  -6   17.10    7.40
  -8  -7   6    3.30    5.90
   8  -7  -6    2.80    4.80
   8  -7  -6    6.90    4.60
   8   7  -6    4.10    4.80
  -7  -7   6   -1.70    4.60
   7  -7  -6   -2.20    3.30
   7  -7  -6    4.90    4.10
   7   7  -6    8.30    6.70
   6  -7  -6    4.10    3.20
  -6  -7   6    9.70    4.70
   6  -7  -6    9.60    3.50
   6   7  -6   12.00    4.10
  -5  -7   6  100.29    9.40
   5  -7  -6   98.09    7.70
   5  -7  -6   93.49    7.20
   5   7  -6   88.59    8.70
  -4  -7   6   -1.80    3.10
   4  -7  -6   -1.40    2.50
   4   7  -6   -1.60    2.40
  -4   7   6    0.90    2.30
  -4   7   6   -3.50    3.50
  -3  -7   6   13.70    4.20
   3  -7  -6   26.60    5.00
   3   7  -6   23.90    5.00
  -3   7   6   16.50    4.30
  -3   7   6   18.30    3.20
   2  -7  -6    4.50    2.50
  -2  -7   6    3.00    2.70
   2   7  -6    7.70    3.00
  -2   7   6    5.40    2.10
  -2   7   6    4.50    2.70
  -1  -7   6   60.99    7.50
   1  -7  -6   56.09    5.60
  -1   7   6   51.99    5.00
  -1   7   6   37.60    3.90
   1   7  -6   55.19    5.70
   0  -7   6   29.80    5.30
   0  -7  -6   33.90    4.90
   0   7  -6   27.30    4.80
   0   7   6   33.90    3.70
   0   7   6   42.20    5.00
  -1  -7  -6    3.10    2.30
   1  -7   6    2.90    2.50
  -1  -7  -6    2.70    2.10
   1   7   6    2.90    2.00
  -1   7  -6    0.20    2.20
  -2  -7  -6   55.39    6.60
   2  -7   6   59.89    6.40
  -2  -7  -6   52.09    5.30
  -2   7  -6   59.09    6.00
   2   7   6   52.79    4.90
  -3  -7  -6   73.49    6.60
   3  -7   6   77.09    7.20
   3   7   6   78.69    7.50
  -3   7  -6   83.19    7.30
   4  -7   6   15.80    4.00
  -4  -7  -6   17.80    4.40
   4   7   6   13.00    3.60
  -4   7  -6   17.90    4.80
   5  -7   6    1.50    3.40
  -5  -7  -6    4.80    3.30
   5  -7   6    9.80    3.90
   5   7   6    4.30    3.70
   6  -7   6   -2.30    3.30
  -6  -7  -6   -0.80    3.30
   6   7   6   -2.60    3.80
   7  -7   6   -2.10    3.70
  -7  -7  -6    2.80    4.10
   7  -7   6   -5.20    3.90
   7   7   6   -2.80    5.20
   8  -7   6   -1.10    4.10
   8  -7   6   -1.00    4.70
  -8  -7  -6    4.30    4.90
   8   7   6    2.50    6.00
   9  -7   6    1.40    6.50
   9   7   6   -6.20    6.60
   9  -8  -6   47.00    8.70
  -9  -8   6   48.60   11.00
   9  -8  -6   41.40    7.90
  -8  -8   6  119.69   15.20
   8  -8  -6  115.59   11.30
   8  -8  -6  125.29   10.80
   8   8  -6  145.89   13.90
   7  -8  -6  205.98   12.70
   7  -8  -6  231.58   13.30
  -7  -8   6  228.18   15.20
   6  -8  -6  236.88   13.00
  -6  -8   6  237.68   15.10
   6   8  -6  230.48   15.10
  -5  -8   6  383.26   18.90
   5  -8  -6  403.36   16.80
  -5   8   6  400.16   15.50
   5   8  -6  383.06   18.70
   4  -8  -6  230.48   12.40
  -4  -8   6  276.37   15.10
  -4   8   6  265.97   11.50
   4   8  -6  262.67   14.40
   3  -8  -6  200.18   11.10
  -3  -8   6  172.98   11.90
   3   8  -6  177.18   11.40
  -3   8   6  171.08   10.20
  -3   8   6  168.78    8.80
   2  -8  -6   18.10    4.00
  -2  -8   6   16.50    4.40
   2   8  -6   30.60    5.50
  -2   8   6   26.10    4.80
  -2   8   6   34.90    4.40
   1  -8  -6   -1.60    2.20
  -1  -8   6   -0.10    2.90
  -1   8   6    3.30    3.30
   1   8  -6    2.80    2.90
  -1   8   6    2.20    2.10
   0  -8  -6  176.58   10.40
   0  -8   6  187.38   11.60
   0   8   6  169.28    9.30
   0   8   6  178.18    8.80
   0   8  -6  203.08   11.20
  -1  -8  -6  593.44   20.90
   1  -8   6  573.94   21.60
  -1  -8  -6  578.34   18.40
  -1   8  -6  559.64   20.70
   1   8   6  595.54   18.90
   2  -8   6  400.36   17.00
  -2  -8  -6  395.56   16.40
  -2   8  -6  369.36   16.30
  -3  -8  -6  751.82   25.00
   3  -8   6  782.52   25.80
   3   8   6  737.73   24.10
  -3   8  -6  764.52   26.00
  -4  -8  -6  599.54   22.00
   4  -8   6  637.54   22.60
   4   8   6  628.44   22.40
  -4   8  -6  626.74   23.40
  -5  -8  -6  299.37   14.30
   5  -8   6  267.57   13.60
  -5   8  -6  270.07   17.20
   5   8   6  270.27   14.50
   6  -8   6  214.98   14.70
   6  -8   6  213.48   12.40
  -6  -8  -6  239.08   13.30
   6   8   6  234.68   14.40
   7  -8   6   84.89   12.10
  -7  -8  -6   66.59    8.30
   7  -8   6   94.09    9.10
   7   8   6   94.89   11.80
   8  -8   6   24.00    7.20
   8  -8   6   23.40    7.90
  -8  -8  -6   12.90    6.30
   8   8   6   20.80    7.60
   9  -8   6   10.10    8.20
   9   8   6   21.30    8.70
   9  -9  -6    9.40    7.90
  -9  -9   6    9.70    9.60
   9  -9  -6    7.10    7.40
   9   9  -6    7.50    9.00
   8  -9  -6   11.30    6.40
  -8  -9   6    4.30    8.20
   8   9  -6   12.00    8.00
  -7  -9   6   -1.80    6.40
   7  -9  -6    0.00    5.30
   7   9  -6    0.40    5.30
  -7   9   6   -0.30    5.20
   6  -9  -6   12.40    5.00
   6   9  -6    6.20    5.30
  -6   9   6   15.40    5.50
  -5  -9   6   43.00    8.30
   5  -9  -6   55.69    7.90
   5   9  -6   43.90    7.20
  -5   9   6   59.49    7.40
   4  -9  -6  189.08   12.20
  -4  -9   6  195.28   13.70
  -4   9   6  209.68   10.70
   4   9  -6  209.98   14.50
   3  -9  -6  435.16   18.60
  -3  -9   6  416.96   19.90
  -3   9   6  451.15   16.10
   3   9  -6  426.36   19.40
  -2  -9   6  506.85   21.70
   2  -9  -6  516.05   20.30
   2   9  -6  478.65   20.40
  -2   9   6  522.95   17.70
   1  -9  -6  637.54   23.00
  -1  -9   6  601.14   24.10
   1   9  -6  622.64   23.30
   0  -9  -6  393.46   17.20
   0  -9   6  410.86   18.50
   0   9  -6  419.86   18.00
   0   9   6  390.86   17.00
  -1  -9  -6  360.36   16.50
   1  -9   6  387.16   17.80
  -1   9  -6  349.77   16.30
   1   9   6  379.56   14.90
   2  -9   6  210.48   13.10
  -2  -9  -6  235.18   12.90
   2   9   6  220.08   11.50
  -2   9  -6  231.68   13.10
  -3  -9  -6   40.60    6.70
   3  -9   6   39.20    6.90
   3   9   6   45.30    6.80
  -3   9  -6   49.00    7.80
   4  -9   6    8.70    4.80
  -4  -9  -6    6.60    4.40
  -4   9  -6    5.10    4.20
   4   9   6   15.70    5.00
  -5  -9  -6   31.90    6.70
   5  -9   6   36.50    6.70
  -5   9  -6   46.40    8.20
   5   9   6   35.70    7.30
  -6  -9  -6   38.20    7.50
   6  -9   6   24.60    6.60
   6   9   6   20.10    6.20
  -6   9  -6   39.00    7.70
  -7  -9  -6  138.89   12.70
   7  -9   6  109.19   11.30
  -7   9  -6  132.49   13.50
   7   9   6  136.89   13.30
   8  -9   6   55.79    8.30
  -8  -9  -6   75.49   10.40
   8   9   6   79.39   11.30
   8 -10  -6    6.70    7.20
  -8 -10   6   -5.60    9.10
  -8  10   6   -1.20    7.70
   8  10  -6    4.60    7.00
   7 -10  -6    0.60    6.00
  -7 -10   6    0.30    7.60
  -7  10   6    0.30    5.90
   7  10  -6    8.70    6.40
  -6 -10   6   -2.10    6.40
   6 -10  -6    3.10    5.50
   6  10  -6    4.60    5.90
  -6  10   6    5.60    5.50
  -5 -10   6   -2.80    5.90
   5 -10  -6    9.70    5.40
   5  10  -6   -0.30    4.70
  -5  10   6    9.30    4.80
  -4 -10   6   32.50    8.00
  -4  10   6   20.20    4.90
   4  10  -6   31.80    6.80
   3 -10  -6    0.90    3.80
   3  10  -6   -0.40    4.00
  -3  10   6   -0.60    3.30
   2 -10  -6    7.80    3.90
  -2 -10   6   14.40    6.30
   2  10  -6   10.50    8.30
  -2  10   6    7.00    3.80
   1 -10  -6   -3.10    3.60
  -1 -10   6    5.10    4.40
  -1  10   6    0.40    3.30
   1  10  -6    3.60    3.70
   0 -10  -6   -1.50    3.50
   0 -10   6   -1.50    4.10
   0  10   6   -1.00    3.30
   0  10  -6   -0.60    3.40
  -1 -10  -6    6.00    3.80
   1 -10   6   12.30    5.30
   1  10   6    6.30    3.70
  -1  10  -6    4.60    4.10
  -2 -10  -6    3.80    4.30
   2 -10   6    2.40    4.20
  -2  10  -6   -1.10    4.00
   2  10   6    8.10    3.70
  -3 -10  -6    8.40    4.60
   3 -10   6   19.10    5.90
   3  10   6    8.70    4.40
  -3  10  -6   16.40    6.20
  -4 -10  -6    7.60    5.30
   4 -10   6    5.60    5.40
   4  10   6   12.70    5.40
  -4  10  -6   10.90    5.70
   5 -10   6   -2.00    5.20
  -5 -10  -6    5.10    6.20
  -5  10  -6    2.30    5.40
   6 -10   6   -5.70    6.20
  -6 -10  -6    2.40    6.30
   6  10   6   -1.70    6.10
  -6  10  -6    1.20    6.00
  -7 -10  -6   -2.90    7.60
   7 -10   6   -3.20    7.10
   7  10   6   -3.40    7.20
  -7  10  -6    6.90    7.80
   7 -11  -6    6.50    7.30
  -7 -11   6   -9.90    8.80
  -7  11   6   12.10    8.10
   7  11  -6    5.90    8.10
  -6 -11   6   -0.40    8.00
   6 -11  -6   24.00    7.90
   6  11  -6   10.90    7.00
  -6  11   6    9.50    6.20
   5 -11  -6   61.59    9.80
  -5 -11   6   51.29   10.30
   5  11  -6   71.99   11.70
  -5  11   6   61.09    8.50
   4 -11  -6  135.19   12.10
  -4 -11   6  137.99   14.10
  -4  11   6  117.39   10.20
   4  11  -6  123.89   12.70
  -3 -11   6  166.18   14.90
   3 -11  -6  170.28   13.10
   3  11  -6  165.48   13.60
  -3  11   6  157.78   11.00
   2 -11  -6  353.26   18.10
  -2 -11   6  343.57   19.80
  -2  11   6  333.27   15.30
   2  11  -6  330.67   18.10
  -1 -11   6  465.25   22.70
   1 -11  -6  467.05   21.10
   1  11  -6  427.76   20.90
  -1  11   6  484.55   18.70
   0 -11  -6  342.57   18.10
   0 -11   6  345.87   19.30
   0  11  -6  357.16   18.50
   0  11   6  323.27   15.40
  -1 -11  -6  280.07   16.50
   1 -11   6  300.47   17.60
  -1  11  -6  297.57   16.70
   1  11   6  280.37   14.50
   2 -11   6   86.69   11.30
  -2 -11  -6   68.89    9.30
   2  11   6   91.09    9.30
  -2  11  -6   96.89   11.90
  -3 -11  -6    5.80    5.50
   3 -11   6   15.90    6.60
  -3  11  -6    8.60    5.40
   3  11   6   18.30    6.00
  -4 -11  -6   15.60    6.20
   4 -11   6   19.50    7.10
  -4  11  -6    9.80    5.70
   4  11   6   13.20    7.10
   5 -11   6   14.60    7.20
  -5 -11  -6   -1.50    6.10
   5  11   6    3.80    6.20
  -5  11  -6   -5.20    6.00
  -6 -11  -6   -2.20    7.50
   6 -11   6   10.30    8.10
   6  11   6   14.70    8.30
   5 -12  -6   53.99   10.00
  -5 -12   6   61.39   12.80
   5  12  -6   68.69   12.40
  -5  12   6   62.09    9.50
  -4 -12   6   71.59   12.40
   4 -12  -6   55.99    9.50
   4  12  -6   79.29   12.40
   3 -12  -6   49.70    9.40
  -3 -12   6   46.70   10.40
   3  12  -6   47.10    9.30
  -3  12   6   49.60    8.20
   2 -12  -6   -4.40    5.20
  -2 -12   6   -6.60    6.50
  -2  12   6    0.50    5.00
   2  12  -6    7.90    5.70
  -1 -12   6   -2.50    6.20
   1 -12  -6   -0.60    5.30
   1  12  -6    6.70    5.20
  -1  12   6    3.40    5.10
   0 -12   6   23.40    8.20
   0 -12  -6   12.70    6.20
   0  12  -6   19.70    6.60
   0  12   6   26.50    6.40
  -1 -12  -6   62.89    9.60
   1 -12   6   68.39   11.50
  -1  12  -6   57.59    8.70
   1  12   6   58.39    8.50
   2 -12   6   46.60    9.90
  -2 -12  -6   64.29   10.30
   2  12   6   60.39    9.30
  -2  12  -6   54.49   10.10
  -3 -12  -6  112.69   12.80
   3 -12   6  133.19   14.30
  -3  12  -6  108.79   12.00
   3  12   6  119.49   12.50
   4 -12   6   78.39   11.80
  -4 -12  -6   49.99    9.60
   4  12   6   68.99   10.70
  -4  12  -6   58.09    9.70
   5 -12   6   53.19   10.00
  -5 -12  -6   51.19   10.00
   5  12   6   65.59   10.60
  -5  12  -6   53.49    9.70
  -4 -13   6   29.00    9.70
   4 -13  -6   24.30   10.90
   4  13  -6   15.40    8.20
  -4  13   6   33.50    8.90
   3 -13  -6    1.20    6.50
   3  13  -6    8.90    7.90
  -3  13   6    3.60    6.80
   2 -13  -6   18.20    8.00
  -2 -13   6   -0.20    8.20
   2  13  -6    3.80    8.70
  -2  13   6    9.00    6.80
  -1 -13   6    1.20    8.10
   1 -13  -6   20.00    7.00
  -1  13   6   14.10    7.50
   1  13  -6    6.90    7.30
   0 -13   6   34.00    9.70
   0 -13  -6   30.20    8.00
   0  13  -6   46.90    9.50
   0  13   6   38.40    8.70
  -1 -13  -6   23.30    8.30
   1 -13   6   23.00    8.40
   1  13   6    5.30    7.10
  -1  13  -6   18.00    7.50
   2 -13   6   20.80    8.80
  -2 -13  -6    2.50    6.70
   2  13   6    4.70    7.30
   3 -13   6   -2.40    8.00
  -3 -13  -6    1.70    8.30
  -3  13  -6    4.90    7.10
   3  13   6    7.30    7.40
  11   0  -7   -3.00    6.70
  10   0  -7   -2.00    3.50
  10   0  -7   -0.30    5.30
   9   0  -7    5.40    3.00
   9   0  -7    1.40    4.40
   8   0  -7    0.30    2.50
   8   0  -7   -1.10    3.40
   7   0  -7    1.40    2.60
   7   0  -7    3.10    2.40
   7   0  -7    0.90    3.70
   6   0  -7   -0.10    3.00
   6   0  -7    0.60    1.90
   5   0  -7   -3.10    2.30
   5   0  -7    1.60    1.60
  -5   0   7    0.10    2.30
   5   0  -7   -0.60    1.60
   4   0  -7   -0.30    1.30
  -4   0   7    1.60    1.60
   4   0  -7   -1.50    1.20
   3   0  -7   -0.30    1.20
   3   0  -7    1.40    1.20
   3   0  -7    1.20    1.80
  -3   0   7    0.40    1.10
   2   0  -7   -0.10    0.70
   2   0  -7   -0.20    1.20
   2   0  -7    0.80    1.50
  -2   0   7    0.00    0.80
   1   0  -7    1.00    1.00
  -1   0   7    0.60    0.70
   1   0  -7   -0.40    0.50
   1   0  -7    1.10    1.50
   0   0  -7    0.00    0.70
   0   0  -7    0.20    0.90
   0   0  -7   -0.90    1.30
  -1   0  -7   -0.90    1.00
   1   0   7    0.30    0.70
  -1   0  -7    0.60    1.00
  -1   0  -7    0.50    0.80
  -2   0  -7    1.00    1.20
  -2   0  -7    0.20    1.40
   2   0   7    1.20    1.00
  -2   0  -7   -0.50    0.80
   3   0   7   -0.10    1.10
  -3   0  -7    0.40    0.80
  -3   0  -7    0.20    1.60
  -3   0  -7   -0.50    1.20
   4   0   7    0.00    1.60
  -4   0  -7   -2.30    1.70
  -4   0  -7    0.60    1.30
  -4   0  -7   -0.10    0.90
  -5   0  -7    1.10    1.10
  -5   0  -7    0.80    0.90
   5   0   7   -0.10    1.90
   6   0   7    0.20    2.50
   7   0   7    0.30    2.80
   8   0   7    0.40    3.80
   9   0   7   -1.20    4.80
  10   0   7    1.10    5.70
  11   0   7    4.00    7.40
  11  -1  -7   -3.70    6.80
  11   1  -7   -2.20    6.90
  10  -1  -7    2.20    5.70
  10  -1  -7    0.30    3.60
  10   1  -7    4.60    3.70
  10   1  -7   -2.00    5.10
   9  -1  -7   -0.70    3.10
   9  -1  -7    7.20    4.50
   9   1  -7   12.50    3.80
   9   1  -7    6.80    4.80
   8  -1  -7  135.39    7.70
   8  -1  -7  141.19   10.10
   8   1  -7  120.09   10.00
   8   1  -7  140.09    8.10
   7  -1  -7  100.99    8.30
   7  -1  -7  118.49    8.30
   7  -1  -7  123.49    7.20
   7   1  -7  117.99    8.90
   7   1  -7  120.89    7.40
   6  -1  -7  342.17   13.60
   6  -1  -7  335.87   13.70
   6  -1  -7  356.96   12.80
   6   1  -7  338.77   14.10
   6   1  -7  330.47   13.50
   6   1  -7  338.77   12.70
   5  -1  -7  949.01   27.60
  -5  -1   7  999.20   27.60
   5  -1  -7 1053.19   27.50
   5  -1  -7 1022.40   27.00
  -5   1   7 1012.00   27.10
   5   1  -7 1012.30   28.10
   5   1  -7 1037.90   27.30
   5   1  -7  967.70   27.70
   4  -1  -7  533.75   15.70
  -4  -1   7  516.75   16.00
   4  -1  -7  522.55   18.80
   4  -1  -7  534.35   16.40
  -4   1   7  538.15   15.50
   4   1  -7  528.85   16.50
   4   1  -7  518.85   17.20
   4   1  -7  549.25   16.80
  -3  -1   7 1725.33   41.00
   3  -1  -7 1805.72   42.50
   3  -1  -7 1792.52   40.30
  -3   1   7 1702.03   42.10
  -3   1   7 1768.22   40.10
   3   1  -7 1850.11   43.00
   3   1  -7 1775.62   43.40
   3   1  -7 1782.22   42.50
   2  -1  -7 1282.17   28.30
   2  -1  -7 1277.97   31.50
  -2  -1   7 1262.87   29.70
  -2   1   7 1265.37   28.10
   2   1  -7 1268.37   30.00
   2   1  -7 1288.67   32.50
  -2   1   7 1199.08   31.00
   2   1  -7 1268.77   31.50
   1  -1  -7  661.23   14.60
  -1  -1   7  658.93   16.60
   1  -1  -7  638.24   18.20
   1  -1  -7  678.53   14.60
  -1  -1   7  677.93   19.40
   1   1  -7  678.33   16.90
  -1   1   7  650.53   18.20
   1   1  -7  671.13   19.30
   1   1  -7  645.94   18.40
   0  -1  -7  510.05   11.60
   0  -1  -7  500.75   14.70
   0  -1  -7  508.35   11.70
   0   1   7  486.15   14.50
   0   1  -7  488.15   13.40
   0   1  -7  533.65   15.70
   0   1  -7  515.55   14.90
   0   1  -7  510.15   13.80
  -1  -1  -7    1.90    1.00
   1  -1   7    0.00    0.90
  -1  -1  -7    5.20    1.60
  -1   1  -7    4.20    1.70
  -1   1  -7   -1.30    1.00
   1   1   7    0.50    1.20
  -1   1  -7    1.70    1.00
  -2  -1  -7  122.19    5.50
   2  -1   7  117.69    5.90
  -2  -1  -7  119.89    5.40
   2   1   7  119.29    5.50
   2   1   7  127.69    5.50
  -2   1  -7  130.19    6.20
  -2   1  -7  116.49    5.40
  -2   1  -7  124.99    5.90
  -3  -1  -7 1206.58   28.60
   3  -1   7 1209.38   31.00
  -3  -1  -7 1207.18   30.40
   3   1   7 1167.48   28.40
  -3   1  -7 1213.78   29.00
  -3   1  -7 1190.58   31.10
   3   1   7 1253.07   30.70
  -3   1  -7 1227.28   28.60
  -4  -1  -7  251.87    8.00
   4  -1   7  280.97   11.40
  -4  -1  -7  267.67   11.00
  -4  -1  -7  259.47    8.90
  -4   1  -7  251.07    7.90
  -4   1  -7  254.77    8.20
   4   1   7  266.47   11.00
  -4   1  -7  248.38   11.10
   5  -1   7  407.46   15.70
  -5  -1  -7  411.66   11.20
  -5  -1  -7  416.26   12.10
  -5   1  -7  396.06   10.30
  -5   1  -7  394.76   10.10
   6  -1   7  576.44   20.70
   6   1   7  547.55   20.30
   7  -1   7   78.29    7.90
   7   1   7   78.59    8.00
   8  -1   7  279.97   15.50
   8   1   7  262.07   15.00
   9  -1   7  109.89   11.40
   9   1   7   83.89   10.80
  10  -1   7   28.30    8.20
  10   1   7   23.50    7.60
  11  -1   7   25.90    9.10
  11   1   7   21.60    8.30
  11  -2  -7   31.10    9.30
  11   2  -7   13.90    7.90
  10  -2  -7   82.49    7.10
  10  -2  -7   74.39   10.70
  10   2  -7   73.09   10.20
   9  -2  -7   67.99    8.90
   9  -2  -7   71.59    6.40
   9   2  -7   81.69   11.20
   8  -2  -7   93.69    6.60
   8  -2  -7   71.59    7.80
   8   2  -7   85.59    6.90
   8   2  -7   71.99    9.20
   7  -2  -7  348.77   14.80
   7  -2  -7  342.77   12.90
   7   2  -7  335.57   13.40
   7   2  -7  354.76   15.90
   6  -2  -7   73.99    5.50
   6  -2  -7   66.69    6.80
   6  -2  -7   71.49    6.00
   6   2  -7   68.59    5.70
   6   2  -7   71.79    6.60
  -6   2   7   64.79    6.50
  -5  -2   7   17.70    3.60
   5  -2  -7   17.30    3.20
   5  -2  -7   20.30    3.40
  -5   2   7   16.50    3.30
   5   2  -7   12.10    3.30
   5   2  -7   21.50    4.10
   5   2  -7   15.60    3.10
  -5   2   7   19.80    3.70
  -4  -2   7    2.70    1.90
  -4  -2   7    1.10    2.30
   4  -2  -7    2.40    1.40
   4  -2  -7    0.60    1.50
   4   2  -7    1.70    2.40
  -4   2   7    1.60    1.80
   4   2  -7    2.10    1.80
  -4   2   7    1.90    2.10
  -3  -2   7  669.23   20.60
   3  -2  -7  669.83   17.10
  -3  -2   7  689.43   19.00
   3  -2  -7  662.23   19.30
   3   2  -7  670.83   20.40
  -3   2   7  681.43   17.10
   3   2  -7  684.23   19.40
   2  -2  -7  290.57   10.40
  -2  -2   7  283.37   11.30
  -2  -2   7  275.47    9.60
   2  -2  -7  272.27    7.30
   2   2  -7  279.07    9.80
  -2   2   7  295.87   10.50
   2   2  -7  278.07   11.00
  -2   2   7  269.47    7.20
   1  -2  -7  650.63   18.50
  -1  -2   7  657.13   19.60
  -1  -2   7  657.73   17.50
   1   2  -7  644.24   17.60
  -1   2   7  668.03   18.60
   1   2  -7  682.83   19.50
   0  -2   7 1082.79   28.10
   0  -2  -7 1078.49   27.10
   0   2  -7 1042.00   26.20
   0   2  -7 1077.69   26.80
   0   2  -7 1099.39   27.90
   0   2   7 1054.59   27.00
  -1  -2  -7 2527.75   57.29
  -1  -2  -7 2575.14   54.89
   1  -2   7 2604.04   58.59
   1   2   7 2610.24   54.99
  -1   2  -7 2519.05   57.79
  -1   2  -7 2550.34   58.09
   1   2   7 2463.15   57.29
   2  -2   7 1286.17   31.60
  -2  -2  -7 1297.47   30.80
   2  -2   7 1281.77   32.20
  -2  -2  -7 1288.67   30.20
   2   2   7 1284.77   30.40
   2   2   7 1247.08   30.80
  -2   2  -7 1280.87   32.20
  -2   2  -7 1245.28   31.00
  -3  -2  -7  455.25   14.20
   3  -2   7  451.85   13.70
  -3  -2  -7  467.85   13.30
   3  -2   7  475.15   15.50
   3   2   7  453.95   13.30
  -3   2  -7  432.96   13.20
  -3   2  -7  451.45   17.10
   3   2   7  451.65   14.30
   4  -2   7  238.88   10.80
  -4  -2  -7  238.48   10.30
  -4  -2  -7  242.78    8.10
  -4   2  -7  222.88   11.00
  -4   2  -7  235.08    8.10
   4   2   7  222.28    8.10
   4   2   7  250.57   10.40
  -4   2  -7  231.78    7.90
  -5  -2  -7    0.40    1.10
   5  -2   7   -1.40    1.90
  -5   2  -7    0.90    1.40
  -5   2  -7    0.60    1.80
   5   2   7    3.40    1.70
   6  -2   7   72.09    7.00
  -6  -2  -7   70.59    3.60
   6   2   7   70.19    6.90
   7  -2   7   38.00    7.20
   7   2   7   29.80    6.20
   8  -2   7    9.70    5.50
   8   2   7   14.20    5.30
   9  -2   7    4.60    4.90
   9   2   7    8.70    5.80
  10  -2   7   51.29    8.60
  10   2   7   65.59   10.90
  11  -2   7   35.20   10.10
  11   2   7   42.60   10.80
  11  -3  -7   -3.40    7.20
  11   3  -7   -5.20    7.30
  10  -3  -7   -1.60    4.00
  10  -3  -7   -8.60    5.50
  10   3  -7    2.60    5.70
  10   3  -7    4.80    4.40
   9  -3  -7   19.10    5.60
   9   3  -7   20.40    6.30
   9   3  -7   22.70    5.10
   8  -3  -7   22.30    5.10
   8  -3  -7   29.00    4.90
   8   3  -7   24.20    6.50
   8   3  -7   25.10    4.90
   7  -3  -7   -1.20    2.20
   7  -3  -7    1.20    2.90
   7   3  -7   -1.00    2.70
   6  -3  -7  113.79    6.90
   6  -3  -7  124.29    7.70
  -6  -3   7  119.79    8.50
   6   3  -7  129.29    8.90
  -6   3   7   99.09    7.80
  -5  -3   7   10.80    3.30
   5  -3  -7    6.90    2.30
   5  -3  -7    9.20    2.60
  -5   3   7   12.20    3.20
   5   3  -7    6.90    2.30
  -5   3   7   12.90    3.50
  -4  -3   7   12.60    3.40
   4  -3  -7   17.50    3.30
   4  -3  -7   13.40    2.40
  -4  -3   7   12.70    3.30
   4   3  -7    9.20    3.60
  -4   3   7   14.00    3.30
  -4   3   7   10.40    2.30
   4   3  -7   14.50    3.40
  -3  -3   7  185.98    9.50
   3  -3  -7  210.98    9.00
   3  -3  -7  209.38    7.00
   3   3  -7  198.78    9.60
  -3   3   7  198.08    7.00
  -3   3   7  187.28    8.80
   3   3  -7  198.18    9.00
  -2  -3   7    4.00    1.60
   2  -3  -7    6.70    2.00
  -2  -3   7   11.30    2.70
   2  -3  -7    7.00    1.20
   2   3  -7    6.30    2.40
  -2   3   7    4.20    1.90
   2   3  -7    6.70    1.70
  -2   3   7    7.30    1.20
  -1  -3   7  178.38    8.50
   1  -3  -7  149.29    7.30
  -1  -3   7  160.38    7.10
   1   3  -7  165.58    7.40
   0  -3   7   16.20    2.80
   0  -3  -7   17.20    2.70
   0  -3  -7   17.60    1.10
   0   3  -7   20.80    3.60
   0   3   7   16.60    1.20
   0   3  -7   20.00    2.90
   0   3  -7   19.70    3.20
   0   3   7   15.50    2.60
   1  -3   7  108.09    6.30
  -1  -3  -7  108.79    4.20
  -1  -3  -7  116.09    5.90
  -1   3  -7   97.79    6.00
  -1   3  -7  109.79    6.40
   1   3   7   92.49    5.60
  -1   3  -7  112.39    5.80
  -2  -3  -7   26.50    3.10
   2  -3   7   26.70    4.00
  -2  -3  -7   27.20    2.90
   2  -3   7   24.00    3.40
  -2   3  -7   24.60    3.30
   2   3   7   20.50    2.70
  -2   3  -7   33.20    5.10
   2   3   7   33.70    3.90
   3  -3   7    6.90    2.10
   3  -3   7   10.30    2.70
  -3  -3  -7    8.10    1.90
  -3  -3  -7    7.10    2.40
  -3   3  -7    9.30    3.10
  -3   3  -7   11.60    2.60
   3   3   7    8.00    2.20
   3   3   7   10.70    2.40
   4  -3   7   45.90    5.00
   4  -3   7   45.80    4.00
  -4  -3  -7   48.20    5.60
  -4  -3  -7   49.50    3.90
   4   3   7   41.40    4.40
  -4   3  -7   45.70    3.90
   4   3   7   40.20    3.90
  -5  -3  -7   69.89    4.50
   5  -3   7   73.99    4.50
   5  -3   7   71.19    6.50
   5   3   7   71.59    6.40
  -5   3  -7   65.79    4.10
   5   3   7   67.99    4.50
   6  -3   7   59.99    6.60
  -6  -3  -7   56.69    4.20
   6   3   7   64.49    4.20
  -6   3  -7   57.79    3.20
   6   3   7   60.49    6.60
   7  -3   7    3.10    3.20
  -7  -3  -7    5.20    1.80
   7   3   7    0.50    3.50
   8  -3   7   -3.10    3.40
   8   3   7    6.80    4.20
   9  -3   7   -2.10    4.70
   9   3   7   -5.30    4.50
  10  -3   7    0.90    6.60
  10   3   7   -2.30    6.70
  11  -4  -7   14.00    7.90
  11   4  -7   28.70    8.80
  10  -4  -7  117.59   12.00
  10  -4  -7  140.29    9.30
  10   4  -7  127.89   14.90
  10   4  -7  135.59   10.50
   9  -4  -7  141.59   11.50
   9  -4  -7  134.79    8.90
   9   4  -7  146.29   12.90
   9   4  -7  116.49    9.50
   8  -4  -7  288.37   14.30
   8  -4  -7  265.17   11.80
   8   4  -7  289.07   13.30
   8   4  -7  260.37   15.60
   7  -4  -7  132.69    9.10
   7  -4  -7  136.09    8.20
  -7  -4   7  151.18   10.10
   7   4  -7  148.49   10.70
   6  -4  -7   62.09    5.90
  -6  -4   7   67.59    7.10
   6   4  -7   63.19    6.70
   5  -4  -7    4.40    2.20
   5  -4  -7    0.60    1.80
   5   4  -7   -0.70    2.00
   4  -4  -7   60.19    4.40
  -4  -4   7   57.79    5.90
   4  -4  -7   56.69    5.10
  -4   4   7   66.79    4.70
   4   4  -7   57.29    5.50
  -3  -4   7  254.37   10.80
  -3  -4   7  257.97   11.80
   3  -4  -7  248.38    8.40
   3  -4  -7  271.07   10.70
  -3   4   7  264.07    8.70
   3   4  -7  243.08   10.90
  -3   4   7  230.98   11.70
   2  -4  -7  332.87   12.10
  -2  -4   7  317.57   13.00
  -2  -4   7  309.97   11.70
   2   4  -7  302.67   12.50
  -2   4   7  298.47   11.90
   2   4  -7  314.87   12.10
  -2   4   7  328.37    9.00
   1  -4  -7 1280.17   32.00
  -1  -4   7 1277.67   33.40
  -1   4   7 1254.17   27.20
   1   4  -7 1185.88   32.30
  -1   4   7 1242.48   27.30
   1   4  -7 1201.98   31.80
  -1   4   7 1185.98   31.80
   0  -4  -7 1400.36   30.70
   0  -4  -7 1389.76   34.70
   0  -4   7 1364.96   35.90
   0   4   7 1332.27   34.70
   0   4  -7 1448.66   35.20
   0   4  -7 1343.77   35.20
   0   4   7 1416.76   30.80
  -1  -4  -7 1946.71   45.60
   1  -4   7 1908.91   46.60
  -1  -4  -7 1891.71   42.30
   1   4   7 1948.51   42.70
  -1   4  -7 1832.52   45.70
   1   4   7 1898.91   45.60
  -1   4  -7 1903.81   45.80
  -1   4  -7 1914.71   46.90
   2  -4   7 1373.66   35.40
  -2  -4  -7 1373.96   32.90
  -2  -4  -7 1420.66   34.60
   2   4   7 1449.15   33.60
  -2   4  -7 1400.16   36.80
   2   4   7 1320.67   34.40
   3  -4   7  960.00   26.20
  -3  -4  -7  938.31   25.40
  -3  -4  -7  997.20   25.80
  -3   4  -7  968.40   25.70
   3   4   7  974.90   25.80
   3   4   7  979.50   26.00
  -4  -4  -7  375.06   14.30
   4  -4   7  424.86   16.30
   4  -4   7  411.26   13.80
  -4  -4  -7  416.56   13.50
   4   4   7  417.96   14.90
  -4   4  -7  405.56   13.20
  -5  -4  -7  330.97   11.60
   5  -4   7  310.57   11.20
   5  -4   7  337.87   14.90
  -5   4  -7  296.97   10.60
   5   4   7  310.37   11.30
   5   4   7  333.87   13.90
   6  -4   7   56.69    7.50
   6  -4   7   54.09    4.40
  -6  -4  -7   60.89    5.00
   6   4   7   71.99    8.60
   6   4   7   58.99    5.20
  -6   4  -7   46.20    4.20
  -7  -4  -7    1.10    2.50
   7  -4   7    2.90    3.60
  -7   4  -7    2.10    1.10
   7   4   7    3.30    2.60
   7   4   7    6.90    4.30
  -7   4  -7    2.30    1.30
  -8  -4  -7   12.30    1.80
   8  -4   7    4.70    4.90
   8   4   7   18.80    8.60
   9  -4   7    6.10    5.80
   9   4   7    9.10    6.30
  10  -4   7   15.10    7.30
  10   4   7   15.70    8.20
  10  -5  -7    3.90    4.90
  10  -5  -7    1.80    6.00
  10   5  -7   -1.90    5.80
  10   5  -7   -0.40    6.80
   9  -5  -7    1.80    5.10
   9  -5  -7    5.60    4.30
   9   5  -7   -0.90    5.30
   9   5  -7    6.70    5.00
   8  -5  -7   59.29    6.70
   8  -5  -7   76.89    9.20
  -8  -5   7   56.09    7.60
   8   5  -7   58.09    8.40
   7  -5  -7  196.48   10.90
   7  -5  -7  189.68   10.20
  -7  -5   7  195.38   12.30
   7   5  -7  181.48   12.50
   6  -5  -7  249.78   11.40
   6  -5  -7  250.47   11.50
  -6  -5   7  246.38   13.20
   6   5  -7  224.98   13.20
   5  -5  -7  437.16   15.20
  -5  -5   7  420.66   17.70
   5  -5  -7  492.35   16.70
   5   5  -7  428.06   17.70
  -5   5   7  448.26   15.70
  -4  -5   7  459.95   18.00
   4  -5  -7  485.25   14.90
   4  -5  -7  492.85   16.80
  -4   5   7  436.66   14.60
   4   5  -7  478.85   18.00
   3  -5  -7  367.36   14.30
   3   5  -7  409.56   15.50
  -3   5   7  373.56   12.00
  -3   5   7  400.56   11.70
  -2  -5   7  352.76   14.50
   2  -5  -7  356.46   13.40
  -2   5   7  350.16   10.20
  -2   5   7  355.26   10.60
   2   5  -7  349.17   13.70
   1  -5  -7  217.88    9.80
  -1  -5   7  203.08   10.40
  -1  -5   7  211.28    9.70
  -1   5   7  226.88    7.30
  -1   5   7  216.88    7.00
   1   5  -7  206.68    9.80
   0  -5   7   61.79    5.70
   0  -5  -7   65.79    5.10
   0   5  -7   65.99    6.10
   0   5  -7   77.29    5.70
   0   5   7   73.99    3.80
  -1  -5  -7    7.40    2.20
  -1  -5  -7    5.90    1.70
   1  -5   7    8.20    2.70
  -1   5  -7   12.30    2.80
  -1   5  -7    2.20    4.20
  -1   5  -7    8.50    2.50
   1   5   7    7.60    1.80
  -2  -5  -7   34.40    4.20
   2  -5   7   40.10    5.30
  -2  -5  -7   34.50    4.00
  -2   5  -7   47.10    5.70
   2   5   7   47.40    6.20
  -2   5  -7   30.30    4.20
   2   5   7   31.00    3.40
  -3  -5  -7   25.90    4.00
   3  -5   7   25.40    4.30
   3  -5   7   28.40    4.50
  -3  -5  -7   26.50    4.20
   3   5   7   21.70    4.20
  -3   5  -7   26.90    4.30
   3   5   7   24.40    3.70
   4  -5   7  173.48    8.70
  -4  -5  -7  155.58    8.90
   4  -5   7  169.58   10.00
  -4  -5  -7  158.18    8.30
  -4   5  -7  155.68    8.10
   4   5   7  148.69    8.40
   4   5   7  171.08    9.00
  -5  -5  -7  115.39    7.00
   5  -5   7  115.19    8.90
   5  -5   7  109.69    7.00
   5   5   7  107.39    8.00
   5   5   7  108.99    7.40
   6  -5   7  140.09   10.50
  -6  -5  -7  153.68    8.20
   6  -5   7  142.59    7.60
  -6   5  -7  132.69    7.30
   6   5   7  137.59    8.40
   6   5   7  151.38   10.10
  -7  -5  -7  140.29    7.90
   7  -5   7  137.59    6.60
  -7   5  -7  149.19    6.70
   7   5   7  146.69   11.20
   7   5   7  128.59    8.70
  -8  -5  -7  115.19    7.00
   8  -5   7  102.99   10.90
   8   5   7  135.69   11.60
   9  -5   7   55.19   10.40
   9   5   7   55.99   10.20
  10  -5   7   26.40    8.90
  10   5   7   21.00    8.60
  10  -6  -7    1.80    6.10
  10  -6  -7    4.10    7.00
  10   6  -7    7.80   11.40
  10   6  -7    7.00    6.80
   9  -6  -7   16.10    6.30
   9  -6  -7   12.60    4.70
  -9  -6   7   20.20    6.60
   9   6  -7    5.90    6.00
   9   6  -7    9.80    5.70
   8  -6  -7   12.80    4.60
  -8  -6   7   17.90    6.50
   8  -6  -7    9.00    4.80
   8   6  -7   14.80    5.70
   7  -6  -7    1.40    3.40
  -7  -6   7   -2.90    4.50
   7  -6  -7   -2.10    3.30
   7   6  -7    2.30    5.20
   6  -6  -7    6.10    3.00
  -6  -6   7    9.10    4.30
   6  -6  -7   10.60    3.80
   6   6  -7    4.60    3.80
   5  -6  -7    5.20    2.50
  -5  -6   7    6.50    3.90
   5  -6  -7    3.70    2.50
  -5   6   7    6.90    4.00
   5   6  -7    0.10    3.10
   4  -6  -7    0.70    2.20
  -4  -6   7    0.20    2.60
   4   6  -7   -0.10    2.20
  -4   6   7   -0.80    2.70
   3  -6  -7   12.10    3.00
  -3  -6   7    9.30    3.30
   3   6  -7   11.00    3.70
  -3   6   7    9.10    2.80
  -3   6   7   12.50    2.60
  -2  -6   7   44.70    6.30
   2  -6  -7   33.20    4.40
  -2   6   7   38.90    3.30
  -2   6   7   38.80    3.90
   2   6  -7   36.80    4.90
  -1  -6   7  213.38   11.40
   1  -6  -7  214.78   10.30
   1   6  -7  223.08   10.80
  -1   6   7  210.98    7.70
  -1   6   7  214.08    8.20
   0  -6   7  128.19    8.70
   0  -6  -7  137.09    8.00
   0   6   7  128.19    5.90
   0   6   7  119.39    6.00
   0   6  -7  119.89    7.80
  -1  -6  -7  170.58    7.30
  -1  -6  -7  172.68    9.00
   1  -6   7  170.38   11.00
  -1   6  -7  166.68    9.10
   1   6   7  169.78    7.40
  -2  -6  -7  105.49    6.20
   2  -6   7   96.09    7.40
  -2  -6  -7  101.29    7.00
  -2   6  -7  102.19    7.30
   2   6   7  114.79    6.40
  -3  -6  -7    8.70    3.10
  -3  -6  -7    7.20    2.90
   3  -6   7   13.10    3.50
  -3   6  -7   13.60    3.40
   3   6   7    7.20    2.60
  -4  -6  -7   56.79    6.90
   4  -6   7   55.49    7.20
   4  -6   7   59.89    6.10
   4   6   7   67.99    6.20
   5  -6   7   32.70    5.50
  -5  -6  -7   55.39    7.40
   5  -6   7   48.20    6.00
   5   6   7   53.99    7.20
   6  -6   7    9.20    4.10
   6  -6   7   11.90    3.90
  -6   6  -7    5.50    3.90
   6   6   7   15.40    4.80
  -7  -6  -7   -1.20    3.60
   7  -6   7   -1.20    3.10
   7  -6   7   -1.30    3.90
  -7   6  -7    2.30    4.60
   7   6   7    1.40    4.10
  -8  -6  -7    2.90    4.10
   8  -6   7    7.60    5.40
   8   6   7   -1.80    5.60
  -8   6  -7    9.70    2.80
   9  -6   7   24.70    7.80
   9   6   7   16.10    7.30
  10  -6   7    9.20    7.60
  10   6   7   -0.90    8.70
  10  -7  -7    0.10    7.20
  10  -7  -7    2.60    7.30
  10   7  -7    3.80    8.30
  -9  -7   7    8.40    6.90
   9  -7  -7    2.50    6.20
   9  -7  -7   -0.50    5.50
   9   7  -7    1.70    6.60
   8  -7  -7   50.49    8.30
  -8  -7   7   66.29   10.00
   8  -7  -7   64.99    7.60
   8   7  -7   53.09   10.40
  -7  -7   7  128.19   11.80
   7  -7  -7  128.99    9.80
   7  -7  -7  123.09    9.70
   7   7  -7  128.79   11.70
   6  -7  -7  222.68   11.50
  -6  -7   7  224.28   14.20
   6  -7  -7  236.18   12.30
   6   7  -7  228.08   14.30
  -5  -7   7  533.85   21.60
   5  -7  -7  532.85   19.50
   5   7  -7  491.55   21.10
   4  -7  -7  884.21   27.20
  -4  -7   7  847.92   29.10
  -4   7   7  894.21   24.40
  -4   7   7  858.41   25.20
   4   7  -7  887.71   29.20
  -3  -7   7  873.21   29.10
   3  -7  -7  866.21   26.90
  -3   7   7  883.61   24.50
   3   7  -7  873.41   28.40
  -3   7   7  872.61   23.40
   2  -7  -7  383.26   15.60
  -2  -7   7  364.86   16.80
  -2   7   7  390.26   12.60
  -2   7   7  391.16   13.40
   2   7  -7  404.26   16.50
  -1  -7   7  271.17   13.70
   1  -7  -7  276.77   12.50
  -1   7   7  263.47    9.70
  -1   7   7  250.67   10.10
   1   7  -7  252.27   12.50
   0  -7   7  163.48   10.30
   0  -7  -7  147.59    9.00
   0   7  -7  151.88    9.30
   0   7   7  129.29    7.20
   0   7   7  147.49    7.10
   1  -7   7    5.40    3.00
  -1  -7  -7    4.30    2.50
  -1  -7  -7    2.00    2.00
  -1   7  -7    0.90    2.00
   1   7   7    2.20    1.90
  -2  -7  -7   59.49    5.60
  -2  -7  -7   52.99    5.80
   2  -7   7   64.39    6.50
   2   7   7   54.99    5.20
  -2   7  -7   63.79    6.30
  -3  -7  -7  120.09    8.30
   3  -7   7  127.49    9.00
   3   7   7  121.49    7.90
  -3   7  -7  119.49    8.70
  -4  -7  -7  377.56   15.40
   4  -7   7  402.46   16.30
  -4   7  -7  386.96   17.00
   4   7   7  368.96   15.40
  -5  -7  -7  127.09    9.00
   5  -7   7  114.89   10.10
   5  -7   7  110.59    8.70
   5   7   7  146.49   10.00
   6  -7   7  229.28   14.40
  -6  -7  -7  229.88   12.30
   6   7   7  215.98   13.40
   7  -7   7  282.57   16.90
  -7  -7  -7  281.77   13.70
   7  -7   7  245.78   12.10
  -8  -7  -7  230.18   12.70
   8  -7   7  206.88   10.20
   8  -7   7  201.88   15.40
   8   7   7  184.38   15.00
   9  -7   7   96.39   18.30
   9   7   7   93.49   13.00
   9  -8  -7    5.20    6.90
  -9  -8   7   11.10    9.00
   9  -8  -7    7.10    6.70
   9   8  -7   16.90    8.70
   8  -8  -7   54.49    8.50
  -8  -8   7   46.10    9.70
   8   8  -7   68.79   11.30
   7  -8  -7   60.89    8.00
  -7  -8   7   78.89   11.00
   7  -8  -7   51.79    7.20
   7   8  -7   89.89   12.70
   6  -8  -7   60.99    7.80
  -6  -8   7   57.09    8.20
  -6   8   7   66.49    7.40
   6   8  -7   48.80    7.80
  -5  -8   7   16.10    5.00
   5  -8  -7   10.40    3.90
  -5   8   7   22.60    4.60
   5   8  -7   24.60    6.30
   4  -8  -7   -1.60    2.80
  -4  -8   7   10.30    4.50
   4   8  -7    4.60    4.10
  -4   8   7    1.40    2.70
   3  -8  -7   25.70    5.40
  -3  -8   7   21.80    5.70
  -3   8   7   19.20    3.60
   3   8  -7   24.10    5.50
  -3   8   7   29.40    5.50
   2  -8  -7   47.60    7.00
  -2  -8   7   30.50    6.00
  -2   8   7   44.80    5.10
  -2   8   7   44.80    5.70
   2   8  -7   32.70    5.80
  -1  -8   7  325.97   16.40
   1  -8  -7  349.87   15.30
  -1   8   7  352.56   12.50
   1   8  -7  349.77   15.80
   0  -8  -7  337.77   15.00
   0  -8   7  335.57   16.20
   0   8   7  330.57   13.00
   0   8   7  362.36   12.90
   0   8  -7  355.26   15.70
   1  -8   7  286.97   14.70
  -1  -8  -7  321.67   12.30
  -1  -8  -7  336.87   14.70
   1   8   7  311.57   12.20
  -1   8  -7  282.57   14.00
  -2  -8  -7  218.68   11.90
   2  -8   7  227.58   12.90
  -2   8  -7  244.08   12.80
   2   8   7  227.98   10.70
  -3  -8  -7  170.98   10.60
   3  -8   7  179.18   11.30
   3   8   7  160.68    9.70
  -3   8  -7  165.68   10.90
  -4  -8  -7   31.60    5.40
   4  -8   7   30.50    6.10
  -4   8  -7   39.90    7.30
   4   8   7   34.30    6.10
  -5  -8  -7   13.70    4.70
   5  -8   7    7.20    4.20
  -5   8  -7   13.00    5.50
   5   8   7   13.10    5.10
  -6  -8  -7    8.90    4.90
   6  -8   7   15.20    4.70
   6   8   7   -1.50    4.40
  -7  -8  -7   -2.70    5.50
   7  -8   7   -1.40    4.80
   7  -8   7   -6.80    5.10
   7   8   7    2.20    5.50
   8  -8   7   -3.30    5.80
   8  -8   7    0.50    5.80
  -8  -8  -7    8.80    6.70
   8   8   7   -1.60    6.50
   9  -8   7   -4.90    7.40
   9   8   7   -0.90    8.10
  -8  -9   7    0.30    8.20
   8  -9  -7    5.80    6.50
  -8   9   7   17.80    7.20
   8   9  -7   24.50    8.10
  -7  -9   7   36.20    8.90
   7  -9  -7   39.60    7.50
  -7   9   7   31.00    6.70
   7   9  -7   51.19   10.60
  -6  -9   7   39.70    7.90
   6  -9  -7   28.80    6.70
  -6   9   7   35.40    6.40
   6   9  -7   41.10    8.60
   5  -9  -7  123.19   10.20
  -5  -9   7  130.59   13.90
  -5   9   7  124.49    9.00
   5   9  -7  117.19   11.40
  -4  -9   7  182.98   13.60
   4  -9  -7  208.38   12.60
  -4   9   7  214.08   10.70
   4   9  -7  220.98   14.90
   3  -9  -7   34.80    6.40
  -3  -9   7   19.30    5.70
   3   9  -7   33.70    7.30
  -3   9   7   44.20    5.60
  -2  -9   7    4.40    4.80
   2  -9  -7    3.70    3.30
   2   9  -7    6.10    3.70
  -2   9   7    2.60    2.90
  -1  -9   7   -1.80    3.60
   1  -9  -7    0.80    3.00
  -1   9   7    0.50    4.80
   1   9  -7    2.40    3.30
  -1   9   7    1.90    2.60
   0  -9  -7   43.50    6.90
   0  -9   7   58.29    8.60
   0   9  -7   41.40    7.00
   0   9   7   50.89    5.50
  -1  -9  -7   30.90    5.50
   1  -9   7   45.20    7.50
   1   9   7   33.90    5.30
  -1   9  -7   42.40    6.90
  -2  -9  -7   19.60    4.90
   2  -9   7   22.80    6.00
  -2   9  -7   21.60    5.40
   2   9   7   32.10    5.00
   3  -9   7   43.00    7.50
  -3  -9  -7   49.40    7.20
  -3   9  -7   46.80    7.60
   3   9   7   35.20    6.20
  -4  -9  -7   64.59    8.90
   4  -9   7   60.69    8.80
   4   9   7   66.19    8.90
  -4   9  -7   68.79    9.00
  -5  -9  -7   12.40    4.80
   5  -9   7   13.20    5.40
  -5   9  -7   12.60    5.60
   5   9   7    9.90    5.00
   6  -9   7   20.00    6.10
  -6  -9  -7   17.80    6.10
   6   9   7   22.70    6.80
  -6   9  -7   25.70    6.90
   7  -9   7   66.09    8.80
  -7  -9  -7   70.09    9.50
   7   9   7   77.89   11.30
  -7   9  -7   68.99   10.90
  -8  -9  -7   25.70    8.40
   8   9   7   23.70    8.60
  -8   9  -7   29.90    9.80
  -8 -10   7   43.00   12.10
   8 -10  -7   59.79    9.70
   8  10  -7   59.69   12.50
  -8  10   7   59.29   10.30
  -7 -10   7   66.29   11.50
   7 -10  -7   77.29   10.10
  -7  10   7   75.29   10.10
   7  10  -7   75.29   12.30
  -6 -10   7    6.60    7.10
   6 -10  -7   21.10    7.20
   6  10  -7    8.90    5.90
  -6  10   7   20.60    6.30
   5 -10  -7   -3.60    5.00
  -5 -10   7    9.20    6.20
  -5  10   7   -8.10    4.20
   5  10  -7    1.90    5.50
   4 -10  -7    9.20    5.00
  -4 -10   7   13.80    6.70
   4  10  -7    5.90    4.90
  -4  10   7    4.20    4.30
  -3 -10   7   34.60    7.30
   3 -10  -7   41.10    7.80
  -3  10   7   47.70    6.50
   3  10  -7   32.00    7.00
   2 -10  -7   58.09   11.60
  -2  10   7   61.59    6.50
   2  10  -7   50.09    8.00
  -1 -10   7  259.87   16.20
   1 -10  -7  277.97   15.50
   1  10  -7  264.07   16.10
  -1  10   7  280.57   12.40
   0 -10   7  294.27   16.90
   0 -10  -7  267.47   15.20
   0  10  -7  289.57   18.00
   0  10   7  309.27   13.40
   1 -10   7  470.15   21.60
  -1 -10  -7  457.85   20.10
   1  10   7  484.35   18.00
  -1  10  -7  444.76   20.30
  -2 -10  -7  391.06   18.40
   2 -10   7  355.66   18.80
  -2  10  -7  384.66   18.40
   2  10   7  372.76   16.00
   3 -10   7  237.18   15.00
   3  10   7  241.58   13.60
  -3  10  -7  227.68   14.60
   4 -10   7  266.57   16.10
  -4 -10  -7  246.98   17.40
   4  10   7  247.68   14.70
  -4  10  -7  272.17   16.40
   5 -10   7   30.90    7.10
  -5 -10  -7   49.50    7.90
  -5  10  -7   57.79    9.30
   6 -10   7   14.90    7.00
  -6 -10  -7    6.20    6.50
  -6  10  -7   14.30    7.10
   6  10   7   12.30    7.40
  -7 -10  -7   -7.30    7.90
   7 -10   7    0.80    7.00
  -7  10  -7    0.10    7.60
   7  10   7    0.20    7.10
  -7  11   7   11.50    8.60
   6 -11  -7    6.60    7.00
  -6 -11   7    9.30    8.70
  -6  11   7   16.00    8.90
  -5 -11   7   13.00    7.80
   5 -11  -7   27.30    7.60
   5  11  -7   24.10    7.80
  -5  11   7   25.80    6.80
   4 -11  -7   -5.40    5.00
  -4 -11   7   13.40    6.20
  -4  11   7    0.80    4.90
   4  11  -7    6.90    6.40
  -3 -11   7   12.50    6.50
   3 -11  -7   18.70    6.50
   3  11  -7   25.80    7.40
  -3  11   7   18.80    5.50
   2 -11  -7   42.50    7.90
  -2 -11   7   37.80    8.70
  -2  11   7   47.50    6.70
   2  11  -7   49.80    9.10
  -1 -11   7   29.50    7.50
   1 -11  -7   24.70    6.40
  -1  11   7   41.50    6.30
   1  11  -7   28.10    6.50
   0 -11  -7    8.90    5.10
   0 -11   7   10.10    5.80
   0  11   7   13.60    5.00
   0  11  -7   13.90    5.50
   1 -11   7    4.60    5.90
  -1 -11  -7   -0.30    4.50
  -1  11  -7   -2.50    4.50
   1  11   7   -2.30    4.20
  -2 -11  -7   -4.30    4.70
   2 -11   7   -1.40    5.80
   2  11   7   -2.70    4.40
  -2  11  -7   -1.10    4.40
  -3 -11  -7   15.40    5.50
   3 -11   7   13.20    7.30
  -3  11  -7   22.90    7.30
   3  11   7   14.20    5.80
  -4 -11  -7   37.00    8.20
   4 -11   7   13.50    6.90
  -4  11  -7   27.00    8.10
  -5 -11  -7   19.60    7.50
   5 -11   7   30.00    8.50
  -5  11  -7   41.00    9.60
   5  11   7   42.20    8.80
  -6 -11  -7   45.70    9.80
   6 -11   7   42.50    9.30
   6  11   7   55.09    9.60
  -6  11  -7   45.80   10.10
   5 -12  -7   -6.90    7.00
  -5 -12   7   -2.70    8.30
  -5  12   7   16.30    7.60
   5  12  -7    3.50    7.80
   4 -12  -7    2.40    6.60
  -4 -12   7   -7.50    7.50
  -4  12   7   -4.30    6.00
   4  12  -7    3.10    6.90
  -3 -12   7    2.70    6.90
   3 -12  -7    7.50    6.60
   3  12  -7    8.10    6.20
  -3  12   7   -1.50    5.60
  -2 -12   7   36.20    9.10
   2 -12  -7   56.49    9.30
  -2  12   7   50.39    7.80
   2  12  -7   38.20    8.80
   1 -12  -7  165.08   13.90
  -1 -12   7  193.48   16.30
  -1  12   7  181.88   12.40
   1  12  -7  161.48   14.10
   0 -12  -7  262.77   16.70
   0 -12   7  239.38   17.60
   0  12   7  243.58   14.10
   0  12  -7  217.28   16.00
  -1 -12  -7  129.89   12.90
   1 -12   7  147.69   15.90
   1  12   7  131.09   11.50
  -1  12  -7  155.28   13.90
   2 -12   7   88.99   12.00
  -2 -12  -7  100.49   12.10
   2  12   7   93.59   10.90
  -2  12  -7   84.19   11.90
   3 -12   7   84.89   12.10
  -3 -12  -7   81.09   11.20
   3  12   7   79.19   10.30
  -3  12  -7  132.79   13.00
   4 -12   7  114.19   13.70
  -4 -12  -7   76.19   11.30
   4  12   7  125.29   13.70
  -5 -12  -7  115.49   13.90
   5 -12   7  100.89   13.30
   5  12   7   98.79   13.10
  -5  12  -7  127.79   15.20
   3 -13  -7  225.28   29.50
  -3 -13   7  248.38   20.50
  -3  13   7  211.08   15.40
   3  13  -7  256.47   19.40
   2 -13  -7  222.98   22.40
  -2  13   7  181.98   18.00
   2  13  -7  193.48   16.90
  -1 -13   7  159.28   16.60
   1 -13  -7  177.48   16.00
   0 -13   7   65.69   12.20
   0 -13  -7   69.19   11.40
   0  13   7   58.09   10.40
   0  13  -7   90.99   21.20
  -1 -13  -7    3.20    6.70
   1 -13   7   -0.40    8.00
   1  13   7  -12.20    6.40
  -1  13  -7    4.30   13.20
   2 -13   7    2.70    8.20
  -2  13  -7   -5.00    6.70
   2  13   7   11.00    7.60
  -3 -13  -7   38.90   10.50
   3 -13   7   46.50   11.20
  -3  13  -7   49.00    9.90
   3  13   7   37.70    9.90
  11   0  -8   71.69   11.00
  10   0  -8   49.00    8.50
  10   0  -8   67.19    7.30
   9   0  -8   86.69    7.50
   9   0  -8  104.09   10.20
   8   0  -8    5.10    4.00
   7   0  -8    5.60    2.70
   7   0  -8    2.90    3.20
   6   0  -8   11.40    2.80
  -5   0   8  729.93   21.30
   5   0  -8  683.33   22.30
   5   0  -8  738.93   21.70
   5   0  -8  772.62   22.00
  -4   0   8  336.97   11.50
   4   0  -8  341.27   13.50
   4   0  -8  359.66   12.00
   4   0  -8  326.97   12.40
  -3   0   8 1894.91   43.60
   3   0  -8 1894.71   47.20
   3   0  -8 1956.30   46.30
   3   0  -8 1974.50   44.30
   2   0  -8 3452.15   79.69
   2   0  -8 3483.55   78.49
  -2   0   8 3577.64   75.19
   2   0  -8 3519.55   75.49
   1   0  -8  249.48   10.40
   1   0  -8  262.47    9.80
   0   0  -8 1147.89   30.00
   0   0  -8 1145.69   29.10
   0   0  -8 1176.28   26.50
   0   0  -8 1175.58   26.70
  -1   0  -8 1070.99   27.90
  -1   0  -8 1061.49   25.80
  -1   0  -8 1109.39   27.30
   1   0   8 1075.39   25.80
  -2   0  -8 2872.71   63.09
  -2   0  -8 2777.92   63.09
   2   0   8 2809.82   63.09
  -2   0  -8 2849.01   63.99
   3   0   8  232.48    9.60
  -3   0  -8  254.07    9.30
  -3   0  -8  245.68    9.90
  -3   0  -8  260.87    8.70
  -4   0  -8  169.28    6.30
  -4   0  -8  173.58    8.80
  -4   0  -8  151.48    6.70
   4   0   8  163.38    8.40
  -5   0  -8    7.40    1.60
   5   0   8    5.80    2.70
  -5   0  -8    7.70    1.80
   6   0   8  296.07   14.00
   7   0   8   73.09    7.80
   8   0   8  151.18   11.80
   9   0   8  232.98   15.70
  10   0   8   35.90    9.00
  11   0   8   81.79   13.40
  11  -1  -8   -4.00    7.10
  11   1  -8    7.90    7.50
  10  -1  -8   11.30    4.30
  10  -1  -8   18.50    6.90
  10   1  -8   20.10    6.60
  10   1  -8   13.40    4.90
   9  -1  -8   51.59    7.80
   9  -1  -8   49.80    5.90
   9   1  -8   46.60    6.00
   9   1  -8   45.60    7.60
   8  -1  -8   39.80    6.60
   8   1  -8   32.10    5.00
   8   1  -8   36.50    6.40
   7  -1  -8  190.48    9.60
   7  -1  -8  191.98   10.70
   7   1  -8  196.38   11.20
   7   1  -8  192.08    9.80
   6  -1  -8   49.20    5.20
   6  -1  -8   46.70    4.90
   6   1  -8   52.69    5.60
  -6   1   8   52.79    7.00
   6   1  -8   47.10    5.00
   5  -1  -8   44.90    5.70
   5  -1  -8   35.30    4.50
  -5  -1   8   51.89    5.90
   5  -1  -8   47.00    4.30
   5   1  -8   43.40    5.30
   5   1  -8   35.50    5.10
  -5   1   8   49.20    4.80
   5   1  -8   46.50    4.70
   4  -1  -8  198.98    9.10
   4  -1  -8  205.58    8.10
   4  -1  -8  180.78    9.60
  -4  -1   8  197.68    8.50
   4   1  -8  204.68    9.20
   4   1  -8  206.48    9.00
  -4   1   8  207.18    8.10
   4   1  -8  202.98   10.10
   3  -1  -8    0.70    1.50
   3  -1  -8    1.50    1.10
  -3  -1   8    1.40    1.60
   3   1  -8    0.80    1.40
  -3   1   8    2.90    1.90
   3   1  -8    1.30    1.30
  -3   1   8    1.20    1.20
   3   1  -8    1.40    2.30
  -2  -1   8   56.39    3.50
   2  -1  -8   52.49    2.70
   2  -1  -8   64.99    4.70
   2   1  -8   58.39    3.70
   2   1  -8   57.89    4.50
  -2   1   8   59.09    2.60
   1  -1  -8   12.50    2.50
  -1  -1   8   11.90    1.90
   1  -1  -8   11.90    1.00
   1  -1  -8   12.70    1.00
   1   1  -8   18.60    3.70
  -1   1   8   12.60    2.60
   1   1  -8   12.60    1.90
   1   1  -8   15.80    2.80
   0  -1  -8    7.70    1.80
   0  -1  -8   13.70    1.30
   0  -1  -8   13.70    1.20
   0   1  -8   18.50    3.50
   0   1   8   11.50    2.30
   0   1  -8   14.50    2.20
   0   1  -8   15.40    2.60
   0   1  -8   13.20    2.00
   1  -1   8    2.00    1.20
  -1  -1  -8    2.80    1.20
  -1   1  -8    3.00    1.70
  -1   1  -8    0.80    1.10
   1   1   8    1.60    1.60
  -1   1  -8    3.80    1.70
   1   1   8    2.90    1.10
  -2  -1  -8   58.79    3.90
   2  -1   8   62.69    4.30
  -2  -1  -8   62.19    4.20
   2   1   8   46.60    3.80
  -2   1  -8   62.89    4.10
  -2   1  -8   59.99    4.50
   2   1   8   58.39    3.80
  -2   1  -8   48.70    4.20
   3  -1   8  222.68    9.40
  -3  -1  -8  212.88    8.80
  -3  -1  -8  220.68    7.80
  -3   1  -8  203.08    7.80
  -3   1  -8  202.18    9.30
   3   1   8  220.08    8.80
  -3   1  -8  210.68    8.20
   3   1   8  188.28    7.60
  -4  -1  -8  614.14   17.10
  -4  -1  -8  604.24   16.20
  -4  -1  -8  608.14   19.20
   4  -1   8  593.24   19.50
  -4   1  -8  612.54   16.50
  -4   1  -8  618.94   16.20
  -4   1  -8  623.04   20.00
   4   1   8  628.54   19.30
  -5  -1  -8  111.39    5.40
   5  -1   8  115.09    7.90
  -5  -1  -8  114.89    4.80
  -5   1  -8  112.19    4.80
   5   1   8  121.09    7.90
  -5   1  -8  110.69    4.60
  -6  -1  -8  128.09    4.30
   6  -1   8  147.39    9.90
  -6  -1  -8  129.99    4.20
   6   1   8  131.49    9.20
   7  -1   8   26.70    5.80
   7   1   8   18.60    4.80
   8  -1   8   -3.70    4.80
   8   1   8    5.40    4.60
   9  -1   8   19.10    6.60
   9   1   8   22.10    6.90
  10  -1   8    8.20    6.50
  10   1   8    2.50    6.40
  11  -2  -8    1.10    7.30
  11   2  -8   14.70    7.50
  10  -2  -8    6.10    5.90
  10  -2  -8    4.00    4.40
  10   2  -8   -0.20    4.60
  10   2  -8    4.30    6.50
   9  -2  -8   34.60    5.20
   9  -2  -8   44.80    7.50
   9   2  -8   29.00    5.40
   9   2  -8   30.20    7.00
   8  -2  -8   -3.40    3.30
   8  -2  -8   -2.40    2.60
   8   2  -8    6.30    4.00
   8   2  -8    1.90    3.10
   7  -2  -8   43.00    6.20
   7  -2  -8   37.60    5.90
   7   2  -8   39.70    5.50
   7   2  -8   35.70    6.40
   6  -2  -8   -1.00    2.10
   6  -2  -8    0.40    1.90
  -6   2   8    0.40    3.40
   6   2  -8   -0.90    2.10
   6   2  -8    2.70    2.80
   5  -2  -8  127.19    6.90
   5  -2  -8  136.19    7.60
   5   2  -8  137.29    7.80
   5   2  -8  142.59    8.30
  -5   2   8  118.19    7.00
  -4  -2   8  382.56   13.30
  -4  -2   8  415.56   15.30
   4  -2  -8  376.56   12.00
   4  -2  -8  376.06   13.60
  -4   2   8  380.16   11.90
  -4   2   8  369.16   13.60
   4   2  -8  380.46   13.90
   4   2  -8  383.86   13.80
   4   2  -8  383.96   14.80
   3  -2  -8  874.91   24.00
   3  -2  -8  849.72   20.70
  -3  -2   8  846.52   22.90
  -3  -2   8  875.21   25.50
   3   2  -8  861.91   25.00
  -3   2   8  856.31   23.90
  -3   2   8  868.11   20.60
   3   2  -8  832.62   23.30
   2  -2  -8 1324.67   28.70
  -2  -2   8 1334.07   32.20
  -2  -2   8 1353.46   35.10
   2  -2  -8 1308.27   33.50
   2   2  -8 1365.36   32.70
  -2   2   8 1328.57   28.60
   2   2  -8 1342.57   34.70
  -2   2   8 1299.87   33.50
  -1  -2   8  432.76   14.90
   1  -2  -8  406.26   13.60
  -1  -2   8  404.96   12.30
   1   2  -8  422.16   12.80
   0  -2  -8  713.53   20.10
   0  -2   8  717.63   21.20
   0   2  -8  738.23   21.00
   0   2   8  708.03   20.10
   0   2  -8  727.53   19.30
   0   2  -8  729.73   19.80
  -1  -2  -8  577.24   14.00
   1  -2   8  589.54   17.60
  -1  -2  -8  581.84   16.60
  -1   2  -8  548.25   16.00
   1   2   8  557.54   16.50
  -1   2  -8  542.55   16.50
  -1   2  -8  546.65   17.00
   1   2   8  550.64   13.90
  -2  -2  -8  273.47    9.30
  -2  -2  -8  291.37   10.20
   2  -2   8  291.97   11.00
   2  -2   8  295.87   10.90
   2   2   8  297.77    9.60
  -2   2  -8  297.57   11.20
   2   2   8  288.47   10.30
  -2   2  -8  278.07   10.50
   3  -2   8   41.70    5.20
  -3  -2  -8   41.10    4.00
  -3  -2  -8   36.90    3.30
  -3   2  -8   50.09    5.90
  -3   2  -8   39.40    3.80
  -3   2  -8   40.30    3.50
   3   2   8   32.00    3.50
   3   2   8   38.70    3.70
  -4  -2  -8    1.10    1.30
   4  -2   8    1.80    2.00
  -4  -2  -8   -1.30    2.50
  -4   2  -8    2.40    1.30
  -4   2  -8    1.70    1.60
   4   2   8    0.70    1.70
   4   2   8    1.80    1.80
  -5  -2  -8   16.60    2.50
   5  -2   8   18.30    4.30
   5   2   8   17.70    3.70
  -5   2  -8   21.10    2.60
   5   2   8   15.40    2.60
  -5   2  -8   18.60    2.40
   6  -2   8   32.50    6.10
  -6  -2  -8   31.70    3.30
  -6  -2  -8   30.10    2.90
   6   2   8   30.40    5.50
  -6   2  -8   31.10    2.00
  -6   2  -8   28.10    1.90
   7  -2   8   77.59    9.60
   7   2   8   69.59    8.70
   8  -2   8  123.09   10.90
   8   2   8  120.49   10.80
   9  -2   8  174.48   13.90
   9   2   8  188.78   14.20
  10  -2   8   48.70   10.10
  10   2   8   38.80    9.60
  11  -3  -8    9.80    8.10
  11   3  -8   -1.90   10.00
  10  -3  -8   34.00    5.70
  10  -3  -8   37.00    8.20
  10   3  -8   35.90    6.20
  10   3  -8   40.50    8.70
   9  -3  -8   76.29    7.60
   9  -3  -8   74.99    9.40
   9   3  -8   83.79   11.30
   9   3  -8   90.69    8.50
   8  -3  -8  117.49    9.60
   8  -3  -8  131.79    8.50
   8   3  -8  110.69   10.40
   8   3  -8  139.79    9.20
   7  -3  -8  500.05   18.70
   7  -3  -8  559.44   18.30
   7   3  -8  539.15   18.90
   7   3  -8  531.95   21.10
   6  -3  -8  470.85   16.30
  -6   3   8  458.85   16.50
   6   3  -8  461.05   16.90
   6   3  -8  451.85   18.10
   5  -3  -8  485.25   15.40
   5  -3  -8  491.25   16.60
  -5  -3   8  466.55   18.80
  -5   3   8  497.05   15.70
   5   3  -8  467.55   17.60
   4  -3  -8  792.52   20.60
  -4  -3   8  804.32   23.10
  -4  -3   8  798.02   24.80
   4  -3  -8  804.62   23.20
  -4   3   8  760.92   20.60
   4   3  -8  778.82   23.60
   3  -3  -8  283.17    8.60
   3  -3  -8  291.77   11.50
  -3  -3   8  290.57   12.70
  -3  -3   8  279.47   11.00
  -3   3   8  269.77   11.40
   3   3  -8  301.47   11.60
   3   3  -8  285.17   13.70
  -3   3   8  297.97    8.70
  -2  -3   8  198.88    9.90
  -2  -3   8  197.28    8.40
   2  -3  -8  190.68    8.80
  -2   3   8  177.08    8.80
  -2   3   8  188.28    4.90
  -2   3   8  191.18    5.00
   2   3  -8  191.18    9.60
   2   3  -8  190.58    8.50
   1  -3  -8   16.90    2.90
  -1  -3   8   21.90    3.30
  -1  -3   8   21.80    3.70
  -1   3   8   15.00    2.70
   1   3  -8   28.40    4.30
   1   3  -8   29.00    3.10
   0  -3  -8  518.55   16.30
   0  -3   8  546.75   17.60
   0   3  -8  538.25   16.60
   0   3   8  510.05   16.30
   0   3  -8  519.75   17.00
   0   3  -8  539.95   16.10
  -1  -3  -8  619.34   18.10
  -1  -3  -8  618.94   15.00
   1  -3   8  616.94   19.00
  -1   3  -8  637.24   18.20
   1   3   8  621.14   16.00
  -1   3  -8  609.44   20.00
   1   3   8  579.74   18.00
  -1   3  -8  600.44   18.60
  -2  -3  -8  869.01   23.70
   2  -3   8  920.71   25.00
   2  -3   8  915.41   25.40
  -2  -3  -8  907.51   22.40
  -2   3  -8  862.21   25.20
   2   3   8  881.21   25.60
   2   3   8  917.41   22.70
  -2   3  -8  886.21   24.20
  -3  -3  -8 1188.58   29.90
   3  -3   8 1211.58   31.00
   3  -3   8 1253.07   32.80
  -3  -3  -8 1200.98   30.20
  -3   3  -8 1166.38   30.20
   3   3   8 1184.58   30.10
  -3   3  -8 1178.28   32.70
   3   3   8 1205.28   30.50
   4  -3   8 1405.36   38.00
  -4  -3  -8 1441.26   34.30
  -4  -3  -8 1385.86   36.00
   4  -3   8 1438.06   34.80
   4   3   8 1432.26   36.50
   4   3   8 1388.96   34.20
  -4   3  -8 1366.06   33.90
  -5  -3  -8 1122.99   27.50
   5  -3   8 1103.69   32.50
   5   3   8 1034.50   27.00
   5   3   8 1129.79   31.50
  -5   3  -8 1109.69   26.80
  -5   3  -8 1063.69   26.70
   6  -3   8  566.14   21.50
  -6  -3  -8  543.75   15.60
  -6   3  -8  576.04   14.50
   6   3   8  553.34   15.40
   6   3   8  593.84   21.10
  -6   3  -8  533.55   14.20
   7  -3   8  326.57   16.30
  -7  -3  -8  295.67    9.50
   7   3   8  326.57   15.90
   8  -3   8   25.20    6.80
   8   3   8   15.50    5.70
   9  -3   8   16.50    6.10
   9   3   8   10.10    6.40
  10  -3   8   10.50    7.40
  10   3   8   16.50    7.40
  11  -4  -8    3.20    8.00
  11   4  -8    8.70    8.30
  10  -4  -8   -0.10    4.80
  10  -4  -8   -5.10    5.80
  10   4  -8   -3.80    6.40
  10   4  -8   -2.00    5.50
   9  -4  -8    3.30    4.00
   9  -4  -8   -8.50    4.40
   9   4  -8    7.60    4.50
   9   4  -8    1.90    5.60
   8  -4  -8   -0.30    3.60
   8  -4  -8   -2.90    3.10
   8   4  -8   -2.20    4.50
   8   4  -8    1.20    3.90
  -7  -4   8   17.50    4.90
   7  -4  -8   19.10    4.60
   7  -4  -8   21.20    4.20
   7   4  -8   14.90    4.60
   7   4  -8   16.20    4.30
  -6  -4   8    6.80    3.20
   6  -4  -8   14.40    3.40
   6  -4  -8    8.00    3.10
   6   4  -8    3.80    2.90
  -6   4   8   15.50    4.40
  -5  -4   8    2.50    2.80
   5  -4  -8   -0.40    2.00
   5  -4  -8   -0.70    1.90
   5   4  -8    1.60    2.70
  -5   4   8    0.30    2.80
   4  -4  -8   11.20    3.00
   4  -4  -8   10.10    2.30
  -4  -4   8   10.10    3.50
   4   4  -8   12.90    3.30
  -4   4   8    9.40    2.60
   3  -4  -8   88.39    6.20
  -3  -4   8   77.89    6.80
   3  -4  -8   82.09    4.10
  -3  -4   8   73.79    6.10
   3   4  -8   93.79    6.50
  -3   4   8   76.09    4.20
  -2  -4   8  407.96   15.80
   2  -4  -8  413.86   14.60
  -2  -4   8  414.66   14.20
   2   4  -8  413.26   14.60
  -2   4   8  408.26   10.30
  -2   4   8  410.46   10.10
  -1  -4   8  251.37   10.40
  -1  -4   8  275.87   12.00
   1  -4  -8  262.17   10.70
  -1   4   8  266.57    6.20
   1   4  -8  266.47   12.90
  -1   4   8  258.27    6.20
   1   4  -8  249.58   10.60
   0  -4   8   93.89    6.70
   0  -4  -8  101.79    6.30
   0   4   8  102.29    3.50
   0   4  -8  103.09    6.90
   0   4   8   88.19    6.20
   0   4  -8  104.69    7.00
   0   4  -8  103.49    6.30
  -1  -4  -8   58.89    4.80
  -1  -4  -8   61.59    3.40
   1  -4   8   61.09    5.30
  -1   4  -8   60.69    5.50
   1   4   8   47.10    4.90
   1   4   8   60.29    3.40
  -1   4  -8   62.69    5.00
  -1   4  -8   65.79    5.70
  -2  -4  -8  139.89    6.10
  -2  -4  -8  136.89    7.20
   2  -4   8  146.59    8.00
   2   4   8  140.39    6.30
  -2   4  -8  143.19    7.60
  -2   4  -8  154.18    8.90
   2   4   8  125.89    7.30
  -2   4  -8  133.49    7.60
  -3  -4  -8   90.99    5.70
  -3  -4  -8   92.19    5.80
   3  -4   8   92.09    6.80
   3  -4   8   90.29    6.10
   3   4   8   94.19    5.90
  -3   4  -8   86.39    6.00
   3   4   8   86.99    6.10
   4  -4   8   41.30    5.50
  -4  -4  -8   49.90    4.50
  -4  -4  -8   57.29    6.20
   4  -4   8   49.10    4.80
   4   4   8   53.49    5.30
  -4   4  -8   50.19    4.90
   4   4   8   55.49    5.10
   5  -4   8  112.59    8.60
   5  -4   8  112.89    6.50
  -5  -4  -8  111.69    6.50
  -5   4  -8  113.09    6.40
   5   4   8  115.29    6.80
   5   4   8  112.49    7.90
   6  -4   8  100.99    9.00
  -6  -4  -8  100.39    6.30
  -6   4  -8   86.59    5.50
   6   4   8   91.19    6.30
   6   4   8   98.09    8.00
  -6   4  -8   99.19    5.30
   7  -4   8   65.09    8.80
  -7  -4  -8   72.69    5.60
  -7   4  -8   76.49    3.60
   7   4   8   59.29    7.80
   7   4   8   70.99    5.70
  -7   4  -8   70.79    3.30
   8  -4   8   21.20    5.90
  -8  -4  -8   33.70    2.70
  -8  -4  -8   34.10    3.40
   8   4   8   25.20    7.70
   9  -4   8    1.80    6.00
   9   4   8    7.60    6.20
  10  -4   8    5.10   12.80
  10   4   8   -9.30    6.90
  10  -5  -8   22.40    5.60
  10  -5  -8   15.60    7.20
  10   5  -8   16.00    6.40
  10   5  -8    4.90    7.30
   9  -5  -8   47.30    6.40
   9  -5  -8   49.90    8.20
   9   5  -8   43.10    7.20
   9   5  -8   33.00    7.80
   8  -5  -8  145.89    9.50
   8  -5  -8  117.79    9.80
  -8  -5   8  141.59   11.40
   8   5  -8  154.48   10.90
   8   5  -8  159.68   12.70
  -7  -5   8  211.48   12.80
   7  -5  -8  186.28   10.30
   7  -5  -8  175.48   10.50
   7   5  -8  178.98   12.50
   6  -5  -8  190.48   10.30
  -6  -5   8  196.88   12.30
   6   5  -8  204.28   12.40
   5  -5  -8  114.89    6.70
   5  -5  -8  105.79    7.50
  -5  -5   8   89.39    8.50
   5   5  -8  100.09    8.30
   4  -5  -8   83.29    5.20
  -4  -5   8   69.69    7.30
   4  -5  -8   91.49    6.90
   4   5  -8  100.49    7.70
  -4   5   8   87.69    5.60
   3  -5  -8  160.18    8.90
  -3  -5   8  154.28    9.90
  -3   5   8  172.58    6.50
   3   5  -8  166.68    9.50
  -3   5   8  171.88    6.90
   2  -5  -8   74.49    6.50
  -2  -5   8   85.79    7.00
   2   5  -8   85.09    6.60
  -2   5   8   79.29    4.00
  -2   5   8   77.69    3.70
   1  -5  -8   58.19    5.70
  -1  -5   8   45.40    5.90
  -1   5   8   60.39    3.20
   1   5  -8   59.19    5.30
  -1   5   8   62.99    3.10
   0  -5  -8   92.09    6.30
   0  -5   8   83.59    6.70
   0   5   8   87.49    3.90
   0   5   8   89.69    4.40
   0   5  -8   81.69    6.00
  -1  -5  -8  209.88    7.30
   1  -5   8  201.58   10.30
  -1  -5  -8  196.98    9.40
  -1   5  -8  167.28   10.30
   1   5   8  210.98    7.50
  -2  -5  -8  320.37   12.50
   2  -5   8  324.27   13.40
  -2  -5  -8  335.57   10.90
  -2   5  -8  305.17   12.80
   2   5   8  318.47   11.10
   3  -5   8  432.66   15.60
  -3  -5  -8  407.66   13.90
  -3  -5  -8  436.16   15.00
   3  -5   8  450.45   17.00
   3   5   8  414.36   14.40
  -3   5  -8  404.56   14.80
   4  -5   8  322.87   13.00
  -4  -5  -8  345.17   12.80
  -4  -5  -8  322.77   13.00
   4  -5   8  328.27   14.90
  -4   5  -8  324.27   12.60
   4   5   8  356.46   13.70
   5  -5   8  522.35   20.60
  -5  -5  -8  549.95   17.40
   5  -5   8  526.85   17.30
  -5   5  -8  482.95   16.40
   5   5   8  535.35   19.10
   6  -5   8   89.59    6.40
   6  -5   8   91.89    9.10
  -6  -5  -8   99.39    6.90
   6   5   8   90.19    8.30
   6   5   8   89.29    7.50
  -6   5  -8   84.89    6.50
  -7  -5  -8  132.69    7.90
   7  -5   8  129.59   11.10
  -7   5  -8  111.19    6.30
   7   5   8  112.59   10.20
   7   5   8  100.99    8.00
  -7   5  -8  120.59    6.10
   8  -5   8   40.50    8.10
  -8  -5  -8   47.60    5.00
   8   5   8   30.70    7.10
   9  -5   8   19.20    7.20
   9   5   8    6.10    6.60
  10  -5   8    8.10    7.80
  10   5   8   -3.50    8.20
  10  -6  -8    2.90    6.30
  10  -6  -8    7.90    7.30
  10   6  -8    9.90    9.80
  10   6  -8   14.20    7.40
   9  -6  -8   12.90    5.40
   9  -6  -8   20.20    6.70
   9   6  -8   28.60    7.70
   9   6  -8   18.00    6.40
   8  -6  -8   -3.40    4.10
  -8  -6   8    3.00    5.30
   8  -6  -8    1.50    4.50
   8   6  -8    7.10    5.50
   7  -6  -8    7.10    4.00
   7  -6  -8    4.80    3.80
  -7  -6   8   -0.10    4.80
   7   6  -8   12.20    5.70
   6  -6  -8   71.19    7.10
   6  -6  -8   81.39    7.00
  -6  -6   8   75.39    9.40
   6   6  -8   87.59    8.80
   5  -6  -8   31.60    5.10
   5  -6  -8   37.10    4.90
  -5  -6   8   32.10    6.00
   5   6  -8   35.70    6.40
  -5   6   8   33.60    5.40
   4  -6  -8  396.36   15.70
  -4  -6   8  422.26   17.90
   4   6  -8  398.46   16.90
  -4   6   8  383.06   13.60
  -4   6   8  409.56   13.10
  -3  -6   8  460.75   19.10
   3  -6  -8  488.25   17.60
  -3   6   8  482.95   13.90
  -3   6   8  462.65   14.30
   3   6  -8  517.75   19.00
  -2  -6   8  737.83   25.20
   2  -6  -8  767.12   23.70
   2   6  -8  763.62   24.40
  -2   6   8  777.82   19.30
  -2   6   8  748.43   19.60
  -1  -6   8  692.13   23.80
   1  -6  -8  745.93   22.80
   1   6  -8  709.43   22.90
  -1   6   8  713.43   18.50
  -1   6   8  705.73   18.10
   0  -6  -8  918.91   26.40
   0  -6   8  892.81   27.80
   0   6   8  876.41   22.30
   0   6   8  868.41   22.00
   0   6  -8  872.21   26.50
   1  -6   8  549.45   19.70
  -1  -6  -8  519.05   15.10
  -1  -6  -8  542.45   18.40
  -1   6  -8  539.55   18.90
   1   6   8  555.34   15.70
  -2  -6  -8  360.86   14.00
  -2  -6  -8  351.86   11.90
   2  -6   8  324.87   14.70
  -2   6  -8  338.07   14.30
   2   6   8  348.97   12.30
   3  -6   8  266.17   13.90
  -3  -6  -8  225.68   10.40
  -3  -6  -8  257.77   11.40
  -3   6  -8  254.37   12.40
   3   6   8  249.97   10.90
   4  -6   8    6.50    3.40
   4  -6   8    6.20    3.20
  -4  -6  -8    4.60    2.50
   4   6   8    7.50    3.30
   5  -6   8   87.29    7.20
   5  -6   8   86.99   10.30
  -5  -6  -8   78.49    6.90
   5   6   8   90.89    7.70
  -6  -6  -8  100.19    8.00
   6  -6   8  107.89    7.80
   6  -6   8   95.49   12.00
   6   6   8  108.89    9.50
  -6   6  -8  101.09    8.30
  -7  -6  -8  156.98   14.80
   7  -6   8  143.89    8.60
   7  -6   8  189.48   13.60
   7   6   8  181.88   12.60
  -8  -6  -8  140.29    9.40
   8  -6   8  139.49   13.10
   8   6   8  152.68   13.10
   9  -6   8   51.29    9.70
   9   6   8   75.89   11.10
  -9  -7   8   -4.00    7.00
   9  -7  -8    2.90    5.90
   9  -7  -8   -6.30    5.80
   9   7  -8   -3.20    7.00
   8  -7  -8    3.30    4.90
  -8  -7   8   -0.90    6.50
   8  -7  -8   -9.90    4.20
   8   7  -8   -3.40    5.70
  -7  -7   8    3.50    5.80
   7  -7  -8    0.60    3.90
   7  -7  -8    5.00    4.10
   7   7  -8    3.40    4.80
   6  -7  -8    8.40    3.70
  -6  -7   8   15.50    5.60
   6  -7  -8   -0.50    3.90
   6   7  -8    7.70    5.70
  -5  -7   8    1.80    4.20
   5  -7  -8   -2.00    3.00
  -5   7   8    3.00    8.40
  -5   7   8    6.20    3.00
   5   7  -8    9.10    4.00
  -4  -7   8   30.40    6.20
   4  -7  -8   18.60    4.60
  -4   7   8   21.60    3.70
  -4   7   8   19.00    4.80
   4   7  -8   19.70    5.30
  -3  -7   8   70.59    8.60
   3  -7  -8   65.79    6.90
  -3   7   8   70.69    4.90
  -3   7   8   67.99    5.90
   3   7  -8   67.79    7.40
   2  -7  -8   21.10    4.20
  -2  -7   8   23.30    5.10
  -2   7   8   25.50    3.40
   2   7  -8   21.20    4.70
  -2   7   8   27.90    4.00
   1  -7  -8    6.40    3.20
  -1  -7   8    7.50    3.00
   1   7  -8    9.50    3.80
  -1   7   8    7.80    2.20
  -1   7   8    9.30    2.70
   0  -7  -8    2.90    2.70
   0  -7   8    4.10    3.00
   0   7  -8    2.30    2.20
   0   7   8    4.20    2.10
   0   7   8    3.50    2.40
   1  -7   8   14.70    4.10
  -1  -7  -8   19.30    3.50
  -1  -7  -8   19.40    4.00
   1   7   8   18.30    3.20
  -1   7  -8   17.40    3.90
  -2  -7  -8   40.70    5.50
  -2  -7  -8   57.59    5.50
   2  -7   8   53.29    7.20
   2   7   8   48.20    4.90
  -2   7  -8   35.80    5.40
  -3  -7  -8   16.50    4.70
   3  -7   8   15.30    4.00
  -3  -7  -8   16.00    3.70
  -3   7  -8   25.40    5.00
   3   7   8   31.00    4.50
   4  -7   8   13.40    4.10
  -4  -7  -8    9.40    3.50
  -4   7  -8   15.90    5.00
   4   7   8    4.20    3.20
   5  -7   8    2.90    3.40
  -5  -7  -8    6.10    3.50
   5  -7   8    6.10    3.70
   5   7   8    1.50    3.40
  -6  -7  -8    2.40    3.90
   6  -7   8    2.10    3.90
   6  -7   8    2.60    3.80
   6   7   8    1.90    4.10
  -7  -7  -8    3.40    4.50
   7  -7   8    1.40    4.80
   7  -7   8    1.60    4.10
   8  -7   8   19.60    6.30
   8  -7   8   20.90    7.30
  -8  -7  -8   22.20    6.20
   8   7   8   19.10    7.10
   9  -7   8    7.30    8.10
   9   7   8   -0.10    7.70
  -9  -8   8   17.10    9.00
   9  -8  -8  -12.50    6.70
   9  -8  -8   14.80    7.30
   9   8  -8   17.70    9.20
  -8  -8   8   17.30    7.90
   8  -8  -8    8.40    5.70
   8   8  -8   11.30    6.70
  -7  -8   8    0.00    6.30
   7  -8  -8    4.10    4.50
   7   8  -8   -2.20    5.20
   6  -8  -8    1.00    4.20
  -6  -8   8   14.10    6.00
   6   8  -8   12.20    5.80
  -6   8   8    8.50    4.30
  -5  -8   8   25.40    5.80
   5  -8  -8   24.70    5.10
  -5   8   8   40.60    5.70
  -4  -8   8  145.59   11.90
   4  -8  -8  135.59   10.10
  -4   8   8  160.18    8.40
  -4   8   8  140.09    9.80
   4   8  -8  163.68   11.80
  -3  -8   8  402.86   19.20
   3  -8  -8  423.56   17.60
  -3   8   8  393.96   14.80
  -3   8   8  422.66   14.00
   3   8  -8  403.76   18.50
  -2  -8   8  510.75   21.60
   2  -8  -8  501.95   19.60
  -2   8   8  519.35   15.90
   2   8  -8  519.55   20.60
  -2   8   8  490.35   16.40
  -1  -8   8  640.14   24.50
   1  -8  -8  693.73   23.20
  -1   8   8  626.94   18.50
  -1   8   8  594.54   18.90
   1   8  -8  642.24   23.30
   0  -8  -8  747.93   24.90
   0  -8   8  749.03   26.60
   0   8  -8  721.83   25.10
   0   8   8  712.23   21.30
   0   8   8  742.93   21.10
   1  -8   8  468.45   19.70
  -1  -8  -8  441.76   15.20
  -1  -8  -8  458.75   18.10
  -1   8  -8  468.65   18.70
   1   8   8  451.65   15.40
  -2  -8  -8  439.06   15.70
   2  -8   8  445.66   19.20
  -2  -8  -8  479.15   18.60
  -2   8  -8  469.05   19.00
   2   8   8  448.46   16.10
   3  -8   8  131.19   10.00
  -3  -8  -8  130.99    9.40
   3   8   8  124.19    8.60
  -3   8  -8  141.19   10.10
  -4  -8  -8    2.70    3.50
   4  -8   8    3.20    3.90
  -4   8  -8   -0.50    3.20
   4   8   8   -0.20    3.50
  -5  -8  -8    9.70    4.60
   5  -8   8   15.40    4.90
  -5   8  -8   14.30    5.30
   5   8   8   10.50    5.00
   6  -8   8   27.60    5.40
  -6  -8  -8   30.50    6.80
   6   8   8   33.50    7.20
  -6   8  -8   21.50    6.40
  -7  -8  -8   40.30    7.20
   7  -8   8   27.50    6.40
   7  -8   8   35.00    8.70
   7   8   8   29.70    7.60
   8  -8   8   58.99   11.10
  -8  -8  -8   56.99    9.00
   8   8   8   80.89   11.20
  -8  -9   8   43.90   11.00
   8  -9  -8   59.59    9.10
   8   9  -8   30.40   15.90
  -8   9   8   70.89   10.00
   7  -9  -8  164.48   13.30
  -7  -9   8  163.58   15.80
   7   9  -8  144.19   14.10
  -7   9   8  159.68   12.10
   6  -9  -8  174.78   12.50
  -6  -9   8  185.18   15.00
   6   9  -8  180.38   14.50
  -6   9   8  188.48   11.40
  -5  -9   8  225.98   15.90
   5  -9  -8  183.48   14.00
   5   9  -8  206.38   14.50
  -5   9   8  197.68   10.80
  -4  -9   8  157.78   13.40
   4  -9  -8  165.08   11.50
  -4   9   8  188.58    9.80
   4   9  -8  170.28   12.80
   3  -9  -8   40.60    6.80
  -3  -9   8   34.50    7.80
  -3   9   8   34.70    5.20
   3   9  -8   36.00    6.60
   2  -9  -8   40.80    6.90
  -2  -9   8   38.50    6.40
   2   9  -8   44.30    7.20
  -2   9   8   43.40    6.30
  -2   9   8   40.10    5.10
  -1  -9   8    4.30    4.30
   1  -9  -8    8.90    4.00
  -1   9   8    9.70    3.10
   1   9  -8    4.40    3.60
  -1   9   8   17.30    4.80
   0  -9  -8   44.20    6.50
   0  -9   8   37.20    6.90
   0   9   8   35.40    5.90
   0   9  -8   30.50    5.70
   0   9   8   41.60    5.40
   1  -9   8  190.18   13.10
  -1  -9  -8  182.18   11.80
  -1   9  -8  189.48   12.20
   1   9   8  201.58   10.20
   2  -9   8  282.97   16.30
  -2  -9  -8  322.97   15.70
  -2   9  -8  319.87   16.10
   2   9   8  304.27   13.50
   3  -9   8  302.87   16.30
  -3  -9  -8  301.17   15.30
  -3   9  -8  302.37   16.10
   3   9   8  307.17   14.30
   4  -9   8  329.17   17.10
  -4  -9  -8  323.57   16.60
   4   9   8  350.86   16.10
  -4   9  -8  359.96   18.00
   5  -9   8  239.08   14.70
  -5  -9  -8  234.78   14.30
  -5   9  -8  255.97   15.90
   5   9   8  254.87   14.80
  -6  -9  -8  154.58   12.70
   6  -9   8  132.89   11.90
  -6   9  -8  161.58   13.70
   6   9   8  149.29   12.80
  -7  -9  -8   77.09   10.10
   7  -9   8   60.89    8.60
   7   9   8   54.79    9.60
  -7   9  -8   59.69   10.30
  -8  -9  -8   -3.30    8.20
   8   9   8   13.10    8.50
  -8   9  -8   -0.60    7.90
   7 -10  -8    4.90    6.60
  -7 -10   8    2.60    8.10
  -7  10   8    0.00    6.40
  -6 -10   8    0.40    7.40
   6 -10  -8   -2.60    6.00
  -6  10   8    1.70    5.40
   6  10  -8   -2.80    6.60
  -5 -10   8   10.40    6.40
   5 -10  -8   -2.00    4.80
   5  10  -8    4.80    5.90
  -5  10   8    1.70    4.70
  -4 -10   8   -3.90    5.30
   4 -10  -8    1.60    4.90
   4  10  -8   -1.00    4.90
  -4  10   8   -1.90    4.10
  -3 -10   8    4.40    5.60
   3 -10  -8   -2.10    4.10
   3  10  -8   -3.70    3.90
  -3  10   8    2.40    3.70
   2 -10  -8    3.10    4.50
  -2 -10   8    1.60    4.80
  -2  10   8    1.40    3.50
   2  10  -8   10.00    4.80
   1 -10  -8   14.80    5.60
  -1 -10   8    8.70    6.00
  -1  10   8   17.50    4.70
   1  10  -8   11.60    4.40
   0 -10  -8   -8.80    5.50
   0 -10   8    3.40    6.00
   0  10  -8    9.90    5.10
   0  10   8    6.40    3.70
  -1 -10  -8   24.50   10.10
   1 -10   8   10.80    6.10
   1  10   8   14.80    4.50
  -1  10  -8   11.60    5.10
   2 -10   8   -2.00    4.60
  -2 -10  -8    6.10    5.30
   2  10   8    4.00    3.90
  -2  10  -8    4.50    4.70
  -3 -10  -8   -1.70    4.30
   3 -10   8    1.70    5.70
   3  10   8   -2.30    4.30
  -3  10  -8   -2.10    3.70
   4 -10   8  -11.10    5.30
  -4 -10  -8    2.70    5.00
   4  10   8   -2.60    4.70
  -4  10  -8   -1.40    4.80
  -5 -10  -8    6.00    5.60
   5 -10   8   -7.80    5.70
   5  10   8   -5.60    6.10
  -5  10  -8   -5.30    5.20
   6 -10   8   30.30    8.30
  -6 -10  -8   23.90    7.80
   6  10   8    9.30    7.90
  -6  10  -8   36.50    8.60
   7 -10   8  -13.70    7.20
  -7 -10  -8    7.60    8.20
   7  10   8    5.50    7.50
  -7  10  -8   -8.60    6.90
  -6 -11   8   98.59   13.70
   6 -11  -8   85.59   11.60
  -6  11   8   94.99   10.40
   6  11  -8   81.09   11.60
   5 -11  -8  129.99   12.90
  -5 -11   8  120.29   14.40
  -5  11   8  121.19   11.30
   5  11  -8  131.19   13.80
  -4 -11   8  130.79   15.00
   4 -11  -8   86.19   10.70
   4  11  -8   89.49   12.10
  -4  11   8  103.29    9.70
  -3 -11   8   51.99   10.40
   3 -11  -8   74.99   10.60
   3  11  -8   54.49    9.50
  -3  11   8   59.29    7.80
   2 -11  -8    5.00    5.00
  -2 -11   8    5.90    6.10
  -2  11   8    9.10    4.60
   2  11  -8    7.90    5.40
  -1 -11   8   36.10    8.40
   1 -11  -8   15.60    6.10
   1  11  -8   29.50    7.20
  -1  11   8   21.50    5.40
   0 -11  -8   78.09    9.70
   0 -11   8  104.89   13.30
   0  11   8   85.49    8.50
   0  11  -8   76.39   10.50
  -1 -11  -8  153.18   12.60
   1 -11   8  154.58   14.20
  -1  11  -8  140.49   12.50
   1  11   8  158.18   10.80
   2 -11   8  161.18   14.30
  -2 -11  -8  143.19   12.80
   2  11   8  171.48   11.50
  -2  11  -8  162.18   13.10
   3 -11   8  163.08   14.60
  -3 -11  -8  148.69   13.00
   3  11   8  142.69   12.10
  -3  11  -8  131.39   12.60
   4 -11   8  163.28   15.20
  -4 -11  -8  196.18   14.90
  -4  11  -8  215.68   15.70
   4  11   8  174.68   15.30
  -5 -11  -8  146.89   14.40
   5 -11   8  142.99   14.40
   5  11   8  141.09   13.70
  -5  11  -8  148.09   15.50
  -6 -11  -8   95.09   12.70
   6 -11   8   96.89   12.50
   6  11   8  110.39   13.30
  -6  11  -8  135.09   15.70
   5 -12  -8   52.59   10.40
  -5  12   8   51.59   10.30
   5  12  -8   42.20   10.60
   4 -12  -8   76.99   11.20
  -4 -12   8   70.99   12.10
   4  12  -8   80.99   17.70
  -4  12   8   88.79   10.10
   3 -12  -8  207.98   15.60
  -3 -12   8  213.18   18.20
   3  12  -8  175.78   15.10
  -3  12   8  172.78   12.40
  -2 -12   8  194.68   16.90
   2 -12  -8  194.78   15.10
   2  12  -8  228.18   16.20
  -2  12   8  208.88   13.20
  -1 -12   8  102.39   12.90
   1 -12  -8  125.19   13.00
   1  12  -8  109.99   13.10
  -1  12   8  118.89   11.00
   0 -12   8   92.69   13.60
   0 -12  -8   96.99   12.10
   0  12   8   98.19   10.60
   0  12  -8   84.89   11.70
   1 -12   8   35.20    9.20
  -1 -12  -8   25.20    7.60
  -1  12  -8   41.80    8.60
   1  12   8   43.10    7.90
   2 -12   8   23.50    8.30
  -2 -12  -8   15.20    6.40
   2  12   8   22.70    7.70
  -2  12  -8   19.70    7.30
  -3 -12  -8    1.40    6.00
   3 -12   8    1.10    7.70
   3  12   8   -2.50    7.20
  -3  12  -8   -7.50    6.10
   4 -12   8  -10.00    7.50
  -4 -12  -8   -1.70    6.90
  -4  12  -8   -2.20    6.60
   4  12   8    2.80    7.70
   3 -13  -8   20.00    8.90
   3  13  -8   17.00    9.00
   2 -13  -8   10.10    7.60
  -2 -13   8    4.20    8.30
   2  13  -8   -0.10    7.40
  -2  13   8   11.90    7.80
   1 -13  -8    7.20    9.70
   1  13  -8   -4.70    7.00
  -1  13   8   -5.20    6.50
   0 -13  -8   -0.40   12.00
   0 -13   8   -7.90    8.60
   0  13   8    1.60    6.60
   0  13  -8    5.80    7.60
  -1 -13  -8    5.40    9.20
   1 -13   8    3.80    9.30
  -1  13  -8    4.60    7.30
   1  13   8    0.20    7.90
   2 -13   8    2.50   10.10
  -2 -13  -8    9.20    7.90
   2  13   8   -4.00    8.10
  -2  13  -8    7.50    8.00
  11   0  -9    4.50    7.40
  11   0  -9    9.20    7.30
  10   0  -9   -2.20    4.40
  10   0  -9    0.10    5.90
   9   0  -9    0.00    3.60
   9   0  -9   -0.40    4.60
   8   0  -9   -2.90    3.70
   8   0  -9   -1.60    3.10
   7   0  -9    0.70    2.60
   7   0  -9   -1.00    2.80
   5   0  -9    0.90    1.90
  -5   0   9   -0.40    2.50
   5   0  -9   -0.50    1.80
  -4   0   9    1.30    2.00
   4   0  -9    2.80    1.90
   4   0  -9    1.40    1.40
   3   0  -9   -0.90    1.40
   3   0  -9    0.40    1.10
  -3   0   9   -0.70    1.30
   3   0  -9   -0.40    2.70
   2   0  -9    2.30    2.30
   2   0  -9    0.50    0.80
  -2   0   9    0.50    1.00
   2   0  -9   -1.10    1.30
   1   0  -9   -0.20    1.20
   1   0  -9    0.50    0.80
   1   0  -9   -0.20    1.90
   0   0  -9    1.00    2.10
   0   0  -9    0.80    1.00
   0   0  -9   -0.20    0.80
   0   0  -9    0.20    1.30
  -1   0  -9    0.50    1.30
  -1   0  -9    2.10    1.40
   1   0   9   -0.10    1.00
  -1   0  -9    0.50    1.90
  -2   0  -9    4.00    1.70
  -2   0  -9    2.70    1.90
  -2   0  -9   -1.10    1.20
   2   0   9    0.70    1.30
   3   0   9    0.40    1.40
  -3   0  -9    0.50    1.10
  -3   0  -9   -1.10    1.90
  -3   0  -9   -0.20    1.80
   4   0   9    1.40    1.80
  -4   0  -9    2.10    2.60
  -4   0  -9   -0.70    1.20
  -4   0  -9    0.30    1.80
  -5   0  -9    0.80    1.20
  -5   0  -9    0.00    1.80
   5   0   9    3.00    2.50
   6   0   9    4.20    3.10
  -6   0  -9    0.50    1.10
  -6   0  -9    0.30    1.30
   7   0   9   -3.30    3.20
   9   0   9   -3.60    5.30
  10   0   9   -3.60    6.40
  11  -1  -9   50.79    9.90
  11   1  -9   58.99   10.70
  11   1  -9   79.09    9.00
  10  -1  -9   87.49   11.30
  10  -1  -9   84.39    8.60
  10   1  -9   95.09    9.00
  10   1  -9   83.89   10.90
   9  -1  -9  178.28   10.40
   9  -1  -9  159.98   12.30
   9   1  -9  192.58   10.80
   9   1  -9  166.08   13.60
   8  -1  -9  142.99   10.30
   8  -1  -9  133.49    8.60
   8   1  -9  151.08    9.30
   8   1  -9  139.59   10.60
   7  -1  -9   51.19    5.90
   7  -1  -9   60.59    6.50
   7   1  -9   56.59    7.30
   7   1  -9   42.10    5.80
   6  -1  -9  285.07   12.40
   6   1  -9  315.27   13.60
  -6   1   9  309.27   13.00
   6   1  -9  312.37   14.80
  -5  -1   9   33.20    4.90
   5  -1  -9   24.00    3.70
   5  -1  -9   23.40    3.80
   5   1  -9   24.70    4.30
   5   1  -9   23.50    4.10
  -5   1   9   29.30    4.30
  -4  -1   9   38.60    4.20
   4  -1  -9   31.90    3.20
   4  -1  -9   30.10    4.20
  -4   1   9   41.60    3.80
   4   1  -9   46.60    4.60
   4   1  -9   34.10    3.80
  -3  -1   9   33.30    3.40
   3  -1  -9   32.10    2.70
   3  -1  -9   28.80    4.60
   3  -1  -9   44.50    4.30
  -3   1   9   32.90    4.60
   3   1  -9   39.10    4.10
  -3   1   9   35.10    2.80
   3   1  -9   34.40    4.90
   3   1  -9   37.90    3.30
  -2  -1   9 1394.96   32.60
   2  -1  -9 1418.96   35.50
   2  -1  -9 1390.66   30.80
   2   1  -9 1428.46   36.70
   2   1  -9 1367.76   32.90
  -2   1   9 1353.66   35.00
   2   1  -9 1385.76   35.40
  -2   1   9 1394.76   30.60
   1  -1  -9 1263.97   27.30
   1  -1  -9 1275.87   32.50
   1  -1  -9 1270.37   27.30
   1   1  -9 1347.37   33.90
  -1   1   9 1195.38   31.90
   1   1  -9 1258.97   30.00
   1   1  -9 1256.67   32.30
   0  -1  -9 2219.38   52.29
   0  -1  -9 2231.68   47.70
   0  -1  -9 2221.98   47.90
   0   1  -9 2238.18   49.99
   0   1  -9 2281.17   52.39
   0   1  -9 2223.98   50.39
  -1  -1  -9 2816.12   60.99
  -1  -1  -9 2859.81   63.89
  -1   1  -9 2802.72   63.89
   1   1   9 2786.42   63.59
  -1   1  -9 2831.62   64.89
  -1   1  -9 2768.42   62.79
   1   1   9 2816.52   60.99
   2  -1   9 1944.41   46.00
  -2  -1  -9 1972.00   45.70
  -2  -1  -9 1931.81   44.70
   2   1   9 1878.41   45.30
   2   1   9 1964.60   44.70
  -2   1  -9 1948.41   46.50
  -2   1  -9 2037.60   45.90
  -2   1  -9 1924.81   46.00
   3  -1   9 1020.60   27.40
  -3  -1  -9 1004.50   25.60
  -3  -1  -9  993.60   26.50
  -3  -1  -9  984.60   26.50
  -3   1  -9 1033.10   25.70
  -3   1  -9 1004.10   26.20
   3   1   9 1045.60   26.70
  -3   1  -9  964.30   29.20
  -4  -1  -9  431.16   14.00
  -4  -1  -9  447.56   13.20
  -4  -1  -9  425.66   15.50
   4  -1   9  466.55   16.30
   4   1   9  453.25   15.60
  -4   1  -9  441.46   13.60
  -4   1  -9  453.05   13.30
   5  -1   9  149.49    9.00
  -5  -1  -9  141.09    6.70
  -5  -1  -9  145.19    5.90
   5   1   9  132.59    8.50
  -5   1  -9  139.99    5.70
  -5   1  -9  139.79    6.20
   6  -1   9    6.10    3.40
  -6  -1  -9    7.90    2.00
   6   1   9    8.60    3.70
  -6   1  -9    8.70    1.30
  -6   1  -9    8.60    1.50
   7  -1   9    6.90    3.60
   7   1   9   13.50    4.90
   8  -1   9   -0.80    4.10
   8   1   9   12.50    7.00
   9  -1   9  109.69   12.10
   9   1   9  103.59   11.40
  10  -1   9   69.79   11.40
  10   1   9   61.59   11.00
  11  -2  -9    0.60    7.70
  11   2  -9    6.40    8.00
  11   2  -9   -1.00    6.30
  10  -2  -9    9.10    4.80
  10  -2  -9   -3.00    5.80
  10   2  -9    3.60    6.30
  10   2  -9    3.70    4.90
   9  -2  -9    4.10    4.50
   9  -2  -9    9.10    4.00
   9   2  -9    7.70    4.30
   9   2  -9    5.10    5.20
   8  -2  -9   22.20    5.50
   8  -2  -9   29.00    4.90
   8   2  -9   27.90    6.60
   8   2  -9   21.90    4.80
   7  -2  -9  358.26   14.40
   7  -2  -9  344.97   14.90
   7   2  -9  379.86   16.80
   7   2  -9  406.86   15.50
   6  -2  -9  455.85   15.90
   6  -2  -9  439.36   16.00
   6   2  -9  424.86   17.00
   6   2  -9  459.65   16.70
  -6   2   9  429.06   15.70
   5  -2  -9  440.46   15.60
   5  -2  -9  396.96   13.70
   5   2  -9  410.86   17.50
  -5   2   9  410.86   13.70
   4  -2  -9  951.10   24.20
  -4  -2   9  972.90   26.20
   4  -2  -9  928.51   26.70
  -4   2   9  958.60   24.10
   4   2  -9  964.10   27.40
   4   2  -9  994.70   27.00
   3  -2  -9  595.04   18.70
  -3  -2   9  594.54   17.40
   3  -2  -9  583.44   15.00
  -3  -2   9  583.94   20.00
  -3   2   9  610.14   16.30
   3   2  -9  608.24   19.00
   3   2  -9  603.64   18.00
  -3   2   9  554.44   22.20
  -2  -2   9 1584.84   39.90
   2  -2  -9 1489.35   31.70
  -2  -2   9 1511.45   35.90
   2  -2  -9 1521.95   38.00
   2   2  -9 1476.85   38.90
   2   2  -9 1536.45   36.40
  -2   2   9 1456.65   37.60
  -2   2   9 1448.66   31.50
  -1  -2   9 1358.06   32.70
  -1  -2   9 1415.36   36.40
   1  -2  -9 1367.76   34.70
   1   2  -9 1393.16   33.20
  -1   2   9 1310.77   34.40
   1   2  -9 1350.36   35.60
   0  -2   9    6.60    2.30
   0  -2  -9    1.70    1.40
   0   2  -9    3.60    1.90
   0   2   9    4.30    2.00
   0   2  -9    0.10    1.10
   0   2  -9    2.50    2.20
   1  -2   9  142.49    7.80
  -1  -2  -9  152.28    7.20
  -1  -2  -9  147.59    5.10
  -1   2  -9  136.59    7.10
   1   2   9  146.19    5.50
   1   2   9  141.19    8.10
  -1   2  -9  141.19    6.60
  -2  -2  -9  539.15   14.90
  -2  -2  -9  518.45   16.00
   2  -2   9  533.05   16.90
   2  -2   9  536.75   17.00
   2   2   9  556.44   15.00
  -2   2  -9  524.45   16.90
   2   2   9  530.45   16.20
  -2   2  -9  529.95   16.20
  -2   2  -9  521.85   16.60
   3  -2   9  202.78    9.60
  -3  -2  -9  224.08    8.70
  -3  -2  -9  224.38    9.20
  -3   2  -9  226.28    8.80
  -3   2  -9  217.68    9.20
  -3   2  -9  217.38   10.40
   3   2   9  223.38    9.10
   3   2   9  213.38    8.90
   4  -2   9  408.36   15.70
  -4  -2  -9  428.66   15.10
  -4  -2  -9  439.66   13.20
   4   2   9  415.06   13.20
  -4   2  -9  416.16   13.30
  -4   2  -9  431.56   13.20
   4   2   9  427.36   15.10
  -5  -2  -9  189.48    7.40
   5  -2   9  191.58   10.60
   5   2   9  195.58   10.30
  -5   2  -9  172.28    7.30
  -5   2  -9  185.88    7.20
  -6  -2  -9  596.74   15.90
   6  -2   9  593.24   22.20
  -6  -2  -9  597.64   16.50
   6   2   9  607.64   21.90
  -6   2  -9  615.14   16.00
   7  -2   9  302.77   16.00
   7   2   9  310.17   15.70
   8  -2   9  140.39   12.20
   8   2   9  172.38   14.50
   9  -2   9   94.89   12.30
   9   2   9  113.89   13.00
  10  -2   9   30.40    8.00
  10   2   9   34.20    9.20
  11  -3  -9   17.00    8.30
  11   3  -9   11.30    7.80
  10  -3  -9   -7.20    6.00
  10  -3  -9   11.20    5.30
  10   3  -9    8.90    6.70
  10   3  -9    9.60    5.20
   9  -3  -9   11.50    5.60
   9  -3  -9   11.50    4.30
   9   3  -9   14.40    5.20
   9   3  -9    9.40    5.90
   8  -3  -9    0.10    3.60
   8  -3  -9    0.90    3.20
   8   3  -9   -1.10    4.10
   8   3  -9    3.50    3.80
   7  -3  -9    2.30    2.80
   7  -3  -9    1.70    3.00
   7   3  -9   -0.20    3.30
   7   3  -9   -1.70    3.10
   6  -3  -9    3.70    2.40
   6  -3  -9    3.40    2.50
   6   3  -9   -0.60    2.60
  -6   3   9    1.60    3.70
   6   3  -9    3.80    2.90
  -5  -3   9    7.70    3.20
   5  -3  -9   16.00    3.80
   5  -3  -9    7.10    2.50
   5   3  -9    6.90    2.60
  -5   3   9    4.60    2.80
   4  -3  -9   60.59    4.00
   4  -3  -9   54.09    5.30
  -4  -3   9   63.39    6.70
  -4   3   9   58.39    4.30
   4   3  -9   61.99    5.50
  -3  -3   9   41.40    5.60
   3  -3  -9   40.80    4.50
  -3  -3   9   42.60    5.00
   3   3  -9   42.00    4.40
  -3   3   9   39.60    2.60
   2  -3  -9    3.90    2.00
  -2  -3   9    5.00    2.70
  -2  -3   9    4.20    2.10
   2   3  -9    6.00    2.20
  -1  -3   9    0.10    1.70
   1  -3  -9    0.80    1.40
  -1  -3   9   -0.50    1.70
  -1   3   9    1.60    2.40
   1   3  -9   -0.10    1.30
   1   3  -9    0.50    2.20
   0  -3  -9    4.40    1.80
   0  -3   9    3.40    1.80
   0   3   9    3.70    2.50
   0   3  -9    7.70    2.90
   0   3  -9    2.10    2.10
   0   3  -9    3.00    1.60
  -1  -3  -9   21.20    3.30
  -1  -3  -9   28.10    2.10
   1  -3   9   33.00    4.70
  -1   3  -9   29.90    4.10
   1   3   9   28.30    4.20
   1   3   9   28.10    2.20
  -1   3  -9   23.60    3.40
   2  -3   9  161.38    8.30
  -2  -3  -9  165.98    7.70
  -2  -3  -9  156.88    6.30
   2  -3   9  154.38    8.30
  -2   3  -9  150.88    8.00
  -2   3  -9  140.89    8.30
   2   3   9  146.19    7.70
   2   3   9  158.58    6.50
   3  -3   9  289.07   12.50
   3  -3   9  294.67   11.50
  -3  -3  -9  273.67   10.40
  -3  -3  -9  288.87   10.70
  -3   3  -9  294.17   11.30
   3   3   9  280.17   10.90
   3   3   9  293.07   10.80
  -4  -3  -9    7.00    2.20
  -4  -3  -9    3.20    3.00
   4  -3   9    4.70    2.30
   4  -3   9    3.90    2.20
  -4   3  -9    6.00    2.10
  -4   3  -9    5.20    2.50
   4   3   9    5.10    2.30
  -5  -3  -9   10.80    2.50
   5  -3   9    8.80    3.30
   5   3   9   17.20    4.10
   5   3   9   10.80    3.00
  -5   3  -9   12.10    2.80
  -5   3  -9   13.10    2.60
   6  -3   9   -1.00    2.80
  -6  -3  -9   -0.50    2.10
  -6   3  -9    1.10    1.70
   6   3   9   -0.70    2.50
   6   3   9    0.20    3.10
  -6   3  -9   -1.80    2.00
  -7  -3  -9   32.10    3.60
  -7  -3  -9   30.40    3.30
   7  -3   9   32.40    6.50
   7   3   9   30.70    6.60
   8  -3   9    9.90    5.20
   8   3   9    9.90    7.00
   9  -3   9    0.10    5.70
   9   3   9    3.80    6.10
  10   3   9   14.00    7.60
  10  -4  -9    6.60    6.60
  10  -4  -9    6.70    5.40
  10   4  -9   12.00    7.80
  10   4  -9   -2.10    6.00
   9  -4  -9   25.80    6.50
   9  -4  -9   15.90    5.00
   9   4  -9   30.50    6.30
   9   4  -9   42.10    9.10
   8  -4  -9   51.99    6.40
   8  -4  -9   60.49    7.50
   8   4  -9   58.89    7.80
   7  -4  -9  279.27   13.10
   7  -4  -9  316.37   13.50
   7   4  -9  283.47   15.40
   7   4  -9  318.87   14.60
  -6  -4   9  522.75   20.40
   6  -4  -9  523.25   18.30
   6  -4  -9  501.05   17.00
   6   4  -9  507.15   20.10
  -6   4   9  501.25   17.50
  -5  -4   9  630.44   22.70
   5  -4  -9  646.64   20.90
   5  -4  -9  601.34   18.30
  -5   4   9  619.74   18.60
   5   4  -9  656.83   22.40
   4  -4  -9  675.53   18.20
  -4  -4   9  713.23   23.90
   4  -4  -9  668.43   21.50
   4   4  -9  678.53   22.40
  -4   4   9  687.13   18.40
  -3  -4   9 1171.78   34.60
   3  -4  -9 1261.97   33.40
   3   4  -9 1187.08   33.20
  -2  -4   9  812.62   27.60
  -2  -4   9  816.92   23.70
   2  -4  -9  855.01   24.90
   2   4  -9  849.02   24.40
  -1  -4   9  949.31   26.20
  -1  -4   9  961.30   28.60
   1  -4  -9  970.80   27.10
   1   4  -9  970.90   26.90
   0  -4   9   68.79    6.10
   0  -4  -9   69.99    5.50
   0   4   9   73.09    2.20
   0   4  -9   67.69    6.00
   0   4   9   69.29    2.20
   0   4  -9   65.79    5.20
   1  -4   9    3.40    2.20
  -1  -4  -9    4.00    2.00
  -1   4  -9   -0.90    2.60
   1   4   9    2.40    1.30
  -1   4  -9    1.20    1.60
  -1   4  -9   -0.20    2.30
   2  -4   9  224.58   10.60
  -2  -4  -9  227.48    9.70
  -2  -4  -9  213.08    7.90
  -2   4  -9  204.38   10.00
   2   4   9  226.38    8.30
   2   4   9  206.38   11.10
   3  -4   9  255.07   11.30
  -3  -4  -9  265.37   10.60
  -3  -4  -9  264.57   10.10
   3  -4   9  262.67   12.10
  -3   4  -9  260.27   10.90
   3   4   9  235.48   10.60
   3   4   9  256.17   10.20
   4  -4   9  366.96   15.40
  -4  -4  -9  346.47   13.30
   4  -4   9  344.77   13.20
  -4  -4  -9  360.86   12.80
   4   4   9  326.77   12.80
  -4   4  -9  335.17   12.60
   4   4   9  369.76   13.80
   5  -4   9  689.93   24.10
   5  -4   9  702.23   20.20
  -5  -4  -9  699.23   20.00
   5   4   9  716.33   22.80
   5   4   9  647.44   19.80
  -5   4  -9  643.64   19.20
  -6  -4  -9  224.28    9.40
   6  -4   9  210.28   12.90
   6   4   9  211.58   10.60
  -6   4  -9  212.88    8.50
   6   4   9  232.08   12.50
  -6   4  -9  198.08    8.50
  -7  -4  -9  240.38    9.40
   7   4   9  213.08    9.10
   7   4   9  218.88   13.40
   8  -4   9  102.59   11.20
  -8  -4  -9  111.29    5.20
   8   4   9  103.19   10.80
   9  -4   9  121.99   14.80
   9   4   9   92.29   12.20
  10  -4   9   52.89   10.50
  10   4   9   56.79   10.90
  10  -5  -9   56.99    7.70
  10  -5  -9   36.10    7.90
  10   5  -9   32.90    8.80
  10   5  -9   39.40    8.70
   9  -5  -9   61.09    7.80
   9  -5  -9   52.29    8.00
   9   5  -9   40.80    8.50
   9   5  -9   54.79    8.30
   8  -5  -9   57.29    7.70
   8  -5  -9   77.09    8.00
   8   5  -9   82.09   10.80
   8   5  -9   69.19    8.60
   7  -5  -9   67.39    6.90
   7  -5  -9   65.19    7.10
  -7  -5   9   61.59    8.20
   7   5  -9   63.29    9.60
  -6  -5   9   55.39    8.00
   6  -5  -9   70.79    6.10
   6  -5  -9   61.09    6.90
  -6   5   9   69.89    7.50
   6   5  -9   55.49    7.30
  -5  -5   9   35.40    6.20
   5  -5  -9   41.90    4.40
   5  -5  -9   35.90    5.30
   5   5  -9   31.60    5.20
  -5   5   9   46.80    5.50
   4  -5  -9   14.70    3.60
   4  -5  -9   19.80    3.10
  -4  -5   9   11.70    3.90
  -4   5   9   21.10    3.30
   4   5  -9   17.00    4.50
   3  -5  -9  139.69    8.50
  -3  -5   9  124.69    9.30
  -3   5   9  140.89    5.70
   3   5  -9  139.39    8.70
  -3   5   9  140.19    5.30
  -2  -5   9  328.87   14.80
   2  -5  -9  323.27   13.30
  -2   5   9  323.17    8.60
  -2   5   9  323.37    8.50
   2   5  -9  326.47   13.60
  -1  -5   9  289.87   13.60
   1  -5  -9  320.27   12.80
  -1   5   9  305.27    7.50
   1   5  -9  289.77   12.50
  -1   5   9  295.37    7.60
   0  -5   9  613.14   25.70
   0  -5  -9  629.84   20.30
   0   5   9  647.84   15.50
   0   5   9  654.13   15.60
   0   5  -9  668.43   20.80
   1  -5   9  853.01   26.40
  -1  -5  -9  856.81   20.90
  -1  -5  -9  864.91   27.40
  -1   5  -9  824.72   25.10
   1   5   9  885.01   21.30
   2  -5   9  423.06   16.00
  -2  -5  -9  395.96   12.50
   2   5   9  401.66   12.80
  -2   5  -9  393.06   15.20
  -3  -5  -9  200.28    8.70
  -3  -5  -9  181.88    9.20
   3  -5   9  185.58   10.00
  -3   5  -9  177.18    9.90
   3   5   9  174.78    8.50
   4  -5   9   17.00    4.10
  -4  -5  -9   18.20    3.60
   4  -5   9   24.30    4.50
  -4  -5  -9   20.60    4.60
  -4   5  -9   16.80    4.60
   4   5   9   24.70    4.20
   5  -5   9    3.10    3.20
   5  -5   9   -0.60    2.70
  -5  -5  -9    6.60    2.50
  -5   5  -9   -0.40    3.30
   5   5   9    1.80    2.80
  -6  -5  -9    9.60    3.40
   6  -5   9    8.80    3.20
   6  -5   9    8.50    4.20
   6   5   9    7.60    4.00
  -6   5  -9    8.50    6.40
   7  -5   9    6.80    4.80
  -7  -5  -9   14.60    4.00
  -7   5  -9   13.60    3.60
   7   5   9   12.20    5.30
  -7   5  -9    7.80    2.90
   7   5   9   15.10    4.80
   8  -5   9    1.60    5.50
  -8  -5  -9    2.70    3.70
   8   5   9    7.60    6.00
   9  -5   9   31.00    8.40
   9   5   9    9.40    7.00
  10  -6  -9   -4.80    7.10
  10  -6  -9   -4.40    6.20
  10   6  -9   -4.60    7.90
  10   6  -9    6.40    7.70
   9  -6  -9    9.90    5.50
   9   6  -9   -0.40    6.30
   9   6  -9   -0.80    5.90
   8  -6  -9   14.30    5.00
  -8  -6   9    8.40    6.00
   8  -6  -9    6.40    5.00
   8   6  -9   20.70    6.90
   7  -6  -9   25.50    5.80
   7  -6  -9   26.50    4.70
  -7  -6   9   19.50    6.20
   7   6  -9   23.90    6.40
  -6  -6   9   62.69    9.10
   6  -6  -9   68.69    7.40
   6  -6  -9   72.89    8.40
   6   6  -9   81.79    8.80
   5  -6  -9  143.59    7.80
   5  -6  -9  145.09    9.40
  -5  -6   9  139.59   11.00
  -5   6   9  137.39    8.80
   5   6  -9  143.49   10.50
  -4  -6   9  101.79    9.10
   4  -6  -9  109.99    8.20
  -4   6   9  113.09    6.70
  -4   6   9  115.19    5.90
   4   6  -9  120.59    8.90
   3  -6  -9  188.18   10.30
  -3  -6   9  187.18   11.70
  -3   6   9  173.28    6.80
  -3   6   9  182.28    7.40
   3   6  -9  171.48   10.50
  -2  -6   9  157.48   10.40
   2  -6  -9  171.08    9.70
   2   6  -9  163.98    9.80
  -2   6   9  164.58    6.30
  -2   6   9  163.68    5.90
   1  -6  -9   10.10    2.80
  -1  -6   9   12.30    3.50
  -1   6   9   11.80    2.00
   1   6  -9   14.70    3.70
  -1   6   9   10.50    1.90
   0  -6   9   13.70    3.70
   0  -6  -9    9.60    2.80
   0   6   9   19.80    2.70
   0   6  -9   23.90    4.50
   0   6   9   16.90    2.40
   1  -6   9    0.50    2.70
  -1  -6  -9    2.30    2.10
  -1  -6  -9    2.90    1.80
  -1   6  -9    0.00    1.90
   1   6   9    3.80    1.80
  -2  -6  -9    3.50    2.40
   2  -6   9    0.70    2.50
  -2  -6  -9   -0.70    2.00
   2   6   9   -2.90    1.80
  -2   6  -9    1.80    2.50
  -3  -6  -9    1.60    2.30
  -3  -6  -9    4.20    3.10
   3  -6   9    5.20    3.10
  -3   6  -9    2.00    2.60
   3   6   9    6.30    2.60
   4  -6   9   66.69    8.60
  -4  -6  -9   56.99    5.90
   4   6   9   60.39    6.00
   5  -6   9  252.97   14.30
  -5  -6  -9  231.28   11.30
   5  -6   9  235.28   11.70
   5   6   9  258.77   12.70
   6  -6   9  136.79   11.40
  -6  -6  -9  146.69    9.50
   6  -6   9  138.99    9.00
   6   6   9  149.99   10.80
   7  -6   9   69.49    6.90
  -7  -6  -9   73.49    7.80
   7  -6   9   57.59    8.30
   7   6   9   54.69    8.10
  -8  -6  -9   33.00    5.70
   8  -6   9   21.60    6.40
   8   6   9   49.30    9.20
   9  -6   9   -4.20   10.90
   9   6   9   10.30    7.50
  -9  -7   9   50.49    9.80
   9  -7  -9   59.69    9.40
   9   7  -9   45.80   10.10
   9   7  -9   58.59    9.90
   8  -7  -9  101.69   10.30
  -8  -7   9   92.89   11.60
   8  -7  -9  126.39   10.60
   8   7  -9  104.39   13.60
   7  -7  -9  156.48   10.50
  -7  -7   9  181.28   14.30
   7  -7  -9  157.68   11.50
   7   7  -9  180.78   13.70
   6  -7  -9  107.69    8.10
   6  -7  -9  119.79    9.70
  -6  -7   9  110.79   11.20
   6   7  -9   97.69   10.40
  -5  -7   9   55.99    8.10
   5  -7  -9   39.30    6.00
   5   7  -9   59.39    8.70
  -5   7   9   42.10    6.30
  -5   7   9   48.70    5.20
   4  -7  -9   42.60    6.00
  -4  -7   9   48.50    7.90
  -4   7   9   51.19    5.80
   4   7  -9   51.29    7.70
  -4   7   9   49.60    4.60
   3  -7  -9  279.47   13.50
  -3  -7   9  294.67   15.60
  -3   7   9  296.97   10.00
   3   7  -9  267.47   14.20
  -3   7   9  282.47   10.60
   2  -7  -9  481.35   18.50
  -2  -7   9  490.65   20.40
  -2   7   9  473.05   14.20
   2   7  -9  496.05   19.40
  -2   7   9  483.05   13.80
   1  -7  -9  602.14   21.20
  -1  -7   9  607.24   23.00
  -1   7   9  601.34   16.70
  -1   7   9  617.44   16.50
   1   7  -9  605.74   21.90
   0  -7   9 1431.26   41.20
   0  -7  -9 1452.95   39.60
   0   7  -9 1484.45   40.30
   0   7   9 1423.06   34.10
   0   7   9 1386.06   34.30
   1  -7   9  998.80   31.10
  -1  -7  -9  961.80   29.30
  -1  -7  -9  949.40   25.00
   1   7   9  984.80   25.50
  -1   7  -9  998.80   30.20
  -2  -7  -9  852.11   26.70
   2  -7   9  851.91   28.00
  -2  -7  -9  796.82   24.30
  -2   7  -9  921.81   28.20
   2   7   9  878.01   24.10
  -3  -7  -9  448.76   15.80
  -3  -7  -9  455.25   17.50
   3  -7   9  471.85   18.60
  -3   7  -9  478.25   19.00
   3   7   9  444.16   16.30
   4  -7   9  237.78   12.70
  -4  -7  -9  207.38   11.50
  -4   7  -9  229.88   13.10
   4   7   9  224.88   11.50
  -5  -7  -9  125.99    9.20
   5  -7   9  124.29    9.40
  -5   7  -9   81.69   13.10
   5   7   9  141.59    9.90
   6  -7   9   36.30    7.70
  -6  -7  -9   48.90    6.80
   6  -7   9   52.99    6.80
   6   7   9   55.59    8.10
   7  -7   9   -4.70    4.10
   7  -7   9    5.30    5.10
  -7  -7  -9   -0.30    4.60
   7   7   9    3.40    5.60
   8  -7   9   23.90    6.90
  -8  -7  -9   28.50    6.60
   8   7   9   34.20    8.70
   9  -7   9   43.30    9.90
   9   7   9   62.49   10.90
   9  -8  -9    4.60    7.20
   9  -8  -9   -0.90    7.10
  -9  -8   9    1.50    8.80
   9   8  -9   -0.90    7.90
   8  -8  -9    1.50    5.50
   8  -8  -9   12.00    6.00
  -8  -8   9    4.00    8.00
   8   8  -9   -1.20    7.00
  -7  -8   9   33.50    8.70
   7   8  -9   43.50    9.90
  -7   8   9   34.70    6.70
   6  -8  -9   65.39    8.60
  -6  -8   9   57.29   14.80
   6   8  -9   41.30    8.00
  -6   8   9   58.99    7.10
   5  -8  -9   63.69    8.50
  -5  -8   9   71.69   10.30
   5   8  -9   85.29   10.50
  -5   8   9   80.29    9.20
  -4  -8   9  142.59   12.20
   4  -8  -9  134.19   10.40
  -4   8   9  146.79    9.50
   4   8  -9  129.89   11.10
  -4   8   9  160.48    8.20
   3  -8  -9  225.18   12.80
  -3  -8   9  206.88   13.90
   3   8  -9  211.38   13.20
  -3   8   9  219.58    9.10
  -3   8   9  199.38    9.90
   2  -8  -9  135.49    9.90
  -2  -8   9  141.09   11.30
  -2   8   9  139.19    6.90
  -2   8   9  120.79    7.50
   2   8  -9  138.39   10.30
  -1  -8   9  122.19   10.40
   1  -8  -9  117.19    9.10
   1   8  -9  116.89    9.50
  -1   8   9  107.09    7.00
  -1   8   9  118.49    6.30
   0  -8   9   -2.10    3.20
   0  -8  -9    2.50    3.30
   0   8   9    5.20    2.40
   0   8   9    8.50    3.40
   0   8  -9    4.40    3.40
  -1  -8  -9   -2.30    2.80
   1  -8   9   -3.20    3.50
  -1  -8  -9    2.80    3.50
   1   8   9   -1.70    2.30
  -1   8  -9    1.00    2.70
  -2  -8  -9   50.19    5.80
  -2  -8  -9   50.19    6.80
   2  -8   9   54.59    8.00
   2   8   9   56.69    6.30
  -2   8  -9   42.80    6.40
   3  -8   9   47.80    7.10
  -3  -8  -9   46.10    6.70
   3   8   9   42.30    5.80
  -3   8  -9   45.00    6.70
  -4  -8  -9   46.50    6.90
   4  -8   9   50.09    7.70
   4   8   9   62.29    7.70
  -4   8  -9   55.89    7.70
   5  -8   9   69.79    8.40
  -5  -8  -9   86.89    9.60
  -5   8  -9   70.89   10.00
   5   8   9   73.79    9.20
   6  -8   9   44.80    7.20
  -6  -8  -9   20.60    5.80
   6   8   9   34.50    6.90
  -6   8  -9   50.69    9.30
  -7  -8  -9  111.59   11.10
   7  -8   9  107.89   10.50
   7   8   9  115.29   12.40
  -8  -8  -9   31.00    8.30
   8  -8   9   32.40    9.50
   8   8   9   39.00    9.40
  -8  -9   9   50.19   11.20
   8  -9  -9   22.40    7.90
   8   9  -9   38.70    9.80
  -7  -9   9   61.59   11.40
   7  -9  -9   50.49    8.90
  -7   9   9   47.40    7.80
   7   9  -9   43.30    9.80
  -6  -9   9   -0.30    6.70
   6  -9  -9   11.10    5.30
  -6   9   9    9.00    5.00
   6   9  -9    0.00    5.70
  -5  -9   9   17.00    7.30
   5  -9  -9   20.60    5.80
   5   9  -9    9.60    5.20
  -5   9   9    8.70    4.10
  -4  -9   9   28.40    8.00
  -4   9   9   19.00    4.50
   4   9  -9   10.30    5.10
  -3  -9   9  112.39   11.60
   3  -9  -9  115.69    9.90
   3   9  -9   99.39   10.20
  -3   9   9   90.89    9.10
  -3   9   9  107.99    7.20
  -2  -9   9   24.10    6.60
   2  -9  -9   14.10    5.20
   2   9  -9   26.90    6.50
  -2   9   9   13.60    5.10
  -2   9   9   32.90    4.70
   1  -9  -9   89.09   10.10
  -1  -9   9   84.59   10.30
   1   9  -9   81.29    8.80
  -1   9   9   78.59    7.70
  -1   9   9   97.29    6.60
   0  -9  -9  272.47   14.70
   0  -9   9  317.67   17.40
   0   9  -9  274.47   15.20
   0   9   9  311.07   12.10
   0   9   9  310.57   12.80
  -1  -9  -9  236.68   13.40
   1  -9   9  242.58   15.10
  -1   9  -9  234.78   13.70
   1   9   9  253.27   11.00
   1   9   9  206.28   11.40
   2  -9   9   95.29   10.30
  -2  -9  -9  134.69   10.20
  -2   9  -9  138.59   12.90
   2   9   9  137.39    8.80
   3  -9   9   32.80    7.40
  -3  -9  -9   36.60    6.50
   3   9   9   39.00    6.10
  -3   9  -9   38.40    7.60
  -4  -9  -9   56.19    8.10
   4  -9   9   48.60    8.00
   4   9   9   61.69    8.10
  -4   9  -9   48.90    7.70
   5  -9   9   28.00    7.20
  -5  -9  -9   23.60    6.30
  -5   9  -9   30.90    7.50
   5   9   9   24.60    6.30
  -6  -9  -9   10.20    6.00
   6  -9   9   20.80    6.40
  -6   9  -9    5.30    5.50
   6   9   9   14.70    6.40
  -7  -9  -9   -1.80    7.90
   7  -9   9   -4.60    6.90
   7   9   9    6.30    7.20
  -7 -10   9  180.68   18.70
   7 -10  -9  163.18   14.50
  -7  10   9  154.88   12.80
   7  10  -9  145.79   15.90
   6 -10  -9  142.69   13.40
  -6 -10   9  150.48   15.70
   6  10  -9  151.28   14.80
  -6  10   9  149.79   11.40
   5 -10  -9  186.98   14.00
  -5 -10   9  174.98   15.90
  -5  10   9  180.38   11.20
   5  10  -9  158.78   14.20
  -4 -10   9  269.37   18.30
   4 -10  -9  267.67   15.90
   4  10  -9  264.97   17.10
  -4  10   9  251.57   12.20
   3 -10  -9  240.98   14.70
  -3 -10   9  222.08   16.40
  -3  10   9  217.68   11.00
   3  10  -9  217.38   15.10
  -2 -10   9  346.57   19.50
   2 -10  -9  284.47   16.30
   2  10  -9  336.67   17.90
  -2  10   9  339.27   13.40
  -1 -10   9  106.39   13.00
   1 -10  -9  107.79   10.30
   1  10  -9   97.09   10.40
  -1  10   9   94.49    7.70
   0 -10   9   17.70    6.20
   0 -10  -9    9.50    4.70
   0  10  -9   17.70    5.60
  -1 -10  -9   -1.90    3.90
   1 -10   9    0.60    5.40
   1  10   9   -3.50    3.40
  -1  10  -9    4.80    4.50
  -2 -10  -9   36.20    7.30
   2  10   9   53.99    7.30
  -2  10  -9   47.80    8.60
  -3 -10  -9   87.59   10.70
  -3  10  -9   99.39   11.00
   3  10   9   93.69    9.30
  -4 -10  -9  200.68   14.00
  -4  10  -9  235.38   15.60
   4  10   9  219.78   13.60
  -5 -10  -9  196.48   14.60
  -5  10  -9  188.38   15.10
   5  10   9  182.78   14.00
  -6 -10  -9  163.38   14.90
   6  10   9  173.08   15.00
   6 -11  -9  -12.10    6.50
  -6 -11   9   -0.80    8.80
   6  11  -9    0.70    7.50
  -6  11   9   -5.30    7.10
  -5 -11   9   10.50    8.60
   5 -11  -9    3.10    6.40
   5  11  -9   -1.40    7.00
  -5  11   9    4.70    5.80
  -4 -11   9   -1.80    6.40
   4 -11  -9    3.00    5.90
  -4  11   9    4.10    5.20
   4  11  -9    4.50    5.90
  -3 -11   9   -6.00    6.50
   3 -11  -9   -1.80    5.10
   3  11  -9   -1.10    5.80
  -3  11   9   -4.00    4.50
  -2 -11   9   43.10    9.50
   2 -11  -9   30.80    8.00
  -2  11   9   46.40    6.50
   2  11  -9   49.99    9.00
   1 -11  -9   36.30    7.60
  -1 -11   9   20.00    7.90
  -1  11   9   26.60    5.50
   1  11  -9   26.80    7.50
   0 -11  -9   40.30    8.20
   0 -11   9   31.20    8.20
   0  11  -9   35.80    7.40
   0  11   9   39.70    6.40
  -1 -11  -9   19.10    6.30
   1 -11   9   32.00    8.20
  -1  11  -9   20.80    6.10
   1  11   9   40.50    6.60
   2 -11   9   57.09    9.70
  -2 -11  -9   72.49    9.80
  -2  11  -9   58.69    9.20
   2  11   9   61.99    8.50
  -3 -11  -9   25.30    7.00
   3 -11   9   23.40    8.50
  -3  11  -9    8.20    6.10
   3  11   9   14.60    6.20
   4 -11   9    1.40    7.30
  -4 -11  -9   -1.10    5.80
   4  11   9   -4.50    6.40
  -4  11  -9   -2.10    5.70
   5 -11   9   -3.50    7.40
  -5 -11  -9    1.30    6.90
   5  11   9    3.20    7.20
  -5  11  -9    8.80    7.50
   4 -12  -9  100.89   12.80
  -4 -12   9   82.19   15.30
  -4  12   9   97.39   10.80
   4  12  -9   79.39   11.90
  -3 -12   9  175.58   16.90
   3 -12  -9  174.98   15.00
   3  12  -9  128.79   15.70
  -3  12   9  157.38   12.20
   2 -12  -9  107.39   12.50
  -2 -12   9  104.59   14.60
   2  12  -9   90.59   12.00
  -2  12   9   88.19    9.70
  -1 -12   9   14.90    7.70
   1 -12  -9   30.00    8.00
  -1  12   9   31.00    6.70
   1  12  -9   25.30    7.40
   0 -12   9    5.70    7.80
   0 -12  -9   14.20    7.00
   0  12   9   22.90    6.70
   0  12  -9   21.80    7.30
   1 -12   9   24.50    7.90
  -1 -12  -9   18.40    6.80
  -1  12  -9   18.70    6.60
   1  12   9   30.30    6.90
   2 -12   9    1.80    7.30
  -2 -12  -9   11.60    7.10
   2  12   9    4.10    6.50
  -2  12  -9   10.60    6.70
   3 -12   9   -1.10    8.10
  -3 -12  -9   -1.10    6.90
   3  12   9   -4.10    7.40
  -3  12  -9    4.20    6.60
  -4 -12  -9   59.49   11.00
   4 -12   9   45.40   10.80
   4  12   9   59.89   10.50
  -4  12  -9   46.80   10.20
   2 -13  -9   59.69   11.80
  -2 -13   9   34.50   11.20
   2  13  -9   57.89   11.40
  -2  13   9   48.80   10.30
  -1 -13   9   67.89   12.00
   1 -13  -9   70.99   12.20
  -1  13   9   77.09   11.00
   1  13  -9   90.39   13.40
   0 -13   9  112.69   16.10
   0 -13  -9  143.29   15.00
   0  13   9  133.39   13.90
   0  13  -9  102.89   13.10
   1 -13   9  212.88   22.60
  -1 -13  -9  204.88   17.00
   1  13   9  199.58   15.50
  -1  13  -9  196.68   17.10
  11   0 -10   46.70    9.90
  11   0 -10   56.29    8.20
  10   0 -10   76.89    8.20
  10   0 -10   91.99   11.70
   9   0 -10   87.39    8.70
   9   0 -10   70.49    9.60
   8   0 -10  232.08   13.30
   8   0 -10  236.58   12.20
   7   0 -10  146.99    9.30
   7   0 -10  149.19    9.60
   6   0 -10 1021.60   29.60
  -5   0  10  454.45   15.20
   5   0 -10  459.65   16.70
   5   0 -10  451.15   15.50
  -4   0  10   37.80    4.20
   4   0 -10   40.80    3.80
   4   0 -10   34.50    4.80
   3   0 -10   23.90    4.10
  -3   0  10   14.30    2.50
   3   0 -10   21.30    2.90
   2   0 -10  111.29    7.90
   2   0 -10  107.69    6.70
   2   0 -10  113.59    4.80
  -2   0  10  104.49    4.60
   1   0 -10   84.09    4.00
   1   0 -10   75.89    5.50
   1   0 -10   83.39    3.80
   1   0 -10   78.49    6.40
   0   0 -10   16.10    2.20
   0   0 -10   16.10    2.10
   0   0 -10   12.30    2.60
   0   0 -10   10.50    2.90
  -1   0 -10 1902.41   47.40
   1   0  10 1952.20   44.30
  -1   0 -10 1942.01   44.20
  -1   0 -10 1948.91   46.40
  -2   0 -10 1738.33   41.50
  -2   0 -10 1729.93   44.60
  -2   0 -10 1670.63   40.60
   2   0  10 1721.83   40.70
  -3   0 -10 1231.68   31.60
   3   0  10 1232.58   31.60
  -3   0 -10 1180.38   31.50
  -3   0 -10 1230.58   30.60
  -4   0 -10  400.56   12.70
  -4   0 -10  412.26   15.40
   4   0  10  411.56   15.10
  -4   0 -10  411.86   13.60
  -5   0 -10  205.58    8.40
  -5   0 -10  207.48    7.70
   5   0  10  194.38   10.50
  -6   0 -10  205.08    6.70
  -6   0 -10  193.38    6.90
   6   0  10  212.98   12.00
   7   0  10  141.19   10.90
   8   0  10    7.50    5.30
   9   0  10    1.20    6.20
  10   0  10   -3.30    6.80
  11  -1 -10   12.80    7.50
  11  -1 -10   15.30    8.20
  11   1 -10    8.20    6.90
  11   1 -10   10.40    7.60
  10  -1 -10    3.70    5.10
  10  -1 -10   10.60    6.50
  10   1 -10   19.70    5.80
  10   1 -10    3.40    6.70
   9  -1 -10    3.40    4.80
   9  -1 -10   -1.40    3.90
   9   1 -10    5.40    4.30
   9   1 -10    8.10    9.30
   8  -1 -10   -2.70    3.10
   8  -1 -10   -0.20    3.80
   8   1 -10    0.20    3.50
   8   1 -10    1.50    3.90
   7  -1 -10   25.80    5.00
   7  -1 -10   22.50    4.60
   7   1 -10   17.40    4.20
   7   1 -10   21.80    4.90
   6  -1 -10   54.99    6.70
   6  -1 -10   56.09    5.60
   6   1 -10   59.09    6.10
   6   1 -10   50.69    6.10
  -6   1  10   58.29    6.80
   5  -1 -10   38.00    4.10
   5  -1 -10   36.10    5.20
  -5  -1  10   25.70    4.50
   5   1 -10   33.60    4.90
   5   1 -10   41.40    5.30
  -5   1  10   35.50    4.60
  -4  -1  10  287.87   10.70
   4  -1 -10  286.07   12.20
   4  -1 -10  268.87    9.70
   4   1 -10  260.87   13.20
   4   1 -10  281.37   10.90
  -4   1  10  261.67    9.40
   3  -1 -10   48.70    5.70
   3  -1 -10   42.40    3.00
  -3  -1  10   46.50    4.10
   3   1 -10   50.69    5.90
   3   1 -10   45.20    3.80
  -3   1  10   44.50    3.10
   2  -1 -10  274.37   11.20
   2  -1 -10  257.17    7.20
  -2  -1  10  251.57    8.70
  -2   1  10  245.98    6.90
   2   1 -10  252.87    9.00
   2   1 -10  251.07   10.80
   1  -1 -10  153.38    4.40
   1  -1 -10  157.48    4.40
   1  -1 -10  146.79    7.80
   1   1 -10  155.28    6.40
   1   1 -10  161.98    9.10
   1   1 -10  148.09    6.50
   1   1 -10  145.79    7.80
  -1   1  10  150.58    8.00
   0  -1 -10   88.89    3.30
   0  -1 -10   88.19    3.50
   0  -1 -10   99.89    6.10
   0   1 -10   85.49    4.90
   0   1 -10   78.39    6.40
   0   1 -10   90.29    4.70
   0   1 -10   94.19    5.90
   0   1  10   80.79    5.80
  -1  -1 -10   90.29    5.60
  -1  -1 -10   82.89    4.10
  -1   1 -10   80.99    5.50
  -1   1 -10   77.19    6.30
   1   1  10   82.29    4.10
  -1   1 -10   74.49    4.50
   1   1  10   75.69    5.60
  -1   1 -10   80.79    5.00
  -2  -1 -10   63.79    4.70
   2  -1  10   60.49    4.70
  -2  -1 -10   65.69    4.40
  -2  -1 -10   67.09    6.50
   2   1  10   65.19    4.20
  -2   1 -10   66.49    5.10
   2   1  10   61.49    5.60
  -2   1 -10   55.09    4.70
  -3  -1 -10    5.90    1.90
  -3  -1 -10    4.60    2.30
  -3  -1 -10    3.40    2.50
   3  -1  10    2.70    1.80
  -3   1 -10   -0.20    2.40
  -3   1 -10    2.60    2.20
   3   1  10    2.80    1.90
  -3   1 -10    2.00    1.80
  -4  -1 -10   57.89    6.20
  -4  -1 -10   43.80    3.90
  -4  -1 -10   49.99    5.30
  -4   1 -10   44.70    3.90
   4   1  10   49.70    5.00
  -4   1 -10   47.90    4.70
  -5  -1 -10    4.70    2.70
   5  -1  10    6.20    3.10
  -5  -1 -10    4.00    1.80
   5   1  10    4.50    2.80
  -5   1 -10    6.20    2.40
  -5   1 -10    3.20    1.80
   6  -1  10   92.39    8.30
  -6  -1 -10   88.59    4.60
  -6  -1 -10   88.69    5.20
  -6   1 -10   84.59    4.50
  -6   1 -10   87.79    4.40
   6   1  10   88.89    8.00
   7  -1  10    4.10    4.10
   7   1  10    7.20    4.10
   8  -1  10   11.90    5.60
   8   1  10   13.50    5.60
   9  -1  10   24.80    8.10
   9   1  10   10.70    6.30
  10  -1  10   29.50    8.60
  10   1  10   17.40    7.50
  11  -2 -10   14.80    8.70
  11  -2 -10    7.00   10.20
  11   2 -10    1.70    7.20
  11   2 -10   18.60    8.90
  10  -2 -10   15.10    6.70
  10  -2 -10   10.20    5.40
  10   2 -10   14.80    6.20
  10   2 -10   26.40    8.00
   9  -2 -10   16.50    6.00
   9  -2 -10   16.00    5.10
   9   2 -10   13.60    6.10
   9   2 -10   23.20    5.40
   8  -2 -10  105.99    8.20
   8  -2 -10   83.89    8.20
   8   2 -10   99.39    8.70
   8   2 -10   69.69    8.90
   7  -2 -10   67.39    6.70
   7  -2 -10   58.19    6.30
   7   2 -10   63.89    7.70
   7   2 -10   70.79    7.10
   6  -2 -10  323.67   12.90
   6  -2 -10  337.67   14.00
   6   2 -10  341.97   14.60
   6   2 -10  332.17   14.50
  -6   2  10  318.77   13.10
   5  -2 -10  452.25   14.90
   5  -2 -10  481.85   17.20
   5   2 -10  489.35   17.60
  -5   2  10  473.35   14.90
   4  -2 -10   17.50    4.10
  -4  -2  10   10.80    3.20
   4  -2 -10   19.30    2.80
   4   2 -10   13.20    3.40
  -4   2  10   17.60    2.70
   4   2 -10   13.20    3.00
   3  -2 -10   53.39    5.20
  -3  -2  10   51.19    4.70
   3   2 -10   53.09    5.10
   3   2 -10   62.19    4.90
  -3   2  10   58.99    3.00
   2  -2 -10    0.50    1.50
  -2  -2  10   -0.40    1.90
  -2  -2  10    1.20    1.70
   2   2 -10    1.20    1.90
   2   2 -10   -1.00    1.20
   1  -2 -10  114.79    6.90
  -1  -2  10  121.69    7.70
   1   2 -10  117.99    7.10
  -1   2  10  111.49    8.00
   1   2 -10  124.29    6.10
   1   2 -10  118.99    9.00
   1   2 -10  109.39    6.10
   0  -2  10   56.59    5.40
   0  -2 -10   53.59    4.70
   0   2 -10   59.69    5.90
   0   2  10   57.09    5.30
   0   2 -10   52.79    4.50
   0   2 -10   57.69    4.90
   0   2 -10   55.79    4.20
  -1  -2 -10  554.74   17.20
  -1  -2 -10  548.45   13.70
  -1   2 -10  554.24   16.90
   1   2  10  529.45   17.00
  -1   2 -10  522.65   16.20
  -1   2 -10  567.34   17.50
  -1   2 -10  526.15   17.70
  -2  -2 -10  401.96   12.20
   2  -2  10  398.16   14.20
  -2  -2 -10  403.06   13.60
   2   2  10  371.36   13.50
  -2   2 -10  422.76   14.60
   2   2  10  406.46   12.20
  -2   2 -10  405.76   14.40
  -2   2 -10  428.56   14.10
   3  -2  10  426.66   15.40
  -3  -2 -10  437.46   14.00
  -3  -2 -10  410.86   13.80
  -3   2 -10  428.26   15.80
  -3   2 -10  416.66   15.60
   3   2  10  426.86   13.80
   3   2  10  400.26   13.70
  -3   2 -10  419.36   13.90
  -4  -2 -10  182.58    7.90
  -4  -2 -10  173.98    9.20
   4  -2  10  163.48    9.40
  -4   2 -10  173.98    8.20
   4   2  10  189.98    9.20
  -4   2 -10  181.28    7.90
   4   2  10  168.38    8.00
  -5  -2 -10  314.47   10.80
   5  -2  10  332.77   14.70
  -5  -2 -10  296.97   11.70
  -5   2 -10  308.57   10.90
  -5   2 -10  321.77   10.70
   5   2  10  333.27   13.80
  -6  -2 -10  378.66   11.50
  -6  -2 -10  354.26   12.20
   6  -2  10  388.96   17.10
  -6   2 -10  351.76   10.70
  -6   2 -10  365.26   10.60
   6   2  10  391.36   16.40
  -7  -2 -10   35.20    3.00
   7  -2  10   33.80    7.20
  -7  -2 -10   35.50    2.70
   7   2  10   37.80    6.90
   8  -2  10   29.00    7.30
   8   2  10   18.90    6.60
   9  -2  10    4.40    5.70
   9   2  10   -7.80    5.70
  10   2  10   -6.50    7.10
  11   3 -10   20.90    8.60
  10  -3 -10   43.00    8.80
  10  -3 -10   41.60    7.10
  10   3 -10   40.40    9.30
  10   3 -10   27.90    6.60
   9  -3 -10   18.70    5.40
   9  -3 -10   19.00    6.20
   9   3 -10   29.80    6.60
   9   3 -10   16.60    6.40
   8  -3 -10    6.00    3.70
   8  -3 -10   -0.80    3.80
   8   3 -10    3.50    3.90
   8   3 -10   -1.10    4.50
   7  -3 -10   24.60    5.00
   7  -3 -10   18.10    4.20
   7   3 -10   30.10    6.40
   7   3 -10   21.80    5.20
   6  -3 -10  141.19    7.90
   6  -3 -10  145.69    9.00
   6   3 -10  156.98    9.80
   6   3 -10  155.48    9.90
  -6   3  10  136.79    8.70
   5  -3 -10  144.99    7.10
   5  -3 -10  150.18    9.00
   5   3 -10  141.09    9.00
   5   3 -10  142.29    9.10
  -5   3  10  146.49    7.40
   4  -3 -10  739.73   19.50
   4  -3 -10  784.42   23.80
  -4  -3  10  805.72   26.00
   4   3 -10  778.92   24.60
  -4   3  10  757.62   19.50
  -3  -3  10 1199.88   32.00
   3  -3 -10 1251.97   27.50
   3  -3 -10 1231.88   33.60
  -3  -3  10 1243.18   35.40
  -3   3  10 1252.87   27.30
   3   3 -10 1252.97   33.00
  -2  -3  10 1242.18   35.20
  -2  -3  10 1170.48   31.30
   2  -3 -10 1246.18   33.20
   2   3 -10 1256.27   32.10
  -1  -3  10 1475.15   40.00
   1  -3 -10 1528.95   38.50
   1   3 -10 1499.95   37.30
   1   3 -10 1481.05   37.80
   0  -3 -10  428.56   15.00
   0  -3  10  422.86   16.00
   0   3 -10  417.96   14.10
  -1  -3 -10  663.33   20.20
   1  -3  10  660.43   21.30
  -1  -3 -10  659.43   15.80
   1   3  10  619.94   21.70
   1   3  10  682.33   15.90
  -1   3 -10  658.13   20.40
  -1   3 -10  670.13   20.90
  -1   3 -10  673.23   19.80
  -2  -3 -10  578.34   17.70
   2  -3  10  574.54   18.70
  -2  -3 -10  547.95   15.10
  -2   3 -10  522.45   18.30
  -2   3 -10  536.25   17.90
   2   3  10  554.94   15.30
  -2   3 -10  566.14   17.80
   2   3  10  529.75   17.50
   3  -3  10  269.67   11.60
  -3  -3 -10  274.57   10.40
  -3  -3 -10  291.67   11.00
   3  -3  10  275.97   12.30
  -3   3 -10  283.97   11.50
   3   3  10  254.77   10.90
   3   3  10  279.97   10.60
  -4  -3 -10   21.60    4.20
   4  -3  10   12.80    3.90
  -4  -3 -10   18.00    3.20
  -4   3 -10   27.00    3.80
   4   3  10   21.00    3.70
   4   3  10   18.00    3.70
   5  -3  10   75.59    7.40
  -5  -3 -10   75.79    5.30
  -5   3 -10   63.29    5.60
  -5   3 -10   69.69    5.10
   5   3  10   83.59    7.10
   5   3  10   72.79    5.80
   6  -3  10  349.96   16.60
  -6  -3 -10  359.16   12.10
  -6   3 -10  336.57   11.10
   6   3  10  350.36   12.00
  -6   3 -10  354.36   11.10
   6   3  10  347.07   15.80
  -7  -3 -10  287.97   10.40
   7  -3  10  315.17   17.10
  -7  -3 -10  303.57   10.10
   7   3  10  330.77   16.30
   8  -3  10  225.18   15.30
   8   3  10  215.08   14.60
   9  -3  10   71.09   10.50
   9   3  10   85.89   10.90
  10  -3  10   89.99   13.00
  10   3  10   69.99   11.30
  10  -4 -10   -3.20    5.30
  10  -4 -10    2.90    6.40
  10   4 -10   -8.10    7.00
  10   4 -10   -4.50    6.10
   9  -4 -10    7.70    5.70
   9  -4 -10    6.10    4.70
   9   4 -10    8.10    5.90
   9   4 -10   15.80    6.80
   8  -4 -10    8.30    4.40
   8  -4 -10    7.30    4.60
   8   4 -10   11.50    4.80
   8   4 -10   12.40    5.80
   7  -4 -10   19.30    4.50
   7  -4 -10   25.50    5.30
   7   4 -10   18.80    4.80
   7   4 -10   32.90    6.90
  -6  -4  10   76.29    8.40
   6  -4 -10   82.69    7.20
   6  -4 -10   67.89    5.80
  -6   4  10   62.69    6.80
   6   4 -10   72.09    7.30
   6   4 -10   73.39    7.90
  -5  -4  10    1.30    3.30
   5  -4 -10    3.10    2.50
   5  -4 -10    2.60    2.20
   5   4 -10    1.70    2.90
  -5   4  10    4.80    3.10
   4  -4 -10   84.39    6.70
   4  -4 -10   74.09    4.20
  -4  -4  10   59.79    7.80
  -4   4  10   69.19    4.40
   4   4 -10   70.59    6.40
  -3  -4  10    2.00    2.40
   3  -4 -10    0.80    1.80
  -3   4  10    2.90    1.00
  -3   4  10    1.90    1.10
   3   4 -10    4.00    2.20
   2  -4 -10   50.89    5.20
  -2  -4  10   56.19    5.60
  -2  -4  10   47.40    6.40
   2   4 -10   59.99    5.30
   1  -4 -10   14.10    3.00
  -1  -4  10   17.40    3.90
   1   4 -10   21.90    3.90
   1   4 -10   18.00    3.60
   0  -4  10   85.89    7.10
   0   4 -10   93.29    6.30
   0   4 -10   86.19    6.90
  -1  -4 -10    7.30    1.50
  -1  -4 -10    1.30    2.10
   1  -4  10    4.70    2.40
   1   4  10    4.80    1.30
  -1   4 -10    4.30    2.20
  -2  -4 -10    2.10    1.70
  -2  -4 -10   -0.50    1.60
   2  -4  10    5.00    2.50
  -2   4 -10   -0.60    1.70
   2   4  10    1.60    1.60
   3  -4  10  255.47   12.20
  -3  -4 -10  234.98    9.70
   3  -4  10  251.27   11.60
  -3  -4 -10  265.07   10.80
   3   4  10  263.57   10.20
  -3   4 -10  246.18   11.20
  -4  -4 -10  308.87   12.60
   4  -4  10  329.37   14.70
   4  -4  10  309.07   12.70
  -4  -4 -10  336.97   12.40
   4   4  10  301.47   12.60
  -4   4 -10  297.17   12.30
   5  -4  10  157.08   10.50
  -5  -4 -10  155.18    8.00
   5   4  10  142.69    8.60
  -5   4 -10  133.79    8.10
   5   4  10  155.18    9.50
  -5   4 -10  159.88    8.00
   6  -4  10    5.90    3.70
  -6  -4 -10   11.20    3.20
   6   4  10   12.30    4.20
  -6   4 -10    5.40    3.20
  -6   4 -10    2.60    2.50
   6   4  10    1.70    3.80
   7  -4  10   29.50    6.80
  -7  -4 -10   40.90    4.70
  -7   4 -10   35.30    3.70
   7   4  10   45.40    7.80
  -7   4 -10   34.60    3.40
   7   4  10   34.00    4.90
   8  -4  10    2.00    4.80
   8   4  10    4.20    5.50
   9  -4  10   12.60    6.50
   9   4  10    4.00    6.80
  10  -5 -10   18.70    6.80
  10  -5 -10   22.00    7.80
  10   5 -10   29.20    9.50
   9  -5 -10    6.10    5.30
   9  -5 -10    7.60    5.10
   9   5 -10   -4.40    6.10
   9   5 -10    8.00    6.00
   8  -5 -10   -2.00    4.10
   8  -5 -10    1.20    4.60
   8   5 -10    5.20    5.00
   8   5 -10   10.00    5.50
   7  -5 -10   23.00    4.80
  -7  -5  10   37.40    7.70
   7  -5 -10   44.30    6.60
   7   5 -10   39.30    7.40
   6  -5 -10   86.19    7.80
   6  -5 -10   79.99    6.30
  -6  -5  10   79.39    9.60
  -6   5  10   85.29    8.20
   6   5 -10   85.49    8.70
  -5  -5  10  138.59   10.80
   5  -5 -10  126.89    6.90
   5  -5 -10  126.09    8.80
  -5   5  10  129.59    7.50
   5   5 -10  139.89    9.80
   4  -5 -10  217.68   11.10
  -4  -5  10  200.48   12.40
  -4   5  10  193.88    7.80
   4   5 -10  208.28   11.60
  -3  -5  10  887.61   28.90
   3  -5 -10  849.12   26.50
  -3   5  10  873.31   20.00
  -3   5  10  844.12   20.20
   3   5 -10  891.21   27.20
   2  -5 -10  519.95   18.70
  -2  -5  10  548.05   20.80
   2   5 -10  558.94   19.30
   1  -5 -10  601.24   20.30
  -1  -5  10  617.64   22.10
   1   5 -10  616.94   20.40
   0  -5 -10  269.47   11.80
   0  -5  10  245.08   12.60
   0   5 -10  232.18   11.20
   0   5  10  258.47    6.20
   0   5  10  247.28    6.10
  -1  -5 -10  248.18    7.80
  -1  -5 -10  252.47   11.40
   1  -5  10  275.37   12.90
   1   5  10  249.97    8.00
  -1   5 -10  264.17   11.80
  -2  -5 -10   24.90    4.00
  -2  -5 -10   30.00    3.80
   2  -5  10   28.70    5.80
  -2   5 -10   27.20    4.10
   2   5  10   31.60    3.40
  -3  -5 -10   29.60    4.30
   3  -5  10   21.20    4.20
  -3  -5 -10   26.40    4.10
   3   5  10   33.90    4.40
  -3   5 -10   28.90    4.90
   4  -5  10    0.00    2.80
  -4  -5 -10    0.70    3.60
   4  -5  10    2.30    3.30
  -4  -5 -10    1.00    2.40
   4   5  10    1.30    2.70
   5  -5  10   69.79    6.60
   5  -5  10   75.39    9.00
   5   5  10   78.49    7.30
  -6  -5 -10   25.10    4.70
   6  -5  10   24.30    6.00
  -6   5 -10   34.90    4.60
  -6   5 -10   32.40    4.90
   6   5  10   30.90    5.90
   7  -5  10   59.49    9.00
  -7  -5 -10   67.69    6.90
   7   5  10   64.29    9.40
  -7   5 -10   77.09    5.50
   8  -5  10   47.60    9.40
  -8  -5 -10   40.90    5.10
   8   5  10   44.10    9.40
   9  -5  10   29.30    9.10
   9   5  10   46.00    9.80
  10  -6 -10   45.20   10.30
  10  -6 -10   72.69   10.70
  10   6 -10   67.19   11.10
  10   6 -10   44.30   11.40
   9  -6 -10   83.59   10.10
   9  -6 -10   88.59   10.00
   9   6 -10  102.39   13.50
   9   6 -10  105.89   11.50
   8  -6 -10  168.08   11.60
   8  -6 -10  207.58   12.70
  -8  -6  10  190.88   15.10
   8   6 -10  174.08   14.40
   8   6 -10  187.08   13.60
  -7  -6  10  168.68   13.50
   7  -6 -10  167.58   10.20
   7  -6 -10  197.18   11.90
   7   6 -10  176.98   13.20
   6  -6 -10  282.87   13.90
  -6  -6  10  284.07   16.30
   6  -6 -10  271.67   11.70
   6   6 -10  270.17   15.40
  -6   6  10  265.77   12.90
  -5  -6  10  219.98   13.60
   5  -6 -10  193.98   11.30
   5   6 -10  182.68   12.30
  -5   6  10  183.68    9.40
   4  -6 -10   82.09    7.30
  -4  -6  10   72.99    9.40
   4   6 -10   76.39    7.70
  -4   6  10   72.49    4.70
  -4   6  10   71.79    5.40
   3  -6 -10    7.70    2.80
  -3  -6  10   16.30    5.10
   3   6 -10   13.50    3.90
  -3   6  10   18.20    2.40
  -3   6  10   15.60    2.70
   2  -6 -10   37.60    5.60
  -2  -6  10   72.69    9.10
   2   6 -10   55.09    7.10
  -2   6  10   52.19    2.70
  -2   6  10   48.30    2.90
   1  -6 -10   56.79    6.00
  -1  -6  10   59.69    7.80
   1   6 -10   41.50    5.50
  -1   6  10   50.79    2.50
  -1   6  10   48.20    2.60
   0  -6 -10  113.09    8.00
   0  -6  10  117.09    9.10
   0   6 -10  113.29    8.10
   1  -6  10  422.16   17.60
  -1  -6 -10  411.26   16.10
  -1  -6 -10  419.56   12.10
   1   6  10  416.46   12.30
  -1   6 -10  441.86   16.90
  -2  -6 -10  502.75   18.10
  -2  -6 -10  465.15   14.50
   2  -6  10  474.75   18.90
   2   6  10  502.85   15.20
  -2   6 -10  504.25   18.60
   3  -6  10  877.51   28.00
  -3  -6 -10  925.81   27.10
  -3  -6 -10  859.01   24.50
  -3   6 -10  899.81   28.50
   3   6  10  914.91   25.30
   4  -6  10  562.24   20.30
  -4  -6 -10  561.24   19.30
   4   6  10  566.54   23.10
  -4   6 -10  569.74   21.50
   5  -6  10  465.85   20.40
   5  -6  10  478.95   18.20
  -5  -6 -10  484.05   17.60
   5   6  10  469.35   18.40
   6  -6  10  182.08   10.50
   6  -6  10  238.98   14.50
  -6  -6 -10  197.18   10.90
   6   6  10  176.88   12.10
   7  -6  10   34.20    7.00
  -7  -6 -10   50.89    6.60
   7   6  10   36.80    7.10
  -7   6 -10   53.29    5.80
  -8  -6 -10   12.50    5.60
   8  -6  10   23.00    7.40
   8   6  10   30.50    7.60
   9  -6  10   11.30    8.40
   9   6  10    4.30    7.50
   9  -7 -10   -2.90    6.30
   9  -7 -10   -0.20    6.40
   9   7 -10   -1.10    8.60
   9   7 -10    4.10    7.80
  -8  -7  10    7.10    7.20
   8  -7 -10    5.70    5.70
   8  -7 -10   -5.90    9.00
   8   7 -10   11.90    7.00
   7  -7 -10    4.30    4.60
  -7  -7  10   -3.00    6.40
   7  -7 -10    1.20    4.40
   7   7 -10    7.30    5.90
  -6  -7  10   28.00    7.60
   6  -7 -10   28.20    5.60
   6   7 -10   40.70    7.50
  -5  -7  10    3.50    4.60
   5  -7 -10    1.30    3.20
  -5   7  10   -3.00    2.70
   5   7 -10   -1.80    3.60
  -5   7  10   -6.30    4.40
  -4  -7  10    4.60    4.20
   4  -7 -10    5.10    3.20
  -4   7  10    7.90    2.80
   4   7 -10   -0.40    3.60
  -4   7  10    2.80    3.50
  -3  -7  10   18.10    5.30
   3  -7 -10   23.30    5.00
  -3   7  10   25.40    3.60
  -3   7  10   27.30    3.20
   3   7 -10   20.70    4.90
   2  -7 -10    1.30    2.80
  -2  -7  10   -2.10    3.10
  -2   7  10   -0.90    1.70
  -2   7  10    1.30    2.20
   2   7 -10    1.00    3.00
   1  -7 -10  125.49    8.90
  -1  -7  10  114.89    9.80
   1   7 -10  102.29    8.40
  -1   7  10  127.09    5.50
  -1   7  10  118.69    5.10
   0  -7  10   -1.90    3.30
   0  -7 -10    0.10    2.30
   0   7  10    0.40    2.20
   0   7  10   -0.80    1.80
   0   7 -10    2.30    2.30
  -1  -7 -10    2.20    2.50
  -1  -7 -10    2.60    2.70
   1  -7  10   -0.30    3.20
   1   7  10    3.70    2.20
  -1   7 -10    3.70    3.10
  -2  -7 -10    1.80    2.70
   2  -7  10    0.10    2.90
  -2  -7 -10    1.00    2.90
  -2   7 -10   -0.40    3.00
   2   7  10    2.80    2.50
  -3  -7 -10   25.80    5.00
   3  -7  10   14.30    4.80
  -3  -7 -10   18.00    4.30
   3   7  10   28.80    4.60
  -3   7 -10   13.00    4.10
   4  -7  10    6.40    4.20
  -4  -7 -10    6.80    3.70
  -4   7 -10    6.90    4.40
   4   7  10   12.80    4.20
   5  -7  10   15.30    4.60
  -5  -7 -10   11.10    4.20
  -5   7 -10   15.70    5.40
   5   7  10   22.20    5.30
  -6  -7 -10   21.40    5.40
   6  -7  10   21.10    6.20
   6  -7  10   17.20    5.60
   6   7  10   18.00    6.10
  -7  -7 -10   55.49    7.20
   7  -7  10   68.39   11.70
   7   7  10   44.30    8.40
  -8  -7 -10  -10.40    6.10
   8  -7  10    7.10    7.30
   8   7  10   14.60    7.90
  -8  -8  10   56.59   10.90
   8  -8 -10   46.80    8.30
   8   8 -10   71.39   12.20
   7  -8 -10  116.89   11.30
  -7  -8  10   94.89   12.40
   7   8 -10   86.99   11.00
  -7   8  10  114.39    9.60
  -6  -8  10  140.19   13.30
   6  -8 -10  125.09   12.50
   6   8 -10  122.49   12.10
  -6   8  10  123.89    8.70
   5  -8 -10   59.69    8.40
  -5   8  10   59.39    6.20
  -5   8  10   64.59    8.00
   5   8 -10   65.49    9.60
   4  -8 -10   97.49    9.20
  -4  -8  10  103.09   12.30
  -4   8  10  104.59    6.70
  -4   8  10  110.99    8.20
   4   8 -10  120.19   11.50
   3  -8 -10   -1.40    3.10
  -3  -8  10    2.30    4.70
   3   8 -10   -1.20    3.80
  -3   8  10    0.70    3.50
  -3   8  10    2.50    2.40
   2  -8 -10    1.30    3.20
  -2  -8  10   -2.70    3.70
  -2   8  10    1.00    3.00
   2   8 -10    1.10    3.40
  -2   8  10    0.20    2.30
  -1  -8  10    5.80    4.20
   1  -8 -10    4.40    3.50
  -1   8  10    6.10    3.10
  -1   8  10    5.30    2.30
   1   8 -10    1.60    3.00
   0  -8  10  121.29   10.50
   0  -8 -10   92.89    8.50
   0   8  10   83.59    6.30
   0   8 -10   84.89    8.10
   0   8  10   88.49    5.70
  -1  -8 -10  175.58   11.10
   1  -8  10  181.08   12.60
   1   8  10  165.68    8.70
  -1   8 -10  177.68   11.60
   1   8  10  180.28    8.40
  -2  -8 -10  367.36   13.70
  -2  -8 -10  391.36   16.80
   2  -8  10  364.96   17.80
  -2   8 -10  350.56   16.90
   2   8  10  370.16   13.80
  -3  -8 -10  268.37   14.10
   3  -8  10  268.87   15.30
  -3   8 -10  287.17   17.10
   3   8  10  308.17   14.50
  -4  -8 -10  188.28   11.90
   4  -8  10  215.18   13.50
  -4   8 -10  202.88   13.50
   4   8  10  218.48   12.10
   5  -8  10  125.89   11.20
  -5  -8 -10  124.09   10.40
   5   8  10  117.49   10.20
  -5   8 -10  128.09   11.80
   6  -8  10   91.19    9.90
  -6  -8 -10  116.29   10.70
  -6   8 -10  118.49   11.90
   6   8  10  106.09   11.20
   7  -8  10   70.69    8.80
  -7  -8 -10   85.49    9.90
   7   8  10   86.19   11.50
  -7   8 -10   94.39   12.60
  -8  -8 -10   18.90   13.80
   8  -8  10   14.60    8.30
   8   8  10   16.20    8.10
  -8  -9  10   -3.00    9.20
   8  -9 -10    9.30    6.80
   8   9 -10    5.50    9.00
  -8   9  10   11.20    7.70
  -7  -9  10   -3.00    7.80
   7  -9 -10    9.20    6.60
   7   9 -10   -9.30    6.10
  -7   9  10   -3.20    5.40
   6  -9 -10   34.30    7.50
  -6  -9  10   38.60    9.70
  -6   9  10   26.60    5.70
   6   9 -10   25.90    6.80
  -5  -9  10   39.20    8.50
   5  -9 -10   61.99    8.60
  -5   9  10   53.19    8.10
   5   9 -10   41.10    8.80
  -4  -9  10  155.78   13.60
   4  -9 -10  126.89   11.10
  -4   9  10  135.29   11.30
  -4   9  10  164.48    8.70
   4   9 -10  138.29   12.40
   3  -9 -10  197.78   14.50
  -3  -9  10  202.88   14.80
   3   9 -10  191.38   13.60
  -3   9  10  201.28   13.20
  -3   9  10  197.78    9.20
  -2  -9  10  337.47   26.20
   2  -9 -10  281.57   16.90
  -2   9  10  289.77   10.90
  -2   9  10  274.07   11.80
   2   9 -10  292.17   16.60
   1  -9 -10  382.36   17.90
  -1  -9  10  398.36   19.90
  -1   9  10  394.06   13.30
  -1   9  10  401.66   14.10
   0  -9  10  209.38   14.20
   0  -9 -10  194.28   12.60
   0   9 -10  239.98   20.80
   0   9  10  196.98    9.20
   0   9  10  205.68   10.50
   1  -9  10  169.98   13.00
  -1  -9 -10  170.78   11.70
  -1   9 -10  165.78   13.70
   1   9  10  155.68    8.70
   1   9  10  163.28    9.80
  -2  -9 -10   48.60    7.90
   2  -9  10   55.69    8.50
   2   9  10   55.09    8.20
  -2   9 -10   51.09    7.50
   3  -9  10   14.70    5.60
  -3  -9 -10   18.60    5.20
  -3   9 -10   10.50    4.90
   3   9  10   18.90    5.10
  -4  -9 -10   -1.20    4.20
   4  -9  10    1.80    5.00
  -4   9 -10    7.60    5.70
   4   9  10    5.70    4.80
   5  -9  10   36.50    7.70
  -5  -9 -10   49.20   12.00
   5   9  10   45.80    8.20
  -5   9 -10   56.39    9.60
  -6  -9 -10   59.09   14.40
   6  -9  10   48.90    8.10
   6   9  10   61.99   10.30
  -6   9 -10   52.49    9.50
  -7  -9 -10   85.99   11.30
   7  -9  10   83.09   11.00
   7   9  10   59.89    9.40
  -7   9 -10   69.79   11.30
  -7 -10  10   29.50   10.80
   7 -10 -10    9.90    7.80
   7  10 -10   14.70    7.60
  -7  10  10    2.50    7.20
   6 -10 -10   -1.80    6.00
  -6 -10  10    3.70    7.90
  -6  10  10    6.40    5.80
   6  10 -10   -1.30    7.30
   5 -10 -10   -1.20    5.80
  -5 -10  10    3.80    7.20
  -5  10  10    2.50    4.80
   5  10 -10    5.20    6.40
   4 -10 -10    6.40    5.30
  -4 -10  10    0.60    6.90
   4  10 -10    2.60    6.00
   3 -10 -10   -0.80    4.70
  -3 -10  10   -1.60    5.40
   3  10 -10    4.20    5.10
  -3  10  10    3.60    3.90
  -2 -10  10   -4.00    5.80
   2 -10 -10    2.40    4.60
  -2  10  10   -1.00    3.50
   2  10 -10   -1.50    4.80
  -1 -10  10    0.40    5.20
   1 -10 -10    2.40    4.30
  -1  10  10    3.30    6.70
  -1  10  10    2.20    3.70
   1  10 -10   -2.00    4.10
   0 -10 -10    4.10    5.00
   0 -10  10    8.90    6.20
   0  10 -10    6.00    4.90
   0  10  10   11.20    4.20
   0  10  10   12.20    6.80
   1 -10  10    1.90    5.30
  -1 -10 -10    5.50    4.50
  -1  10 -10    9.70    5.30
  -2 -10 -10    0.90    4.40
   2 -10  10    7.40    5.90
  -2  10 -10    1.10    4.50
   2  10  10    2.10    4.30
  -3 -10 -10    2.60    4.90
   3 -10  10    5.40    5.90
   3  10  10   -1.10    4.80
  -3  10 -10   -3.70    5.10
  -4 -10 -10    3.60    5.50
   4 -10  10    1.70    6.00
  -4  10 -10   11.70    6.20
   4  10  10   -3.70    5.40
  -5 -10 -10   -0.10    6.30
   5 -10  10   -3.10    6.40
   5  10  10    1.30    6.30
  -5  10 -10    4.40    6.30
  -6 -10 -10   17.50    7.90
   6 -10  10    7.60    7.80
   6  10  10   12.50    8.00
  -6  10 -10   13.40    7.40
   6 -11 -10   31.20    8.90
   6  11 -10   23.70    9.60
   5 -11 -10   81.99   10.60
  -5 -11  10   88.79   13.90
  -5  11  10  100.89   10.70
   4 -11 -10  167.88   14.60
  -4 -11  10  164.98   16.80
   4  11 -10  180.98   15.70
  -4  11  10  181.58   11.50
   3 -11 -10  250.57   16.40
  -3 -11  10  222.78   17.90
  -3  11  10  240.18   11.90
   3  11 -10  196.48   16.10
   2 -11 -10  398.66   20.10
  -2 -11  10  342.57   21.20
   2  11 -10  378.26   20.50
  -2  11  10  375.26   15.00
  -1 -11  10  225.88   17.30
   1 -11 -10  246.28   16.00
   1  11 -10  243.68   16.30
  -1  11  10  252.47   12.30
   0 -11 -10  160.28   13.80
   0 -11  10  182.78   15.80
   0  11 -10  175.18   14.20
   0  11  10  196.28   11.10
  -1 -11 -10  140.69   12.80
   1 -11  10  135.89   14.20
   1  11  10  138.29   10.30
  -1  11 -10  115.69   12.50
   2 -11  10   38.50    8.70
  -2 -11 -10   42.60    7.50
  -2  11 -10   29.10    7.40
   2  11  10   54.09    7.80
  -3 -11 -10   14.40    6.70
   3 -11  10    4.10    7.40
  -3  11 -10   16.80    6.90
   3  11  10   -3.50    6.10
  -4 -11 -10   -9.40    5.90
   4 -11  10    1.20    7.20
  -4  11 -10   -0.40    7.80
   4  11  10   -2.20    7.10
   5 -11  10   17.40    8.50
  -5 -11 -10   24.70    8.50
  -5  11 -10   18.80    7.70
   5  11  10    7.00    8.00
  -4 -12  10   44.00   11.30
   4 -12 -10   44.30   16.10
   4  12 -10   42.60   10.50
   3 -12 -10    6.00    6.80
  -3 -12  10    1.90    9.50
  -3  12  10    6.10    6.90
   3  12 -10    1.00    7.30
   2 -12 -10    2.50    7.00
  -2 -12  10  -10.10    7.30
   2  12 -10   13.50    7.60
  -2  12  10    6.80    6.30
  -1 -12  10    1.70    8.00
   1 -12 -10   11.90    7.20
  -1  12  10   13.30    6.20
   1  12 -10    4.40    5.90
   0 -12 -10   75.09   10.20
   0 -12  10   62.89   11.40
   0  12  10   80.89    9.60
   0  12 -10   74.29   10.70
   1 -12  10   87.79   12.40
  -1 -12 -10   98.29   12.30
   1  12  10  101.89   11.10
  -1  12 -10  103.19   14.10
  -2 -12 -10  102.69   13.10
   2 -12  10   91.49   13.50
  -2  12 -10   83.99   13.40
   2  12  10  104.19   11.30
  -3 -12 -10  131.89   14.60
   3 -12  10  117.39   15.30
   3  12  10  110.59   12.00
  -3  12 -10  101.59   12.40
  11   0 -11  -18.00    7.70
  11   0 -11  -11.30    6.80
  10   0 -11    7.20    6.60
  10   0 -11    4.10    5.30
   9   0 -11   -2.50    4.30
   9   0 -11   -5.50    4.80
   8   0 -11    2.70    3.70
   8   0 -11   -0.50    3.90
   7   0 -11   -5.80    2.80
   7   0 -11   -0.80    3.00
   6   0 -11    0.40    2.70
   6   0 -11   -0.80    2.90
   5   0 -11    0.90    2.70
   5   0 -11    3.00    2.30
  -5   0  11    0.20    3.00
   4   0 -11   -0.80    2.00
  -4   0  11    0.40    2.10
   4   0 -11   -0.50    1.70
   3   0 -11    0.70    1.50
   3   0 -11    0.30    1.90
  -3   0  11    0.60    1.60
   2   0 -11   -0.60    1.80
  -2   0  11    1.10    1.30
   2   0 -11    0.90    1.20
   1   0 -11   -0.70    1.20
   1   0 -11    1.30    1.90
   1   0 -11   -0.90    1.00
   0   0 -11    0.20    2.70
   0   0 -11   -0.40    1.40
   0   0 -11    0.00    1.00
   0   0 -11    2.10    1.50
  -1   0 -11    1.40    1.20
  -1   0 -11    3.00    2.60
  -1   0 -11   -0.10    1.50
  -1   0 -11   -1.30    1.50
  -2   0 -11    0.80    2.60
   2   0  11   -0.80    1.40
  -2   0 -11    0.00    1.60
  -2   0 -11   -1.70    1.90
  -3   0 -11    1.40    2.30
  -3   0 -11    1.10    2.60
  -3   0 -11   -1.80    1.50
   3   0  11   -2.90    1.80
   4   0  11   -1.80    2.20
  -4   0 -11    3.80    2.80
  -4   0 -11    1.90    1.70
  -5   0 -11   -0.30    1.70
   5   0  11    0.00    2.40
  -5   0 -11    2.40    2.70
  -6   0 -11   -2.00    2.30
  -6   0 -11    0.10    1.70
   6   0  11   -2.50    3.00
   7   0  11   -1.70    3.80
   8   0  11   -2.70    4.80
   9   0  11   -1.80    5.90
  10   0  11   -9.80    9.40
  11  -1 -11    5.00    7.30
  11  -1 -11   -3.10    8.00
  11   1 -11    9.10    7.50
  11   1 -11   -5.40    7.90
  10  -1 -11    5.70    5.60
  10  -1 -11    3.20    6.60
  10   1 -11   -0.70    6.40
  10   1 -11   -4.00    5.60
   9  -1 -11   13.50    5.50
   9  -1 -11    9.10    5.00
   9   1 -11    2.50    4.80
   8  -1 -11   85.49    8.30
   8  -1 -11   74.49    7.80
   8   1 -11   83.09    8.50
   8   1 -11   90.39    8.80
   7  -1 -11  219.18   11.30
   7  -1 -11  213.58   11.60
   7   1 -11  208.18   11.60
   7   1 -11  208.08   12.00
   6  -1 -11  326.47   14.10
   6  -1 -11  302.17   12.60
  -6   1  11  300.87   12.90
   6   1 -11  308.27   14.00
   6   1 -11  303.17   13.60
   5  -1 -11  736.13   21.00
  -5  -1  11  710.23   21.70
   5  -1 -11  751.82   23.50
   5   1 -11  724.93   22.20
  -5   1  11  688.63   20.30
   5   1 -11  755.72   23.80
   4  -1 -11  563.24   16.10
  -4  -1  11  554.34   17.10
   4  -1 -11  589.44   19.70
   4   1 -11  596.84   19.90
  -4   1  11  559.64   15.80
   4   1 -11  562.64   17.70
  -3  -1  11  661.53   18.40
   3  -1 -11  665.73   16.90
   3  -1 -11  680.33   21.60
   3   1 -11  648.44   18.80
  -3   1  11  662.33   16.50
   3   1 -11  656.73   21.40
   2  -1 -11  966.50   22.00
   2  -1 -11  962.50   22.00
   2  -1 -11  996.70   27.90
  -2  -1  11  938.01   24.00
   2   1 -11  962.20   27.70
   2   1 -11  975.10   24.60
   1  -1 -11  314.97    8.00
   1  -1 -11  330.67   12.90
   1  -1 -11  320.77    8.00
   1   1 -11  324.37   10.50
   1   1 -11  322.47   10.70
   1   1 -11  328.07   12.90
   0  -1 -11  269.37    7.60
   0  -1 -11  273.87    7.60
   0  -1 -11  282.97   11.40
   0   1 -11  272.57    9.70
   0   1 -11  270.37    9.40
   0   1 -11  253.27   11.10
  -1  -1 -11    0.40    1.60
  -1  -1 -11    3.60    1.60
  -1  -1 -11    5.30    2.90
  -1   1 -11    4.00    2.20
   1   1  11    4.30    2.40
  -1   1 -11    2.80    2.00
   1   1  11    5.50    1.40
  -1   1 -11    2.00    1.50
  -1   1 -11    0.10    2.70
   2  -1  11   50.29    4.30
  -2  -1 -11   52.09    4.30
  -2  -1 -11   47.90    6.10
  -2  -1 -11   50.09    4.50
   2   1  11   59.59    4.20
  -2   1 -11   43.10    4.80
  -2   1 -11   51.99    6.00
  -2   1 -11   51.49    4.70
  -3  -1 -11  313.17   11.80
  -3  -1 -11  310.07   12.80
  -3  -1 -11  332.77   11.80
   3  -1  11  343.47   12.70
  -3   1 -11  317.47   11.80
  -3   1 -11  295.27   12.50
  -3   1 -11  301.07   12.30
   3   1  11  306.27   11.70
   4  -1  11  429.46   15.90
  -4  -1 -11  429.36   15.60
  -4  -1 -11  419.86   13.70
  -4   1 -11  391.96   14.20
   4   1  11  414.76   15.10
  -4   1 -11  423.46   13.80
   5  -1  11  280.47   13.30
  -5  -1 -11  263.47   10.90
  -5  -1 -11  288.97   10.20
  -5   1 -11  299.57   10.20
   5   1  11  301.17   13.30
  -5   1 -11  252.87   10.30
  -6  -1 -11  287.67   10.50
  -6  -1 -11  315.17   10.10
   6  -1  11  296.87   14.80
  -6   1 -11  311.87    9.60
   6   1  11  326.67   14.90
  -6   1 -11  294.87    9.90
   7  -1  11  501.05   21.50
   7   1  11  518.65   21.10
   8  -1  11  182.38   13.80
   8   1  11  187.58   13.30
   9  -1  11  152.68   14.30
   9   1  11  145.19   13.70
  10  -1  11    5.60   10.00
  10   1  11   16.00    8.90
  10  -2 -11   65.69    9.90
  10  -2 -11   93.49   10.20
  10   2 -11   90.79   10.10
  10   2 -11   81.29   11.60
   9  -2 -11   99.69   10.50
   9  -2 -11  101.09    9.70
   9   2 -11   97.59   10.20
   9   2 -11  109.09   11.30
   8  -2 -11   61.99    7.40
   8  -2 -11   55.79    7.20
   8   2 -11   70.79    9.20
   8   2 -11   73.39    8.50
   7  -2 -11   59.79    6.50
   7  -2 -11   41.40    5.90
   7   2 -11   45.80    6.70
   7   2 -11   59.49    8.30
   6  -2 -11    7.20    3.10
   6  -2 -11    9.20    3.10
   6   2 -11   11.40    4.00
   6   2 -11    5.90    3.30
  -6   2  11    9.30    3.90
   5  -2 -11  139.99    7.00
   5  -2 -11  140.89    8.90
  -5   2  11  128.39    7.10
   5   2 -11  141.39    9.20
   5   2 -11  141.29    8.70
  -4  -2  11   -0.70    2.60
   4  -2 -11    2.00    2.40
   4  -2 -11    1.10    1.50
   4   2 -11    1.10    2.20
  -4   2  11    1.90    1.80
   4   2 -11    4.00    2.60
   3  -2 -11   34.80    4.90
   3  -2 -11   39.00    2.50
  -3  -2  11   42.00    5.20
  -3   2  11   39.20    2.40
   3   2 -11   52.99    5.40
   3   2 -11   40.70    4.20
  -2  -2  11 1038.60   25.60
   2   2 -11 1013.10   25.90
   2   2 -11  829.42   34.00
   1  -2 -11 1221.88   32.60
   1   2 -11 1203.28   30.40
   1   2 -11 1195.38   32.60
   1   2 -11 1188.88   30.60
   0  -2 -11 1059.89   28.70
   0   2 -11 1061.09   26.90
   0   2 -11  983.80   27.00
   0   2 -11 1027.10   28.70
  -1  -2 -11  489.05   16.20
  -1  -2 -11  463.75   12.50
  -1   2 -11  486.25   16.30
  -1   2 -11  468.85   14.90
  -1   2 -11  505.35   19.00
  -1   2 -11  448.96   15.40
  -2  -2 -11 1315.77   31.50
   2  -2  11 1350.96   34.50
  -2  -2 -11 1329.27   34.00
  -2   2 -11 1349.66   34.30
  -2   2 -11 1274.07   34.60
  -2   2 -11 1292.47   34.40
   2   2  11 1335.77   31.60
   2   2  11 1265.37   33.70
  -3  -2 -11  472.65   15.10
  -3  -2 -11  486.45   15.60
   3  -2  11  469.45   16.70
  -3   2 -11  440.86   15.80
  -3   2 -11  468.65   15.60
   3   2  11  471.15   15.00
   3   2  11  449.26   15.40
  -4  -2 -11  421.76   15.60
   4  -2  11  450.25   16.80
  -4  -2 -11  451.85   14.50
   4   2  11  399.26   14.30
  -4   2 -11  459.65   14.60
   4   2  11  451.05   15.70
  -4   2 -11  436.26   14.90
  -5  -2 -11   76.09    5.40
   5  -2  11   72.29    7.20
   5   2  11   82.99    7.00
  -5   2 -11   69.49    6.00
  -5   2 -11   74.59    5.20
   6  -2  11    2.30    3.50
  -6  -2 -11    1.00    3.20
  -6  -2 -11   -0.20    2.10
  -6   2 -11   -2.40    1.90
   6   2  11   -2.40    3.40
  -6   2 -11   -1.20    2.50
  -7  -2 -11    2.40    2.50
   7  -2  11   -0.80    4.00
  -7  -2 -11   -2.30    3.20
   7   2  11    2.80    4.10
   8  -2  11   10.70    5.40
   8   2  11    1.80    5.10
   9  -2  11   32.80    8.20
   9   2  11   17.20    7.20
  10  -2  11   66.29   11.60
  10   2  11   31.40   10.70
  10  -3 -11    8.20    6.50
  10  -3 -11    0.60    6.60
  10   3 -11    0.10    6.70
  10   3 -11   -7.90    6.10
   9  -3 -11   -0.80    4.80
   9  -3 -11    0.20    5.20
   9   3 -11    5.80    5.70
   9   3 -11    6.80    5.00
   8  -3 -11   24.60    5.40
   8  -3 -11   15.60    5.00
   8   3 -11   16.90    5.60
   8   3 -11    6.90    5.30
   7  -3 -11   17.50    4.40
   7  -3 -11   22.60    4.80
   7   3 -11   17.20    5.30
   7   3 -11   18.70    5.90
   6  -3 -11   -0.80    2.50
   6  -3 -11   -1.50    3.10
   6   3 -11    3.20    3.40
  -6   3  11    8.30    4.00
   6   3 -11    0.60    3.20
   5  -3 -11   36.50    3.90
   5  -3 -11   32.30    5.00
  -5   3  11   42.70    4.70
   5   3 -11   43.60    6.20
   5   3 -11   37.60    5.40
  -4  -3  11   -0.20    2.80
   4  -3 -11   -1.40    2.10
   4  -3 -11    1.20    1.40
  -4   3  11    1.00    1.60
   4   3 -11   -1.00    2.40
   4   3 -11    1.80    2.30
   3  -3 -11    7.00    2.70
  -3  -3  11    9.60    3.20
  -3  -3  11   11.50    3.30
   3   3 -11   11.90    2.90
  -2  -3  11   46.60    5.10
   2  -3 -11   50.49    5.10
  -2  -3  11   49.99    6.50
   2   3 -11   43.00    4.40
   1  -3 -11   12.20    3.10
  -1  -3  11   18.00    4.40
   1   3 -11   21.80    3.80
   1   3 -11   17.80    3.60
   0  -3  11    2.40    2.60
   0  -3 -11   -0.60    1.80
   0   3 -11    2.00    2.50
   0   3 -11    1.90    1.80
  -1  -3 -11   38.90    2.30
   1  -3  11   39.90    5.80
  -1  -3 -11   43.20    5.30
  -1   3 -11   40.80    4.20
   1   3  11   37.20    2.30
  -1   3 -11   41.10    5.70
  -2  -3 -11   -0.70    1.60
   2  -3  11    1.90    2.20
  -2  -3 -11    0.30    1.80
   2   3  11    3.70    1.60
  -2   3 -11    2.10    2.00
  -3  -3 -11   45.00    4.60
   3  -3  11   48.40    6.40
  -3  -3 -11   42.30    4.60
  -3   3 -11   49.30    5.00
   3   3  11   38.10    3.90
  -3   3 -11   41.30    5.20
  -4  -3 -11    0.10    1.80
  -4  -3 -11    1.50    3.20
   4  -3  11    2.30    2.60
  -4   3 -11    3.70    3.20
   4   3  11    2.00    2.40
   4   3  11   -2.70    3.00
  -4   3 -11    0.00    2.10
   5  -3  11    9.70    4.10
  -5  -3 -11    6.00    2.60
  -5   3 -11   14.50    3.20
   5   3  11   10.40    3.80
   5   3  11   10.20    3.90
   6  -3  11   33.30    6.60
  -6  -3 -11   24.00    3.70
   6   3  11   30.50    6.20
  -6   3 -11   27.90    3.60
  -6   3 -11   23.00    3.90
  -7  -3 -11    9.50    3.10
  -7  -3 -11    8.20    3.90
   7  -3  11    5.20    4.90
  -7   3 -11    8.90    2.40
  -7   3 -11    9.10    1.80
   7   3  11    8.30    4.80
   8  -3  11   36.60    8.40
   8   3  11   30.70    7.20
   9  -3  11   -2.90    6.00
   9   3  11   -8.30    6.40
  10  -4 -11   51.79    8.40
  10  -4 -11   52.79    9.60
  10   4 -11   55.69   10.20
   9  -4 -11  113.69   10.80
   9  -4 -11  109.59   10.60
   9   4 -11  122.79   14.40
   9   4 -11  118.29   11.80
   8  -4 -11   62.19    7.70
   8  -4 -11   62.59    7.80
   8   4 -11   74.49   10.00
   8   4 -11   80.79    9.80
   7  -4 -11   65.99    7.90
   7  -4 -11   70.59    6.80
   7   4 -11   49.80    7.50
   7   4 -11   59.89    8.00
   6  -4 -11   -0.10    2.50
   6  -4 -11   -1.90    2.70
   6   4 -11   -0.10    3.30
   6   4 -11   -0.10    3.10
  -6   4  11   -1.10    4.00
  -5  -4  11   26.80    5.70
   5  -4 -11   27.20    3.70
   5  -4 -11   21.00    4.20
   5   4 -11   34.00    5.90
  -5   4  11   36.90    4.40
  -4  -4  11    0.00    2.80
   4  -4 -11   -0.40    1.40
   4  -4 -11    0.80    2.30
  -4   4  11   -1.40    1.70
   4   4 -11    0.30    2.30
  -3  -4  11  228.78   12.80
   3  -4 -11  241.78   11.70
   3   4 -11  226.38   11.20
  -2  -4  11  405.76   17.40
   2  -4 -11  422.66   16.10
  -1  -4  11 1629.84   44.20
   1  -4 -11 1595.94   42.00
   1   4 -11 1622.14   41.30
   0  -4 -11 1143.79   31.70
   0  -4  11 1153.68   33.70
   0   4 -11 1124.39   31.20
  -1  -4 -11 1103.39   30.30
  -1  -4 -11 1095.49   24.20
   1  -4  11 1067.29   34.50
   1   4  11 1099.99   24.30
  -1   4 -11 1043.80   29.80
  -2  -4 -11  822.12   21.20
  -2  -4 -11  852.11   25.00
   2  -4  11  891.01   26.80
   2   4  11  842.62   21.60
  -2   4 -11  859.41   25.50
   3  -4  11  474.55   17.20
  -3  -4 -11  417.36   14.20
   3   4  11  483.45   15.10
  -4  -4 -11  175.78    8.90
   4  -4  11  160.08    9.20
  -4  -4 -11  156.48    9.00
   4  -4  11  174.38   10.60
   4   4  11  170.78    9.10
  -5  -4 -11   16.30    3.70
   5  -4  11   21.50    5.20
  -5   4 -11   19.50    4.20
  -5   4 -11   12.30    3.20
   5   4  11   19.00    4.30
   6  -4  11   24.70    5.70
  -6  -4 -11   35.30    5.00
   6   4  11   39.40    6.90
   6   4  11   30.00    5.30
  -6   4 -11   27.80    4.00
   7  -4  11   -3.50    4.30
  -7  -4 -11    0.00    3.30
   7   4  11    5.90    5.30
  -7   4 -11    2.80    2.40
   8  -4  11    6.70    6.60
   8   4  11   12.60    6.40
   9  -4  11   36.40    9.90
   9   4  11   39.70    8.40
  10  -5 -11    7.80    7.60
  10  -5 -11    5.90    7.80
  10   5 -11   -2.30    7.40
   9  -5 -11   -4.30    5.30
   9  -5 -11    0.60    5.80
   9   5 -11    7.10    6.80
   9   5 -11    2.90    7.70
   8  -5 -11    6.90    4.80
   8  -5 -11   10.50    4.90
   8   5 -11    8.30    5.70
   8   5 -11    9.60    5.90
   7  -5 -11   34.00    5.50
   7  -5 -11   30.30    5.80
   7   5 -11   41.60    8.90
   7   5 -11   27.60    6.50
   6  -5 -11  210.48    9.60
   6  -5 -11  213.48   12.10
  -6  -5  11  234.18   14.40
   6   5 -11  226.48   13.60
  -6   5  11  195.38   10.40
  -5  -5  11  226.48   13.70
   5  -5 -11  206.48    8.50
   5  -5 -11  216.78   11.90
   5   5 -11  211.88   12.40
  -5   5  11  202.38    8.90
  -4  -5  11   99.39    9.50
   4  -5 -11   94.79    7.90
   4   5 -11   86.89    8.00
  -4   5  11  104.99    4.50
  -4   5  11  101.39    4.80
   3  -5 -11  518.75   19.00
  -3  -5  11  501.95   20.80
   3   5 -11  514.65   19.10
   2  -5 -11  270.57   12.70
  -2  -5  11  285.07   14.40
   2   5 -11  263.07   12.40
  -1  -5  11  259.47   13.60
   1  -5 -11  261.77   12.30
   1   5 -11  254.57   11.90
   0  -5 -11  101.79    7.40
   0  -5  11  107.09    8.60
   0   5 -11   97.89    7.30
  -1  -5 -11  556.64   13.90
  -1  -5 -11  540.75   19.10
   1  -5  11  574.94   21.00
  -1   5 -11  568.14   19.50
   1   5  11  574.34   15.10
  -2  -5 -11  417.06   12.70
  -2  -5 -11  461.35   16.50
   2  -5  11  451.55   17.80
   2   5  11  431.86   13.10
  -2   5 -11  417.06   16.40
  -3  -5 -11  403.76   15.20
  -3  -5 -11  371.96   13.00
   3  -5  11  376.26   16.00
   3   5  11  401.46   13.60
  -3   5 -11  389.96   16.10
  -4  -5 -11   67.09    6.20
  -4  -5 -11   58.59    6.80
   4  -5  11   72.39    7.80
   4   5  11   65.59    6.20
   5  -5  11   61.89    6.70
   5  -5  11   75.59    8.40
  -5  -5 -11   73.09    6.50
   5   5  11   68.39    7.30
   6  -5  11   44.30    7.20
  -6  -5 -11   65.69    6.70
  -6   5 -11   54.79    5.90
  -6   5 -11   55.19    6.60
   6   5  11   68.99    8.50
   7  -5  11   91.89   11.60
  -7  -5 -11   83.79    7.90
  -7   5 -11  104.29    6.60
   7   5  11  101.19   11.30
   8  -5  11   84.79   11.00
   8   5  11  111.99   12.20
   9  -5  11    9.60    8.30
   9   5  11   12.20    7.70
   9  -6 -11   10.90    6.40
   9  -6 -11   12.00    6.80
   9   6 -11   17.50    7.90
   9   6 -11   18.10    7.20
   8  -6 -11   21.70    6.00
   8  -6 -11   17.00    6.00
   8   6 -11   11.80    6.50
   8   6 -11   15.60    6.80
  -7  -6  11    8.30    6.30
   7  -6 -11   10.70    4.30
   7  -6 -11   14.20    5.50
   7   6 -11    5.10    4.80
   6  -6 -11   17.70    3.90
   6  -6 -11   13.80    4.70
  -6  -6  11   18.40    6.10
   6   6 -11   19.70    5.40
  -6   6  11   21.80    5.60
   5  -6 -11    3.10    3.20
  -5  -6  11    0.60    4.70
  -5   6  11   -0.70    3.50
   5   6 -11    2.60    3.70
  -5   6  11    0.60    2.40
   4  -6 -11   -2.10    2.80
  -4  -6  11   -0.30    4.00
  -4   6  11    1.40    2.50
   4   6 -11    2.60    3.40
  -4   6  11   -0.20    1.80
  -3  -6  11   15.70    5.20
   3  -6 -11    2.50    3.40
  -3   6  11   14.90    1.50
  -3   6  11   14.60    1.60
   3   6 -11   14.90    4.10
   2  -6 -11   65.59    6.70
  -2  -6  11   71.79    9.00
   2   6 -11   56.49    7.20
  -1  -6  11    9.60    3.80
   1  -6 -11    7.40    2.90
   1   6 -11    5.50    2.70
   0  -6 -11   12.20    3.70
   0  -6  11    9.30    4.00
   0   6  11    8.90    1.40
   0   6 -11    6.80    3.40
   0   6  11    9.60    1.40
  -1  -6 -11  109.19    5.00
  -1  -6 -11  115.09    8.20
   1  -6  11  111.79    9.10
   1   6  11  115.49    5.10
  -1   6 -11  103.09    8.20
  -2  -6 -11  152.28    9.50
   2  -6  11  156.58   10.60
  -2  -6 -11  154.18    7.20
   2   6  11  167.78    7.40
  -2   6 -11  174.78   10.50
   3  -6  11  406.56   17.10
  -3  -6 -11  363.86   15.40
  -3   6 -11  400.36   17.00
   3   6  11  408.06   14.20
  -4  -6 -11  166.28    9.90
   4  -6  11  164.78   10.80
  -4   6 -11  155.98   10.90
  -5  -6 -11   52.59    6.90
   5  -6  11   57.79   11.30
   5  -6  11   55.39    7.20
   5   6  11   65.19    7.80
  -6  -6 -11    6.70    4.20
   6  -6  11    6.50    4.90
   6   6  11    7.10    4.70
  -7  -6 -11   -3.30    4.60
   7  -6  11    1.70    4.90
   7   6  11    2.60    5.20
  -7   6 -11    6.10    3.80
   8  -6  11   11.10    7.20
   8   6  11   -1.00    6.80
   9  -7 -11    9.20    7.00
   9   7 -11    3.30    7.80
   9   7 -11  -17.50    8.20
   8  -7 -11   23.10    6.30
  -8  -7  11   18.10    8.00
   8  -7 -11   19.10    6.60
   8   7 -11   18.10    7.80
   7  -7 -11   89.19    8.30
  -7  -7  11   96.99   12.70
   7  -7 -11   86.49   10.10
   7   7 -11   88.69   12.30
  -6  -7  11  408.66   30.50
   6  -7 -11  375.76   17.40
  -6   7  11  369.06   13.50
   6   7 -11  365.56   19.10
  -6   7  11  332.47   16.30
  -5  -7  11  358.06   19.30
   5  -7 -11  347.67   16.50
  -5   7  11  371.06   12.20
   5   7 -11  357.06   18.30
  -5   7  11  348.77   13.20
  -4  -7  11  373.16   19.20
   4  -7 -11  389.46   17.30
  -4   7  11  373.56   12.00
   4   7 -11  373.66   18.00
  -4   7  11  383.46   11.50
  -3  -7  11  536.75   23.10
   3  -7 -11  551.34   21.00
   3   7 -11  547.45   21.80
  -2  -7  11  368.96   18.60
   2  -7 -11  374.56   16.70
  -2   7  11  395.86    9.50
   2   7 -11  407.86   17.70
  -2   7  11  398.26    9.60
   1  -7 -11  308.17   14.90
  -1  -7  11  341.47   17.20
   1   7 -11  322.97   15.30
  -1   7  11  329.17    8.40
  -1   7  11  340.37    8.30
   0  -7  11  165.18   11.90
   0  -7 -11  181.68   11.10
   0   7 -11  178.98   11.10
   1  -7  11   11.50    4.80
  -1  -7 -11   14.60    4.30
   1   7  11   14.50    2.80
  -1   7 -11   16.10    4.50
   2  -7  11   45.80    7.00
  -2  -7 -11   58.09    7.00
  -2  -7 -11   57.69    5.60
  -2   7 -11   66.19    8.30
   2   7  11   59.99    5.20
  -3  -7 -11  152.58   10.10
  -3  -7 -11  142.69    8.70
   3  -7  11  152.08   11.20
  -3   7 -11  164.38   11.10
   3   7  11  161.18    8.70
   4  -7  11  189.38   12.40
  -4  -7 -11  196.38   11.40
   4   7  11  191.08   10.60
  -5  -7 -11  323.77   15.10
   5  -7  11  320.67   15.80
  -5   7 -11  323.07   17.20
   5   7  11  337.47   15.50
  -6  -7 -11  353.06   16.10
   6  -7  11  321.77   15.60
  -6   7 -11  388.56   19.50
   6   7  11  341.77   16.90
   7  -7  11  199.08   15.80
  -7  -7 -11  225.38   13.50
  -7   7 -11  209.08   11.60
   7   7  11  191.98   14.50
   8  -7  11  158.08   16.00
   8   7  11  182.88   15.50
   8  -8 -11   27.50    7.80
  -8  -8  11   13.40    8.40
  -8   8  11   16.70    7.10
   8   8 -11   27.60   10.10
   7  -8 -11   38.90    8.00
  -7  -8  11   12.30    8.30
  -7   8  11   22.60    6.20
   7   8 -11   17.60    7.10
   6  -8 -11   -3.50    4.50
  -6  -8  11    5.50    6.80
   6   8 -11    1.50    5.20
   5  -8 -11   18.90    5.70
  -5  -8  11   22.20    7.30
  -5   8  11   25.90    4.50
   5   8 -11   18.80    5.60
   4  -8 -11    5.60    4.20
  -4   8  11    5.30    2.90
  -4   8  11    4.50    4.10
   4   8 -11    2.90    5.00
  -3  -8  11   57.69    9.20
   3  -8 -11   70.19    9.10
   3   8 -11   78.69   10.20
  -3   8  11   67.59    4.60
  -3   8  11   65.09    5.40
   2  -8 -11   27.10    6.10
  -2  -8  11   24.50    6.50
   2   8 -11   17.10    5.20
  -2   8  11   30.30    3.40
  -2   8  11   20.60    2.80
   1  -8 -11  237.58   13.50
  -1  -8  11  227.58   14.80
   1   8 -11  249.08   14.20
  -1   8  11  238.18    8.00
  -1   8  11  240.98    8.30
   0  -8 -11  201.08   12.20
   0  -8  11  152.88   12.30
   0   8 -11  175.48   11.60
   0   8  11  167.08    7.40
   0   8  11  172.08    7.10
   1  -8  11  149.59   12.10
  -1  -8 -11  133.89   10.20
  -1   8 -11  130.89   10.50
   1   8  11  128.29    7.60
   1   8  11  139.89    7.20
  -2  -8 -11  126.49   10.10
   2  -8  11  125.39   11.00
  -2  -8 -11  115.09   12.20
  -2   8 -11  134.09   10.40
   2   8  11  132.89    7.70
  -3  -8 -11   75.89    8.30
   3  -8  11   67.49    9.10
  -3   8 -11   61.09    8.10
   3   8  11   54.89    6.50
   4  -8  11   38.00    7.40
  -4  -8 -11   45.50    7.00
   4   8  11   31.10    5.80
  -4   8 -11   36.60    7.30
  -5  -8 -11    2.40    4.80
   5  -8  11   -2.10    5.10
  -5   8 -11    4.00    4.70
   5   8  11    8.40    5.00
   6  -8  11    4.40    6.00
  -6  -8 -11   -5.10    5.10
   6   8  11   -2.80    5.60
  -6   8 -11    0.20    5.80
   7  -8  11   -3.30    6.60
  -7  -8 -11   10.80    6.70
  -7   8 -11    6.90    7.40
   7   8  11   11.50    7.00
   7  -9 -11   37.40    8.40
  -7  -9  11   45.70   11.10
  -7   9  11   49.70    7.80
   7   9 -11   28.00    8.70
   6  -9 -11   54.49    8.70
  -6  -9  11   53.49   10.90
  -6   9  11   63.19    7.10
   6   9 -11   68.99   10.90
   5  -9 -11   38.10    7.90
  -5  -9  11   38.50    8.90
  -5   9  11   35.20    5.50
   5   9 -11   34.90    8.90
  -4  -9  11  150.38   14.30
   4  -9 -11  132.39   11.60
   4   9 -11  144.39   12.80
  -4   9  11  161.78    8.20
   3  -9 -11   97.09   10.20
  -3  -9  11  104.69   12.60
  -3   9  11  104.09    7.90
   3   9 -11  110.49   12.70
  -3   9  11   99.89    6.30
   2  -9 -11  106.19    9.90
  -2  -9  11   85.89   11.60
   2   9 -11   83.99   10.20
  -2   9  11   83.79    6.90
  -2   9  11   74.89    5.50
  -1  -9  11   65.29   11.90
   1  -9 -11   93.09    9.70
  -1   9  11   90.99    5.70
   1   9 -11   89.69    9.50
  -1   9  11   91.99    7.00
   0  -9 -11    1.90    7.20
   0  -9  11    4.30    5.30
   0   9  11    0.40    4.00
   0   9  11    1.80    2.90
   0   9 -11    1.60    3.70
   1  -9  11   -4.20    4.50
  -1   9 -11    1.10    3.80
   1   9  11    2.70    3.40
   2  -9  11    1.80    5.00
  -2  -9 -11   -6.60    5.40
  -2   9 -11    3.10    4.40
   2   9  11    4.80    3.90
  -3  -9 -11   21.60    7.70
   3  -9  11   11.10    5.90
  -3   9 -11   13.10    4.80
   3   9  11   14.00    4.80
  -4  -9 -11   63.89    8.80
   4  -9  11   46.70    8.50
   4   9  11   58.29    8.10
  -4   9 -11   69.59   10.90
  -5  -9 -11   72.19    9.70
   5  -9  11   65.69    9.40
  -5   9 -11   65.99   10.70
   5   9  11   68.29    9.00
   6  -9  11   77.59   10.10
  -6  -9 -11   76.39   10.20
   6   9  11   74.49   10.50
  -6   9 -11   57.09    9.30
  -7  -9 -11   16.60    8.60
   7  -9  11   42.00    9.70
   7   9  11   34.10    9.60
  -7   9 -11   22.40    9.00
  -6 -10  11   12.90    8.50
   6 -10 -11    8.10    6.90
  -6  10  11    1.70    6.30
   6  10 -11    7.00   12.40
   5 -10 -11    6.80    5.70
  -5 -10  11   -6.80    6.70
   5  10 -11    9.70    6.50
   4 -10 -11   11.00    6.20
  -4 -10  11    3.70    6.90
   4  10 -11   23.00    7.50
  -4  10  11   16.70    4.90
  -3 -10  11  102.59   13.10
   3 -10 -11   73.89   10.10
   3  10 -11   87.19   11.10
  -3  10  11   82.69    7.10
   2 -10 -11  298.97   17.00
  -2 -10  11  313.77   19.70
   2  10 -11  313.57   17.90
  -2  10  11  300.07   11.50
  -1 -10  11  307.77   19.50
   1 -10 -11  331.37   17.70
   1  10 -11  349.47   18.60
  -1  10  11  340.17   12.40
   0 -10  11  343.17   20.20
   0 -10 -11  367.36   18.30
   0  10  11  327.37   12.80
   0  10 -11  323.17   18.00
   1 -10  11  359.56   20.50
  -1 -10 -11  379.56   18.90
  -1  10 -11  374.66   19.40
   1  10  11  371.06   14.50
   2 -10  11  333.37   19.80
  -2 -10 -11  338.97   18.00
   2  10  11  323.37   14.30
  -2  10 -11  358.36   19.20
  -3 -10 -11  218.68   14.80
   3 -10  11  234.78   16.50
  -3  10 -11  245.38   16.10
   3  10  11  220.88   12.80
   4 -10  11  131.09   13.90
  -4 -10 -11  125.69   12.20
   4  10  11  103.09   11.20
  -4  10 -11  124.39   13.10
   5 -10  11   10.20    7.70
  -5 -10 -11   25.30    7.40
   5  10  11    5.00    7.50
  -5  10 -11   13.30    7.80
  -6 -10 -11  -15.50    7.40
   6 -10  11  -14.30    8.00
   6  10  11   -0.30    8.10
  -6  10 -11    1.40    7.50
   5 -11 -11   21.70    8.20
  -5 -11  11   41.50   11.20
   5  11 -11   15.20    7.50
  -4 -11  11   51.79   11.40
   4 -11 -11   34.10    8.50
   4  11 -11   48.70   10.10
   3 -11 -11   24.70    8.00
  -3 -11  11   31.00    9.10
  -3  11  11   28.00    6.10
   3  11 -11   34.20    8.90
  -2 -11  11   14.50    8.60
   2 -11 -11   13.10    6.90
   2  11 -11   10.20    6.60
  -2  11  11   17.60    5.20
  -1 -11  11    3.70    7.30
   1 -11 -11    7.10    5.90
  -1  11  11    2.90    4.90
   1  11 -11    5.10    5.80
   0 -11 -11    8.30    5.30
   0 -11  11  -10.00    5.90
   0  11 -11   -2.40    5.50
   0  11  11   -0.80    5.30
  -1 -11 -11   12.40    6.00
   1 -11  11    7.90    7.00
   1  11  11   11.40    5.20
  -1  11 -11   10.40    6.50
  -2 -11 -11   23.50    6.70
   2 -11  11   40.90    9.00
   2  11  11   24.00    6.90
  -2  11 -11   26.90    7.30
  -3 -11 -11   35.70    8.20
   3 -11  11   18.70    9.00
  -3  11 -11   40.00    9.50
   3  11  11   38.80    7.90
  -4 -11 -11   30.60    8.50
   4 -11  11   27.40    8.60
   4  11  11   18.20    8.30
  -4  11 -11   18.10    7.40
   3 -12 -11   25.60    9.00
  -3 -12  11   12.60    9.90
   3  12 -11   25.10    8.80
   2 -12 -11   32.60   13.30
   2  12 -11   27.70    8.60
  -1 -12  11    7.60    9.00
   1 -12 -11   -6.00    6.70
   1  12 -11   13.50    9.10
   0 -12 -11   32.50    8.70
   0 -12  11   29.30    9.30
   0  12 -11   43.50   10.30
  -1 -12 -11   82.19   11.10
   1 -12  11   69.99   12.10
   1  12  11  100.59   10.90
  -1  12 -11  102.49   13.20
  -2 -12 -11  124.39   15.20
   2 -12  11  117.79   14.40
  -2  12 -11  117.29   13.70
   2  12  11  127.29   12.50
  10   0 -12   20.00    7.40
  10   0 -12   29.20    7.50
   9   0 -12   24.50    6.10
   9   0 -12   15.50    6.40
   8   0 -12   17.10    5.50
   8   0 -12   22.80    5.60
   7   0 -12   68.59    7.90
   7   0 -12   90.89    7.70
   6   0 -12  247.08   12.60
   6   0 -12  225.58   12.50
   5   0 -12  905.91   25.30
  -5   0  12  908.41   24.90
   5   0 -12  883.21   27.70
   4   0 -12  722.13   20.50
  -4   0  12  728.23   20.00
   4   0 -12  761.92   24.20
   3   0 -12  797.62   20.90
   3   0 -12  818.32   25.10
  -3   0  12  791.82   20.40
   2   0 -12 1729.63   38.90
   2   0 -12 1752.92   44.30
   2   0 -12 1647.44   38.90
   1   0 -12 3479.35   74.79
   1   0 -12 3445.66   74.79
   0   0 -12 1180.18   32.20
   0   0 -12 1179.48   28.10
   0   0 -12 1175.28   28.00
  -1   0 -12  227.78    8.70
  -1   0 -12  225.68    8.30
  -1   0 -12  256.87   11.00
   2   0  12   22.40    3.50
  -2   0 -12   27.00    3.90
  -2   0 -12   17.40    3.50
   3   0  12    6.30    2.50
  -3   0 -12    9.10    2.80
  -3   0 -12    6.90    3.30
  -3   0 -12    8.70    3.40
  -4   0 -12   92.79    6.00
  -4   0 -12   81.79    7.20
   4   0  12   87.99    8.00
  -5   0 -12   66.39    5.20
   5   0  12   74.99    7.00
  -5   0 -12   83.79    7.50
  -6   0 -12  438.66   14.30
   6   0  12  506.15   19.80
  -6   0 -12  485.35   13.90
   7   0  12  550.64   22.50
   8   0  12  140.79   12.50
   9   0  12  103.19   12.50
  10  -1 -12   40.70    8.90
  10  -1 -12   40.10    7.80
  10   1 -12   33.40    7.60
  10   1 -12   34.80    8.60
   9  -1 -12   16.80    5.50
   9  -1 -12   24.00    6.60
   9   1 -12   38.80    8.50
   9   1 -12   19.00    5.70
   8  -1 -12   71.59    8.40
   8  -1 -12   72.59    8.50
   8   1 -12   85.69    9.30
   8   1 -12   69.29    8.50
   7  -1 -12   57.99    7.00
   7  -1 -12   73.49    8.70
   7   1 -12   62.79    7.90
   7   1 -12   69.89    8.20
   6  -1 -12   76.69    6.40
   6  -1 -12   85.99    7.80
   6   1 -12   89.99    8.10
  -6   1  12   90.29    7.80
   6   1 -12  100.89    7.70
   5  -1 -12   56.39    4.90
   5  -1 -12   62.59    6.50
  -5  -1  12   58.49    6.40
  -5   1  12   58.09    5.60
   5   1 -12   69.19    6.00
   5   1 -12   56.99    7.00
   4  -1 -12   32.40    5.40
  -4  -1  12   25.50    6.20
   4  -1 -12   30.20    3.30
  -4   1  12   33.50    3.70
   4   1 -12   30.60    5.10
   4   1 -12   37.80    4.10
   3  -1 -12    3.20    1.40
  -3  -1  12    3.90    2.30
   3  -1 -12    5.80    2.90
   3   1 -12    1.40    2.40
   3   1 -12    4.40    2.00
  -3   1  12    0.40    1.40
   2  -1 -12   96.89    3.70
  -2  -1  12   97.99    5.30
   2  -1 -12   98.49    3.70
   2  -1 -12  103.89    7.20
   2   1 -12   93.59    5.30
   2   1 -12  100.39    7.20
   1  -1 -12  124.89    8.20
   1  -1 -12  138.69    4.20
   1  -1 -12  144.09    4.30
   1   1 -12  144.69    8.60
   1   1 -12  135.89    6.50
   1   1 -12  139.69    6.40
   0  -1 -12  443.96   15.90
   0  -1 -12  427.86   11.20
   0  -1 -12  439.76   11.40
   0   1 -12  417.86   13.40
   0   1 -12  429.56   13.30
   0   1 -12  443.76   15.90
  -1  -1 -12  199.18    6.90
  -1  -1 -12  196.08    7.10
  -1  -1 -12  191.88    9.50
  -1   1 -12  186.88    8.00
  -1   1 -12  194.78    9.70
  -1   1 -12  195.68    8.60
  -2  -1 -12  461.15   14.40
  -2  -1 -12  469.45   16.20
   2  -1  12  494.35   16.00
  -2   1 -12  471.35   16.30
   2   1  12  494.15   14.60
  -3  -1 -12  129.19    8.70
  -3  -1 -12  138.79    7.90
  -3  -1 -12  139.09    7.60
   3  -1  12  127.89    7.70
   3   1  12  129.89    7.20
  -3   1 -12  127.49    7.50
  -3   1 -12  133.29    8.50
  -3   1 -12  133.19    8.50
  -4  -1 -12  229.68   11.20
   4  -1  12  234.68   11.30
  -4  -1 -12  235.38    9.90
   4   1  12  225.88   10.60
  -4   1 -12  231.08    9.80
  -4   1 -12  206.48   10.40
   5  -1  12  103.39    8.40
  -5  -1 -12  115.59    6.40
  -5  -1 -12  111.89    8.00
  -5   1 -12  113.09    6.40
   5   1  12  103.29    8.20
  -5   1 -12  104.19    9.30
  -6  -1 -12   16.60    3.90
   6  -1  12   19.70    4.80
  -6  -1 -12   20.50    3.10
  -6   1 -12   19.20    3.10
  -6   1 -12   17.10    3.80
   6   1  12   24.30    5.50
   7  -1  12   12.60    4.90
   7   1  12   17.00    5.30
   8  -1  12    6.10    5.60
   8   1  12   -1.50    5.60
   9  -1  12   11.60    7.00
   9   1  12   -1.00    6.40
  10  -2 -12    2.70    6.30
  10  -2 -12    1.00    7.00
  10   2 -12   11.70    7.10
  10   2 -12   -2.50    6.50
   9  -2 -12   14.10    6.00
   9  -2 -12    4.00    5.30
   9   2 -12    3.40    5.70
   9   2 -12    9.00    6.10
   8  -2 -12   21.50    5.60
   8  -2 -12   15.50    5.00
   8   2 -12    7.00    4.80
   8   2 -12   16.00    5.50
   7  -2 -12    3.20    3.80
   7  -2 -12   10.00    3.80
   7   2 -12    3.20    4.00
   7   2 -12    5.00    4.00
   6  -2 -12   34.70    5.80
   6  -2 -12   37.60    5.10
   6   2 -12   37.00    6.00
   6   2 -12   45.90    6.60
  -6   2  12   33.30    5.40
   5  -2 -12  202.98    8.60
   5  -2 -12  206.88   11.30
   5   2 -12  213.78   10.90
   5   2 -12  236.88   12.30
  -5   2  12  208.88    8.70
   4  -2 -12  178.68    6.80
   4  -2 -12  191.98   10.50
  -4  -2  12  178.48    9.20
  -4   2  12  178.68    6.70
   4   2 -12  188.98   10.60
   4   2 -12  193.28    9.50
   3  -2 -12  126.59    4.20
  -3  -2  12  132.79    7.50
   3  -2 -12  130.69    8.50
   3   2 -12  156.78    9.30
   3   2 -12  143.69    7.70
  -3   2  12  138.89    4.10
  -2  -2  12  382.06   13.10
   2  -2 -12  425.96   16.00
   2   2 -12  401.06   13.70
   2   2 -12  424.66   16.00
   1  -2 -12  782.32   24.00
   1   2 -12  799.82   24.20
   1   2 -12  770.72   21.70
   1   2 -12  760.42   21.90
   0  -2 -12  526.65   18.20
   0   2 -12  532.15   16.80
   0   2 -12  535.15   16.30
  -1  -2 -12  233.78   10.90
  -1  -2 -12  227.58    8.20
  -1   2 -12  252.17   11.10
  -1   2 -12  260.17   10.20
  -2  -2 -12  145.29    6.70
  -2  -2 -12  168.58    8.60
  -2   2 -12  148.39    8.60
  -2   2 -12  157.38    7.90
   2   2  12  157.28    6.70
  -2   2 -12  159.78    8.70
  -3  -2 -12   29.30    4.40
  -3  -2 -12   26.70    4.00
   3  -2  12   32.90    5.20
   3   2  12   27.70    3.90
  -3   2 -12   38.20    5.20
  -3   2 -12   37.00    6.70
   4  -2  12    4.50    3.00
  -4  -2 -12   -0.60    2.10
  -4  -2 -12    2.80    3.80
  -4  -2 -12    5.10    3.70
   4   2  12    0.40    2.50
  -4   2 -12    2.50    2.50
  -4   2 -12    6.00    3.50
  -5  -2 -12   77.69    8.00
   5  -2  12   86.69    7.80
  -5  -2 -12   85.49    6.00
   5   2  12   88.59    7.40
  -5   2 -12   84.19    6.90
  -5   2 -12   81.39    5.90
  -6  -2 -12  127.39    6.90
   6  -2  12  132.49   10.30
  -6  -2 -12  137.49    8.70
   6   2  12  139.49   10.00
  -6   2 -12  124.79    6.50
  -6   2 -12  121.59    7.40
  -7  -2 -12   85.59    5.20
  -7  -2 -12   82.39    6.10
   7  -2  12   73.89   11.00
  -7   2 -12   94.49    4.00
  -7   2 -12   87.89    3.40
   7   2  12   91.49    9.50
   8  -2  12   42.50    8.70
   8   2  12   25.00    6.60
   9  -2  12    6.00    6.40
   9   2  12   13.50    7.30
  10  -3 -12   72.09    9.40
  10  -3 -12   81.99   11.20
  10   3 -12   82.29   12.10
  10   3 -12   56.29    9.40
   9  -3 -12  140.99   11.50
   9  -3 -12  133.49   11.70
   9   3 -12  122.69   12.40
   9   3 -12  163.48   13.70
   8  -3 -12  191.68   11.40
   8  -3 -12  158.58   11.50
   8   3 -12  161.08   13.40
   8   3 -12  201.28   13.20
   7  -3 -12  335.97   15.40
   7  -3 -12  284.67   12.80
   7   3 -12  310.67   15.50
   7   3 -12  308.17   16.00
   6  -3 -12  283.47   11.30
   6  -3 -12  306.67   14.40
  -6   3  12  288.37   12.20
   6   3 -12  281.67   14.50
   6   3 -12  303.97   14.70
   5  -3 -12  395.66   12.70
   5  -3 -12  426.86   16.80
   5   3 -12  432.16   17.50
  -5   3  12  400.76   12.70
   5   3 -12  413.36   16.60
   4  -3 -12  140.29    9.00
   4  -3 -12  129.39    5.10
   4   3 -12  148.29    9.60
   4   3 -12  148.89    8.80
  -3  -3  12    3.70    3.50
   3  -3 -12    8.80    2.90
  -3  -3  12    3.50    3.20
   3   3 -12    5.50    3.00
   3   3 -12    8.80    2.90
  -2  -3  12   35.40    4.70
   2  -3 -12   31.20    4.70
  -2  -3  12   21.40    4.60
   2   3 -12   23.30    4.10
   2   3 -12   38.40    5.10
  -1  -3  12  151.68    9.90
   1  -3 -12  154.08    8.90
   1   3 -12  154.68    8.00
   1   3 -12  141.49    8.40
   0  -3 -12  144.09    8.40
   0  -3  12  138.09    9.40
   0   3 -12  131.79    8.30
   0   3 -12  138.59    7.60
  -1  -3 -12  140.59    4.50
  -1  -3 -12  135.69    8.30
   1  -3  12  127.59    9.00
  -1   3 -12  141.09    8.80
  -1   3 -12  140.19    7.70
  -1   3 -12  151.68    8.70
  -2  -3 -12 1161.88   29.00
  -2  -3 -12 1235.68   33.40
  -2   3 -12 1204.58   32.80
   2   3  12 1273.57   29.60
  -2   3 -12 1269.07   36.30
  -3  -3 -12 1111.79   29.10
  -3  -3 -12 1134.79   33.30
   3  -3  12 1160.78   32.80
   3   3  12 1151.28   29.30
  -3   3 -12 1151.68   31.20
  -4  -3 -12 1418.96   36.10
  -4  -3 -12 1307.87   35.80
   4  -3  12 1377.36   39.00
  -4   3 -12 1435.06   36.30
   4   3  12 1427.36   36.50
   5  -3  12  491.45   19.90
  -5  -3 -12  502.35   16.30
  -5   3 -12  490.75   16.10
   5   3  12  502.55   18.20
  -5   3 -12  457.75   16.30
   6  -3  12  148.59   11.30
  -6  -3 -12  167.88    8.30
  -6  -3 -12  153.58   10.00
  -6   3 -12  133.69    8.20
  -6   3 -12  164.68    7.80
   6   3  12  165.08   10.80
  -7  -3 -12   35.60    4.20
   7  -3  12   25.10    7.20
   7   3  12   28.20    6.70
  -7   3 -12   35.40    3.80
   8  -3  12   28.20    7.60
   8   3  12   19.20    7.40
   9  -3  12   -2.10    7.20
   9   3  12    3.10    6.50
  10  -4 -12    5.50    7.30
  10  -4 -12    9.10    7.20
  10   4 -12    3.40    7.50
  10   4 -12   11.00    8.20
   9  -4 -12    7.50    5.80
   9  -4 -12   -5.40    5.20
   9   4 -12   -0.30    6.30
   9   4 -12    5.70    7.10
   8  -4 -12   -1.60    4.50
   8  -4 -12    7.90    4.80
   8   4 -12   -2.50    5.40
   8   4 -12    6.20    5.20
   7  -4 -12    4.60    3.80
   7  -4 -12    5.60    3.70
   7   4 -12    6.80    4.60
   7   4 -12    4.80    4.40
   6  -4 -12   25.90    4.10
   6  -4 -12   21.50    4.80
   6   4 -12   24.70    6.00
  -6   4  12   24.60    6.10
   6   4 -12   22.50    5.70
   5  -4 -12  120.69    6.00
   5  -4 -12  119.99    9.00
  -5  -4  12  124.09   10.60
   5   4 -12  117.09    9.00
   5   4 -12  113.59    9.40
  -5   4  12  118.89    6.20
   4  -4 -12    0.20    2.40
  -4  -4  12    3.40    3.40
   4   4 -12   -0.80    2.50
  -4   4  12    1.70    1.40
  -3  -4  12   56.89    7.70
   3  -4 -12   86.39    7.40
   3   4 -12   91.99    7.20
  -2  -4  12    7.20    3.20
   2  -4 -12    6.70    2.90
   2   4 -12    8.40    2.90
   1  -4 -12   13.50    3.70
  -1  -4  12   22.70    5.20
   1   4 -12   18.30    3.80
   0  -4 -12   80.69    6.70
   0  -4  12   71.69    7.30
   0   4 -12   77.49    6.30
   1  -4  12   81.49    7.50
  -1  -4 -12   79.29    6.50
  -1  -4 -12   76.69    2.70
  -1   4 -12   85.79    6.60
   1   4  12   76.59    2.60
  -2  -4 -12   33.30    5.10
  -2  -4 -12   31.00    3.30
   2  -4  12   34.20    5.70
  -2   4 -12   37.40    5.40
   2   4  12   29.60    3.20
   3  -4  12   76.19    7.40
  -3  -4 -12   83.19    6.40
  -3  -4 -12   78.49    5.80
   3   4  12   87.19    5.80
  -3   4 -12   70.89    6.70
   4  -4  12    7.00    3.60
  -4  -4 -12   10.80    4.20
  -4  -4 -12    4.90    2.50
   4   4  12    0.70    2.70
  -4   4 -12    1.60    2.80
   5  -4  12    2.00    3.50
  -5  -4 -12   -1.10    2.60
  -5   4 -12    3.10    2.90
   5   4  12    2.60    3.30
   6  -4  12   21.10    5.90
  -6  -4 -12   21.10    4.10
  -6   4 -12   20.30    3.90
   6   4  12   24.20    5.50
  -6   4 -12   17.70    4.90
  -7  -4 -12   45.90    5.50
   7  -4  12   43.20    7.80
  -7   4 -12   47.90    4.90
   7   4  12   31.70    7.20
   8  -4  12   27.90    8.40
   8   4  12   28.60    7.50
   9   4  12   23.90    8.40
   9  -5 -12   92.09   10.20
   9  -5 -12   96.49   10.80
   9   5 -12  123.29   13.40
   9   5 -12   92.89   12.20
   8  -5 -12   69.29    9.00
   8  -5 -12   63.49    7.60
   8   5 -12   84.79   12.60
   8   5 -12   76.09   11.00
   7  -5 -12  154.38   11.20
   7  -5 -12  148.99    9.20
   7   5 -12  168.58   12.80
   7   5 -12  139.29   12.80
   6  -5 -12  165.78   11.10
   6  -5 -12  156.78    8.20
  -6  -5  12  153.78   12.90
   6   5 -12  182.98   12.30
  -6   5  12  165.38    9.20
   6   5 -12  180.88   12.20
   5  -5 -12  276.07    9.40
   5  -5 -12  264.87   13.70
  -5  -5  12  274.47   15.80
  -5   5  12  264.17    9.50
   5   5 -12  273.67   14.30
  -4  -5  12  110.09   10.20
   4  -5 -12  111.29    8.60
   4   5 -12  113.59    8.80
  -4   5  12  105.29    3.60
  -4   5  12  103.99    3.60
  -3  -5  12    6.30    3.80
   3  -5 -12   11.20    3.50
   3   5 -12    3.20    3.00
  -2  -5  12    9.20    4.10
   2  -5 -12   12.80    3.90
   2   5 -12    5.10    3.20
   1  -5 -12  213.58   11.40
  -1  -5  12  209.78   12.70
   1   5 -12  228.58   11.40
   0  -5  12  226.18   12.90
   0  -5 -12  222.58   11.50
   0   5 -12  221.38   11.20
   1  -5  12  423.06   17.80
  -1  -5 -12  398.86   15.90
   1   5  12  408.66    9.70
  -1   5 -12  406.66   16.20
   2  -5  12  550.64   20.50
  -2  -5 -12  503.35   14.20
  -2  -5 -12  511.25   18.40
   2   5  12  516.35   14.40
  -2   5 -12  491.55   18.70
   3  -5  12  578.84   21.10
  -3  -5 -12  591.44   19.90
  -3  -5 -12  529.05   16.80
  -3   5 -12  578.44   20.80
   3   5  12  588.54   17.50
   4  -5  12  361.06   15.50
  -4  -5 -12  320.87   13.50
  -4  -5 -12  349.27   14.40
  -4   5 -12  370.26   16.30
   4   5  12  369.46   14.10
   5  -5  12  171.08   12.00
  -5  -5 -12  145.89    9.20
   5   5  12  146.89    9.70
  -5   5 -12  139.39    9.10
   6  -5  12   85.09   11.00
  -6  -5 -12   70.89    7.20
   6   5  12   83.09    8.70
  -6   5 -12   69.69    6.90
   7  -5  12   16.60    6.40
  -7   5 -12   21.10    4.10
   7   5  12   23.70    6.50
   8  -5  12   30.90    8.70
   8   5  12   11.30    6.90
   9  -5  12    3.20    7.60
   9   5  12    5.80    8.40
   9  -6 -12   14.10    7.00
   9  -6 -12   22.40    7.20
   9   6 -12   11.10    7.80
   9   6 -12    7.70    7.70
   8  -6 -12   -5.40    4.90
   8  -6 -12    2.10    5.50
   8   6 -12    5.10    6.40
   8   6 -12    1.10    6.80
  -7  -6  12    5.60    6.40
   7  -6 -12   12.80    4.50
   7  -6 -12    2.10    7.60
   7   6 -12    3.90    5.20
   7   6 -12    8.70    5.50
   6  -6 -12  127.19   10.20
  -6  -6  12  134.49   12.60
   5  -6 -12  498.45   20.10
  -5  -6  12  484.75   22.50
   5   6 -12  496.05   21.20
  -5   6  12  485.35   14.40
  -5   6  12  498.65   13.90
   4  -6 -12  287.47   14.30
  -4  -6  12  287.87   16.60
   4   6 -12  270.07   14.50
  -4   6  12  274.87    7.40
  -4   6  12  275.37    7.20
  -3  -6  12  845.72   30.70
   3  -6 -12  849.32   27.90
   3   6 -12  893.31   28.80
  -2  -6  12  524.65   22.30
   2  -6 -12  537.75   20.30
   2   6 -12  517.95   20.10
  -1  -6  12  220.18   13.70
   1  -6 -12  254.27   12.80
   1   6 -12  258.77   13.00
   0  -6 -12  789.22   26.10
   0  -6  12  829.72   28.60
   0   6 -12  826.42   26.60
  -1  -6 -12  197.08   10.90
   1  -6  12  183.78   11.80
   1   6  12  200.48    6.10
  -1   6 -12  186.28   10.90
   1   6  12  183.58    6.00
   2  -6  12   92.49    9.10
  -2  -6 -12   84.39    7.60
  -2  -6 -12   78.89    5.20
   2   6  12   89.69    5.30
  -2   6 -12   80.69    7.70
  -3  -6 -12   24.80    4.80
   3  -6  12   12.90    4.70
  -3  -6 -12   23.60    4.30
   3   6  12   20.10    3.90
  -3   6 -12   16.40    4.60
  -4  -6 -12   10.60    4.10
   4  -6  12    6.00    4.10
   4   6  12    7.10    4.10
  -4   6 -12    9.50    4.30
   5  -6  12   84.59    8.80
  -5  -6 -12   91.89    8.20
  -5   6 -12  103.59    9.80
   5   6  12   83.79    8.40
  -6  -6 -12  123.79    9.50
   6  -6  12  115.89   11.70
   6   6  12  149.59   11.30
  -6   6 -12  130.59    9.40
  -7  -6 -12  142.09   10.80
   7  -6  12  140.09   13.30
  -7   6 -12  127.09    9.00
   8  -6  12  159.68   20.70
   8   6  12  175.18   15.00
   9  -7 -12    3.90    7.20
   9   7 -12   -5.30    8.10
   9   7 -12   -1.10    8.10
   8  -7 -12    1.40    5.70
  -8  -7  12    7.40    8.40
   8  -7 -12   -1.60    6.20
   8   7 -12    5.30    7.80
   8   7 -12    8.50    6.70
  -7  -7  12    9.80    6.60
   7  -7 -12    5.50    5.50
  -7   7  12   10.90    4.80
   7   7 -12    0.20    5.80
  -6  -7  12   -2.00    5.70
   6  -7 -12    4.70    4.60
   6   7 -12   -2.80    5.10
  -6   7  12    0.10    3.40
  -5  -7  12   22.90    9.70
   5  -7 -12   23.90    5.80
   5   7 -12   19.20    5.70
  -5   7  12   24.30    4.60
  -5   7  12   27.10    3.80
   4  -7 -12    3.30    3.80
  -4  -7  12    3.90    5.50
   4   7 -12    4.70    4.30
  -4   7  12   10.50    4.20
   3  -7 -12   30.70    5.70
  -3  -7  12   23.00    6.20
   3   7 -12   35.60    6.70
  -2  -7  12    2.50    4.00
   2  -7 -12   -0.70    2.90
   2   7 -12    5.40    3.70
   1  -7 -12    5.20    3.40
  -1  -7  12    8.80    4.50
   1   7 -12   13.00    4.60
   0  -7  12   13.20    5.00
   0  -7 -12   12.80    4.30
   0   7 -12   14.10    4.30
   1  -7  12   53.49    8.40
  -1  -7 -12   76.49    7.50
   1   7  12   63.99    4.10
  -1   7 -12   56.99    7.90
   1   7  12   60.39    4.40
  -2  -7 -12   10.20    3.30
  -2  -7 -12    7.00    3.70
   2  -7  12    7.00    4.50
  -2   7 -12    7.20    3.30
   2   7  12   13.20    3.30
  -3  -7 -12   31.20    6.00
   3  -7  12   11.30    5.10
  -3  -7 -12   30.60    5.20
  -3   7 -12   19.70    5.00
   3   7  12   19.80    4.00
  -4  -7 -12    5.90    3.90
   4  -7  12   13.60    5.40
  -4   7 -12   23.50    5.60
   4   7  12   15.00    4.60
   5  -7  12    0.00    4.90
  -5  -7 -12   -2.60    3.80
   5   7  12    6.30    4.30
  -5   7 -12    0.70    4.20
  -6  -7 -12   -1.80    4.90
   6  -7  12    3.40    5.30
  -6   7 -12    4.70    5.50
   6   7  12   -1.90    5.30
  -7  -7 -12   12.80    6.40
  -7   7 -12    8.10    5.40
   7   7  12   10.40    7.10
   8  -7  12   -2.90    7.80
   8   7  12    0.90    8.30
  -8  -8  12    0.00    8.20
   8  -8 -12   -3.50    6.50
   8   8 -12   -4.70    8.20
  -8   8  12   -8.20    8.20
  -7  -8  12   12.30    8.40
   7  -8 -12   11.50    6.80
   7   8 -12   15.90    7.80
  -7   8  12   16.60    6.20
   6  -8 -12   72.89    9.50
  -6  -8  12   79.89   12.10
   6   8 -12   79.69   10.50
  -6   8  12   93.79    7.60
  -5  -8  12  179.28   15.30
   5  -8 -12  145.99   11.90
   5   8 -12  154.48   13.00
  -5   8  12  169.08    7.80
  -4  -8  12  263.57   17.20
   4  -8 -12  240.18   14.50
  -4   8  12  253.07    8.30
   4   8 -12  261.97   16.20
  -4   8  12  257.87    8.90
  -3  -8  12  263.07   18.20
   3   8 -12  304.27   25.30
  -2  -8  12  393.66   20.90
   2  -8 -12  427.66   19.10
   2   8 -12  461.15   20.10
   1  -8 -12  431.66   19.20
  -1  -8  12  462.75   21.90
   1   8 -12  466.75   20.30
   0  -8 -12  323.37   16.10
   0  -8  12  314.57   17.60
   0   8 -12  315.27   16.10
   0   8  12  315.87   11.60
   1  -8  12   89.49   10.50
  -1  -8 -12   91.89    9.10
   1   8  12   90.39    5.50
   1   8  12   90.89    6.20
  -1   8 -12   87.79    8.90
   2  -8  12   13.50    5.70
  -2  -8 -12    7.90    4.30
  -2  -8 -12   10.70    4.10
   2   8  12   15.10    3.70
  -2   8 -12   17.50    5.50
   3  -8  12    0.10    4.70
  -3  -8 -12    4.90    4.10
  -3  -8 -12   -5.40    4.90
   3   8  12    1.50    3.80
  -3   8 -12    3.20    4.20
  -4  -8 -12    4.00    4.50
   4  -8  12    6.00    5.30
   4   8  12   10.10    4.70
  -4   8 -12    8.00    4.90
  -5  -8 -12   15.00    5.80
   5  -8  12    6.70    5.80
  -5   8 -12    8.80    5.70
   5   8  12   14.40    5.80
   6  -8  12   94.89   10.50
  -6  -8 -12  112.39   11.80
  -6   8 -12   97.29   11.50
   6   8  12   90.89   10.50
  -7  -8 -12  107.59   11.60
   7   8  12  101.09   12.50
  -7   8 -12  148.29   15.30
  -7  -9  12   64.69   12.30
   7  -9 -12   89.39   12.00
   7   9 -12   79.99   14.50
   6  -9 -12   68.59    9.80
  -6  -9  12   95.69   13.60
   6   9 -12   59.59   10.60
  -6   9  12   62.39    7.70
   5  -9 -12   83.39   11.00
  -5  -9  12   78.59   12.40
   5   9 -12   93.19   12.50
  -5   9  12   88.59    7.30
   4  -9 -12   43.80    7.80
  -4  -9  12   34.90    8.50
  -4   9  12   53.29    4.70
   4   9 -12   49.99    9.10
  -3  -9  12   -8.80    5.30
   3  -9 -12    5.60    4.80
   3   9 -12    6.10    4.60
  -2  -9  12   13.10    6.60
   2  -9 -12   22.40    5.90
   2   9 -12   14.10    5.40
  -2   9  12   13.10    3.30
  -2   9  12   13.50    2.80
   1  -9 -12   74.59    9.10
  -1  -9  12   72.49   10.90
   1   9 -12   70.89    9.80
   0  -9  12  144.79   13.20
   0  -9 -12  144.49   11.30
   0   9  12  144.19    6.80
   0   9 -12  139.99   11.90
   0   9  12  140.69    7.30
   1  -9  12  165.48   14.00
  -1  -9 -12  148.29   11.60
   1   9  12  153.08    8.00
   1   9  12  162.98    9.10
  -1   9 -12  142.99   11.70
   2  -9  12  346.47   28.90
  -2  -9 -12  356.46   17.20
  -2   9 -12  303.17   17.00
   2   9  12  311.57   12.70
  -3  -9 -12  309.87   16.40
  -3   9 -12  284.07   17.10
   3   9  12  301.47   13.60
  -4  -9 -12  220.38   14.40
   4  -9  12  225.78   18.10
  -4   9 -12  245.88   16.30
   4   9  12  222.18   13.00
  -5  -9 -12  153.58   13.10
   5  -9  12  140.79   13.60
  -5   9 -12  146.79   13.70
   5   9  12  173.38   13.30
  -6  -9 -12   46.10    9.20
   6  -9  12   53.89    9.90
   6   9  12   47.30    9.40
  -6   9 -12   46.00    9.70
   6 -10 -12    7.70    7.00
  -6 -10  12   -7.10    8.90
   6  10 -12   -4.10    7.70
   5 -10 -12    2.70    5.90
  -5 -10  12    4.90    7.80
   5  10 -12   -3.00    6.60
  -4 -10  12   -6.10    6.70
   4 -10 -12   10.60    6.40
   4  10 -12   15.30    7.10
   3 -10 -12   15.10    6.40
  -3 -10  12    5.10    7.10
   3  10 -12   10.70    6.20
  -3  10  12    7.30    4.20
   2 -10 -12    8.90    6.50
  -2 -10  12    3.10    7.10
  -2  10  12    7.50    3.30
   2  10 -12    4.80    5.40
  -1 -10  12   18.40    8.20
   1 -10 -12   25.00    7.50
   1  10 -12    2.70    5.50
  -1  10  12   14.00    3.70
   0 -10 -12   -2.70    4.80
   0 -10  12    0.60    6.50
   0  10  12    2.70    3.50
   0  10 -12    2.50    5.10
  -1 -10 -12    3.00    5.00
   1 -10  12   11.20    6.80
   1  10  12    9.70    4.50
  -1  10 -12    8.00    5.20
  -2 -10 -12    3.40    4.90
   2 -10  12   -4.10    6.40
  -2  10 -12   -1.40    5.00
   2  10  12    3.20    4.80
   3 -10  12   10.00    6.90
  -3 -10 -12    5.20    5.60
  -3  10 -12    0.00    5.60
   3  10  12    2.80    5.40
   4 -10  12   -3.10    7.10
  -4 -10 -12    4.40    6.00
  -4  10 -12    4.20    6.00
   4  10  12   -0.30    6.30
  -5 -10 -12   -3.50    7.00
   5 -10  12  -11.90    7.40
  -5  10 -12   -7.00    6.50
   5  10  12   -4.50    6.90
  -5 -11  12   50.89   12.70
   5 -11 -12   54.39   17.70
   5  11 -12   42.40   10.60
  -4 -11  12   79.69   14.30
   4 -11 -12   56.99    9.90
   4  11 -12   62.19   12.30
   3 -11 -12   20.10    7.80
  -3 -11  12   21.50    9.30
   3  11 -12   34.10    9.10
  -2 -11  12   -5.90    7.30
   2 -11 -12    2.90    6.30
   2  11 -12   17.70    7.20
  -1 -11  12   23.40    8.80
   1 -11 -12   21.10    7.40
   1  11 -12   18.70    7.00
   0 -11  12  105.79   14.10
   0 -11 -12  119.39   12.40
   0  11 -12  100.79   12.50
  -1 -11 -12  247.98   16.20
   1 -11  12  242.68   18.70
  -1  11 -12  219.28   16.60
   1  11  12  231.48   12.10
   2 -11  12  218.18   17.90
  -2 -11 -12  211.68   15.70
   2  11  12  196.68   12.80
  -2  11 -12  230.18   16.80
  -3 -11 -12  212.38   16.10
   3 -11  12  199.88   17.50
  -3  11 -12  188.78   18.60
   3  11  12  228.28   14.20
  -4 -11 -12  225.48   17.00
   4 -11  12  194.18   18.20
   4  11  12  231.88   16.20
  -4  11 -12  187.88   17.00
   2 -12 -12   99.99   12.50
  -2 -12  12  109.99   15.50
   2  12 -12  106.49   13.60
   1 -12 -12  139.69   14.60
  -1 -12  12  100.99   16.80
   1  12 -12  121.09   14.60
   0 -12  12   61.39   18.60
   0 -12 -12   79.39   12.20
   0  12 -12   96.39   13.70
  -1 -12 -12   39.20    9.50
   1 -12  12   39.80   12.30
  -1  12 -12   65.19   11.20
  10   0 -13   -2.40    7.00
  10   0 -13   -3.10    6.90
   9   0 -13    0.10    5.30
   9   0 -13    0.00    5.40
   8   0 -13    1.70    5.10
   8   0 -13    2.30    4.60
   7   0 -13   -1.70    3.50
   7   0 -13    1.10    3.50
   6   0 -13    5.00    3.80
   6   0 -13    0.60    3.00
  -5   0  13    1.00    3.30
   5   0 -13    2.80    3.00
   5   0 -13    2.80    2.50
  -4   0  13   -0.30    2.30
   4   0 -13    1.00    1.90
   4   0 -13    0.50    2.60
  -3   0  13   -3.50    1.70
   3   0 -13   -4.80    2.20
   3   0 -13    2.00    1.60
   2   0 -13    0.50    1.70
   2   0 -13   -0.70    2.20
   2   0 -13    0.10    1.40
   1   0 -13    1.20    1.20
   1   0 -13   -0.30    2.00
   1   0 -13    1.20    1.60
   0   0 -13    0.90    1.70
   0   0 -13    0.40    1.30
   0   0 -13    2.00    2.00
  -1   0 -13    3.90    2.20
  -1   0 -13    0.40    1.40
  -1   0 -13   -0.70    2.00
   2   0  13    1.30    1.90
  -2   0 -13   -2.10    1.90
  -2   0 -13   -1.20    2.40
  -3   0 -13    2.60    2.30
  -3   0 -13    2.90    3.10
   3   0  13   -0.80    2.20
  -4   0 -13   -1.50    2.20
   4   0  13   -0.70    2.50
   5   0  13    1.90    3.00
  -5   0 -13    3.20    3.80
  -5   0 -13    0.90    2.60
  -6   0 -13    3.40    2.50
   6   0  13   -3.10    3.60
  -6   0 -13    1.60    3.90
   7   0  13   -2.70    4.50
   8   0  13   -0.10    5.30
   9   0  13   -7.00    6.70
  10  -1 -13   37.50    8.60
  10  -1 -13   45.60    9.30
  10   1 -13   43.40    8.70
  10   1 -13   38.00    9.20
   9  -1 -13   85.69   10.30
   9  -1 -13   96.19   10.20
   9   1 -13   82.69   10.60
   9   1 -13   80.39   10.00
   8  -1 -13   80.19    8.80
   8  -1 -13   64.59    8.60
   8   1 -13   72.79    8.90
   8   1 -13   49.50    7.60
   7  -1 -13   30.20    5.60
   7  -1 -13   38.30    6.70
   7   1 -13   25.90    5.60
   7   1 -13   34.10    6.10
   6  -1 -13    1.30    3.30
   6  -1 -13    4.00    3.10
  -6   1  13    4.50    4.40
   6   1 -13    3.50    3.50
   6   1 -13    2.90    4.10
  -5  -1  13   11.90    4.20
   5  -1 -13   10.40    3.00
   5  -1 -13    5.80    3.40
  -5   1  13   11.80    3.30
   5   1 -13   11.00    3.30
   5   1 -13    3.80    3.20
   4  -1 -13   90.89    7.70
  -4  -1  13   93.69    7.70
   4  -1 -13   90.39    5.20
   4   1 -13  105.69    6.60
   4   1 -13   86.29    7.60
  -4   1  13   91.09    5.20
  -3  -1  13  299.67   10.70
   3  -1 -13  307.17   13.80
   3  -1 -13  290.57    8.90
  -3   1  13  291.87    8.70
   3   1 -13  326.57   14.20
   3   1 -13  314.87   11.30
   2  -1 -13  362.66   15.00
   2  -1 -13  357.16    9.20
   2  -1 -13  354.36    9.10
   2   1 -13  353.26   12.10
   2   1 -13  360.36   11.90
   2   1 -13  380.06   15.30
   1  -1 -13 1051.99   22.90
   1  -1 -13 1025.80   30.10
   1  -1 -13 1039.80   22.90
   1   1 -13 1029.40   30.20
   1   1 -13 1068.79   26.50
   1   1 -13 1026.90   26.50
   0  -1 -13  992.50   28.60
   0  -1 -13  954.20   22.60
   0   1 -13  988.00   28.70
   0   1 -13  935.01   25.30
   0   1 -13 1020.90   25.40
  -1  -1 -13  785.92   19.80
  -1  -1 -13  811.22   24.40
  -1  -1 -13  755.82   19.90
  -1   1 -13  779.02   22.10
  -1   1 -13  808.52   21.80
  -1   1 -13  816.12   24.40
  -2  -1 -13  282.77   10.50
  -2   1 -13  291.37   14.00
  -2   1 -13  289.57   11.90
   2   1  13  293.17   10.50
   3  -1  13  256.47   11.40
  -3  -1 -13  256.27   11.10
  -3  -1 -13  239.48   12.00
   3   1  13  245.08   10.40
  -3   1 -13  257.67   11.30
  -4  -1 -13   29.40    4.40
   4  -1  13   31.40    5.30
   4   1  13   33.30    5.70
  -4   1 -13   20.20    3.70
  -5  -1 -13  192.18    8.80
   5  -1  13  195.68   11.30
  -5  -1 -13  152.28    9.90
  -5   1 -13  191.88    8.80
  -5   1 -13  159.18    9.70
   5   1  13  178.48   10.50
  -6  -1 -13   11.40    2.70
   6  -1  13    6.40    4.10
   6   1  13    8.60    4.30
  -6   1 -13    0.60    3.70
  -6   1 -13    7.10    2.80
  -7  -1 -13   12.20    2.60
   7   1  13    2.60    5.00
   8  -1  13   42.30    8.80
   8   1  13   48.70    8.90
   9  -1  13   27.30    8.50
   9   1  13   23.10    8.20
  10  -2 -13   44.10    9.20
  10  -2 -13   18.30    7.20
  10   2 -13   23.70    8.00
  10   2 -13   16.10    8.00
   9  -2 -13    9.90    5.90
   9  -2 -13   11.30    6.20
   9   2 -13    8.50    6.80
   9   2 -13    7.50    6.60
   8  -2 -13   88.39    9.60
   8  -2 -13   66.59    7.90
   8   2 -13   61.39    8.90
   8   2 -13   71.49    9.30
   7  -2 -13   30.20    6.00
   7  -2 -13   37.00    5.50
   7   2 -13   42.30    7.10
   7   2 -13   32.40    6.20
   6  -2 -13  224.68   12.50
   6  -2 -13  212.08    9.70
   6   2 -13  218.78   12.70
   6   2 -13  207.58   11.50
  -6   2  13  207.08   10.20
   5  -2 -13  231.98    9.20
   5  -2 -13  235.38   12.50
   5   2 -13  264.37   13.50
  -5   2  13  243.18    9.30
   5   2 -13  257.67   12.00
  -4  -2  13  688.63   21.10
   4  -2 -13  688.23   17.50
   4  -2 -13  681.93   23.50
  -4   2  13  709.63   17.30
   4   2 -13  717.83   21.90
   4   2 -13  723.53   24.20
  -3  -2  13  142.29    7.90
   3  -2 -13  150.38    9.40
   3   2 -13  143.19    9.40
   3   2 -13  161.88    8.30
   2  -2 -13  202.78   10.70
   2   2 -13  176.38    8.80
   2   2 -13  178.48   10.30
   2   2 -13  183.78    8.60
   1  -2 -13  117.89    8.00
   1   2 -13  105.99    7.80
   1   2 -13  113.99    6.60
   1   2 -13  122.79    7.20
   0  -2 -13   33.90    5.10
   0   2 -13   22.00    4.30
   0   2 -13   34.70    4.60
   0   2 -13   31.40    4.50
  -1  -2 -13    0.70    2.10
  -1  -2 -13    1.30    1.30
  -1  -2 -13   -0.30    1.60
  -1   2 -13    2.70    2.00
  -1   2 -13   -2.20    2.70
  -1   2 -13    1.80    1.90
  -2  -2 -13  318.67   13.10
  -2  -2 -13  312.57   10.60
   2   2  13  337.07   10.80
  -2   2 -13  332.47   13.50
  -2   2 -13  322.97   12.60
  -2   2 -13  295.07   12.90
   3  -2  13  433.46   16.20
  -3  -2 -13  420.56   14.30
  -3  -2 -13  388.46   18.30
   3   2  13  422.46   14.20
  -3   2 -13  421.06   15.60
   4  -2  13  211.28   11.60
  -4  -2 -13  234.98   10.50
  -4  -2 -13  236.58   11.80
   4   2  13  226.58   10.60
  -4   2 -13  241.28   10.70
  -5  -2 -13  181.98    9.00
   5  -2  13  196.28   11.60
  -5   2 -13  185.08    9.00
  -5   2 -13  173.78   10.00
   5   2  13  186.98   10.70
  -6  -2 -13   55.69    5.50
   6  -2  13   63.69    8.70
  -6  -2 -13   47.60    6.20
  -6   2 -13   47.30    5.10
   6   2  13   66.79    8.60
  -6   2 -13   75.19    7.70
   7  -2  13  157.58   12.60
  -7  -2 -13  147.69    7.30
   7   2  13  150.68   12.20
  -7   2 -13  155.48    6.70
   8  -2  13  125.39   13.30
   8   2  13  113.19   12.10
   9  -2  13   35.00    9.70
   9   2  13   39.60    9.50
  10  -3 -13   -1.50    7.40
  10  -3 -13   10.20    7.00
  10   3 -13   -8.60    7.40
  10   3 -13  -10.50    7.30
   9  -3 -13    6.60    6.00
   9   3 -13   12.50    6.50
   9   3 -13   -1.70    6.00
   8  -3 -13   13.70    4.80
   8  -3 -13    0.90    4.50
   8   3 -13   16.30    9.90
   8   3 -13    3.20    5.50
   7  -3 -13    2.20    3.90
   7  -3 -13   -2.70    3.50
   7   3 -13   -0.30    4.10
   7   3 -13    1.70    4.30
   6  -3 -13    0.70    2.80
   6  -3 -13    0.20    3.40
   6   3 -13   -0.90    3.70
  -6   3  13    1.70    4.10
   6   3 -13    1.60    3.50
   5  -3 -13    0.70    2.00
   5  -3 -13    3.00    3.00
   5   3 -13    1.70    3.10
  -5   3  13   -1.30    2.60
   5   3 -13    3.00    3.00
   4  -3 -13   50.39    7.10
   4  -3 -13   43.90    2.40
   4   3 -13   48.50    6.10
  -4   3  13   48.10    2.50
   4   3 -13   58.69    7.40
   3  -3 -13  179.88   10.40
   3   3 -13  172.18   10.50
   3   3 -13  174.38   10.70
   2  -3 -13   18.10    4.10
   2   3 -13   17.00    3.80
   2   3 -13   28.70    5.20
   1  -3 -13   63.89    6.40
   1   3 -13   69.09    5.70
   1   3 -13   65.19    6.40
   1   3 -13   70.09    6.70
   0  -3 -13   78.19    6.70
   0   3 -13   59.49    6.50
   0   3 -13   66.29    5.70
   0   3 -13   72.19    6.60
  -1  -3 -13    3.40    2.40
  -1  -3 -13    8.20    1.10
  -1  -3 -13    4.50    1.00
  -1   3 -13   11.00    3.40
  -1   3 -13    3.50    2.50
  -2  -3 -13   71.49    4.50
  -2  -3 -13   73.39    6.30
   2   3  13   69.89    4.30
  -2   3 -13   70.59    6.10
  -2   3 -13   65.19    6.20
  -3  -3 -13   -0.80    2.20
  -3  -3 -13   -1.40    2.90
   3   3  13    2.80    2.10
  -3   3 -13    0.60    2.50
  -4  -3 -13   59.39    6.70
  -4  -3 -13   47.70    5.60
   4  -3  13   53.59    7.40
  -4   3 -13   52.39    6.80
   4   3  13   51.19    5.50
   5  -3  13   13.20    4.40
  -5   3 -13   13.30    3.60
   5   3  13   11.30    4.00
   6  -3  13   23.40    6.10
  -6  -3 -13   28.80    4.40
   6   3  13   29.40    6.00
  -6   3 -13   32.20    4.50
  -6   3 -13   22.90    5.10
   7  -3  13   -2.30    4.90
  -7  -3 -13    1.00    3.40
   7   3  13    3.30    5.10
  -7   3 -13    3.40    2.70
   8  -3  13   11.30    6.60
   8   3  13   21.80    7.00
   9   3  13   26.10    8.10
  10  -4 -13    9.20    7.70
  10   4 -13    8.40    8.30
   9  -4 -13   99.99   11.10
   9  -4 -13   68.99    9.00
   9   4 -13   60.79   10.20
   9   4 -13   79.79   11.20
   8  -4 -13   88.19    8.70
   8  -4 -13   73.19    9.90
   8   4 -13  106.79   12.30
   8   4 -13  110.59   13.00
   7  -4 -13  140.09   11.20
   7  -4 -13  140.29    8.80
   7   4 -13  143.09   11.60
   7   4 -13  157.68   12.10
   6  -4 -13  200.38    8.80
   6  -4 -13  214.28   12.40
  -6   4  13  203.18    9.60
   6   4 -13  221.68   13.40
   6   4 -13  193.48   12.60
   5  -4 -13  525.55   20.80
   5  -4 -13  525.65   14.40
   5   4 -13  565.14   21.10
   5   4 -13  556.24   21.70
  -5   4  13  534.05   14.30
  -4  -4  13  775.42   28.50
   4  -4 -13  792.12   26.50
   4   4 -13  842.32   27.70
   4   4 -13  803.22   26.10
   3  -4 -13  443.16   17.90
  -3  -4  13  461.65   20.10
   3   4 -13  425.26   16.90
  -2  -4  13  446.46   19.40
   2  -4 -13  440.46   17.50
   2   4 -13  429.46   16.40
  -1  -4  13   10.30    4.20
   1  -4 -13   17.50    4.30
   1   4 -13   10.70    3.20
   0  -4  13   -3.40    2.60
   0  -4 -13    1.20    2.50
   0   4 -13    4.20    2.40
   1  -4  13   44.60    6.90
  -1  -4 -13   46.40    6.30
  -1   4 -13   40.10    5.80
  -2  -4 -13  366.76   15.00
   2  -4  13  375.56   16.30
  -2  -4 -13  357.06   10.70
   2   4  13  364.26   10.90
  -2   4 -13  379.26   15.00
  -3  -4 -13  367.76   14.60
  -3  -4 -13  322.27   11.90
  -3   4 -13  363.66   15.20
  -3   4 -13  359.96   14.90
   3   4  13  363.56   12.30
   4  -4  13  307.57   15.00
  -4  -4 -13  249.97   12.00
  -4  -4 -13  294.77   12.70
  -4   4 -13  312.27   13.10
   4   4  13  288.07   12.10
  -5  -4 -13  319.77   13.30
   5  -4  13  317.77   16.10
   5   4  13  308.37   14.00
   6  -4  13  322.17   17.50
  -6  -4 -13  334.87   13.50
   6   4  13  349.77   16.20
  -6   4 -13  352.06   13.20
  -7  -4 -13  206.78   10.40
   7  -4  13  213.88   15.10
   7   4  13  222.68   14.10
  -7   4 -13  200.38    9.00
   8  -4  13  153.28   14.60
   8   4  13  164.38   13.80
   9  -4  13   40.40   10.50
   9   4  13   47.60    9.70
   9  -5 -13   33.20    7.70
   9  -5 -13   16.70    6.80
   9   5 -13   27.30    8.70
   9   5 -13   35.70   10.60
   8  -5 -13   13.20    6.30
   8  -5 -13   17.60    5.50
   8   5 -13   12.20    6.00
   8   5 -13   21.10    7.00
   7  -5 -13    4.90    3.80
   7  -5 -13    4.70    5.10
   7   5 -13    5.30    5.80
   7   5 -13   12.80    6.40
   6  -5 -13    0.40    4.40
   6  -5 -13    5.90    2.80
   6   5 -13    5.20    4.50
   6   5 -13    6.30    4.70
  -6   5  13    2.30    4.00
   5  -5 -13    8.00    4.00
  -5  -5  13    8.50    5.30
  -5   5  13   10.90    2.70
   5   5 -13    4.00    4.20
  -5   5  13    7.60    4.40
   4  -5 -13   35.70    6.80
  -4  -5  13   34.80    7.30
   4   5 -13   31.60    5.90
  -3  -5  13   61.29    8.50
   3  -5 -13   57.39    7.10
   3   5 -13   66.69    7.00
   2  -5 -13  710.23   24.30
  -2  -5  13  711.03   26.50
   2   5 -13  711.13   23.90
   1  -5 -13  782.32   25.50
  -1  -5  13  767.92   27.60
   1   5 -13  767.82   24.90
   0  -5  13 1103.69   35.10
   0  -5 -13 1139.29   33.30
   0   5 -13 1136.19   32.80
   1  -5  13  412.76   18.40
  -1  -5 -13  416.46   16.70
  -1   5 -13  423.36   16.80
  -2  -5 -13   29.60    3.30
  -2  -5 -13   32.80    5.70
   2  -5  13   34.60    5.80
   2   5  13   29.60    3.20
  -2   5 -13   41.00    6.40
   3  -5  13  193.78   11.90
  -3  -5 -13  175.48    8.40
  -3  -5 -13  192.38   10.50
  -3   5 -13  188.48   11.30
   3   5  13  201.48    8.70
  -4  -5 -13   76.39    7.50
   4  -5  13   74.79    8.20
  -4  -5 -13   81.09    7.40
  -4   5 -13   74.19    8.00
   4   5  13   75.89    6.70
  -4   5 -13   77.99    7.60
  -5  -5 -13   11.50    4.00
   5  -5  13    8.40    6.50
  -5   5 -13   14.20    4.30
   5   5  13   17.60    5.00
   6  -5  13   13.10    6.70
  -6  -5 -13    3.00    3.90
   6   5  13    8.00    5.10
  -6   5 -13    7.40    3.90
  -7  -5 -13   36.00    6.30
   7  -5  13   36.70    7.60
  -7   5 -13   45.10    5.70
   7   5  13   33.70    7.60
   8  -5  13   43.70   10.10
   8   5  13   49.10    9.60
   9  -6 -13   22.80    8.50
   9  -6 -13   18.60    7.10
   9   6 -13    7.70    8.00
   9   6 -13    9.50    8.10
   8  -6 -13   10.80    6.40
   8  -6 -13    8.10    5.50
   8   6 -13   17.50    7.90
   8   6 -13   14.80    7.40
   7  -6 -13   26.70    4.90
   7  -6 -13   24.70    6.30
   7   6 -13   31.00    7.60
   7   6 -13   17.50    6.80
  -6  -6  13   31.00    7.50
   6  -6 -13   37.20   10.40
  -6   6  13   35.70    4.30
   6   6 -13   24.00    6.60
   5  -6 -13   34.20    6.40
  -5  -6  13   48.40    9.20
   5   6 -13   35.50    7.20
  -4  -6  13    2.10    4.50
   4  -6 -13   -1.90    3.40
   4   6 -13    1.70    3.90
   3  -6 -13    4.40    3.80
  -3  -6  13    3.70    4.80
   3   6 -13   10.50    4.40
   2  -6 -13    5.50    3.50
  -2  -6  13   -0.10    3.80
   2   6 -13   11.60    4.30
   1  -6 -13   12.00    4.00
  -1  -6  13   16.60    5.00
   1   6 -13   13.60    4.20
   0  -6 -13   44.90    6.50
   0  -6  13   46.60    7.60
   0   6 -13   64.79    8.40
   1  -6  13   18.90    4.80
  -1  -6 -13   17.60    4.30
  -1   6 -13   19.40    4.30
  -2  -6 -13   -3.50    2.20
   2  -6  13    2.40    3.70
  -2  -6 -13   -3.00    2.90
  -2   6 -13    0.80    3.10
   2   6  13   -0.50    2.10
   3  -6  13   10.60    4.90
  -3  -6 -13   16.40    4.40
  -3  -6 -13   12.00    4.10
  -3   6 -13   16.00    4.60
   3   6  13   19.80    3.70
  -4  -6 -13   42.70    6.60
   4  -6  13   32.50    6.50
   4   6  13   40.60    5.80
  -4   6 -13   28.50    6.70
  -5  -6 -13   18.70    4.90
   5  -6  13   26.20    5.80
  -5   6 -13   24.60    6.20
   5   6  13   24.90    5.30
  -6  -6 -13   24.50    5.40
   6   6  13   18.10    6.10
  -6   6 -13   16.50    4.70
  -7  -6 -13   19.10    5.90
   7  -6  13   26.70    7.10
   7   6  13   21.40    8.70
   8  -6  13   12.90    7.20
   8   6  13   -6.20    7.30
   8  -7 -13   48.20    8.40
   8   7 -13   55.89   10.80
   8   7 -13   64.79   11.00
  -7  -7  13    4.50    7.80
   7  -7 -13   -4.20    5.40
   7   7 -13   13.90    7.00
  -7   7  13   10.20    4.90
  -6  -7  13   -0.30    6.40
   6  -7 -13    2.30    4.50
  -6   7  13    6.60    3.50
   6   7 -13   -1.40    5.10
  -5  -7  13   16.90    7.00
   5  -7 -13   21.20    5.80
   5   7 -13   23.70    6.60
  -5   7  13   31.50    5.30
  -5   7  13   28.50    4.20
  -4  -7  13    8.40    6.10
   4   7 -13    6.90    4.60
  -3  -7  13   46.00    8.30
   3  -7 -13   55.49    8.00
   3   7 -13   45.70    7.60
  -2  -7  13  269.07   16.50
   2  -7 -13  264.07   14.40
   2   7 -13  292.87   15.30
  -1  -7  13  377.86   19.20
   1  -7 -13  367.66   16.80
   1   7 -13  353.76   17.10
   0  -7  13  752.72   28.20
   0  -7 -13  678.43   24.80
   0   7 -13  719.43   25.50
  -1  -7 -13  505.35   20.40
   1  -7  13  521.65   22.70
  -1   7 -13  537.85   21.20
   2  -7  13  302.37   16.60
  -2  -7 -13  309.77   15.00
  -2  -7 -13  272.77    9.70
   2   7  13  285.27   10.00
  -2   7 -13  304.67   15.50
  -3  -7 -13  281.07   14.40
   3  -7  13  286.47   16.30
   3   7  13  301.27   11.70
  -3   7 -13  260.87   16.00
  -4  -7 -13  121.69   10.00
   4  -7  13  126.79   11.60
  -4   7 -13  133.69   11.40
   4   7  13  140.59    9.30
  -5  -7 -13   18.10    5.40
   5  -7  13   26.80    6.60
   5   7  13   10.40    5.30
  -5   7 -13   14.60    6.00
  -6  -7 -13    3.50    5.50
  -6   7 -13   11.20    5.90
  -6   7 -13    1.80    5.40
   6   7  13   -4.20    5.90
  -7  -7 -13   38.70    7.70
  -7   7 -13   27.60    9.30
   7   7  13   25.10    8.10
   8   8 -13   29.10    9.60
  -7  -8  13   31.70   10.20
   7  -8 -13    9.00    6.90
   7   8 -13   24.30    8.20
  -6  -8  13   37.70   10.00
   6  -8 -13   32.20    7.90
   6   8 -13   32.20    8.70
  -6   8  13   33.00    7.80
  -5  -8  13   51.19    9.50
   5  -8 -13   72.89    9.60
   5   8 -13   71.49   11.30
   4  -8 -13   85.39   10.50
  -4  -8  13   88.69   12.60
   4   8 -13   83.69   11.20
  -3  -8  13   33.40    8.30
   3  -8 -13   37.00    6.90
   3   8 -13   46.30    8.10
   2  -8 -13  103.39    9.90
  -2  -8  13  116.89   13.50
   2   8 -13  108.59   11.10
   1  -8 -13   16.60    6.00
   0  -8  13    3.70    5.00
   1  -8  13   -5.00    4.60
  -1  -8 -13   -6.10    4.30
  -1   8 -13   -3.60    3.60
  -2  -8 -13   74.29   10.90
   2  -8  13   54.49    9.30
  -2   8 -13   71.19    9.70
   2   8  13   55.49    5.60
   3  -8  13   82.79   10.20
  -3  -8 -13   79.89   11.90
   3   8  13   87.89    7.40
  -3   8 -13   95.39   10.40
   4  -8  13   43.10    8.20
   4   8  13   66.69    7.50
  -4   8 -13   52.19    8.50
   5  -8  13   75.69   10.20
   5   8  13   73.19    8.50
  -5   8 -13   78.09   10.50
  -6  -8 -13   36.00   11.90
   6  -8  13   27.80    8.20
  -6   8 -13   39.80    8.80
   6   8  13   27.30    7.70
  -7   8 -13   14.00    8.40
   7   8  13   10.80    9.00
   7  -9 -13    4.00    7.50
  -7  -9  13    8.50   10.00
   7   9 -13   11.70    8.00
  -6  -9  13    3.70    8.50
   6  -9 -13    2.90    6.30
   6   9 -13    0.90    6.80
  -5  -9  13    9.20    8.20
   5  -9 -13   -0.30    5.30
   5   9 -13    1.30    5.70
  -4  -9  13   49.10    9.70
   4  -9 -13   50.49    8.80
   4   9 -13   23.80    7.70
  -3  -9  13   12.70    7.00
   3  -9 -13   14.60    6.30
   3   9 -13   14.40    6.00
  -2  -9  13   97.89   13.30
   2  -9 -13   72.39    9.90
   2   9 -13   62.79    9.50
   1  -9 -13   99.69   10.60
  -1  -9  13   86.79   12.20
   1   9 -13   87.89   11.10
   0  -9 -13   72.89    9.70
   0  -9  13   42.90    8.60
   0   9 -13   64.89    9.80
  -1  -9 -13  161.88   12.40
   1  -9  13  150.08   14.10
   1   9  13  155.38    6.80
  -1   9 -13  150.98   12.30
   2  -9  13  117.69   12.80
  -2  -9 -13  104.89   11.50
   2   9  13  112.49    7.50
  -2   9 -13  119.49   11.40
  -3  -9 -13   38.20    7.70
   3  -9  13   36.00    8.40
   3   9  13   47.90    6.60
  -3   9 -13   41.10    7.70
   4  -9  13   29.00    8.40
  -4  -9 -13   12.90    5.50
   4   9  13   25.60    6.40
  -4   9 -13   21.50    7.70
  -5  -9 -13   28.80    7.70
   5  -9  13   10.80    8.00
   5   9  13   13.60    6.90
  -5   9 -13   27.00    8.30
   6  -9  13   14.10   14.30
  -6  -9 -13   -0.60    7.40
  -6   9 -13    5.10    8.10
   6   9  13   -2.60    7.90
   6 -10 -13  210.08   26.00
   6  10 -13  165.98   16.80
   5 -10 -13  189.48   15.60
  -5 -10  13  189.28   18.50
   5  10 -13  204.18   26.40
   4 -10 -13  284.77   17.80
  -4 -10  13  271.07   20.40
   4  10 -13  280.47   19.10
  -3 -10  13  169.48   16.70
   3 -10 -13  204.78   15.00
   3  10 -13  172.98   14.80
  -2 -10  13   32.30    9.10
   2 -10 -13   37.20    7.90
   2  10 -13   42.70    8.80
  -1 -10  13   37.00    9.50
   1 -10 -13   41.10    7.80
   1  10 -13   58.29    9.70
   0 -10 -13    0.20    5.10
   0 -10  13    1.60    7.00
   0  10 -13    0.10    5.20
   1 -10  13   12.50    7.30
  -1 -10 -13    6.40    5.40
  -1  10 -13   22.60    7.30
   1  10  13   14.60    4.70
   2 -10  13   57.19   10.90
  -2 -10 -13   76.49   10.00
  -2  10 -13   56.49    8.80
   2  10  13   79.49    7.60
   3 -10  13  120.99   14.20
  -3 -10 -13  143.39   13.20
   3  10  13  135.59   10.70
  -3  10 -13  141.59   14.00
  -4 -10 -13  167.38   13.90
   4 -10  13  165.68   16.70
   4  10  13  202.48   13.70
  -4  10 -13  150.98   23.50
   5 -10  13  109.99   14.10
  -5 -10 -13  124.09   13.50
  -5  10 -13  138.79   15.50
   5  10  13  147.49   15.30
  -4 -11  13   -1.40    9.00
   4 -11 -13    0.30    7.70
   4  11 -13   15.00    9.00
   3 -11 -13   13.90    7.80
  -3 -11  13    3.30   11.00
   3  11 -13    1.10    9.50
   2 -11 -13   36.90    8.20
  -2 -11  13   53.49   11.30
   2  11 -13   66.69   11.50
   1 -11 -13   49.10    9.20
  -1 -11  13   52.59   10.90
   1  11 -13   68.39   11.00
   0 -11  13   56.29   11.20
   0 -11 -13   59.49   10.20
   0  11 -13   64.69   10.80
  -1 -11 -13   32.20    7.80
   1 -11  13   12.00    8.60
  -1  11 -13   26.80    8.50
  -2 -11 -13    7.50    6.10
   2 -11  13    3.10    8.00
  -2  11 -13   12.70    7.40
   3 -11  13    7.70    8.50
  -3 -11 -13    4.50    6.90
  -3  11 -13   -2.80    6.80
  10   0 -14   34.10    8.80
  10   0 -14   22.00    8.40
   9   0 -14  215.98   14.70
   9   0 -14  201.48   16.20
   8   0 -14  218.78   13.80
   8   0 -14  195.38   12.60
   7   0 -14  399.86   18.20
   7   0 -14  390.56   16.30
   6   0 -14  154.38   11.10
   6   0 -14  131.89    8.80
  -5   0  14  305.07   12.20
   5   0 -14  332.47   15.50
   5   0 -14  333.47   12.60
  -4   0  14  230.88    9.10
   4   0 -14  221.48   12.30
   4   0 -14  213.08    9.00
   3   0 -14  183.58   10.80
   3   0 -14  182.08    7.50
   2   0 -14  169.28    6.50
   2   0 -14  159.08    9.90
   2   0 -14  148.99    6.40
   1   0 -14  254.57   12.60
   1   0 -14  263.37    8.60
   1   0 -14  256.77    8.70
   0   0 -14  665.73   22.30
   0   0 -14  684.33   17.80
   0   0 -14  655.73   17.90
  -1   0 -14  402.76   12.50
  -1   0 -14  383.46   12.80
  -1   0 -14  400.56   15.60
  -2   0 -14  393.96   14.10
  -2   0 -14  412.56   15.70
  -3   0 -14 1869.81   47.70
   3   0  14 1971.00   47.90
  -3   0 -14 1980.30   48.70
   4   0  14 1244.28   34.20
  -4   0 -14 1231.78   36.10
  -5   0 -14  784.62   22.60
   5   0  14  748.03   25.20
   6   0  14  145.19   10.90
  -6   0 -14  113.09    9.40
  -6   0 -14  128.59    7.50
  -7   0 -14   25.10    3.40
   7   0  14   19.00    8.60
   8   0  14    4.50    6.60
   9   0  14    3.40    7.50
  10  -1 -14    0.10    7.40
  10  -1 -14    2.30    7.30
  10   1 -14   -3.70    7.80
  10   1 -14    3.20    7.20
   9  -1 -14   17.60    6.70
   9  -1 -14    8.90    6.10
   9   1 -14   10.20    6.60
   9   1 -14    5.80    6.50
   8  -1 -14   -1.20    4.40
   8  -1 -14   -1.10    4.90
   8   1 -14    1.80    5.10
   8   1 -14   -4.30    4.80
   7  -1 -14    4.00    3.80
   7  -1 -14   -4.60    4.30
   7   1 -14    3.40    4.50
   7   1 -14    1.60    4.10
   6  -1 -14   39.90    5.30
   6  -1 -14   37.20    7.00
   6   1 -14   41.90    7.40
  -6   1  14   36.10    5.80
   6   1 -14   41.80    6.20
  -5  -1  14   80.99    8.40
   5  -1 -14   76.89    7.90
   5  -1 -14   75.39    5.60
   5   1 -14   77.29    6.60
   5   1 -14   82.29    8.30
  -5   1  14   73.69    6.10
   4  -1 -14  407.26   12.40
   4  -1 -14  395.86   17.20
  -4  -1  14  409.36   14.10
   4   1 -14  445.76   18.00
  -4   1  14  423.96   12.30
   4   1 -14  436.16   14.80
  -3  -1  14  229.88    9.60
   3  -1 -14  261.07   12.90
   3  -1 -14  235.48    7.50
   3   1 -14  257.17   12.80
   3   1 -14  258.87   10.00
   2  -1 -14  245.38    6.40
   2  -1 -14  244.68   12.20
   2  -1 -14  250.07    6.40
   2   1 -14  246.08    9.40
   2   1 -14  231.58   12.20
   2   1 -14  231.98    9.50
   1  -1 -14  222.58    5.90
   1  -1 -14  232.08    6.00
   1  -1 -14  243.28   12.00
   1   1 -14  233.88   11.90
   1   1 -14  219.98    9.20
   1   1 -14  231.98    9.00
   0  -1 -14   77.59    3.80
   0  -1 -14   75.19    6.80
   0   1 -14   93.39    5.60
   0   1 -14   82.09    5.90
   0   1 -14   81.79    7.10
  -1  -1 -14  140.89    5.80
  -1  -1 -14  144.49    6.20
  -1  -1 -14  144.49    8.80
  -1   1 -14  130.09    7.80
  -1   1 -14  124.19    8.50
  -1   1 -14  152.88    7.30
  -2  -1 -14  107.49    6.50
  -2  -1 -14  107.49    7.60
  -2   1 -14  114.09    6.80
   2   1  14  111.19    6.20
  -2   1 -14  104.99    7.70
  -2   1 -14  110.79    8.00
   3  -1  14   -2.00    2.70
  -3  -1 -14    1.50    2.30
  -3  -1 -14   -5.10    3.30
   3   1  14   -4.00    2.10
  -3   1 -14    3.60    2.50
   4  -1  14    0.70    3.10
  -4  -1 -14   -4.00    2.80
   4   1  14    4.10    3.00
  -5  -1 -14   79.29    6.50
   5  -1  14   74.39    7.80
   5   1  14   82.09    7.80
  -5   1 -14   72.89    6.30
  -6  -1 -14   26.80    4.20
   6  -1  14   28.70    6.30
  -6  -1 -14   19.00    6.20
   6   1  14   18.10    5.60
  -6   1 -14   21.10    3.80
  -6   1 -14   21.70    5.90
  -7  -1 -14   88.29    6.10
   7  -1  14  101.99   10.80
   7   1  14  116.79   11.10
  -7   1 -14   99.69    5.60
   8  -1  14   28.90    8.50
   8   1  14   52.99    9.60
   9  -1  14   39.20    9.70
   9   1  14   35.70    9.20
  10  -2 -14    1.30    7.10
  10  -2 -14    4.00    7.90
  10   2 -14    2.90    8.50
  10   2 -14    6.50    8.40
   9  -2 -14   50.29    8.40
   9  -2 -14   36.50    8.00
   9   2 -14   53.19    9.60
   9   2 -14   47.70    8.70
   8  -2 -14  111.69   11.50
   8  -2 -14   77.49    8.80
   8   2 -14  112.19   11.00
   7  -2 -14   56.19    6.80
   7  -2 -14   53.79    7.60
   7   2 -14   52.99    7.80
   7   2 -14   55.09    7.90
   6  -2 -14   12.40    4.50
   6  -2 -14    3.80    3.00
   6   2 -14   13.20    4.90
   6   2 -14   16.40    4.50
   5  -2 -14    3.50    2.30
   5  -2 -14    3.50    3.50
  -5   2  14    4.10    2.80
   5   2 -14    3.20    3.50
   5   2 -14    2.40    2.90
   4  -2 -14   50.89    7.00
   4   2 -14   54.09    6.40
  -4   2  14   52.59    3.70
   4   2 -14   39.00    6.10
  -3  -2  14   14.20    3.70
   3  -2 -14   11.90    3.60
   3   2 -14   16.40    4.30
   3   2 -14   12.40    3.20
   2  -2 -14   14.40    3.80
   2   2 -14   25.60    5.20
   2   2 -14   27.00    4.10
   2   2 -14   20.90    4.50
   1  -2 -14    4.10    2.80
   1   2 -14    6.10    2.40
   1   2 -14    2.10    3.00
   0  -2 -14  225.38   11.60
   0   2 -14  243.48   10.80
   0   2 -14  241.68   10.20
   0   2 -14  237.68   12.00
  -1  -2 -14   46.10    5.90
  -1  -2 -14   50.69    3.10
  -1   2 -14   51.39    5.00
  -1   2 -14   62.69    6.50
  -1   2 -14   62.09    6.10
  -2  -2 -14  241.68   11.50
  -2  -2 -14  224.08    8.70
  -2   2 -14  224.78   11.50
   2   2  14  244.48    8.80
  -3  -2 -14  514.65   16.90
   3  -2  14  530.75   19.20
  -3  -2 -14  546.55   18.80
  -3   2 -14  554.44   19.10
   3   2  14  555.54   17.00
   4  -2  14  261.67   13.10
  -4  -2 -14  269.37   11.90
   4   2  14  258.27   11.60
  -4   2 -14  285.77   12.20
   5  -2  14   86.69    8.80
  -5   2 -14   80.49    6.70
   5   2  14   94.59    8.10
   6  -2  14   46.30    7.60
  -6  -2 -14   37.40    5.10
   6   2  14   39.90    6.50
  -6   2 -14   41.80    5.00
   7  -2  14    6.10    5.50
  -7  -2 -14    0.60    3.20
  -7   2 -14    7.70    3.00
   7   2  14    9.10    5.80
   8  -2  14    5.70    6.40
   8   2  14    5.80    6.60
   9  -2  14    6.10   12.60
   9   2  14   12.80    8.20
   9  -3 -14    2.00    5.90
   9  -3 -14   -2.70    5.90
   9   3 -14   -3.30    6.70
   9   3 -14    0.20    7.20
   8  -3 -14   -3.30    5.50
   8  -3 -14   -0.50    4.70
   8   3 -14   -2.00    5.70
   8   3 -14    5.80    5.50
   7  -3 -14   24.50    4.70
   7  -3 -14   18.50    5.20
   7   3 -14   24.80    6.50
   7   3 -14   23.10    6.60
   6  -3 -14  165.28    8.00
   6  -3 -14  194.88   12.20
   6   3 -14  174.48   11.60
  -6   3  14  165.68    8.90
   6   3 -14  172.58   12.10
   5  -3 -14  323.47   10.00
   5  -3 -14  328.07   15.60
   5   3 -14  339.67   16.50
  -5   3  14  333.27   10.00
   5   3 -14  347.37   15.20
   4  -3 -14  650.33   23.40
   4   3 -14  665.73   21.90
   4   3 -14  637.74   23.70
   3  -3 -14  244.98   13.00
   3   3 -14  240.48   13.10
   3   3 -14  280.97   12.10
   2  -3 -14  439.26   18.00
   2   3 -14  486.65   16.70
   2   3 -14  459.95   18.50
   1  -3 -14  463.85   18.10
   1   3 -14  490.05   16.70
   1   3 -14  469.75   18.50
   1   3 -14  452.05   16.70
   0  -3 -14  612.54   21.00
   0   3 -14  589.24   19.40
   0   3 -14  569.54   20.80
  -1  -3 -14  676.93   22.80
  -1   3 -14  676.63   21.50
  -1   3 -14  704.53   23.20
  -2  -3 -14  165.98    6.70
  -2  -3 -14  168.08    9.60
  -2   3 -14  177.48   10.10
  -2   3 -14  165.18    9.30
   2   3  14  169.48    6.80
  -3  -3 -14   38.20    4.80
  -3  -3 -14   42.20    5.80
   3   3  14   37.00    4.60
  -3   3 -14   25.10    5.00
  -3   3 -14   31.80    5.20
   4  -3  14   28.00    5.90
  -4  -3 -14   23.70    5.20
  -4  -3 -14   24.80    4.50
  -4   3 -14   25.90    4.60
   4   3  14   22.30    4.30
  -5  -3 -14  132.89    8.40
   5  -3  14  121.09   10.20
  -5   3 -14  131.19    9.90
   5   3  14  125.79    9.10
   6  -3  14   74.99   14.90
  -6   3 -14   49.30    5.60
   6   3  14   57.39    7.70
  -7  -3 -14  140.39    8.30
   7  -3  14  125.89   12.70
  -7   3 -14  132.39    7.20
   7   3  14  127.79   11.80
   8  -3  14  196.78   16.10
   8   3  14  210.58   15.60
   9  -4 -14   13.40    6.90
   9  -4 -14    7.80    6.40
   9   4 -14   24.00    8.50
   9   4 -14   20.80    7.90
   8  -4 -14    5.00    5.50
   8  -4 -14    2.70    4.70
   8   4 -14   13.20    7.00
   8   4 -14   -3.80    5.60
   7  -4 -14   38.50    5.30
   7   4 -14   28.90    7.60
   7   4 -14   48.10    7.60
   6  -4 -14   16.60    3.30
   6  -4 -14   15.10    4.90
   6   4 -14   17.30    5.80
  -6   4  14   15.30    4.10
   6   4 -14   20.30    5.90
   5  -4 -14    2.00    3.60
  -5   4  14    4.90    1.70
   5   4 -14    7.20    4.40
   5   4 -14    5.60    4.00
   4  -4 -14   20.90    5.10
   4   4 -14   34.00    6.40
   4   4 -14   31.80    5.70
  -3  -4  14   -0.70    3.80
   3  -4 -14    1.20    2.80
   3   4 -14   -4.00    3.00
   3   4 -14    4.70    3.30
  -2  -4  14  107.69    9.90
   2  -4 -14  118.29    8.90
   2   4 -14   88.59    8.40
   2   4 -14   96.29    7.60
  -1  -4  14   -0.10    3.40
   1  -4 -14   -1.50    2.50
   1   4 -14    2.80    3.00
   1   4 -14    0.40    2.70
   0  -4  14    6.20    3.20
   0  -4 -14    2.30    2.70
   0   4 -14   -0.20    2.70
   0   4 -14    1.30    2.60
  -1  -4 -14   71.19    6.80
   1  -4  14   61.99    7.80
  -1   4 -14   65.39    7.60
  -1   4 -14   64.49    6.50
  -2  -4 -14    2.40    2.60
  -2  -4 -14    6.30    2.10
  -2   4 -14    6.20    3.40
  -2   4 -14    0.60    2.80
   2   4  14    3.50    1.90
  -3  -4 -14   23.60    4.10
  -3  -4 -14   24.80    4.60
   3   4  14   23.60    3.70
  -3   4 -14   17.60    4.60
  -3   4 -14   24.30    5.00
  -4  -4 -14   36.10    5.50
  -4  -4 -14   20.40    5.10
  -4   4 -14   29.50    5.20
   4   4  14   26.10    4.60
  -4   4 -14   27.40    5.30
   5  -4  14   11.60    5.20
  -5  -4 -14   19.50    4.60
   5   4  14   20.10    5.10
  -5   4 -14   18.80    4.40
  -6  -4 -14    6.10    3.90
   6  -4  14    7.10    4.70
   6   4  14    0.60    4.80
   7  -4  14   -8.00    5.60
   7   4  14   -9.00    5.30
  -7   4 -14    6.20    3.90
   8  -4  14    2.00    6.90
   8   4  14   11.10    7.30
   9  -5 -14    2.50    6.80
   9  -5 -14    5.30    7.80
   9   5 -14    0.20    7.60
   9   5 -14   -3.50    7.30
   8  -5 -14   -0.30    5.90
   8  -5 -14    3.20    5.00
   8   5 -14   -0.70    6.60
   8   5 -14   -1.50    6.50
   7  -5 -14    1.50    3.80
   7  -5 -14   -4.90    4.50
   7   5 -14    6.60    5.70
   7   5 -14    0.60    5.70
   6   5 -14   31.00    6.90
   6   5 -14   31.90    7.70
  -6   5  14   34.80    4.60
   5  -5 -14  126.09   10.30
  -5  -5  14  139.19   12.40
   5   5 -14  133.99   10.80
   5   5 -14  127.79   11.10
   4  -5 -14  250.97   13.90
  -4  -5  14  257.57   16.40
   4   5 -14  261.37   14.20
   3  -5 -14  382.46   17.30
  -3  -5  14  399.56   19.70
   3   5 -14  393.56   17.00
   2  -5 -14  453.05   18.70
  -2  -5  14  423.06   20.10
   2   5 -14  436.66   17.80
  -1  -5  14  339.57   17.20
   1  -5 -14  297.87   14.70
   1   5 -14  319.17   14.70
   0  -5  14  329.87   16.60
   0  -5 -14  307.67   14.90
   0   5 -14  314.67   14.40
   1  -5  14  263.57   14.70
  -1  -5 -14  269.27   13.30
  -1   5 -14  255.67   12.80
  -2  -5 -14   42.10    6.20
   2  -5  14   24.00    5.70
  -2   5 -14   37.40    6.30
  -3  -5 -14   -6.20    3.10
   3  -5  14   -0.70    3.80
  -3  -5 -14    4.20    3.40
   3   5  14    0.40    2.80
  -3   5 -14   -1.00    3.20
  -3   5 -14    0.00    3.30
  -4  -5 -14   20.10    4.70
  -4  -5 -14   19.50    5.20
   4   5  14   26.10    4.60
  -4   5 -14   27.70    5.40
  -4   5 -14   28.40    6.00
  -5  -5 -14   31.00    5.70
  -5   5 -14   33.10    6.90
  -5   5 -14   34.20    5.90
   5   5  14   36.50    6.20
  -6  -5 -14   51.09    7.00
   6  -5  14   50.39    9.20
  -6   5 -14   48.10    6.40
   6   5  14   40.00    7.10
   7  -5  14   54.49    9.20
  -7  -5 -14   68.29    8.00
   7   5  14   79.59   12.10
  -7   5 -14   91.19    9.80
   8   5  14  154.78   14.80
   8  -6 -14  165.58   14.20
   8   6 -14  170.98   15.60
   8   6 -14  168.98   15.70
   7  -6 -14  199.98   14.10
   7   6 -14  192.98   15.30
   7   6 -14  162.38   14.30
  -7   6  14  181.28    9.30
   6  -6 -14  219.68   14.10
  -6  -6  14  244.18   17.10
   6   6 -14  216.68   15.00
  -6   6  14  198.28    7.60
   6   6 -14  219.18   15.00
  -5  -6  14   94.69   12.40
   5  -6 -14   83.99    9.00
   5   6 -14   85.69   10.00
   4  -6 -14   22.00    5.30
  -4  -6  14   36.10   11.30
   4   6 -14   31.10    6.90
   3  -6 -14    3.40    3.90
  -3  -6  14    1.30    5.00
   3   6 -14    5.20    4.00
  -2  -6  14   57.59    8.80
   2  -6 -14   49.20    7.50
   2   6 -14   52.69    7.50
  -1  -6  14  109.99   10.80
   1  -6 -14  101.59    8.90
   1   6 -14  102.69    9.20
   0  -6 -14  287.07   14.60
   0  -6  14  330.97   17.30
   0   6 -14  293.17   14.50
  -1  -6 -14  397.86   17.50
   1  -6  14  435.06   20.00
  -1   6 -14  433.46   18.00
   2  -6  14  384.86   18.60
  -2  -6 -14  388.06   16.60
  -2   6 -14  356.76   16.70
  -3  -6 -14  353.56   12.60
   3  -6  14  381.56   18.30
  -3  -6 -14  411.16   17.20
   3   6  14  399.86   13.10
  -3   6 -14  394.66   17.80
  -4  -6 -14  366.86   16.20
   4  -6  14  348.17   17.40
   4   6  14  341.77   13.90
  -4   6 -14  386.06   18.10
  -5  -6 -14  172.78   11.40
   5   6  14  180.18   11.30
  -5   6 -14  170.18   11.50
  -5   6 -14  165.98   12.80
  -6  -6 -14  161.58   11.30
  -6   6 -14  177.48   13.70
  -6   6 -14  169.88   11.40
   6   6  14  152.68   12.20
   7  -6  14   22.80    8.50
  -7  -6 -14   22.50    7.30
   7   6  14   15.60    7.30
   8  -7 -14   11.20    7.50
   8   7 -14    0.80    8.10
   8   7 -14   13.40    7.90
   7  -7 -14    7.30    6.30
  -7  -7  14   -0.30    7.60
   7   7 -14    3.40    6.40
   7   7 -14    2.70    6.60
   6  -7 -14    6.60    5.50
  -6  -7  14   -2.90    7.00
   6   7 -14   28.20    7.80
  -5  -7  14   48.20    9.80
   5  -7 -14   40.50    7.80
   5   7 -14   23.40    6.60
   4  -7 -14    6.90    4.50
  -4  -7  14    7.20    5.90
   4   7 -14    6.80    4.80
  -3  -7  14    4.00    6.10
   3  -7 -14    2.90    4.10
   3   7 -14   11.90    4.60
   2   7 -14    3.10    4.00
   1  -7 -14   12.80    4.30
  -1  -7  14    5.70    5.10
   1   7 -14    6.20    4.40
   0  -7  14    9.60    5.60
   0  -7 -14    6.70    3.90
   0   7 -14    2.30    3.50
  -1  -7 -14   -0.80    3.20
   1  -7  14   -0.60    4.80
  -1   7 -14    4.90    4.00
  -2  -7 -14   18.50    4.80
   2  -7  14   22.40    6.50
   2   7  14   23.70    3.60
   3  -7  14   30.60    7.40
  -3  -7 -14   17.10    5.20
  -3   7 -14   24.60    5.90
   3   7  14   20.00    4.20
  -4  -7 -14    3.20    4.70
   4  -7  14    6.10    5.50
   4   7  14    4.90    5.00
  -4   7 -14    2.50    4.80
  -5  -7 -14   17.80    5.80
   5  -7  14    6.40    6.10
  -5   7 -14    5.50    5.20
   5   7  14    6.40    5.60
  -6  -7 -14    4.40    6.00
  -6   7 -14   14.80    7.20
  -6   7 -14   15.60    6.70
   6   7  14   -1.40    6.50
  -7  -7 -14   -4.70    7.00
   7   7  14    4.70    7.80
  -7   7 -14    1.00    7.10
   7  -8 -14   88.89   12.00
  -7  -8  14   76.19   12.70
   7   8 -14   71.59   11.00
   6  -8 -14   89.29   10.70
  -6  -8  14  114.09   14.70
   6   8 -14   95.79   12.10
   5  -8 -14   93.99   11.10
  -5  -8  14  101.79   13.00
   5   8 -14   94.59   12.40
  -4  -8  14   34.00    9.80
   4  -8 -14   41.30    8.00
   4   8 -14   47.50    9.10
   3  -8 -14   33.30    7.40
  -3  -8  14   51.89    9.70
   3   8 -14   42.60    7.80
  -2  -8  14   25.40    8.00
   2  -8 -14   20.50    5.60
   2   8 -14   15.10    5.70
  -1  -8  14  132.69   13.20
   1  -8 -14  146.49   11.50
   1   8 -14  110.29   10.80
   0  -8  14  120.89   12.40
   0  -8 -14  103.29   10.10
   0   8 -14  105.19   10.30
  -1  -8 -14  255.67   14.90
   1  -8  14  220.78   17.00
  -1   8 -14  256.17   15.20
  -2  -8 -14  236.88   14.10
  -2   8 -14  221.38   14.30
   2   8  14  212.58    7.90
  -3  -8 -14  202.18   13.30
   3  -8  14  173.68   16.60
   3   8  14  200.18    9.80
  -3   8 -14  203.28   14.20
   4  -8  14  220.28   15.80
  -4  -8 -14  225.28   14.10
  -4   8 -14  248.18   16.10
   4   8  14  233.48   12.20
   5  -8  14  241.28   16.50
  -5  -8 -14  245.98   14.90
  -5   8 -14  236.58   16.70
   5   8  14  233.68   14.00
  -6  -8 -14   89.39   10.70
  -6   8 -14   99.79   11.30
   6   8  14   81.09   10.90
  -6   8 -14   75.69   12.80
   6  -9 -14   55.29    9.30
  -6  -9  14   23.70   10.00
   6   9 -14   36.20   12.90
   5  -9 -14  139.89   13.20
  -5  -9  14   95.89   14.60
   5   9 -14  111.89   13.80
  -4  -9  14  212.28   18.10
   4  -9 -14  215.18   15.20
   4   9 -14  229.58   16.40
  -3  -9  14  265.17   19.00
   3  -9 -14  256.47   16.20
   3   9 -14  255.07   17.00
   2  -9 -14  196.28   14.30
  -2  -9  14  172.08   16.00
   2   9 -14  196.58   14.90
   1  -9 -14  205.18   14.60
  -1  -9  14  240.48   17.80
   1   9 -14  214.88   15.00
   0  -9 -14  140.09   12.30
   0  -9  14  127.39   13.90
   0   9 -14  146.39   12.40
   1  -9  14   88.19   12.00
  -1  -9 -14  108.09   11.00
  -1   9 -14  106.49   11.30
   2  -9  14   30.10    8.60
  -2  -9 -14   22.30    6.60
  -2   9 -14   14.70    6.40
   2   9  14   25.50    4.60
  -3  -9 -14    1.40    5.40
   3  -9  14    4.00    7.00
   3   9  14    2.00    5.00
  -3   9 -14   -1.40    5.50
   4  -9  14   10.60    8.20
  -4  -9 -14   11.20    6.10
   4   9  14   10.60    6.10
  -4   9 -14   17.20    6.80
  -5  -9 -14   72.29   10.30
   5  -9  14   73.99   11.20
   5   9  14   70.69   10.40
  -5   9 -14   54.69   10.40
  -5 -10  14    3.30   10.40
   5  10 -14    2.30    8.20
   4 -10 -14    9.80    6.90
  -4 -10  14   18.90    9.50
   4  10 -14    7.30    7.30
   3 -10 -14    8.00    6.20
  -3 -10  14   14.30    8.90
   3  10 -14    7.60    7.00
   2 -10 -14    0.20    5.60
  -2 -10  14   16.20    8.10
   2  10 -14   -2.40    6.20
  -1 -10  14    9.60    7.90
   1 -10 -14    3.50    5.60
   1  10 -14   -3.90    5.70
   0 -10 -14   -4.10    5.40
   0 -10  14    2.30    7.10
   0  10 -14   -3.10    5.60
  -1 -10 -14   12.10    5.90
   1 -10  14   11.00    8.20
  -1  10 -14    7.70    6.40
   2 -10  14    5.80    6.90
  -2 -10 -14    7.70    6.20
  -2  10 -14   12.50    6.00
   3 -10  14    7.50    7.70
  -3 -10 -14    4.30    5.90
  -3  10 -14   13.10    8.80
   4 -10  14   -6.10    8.00
  -4 -10 -14    8.60    6.80
  -4  10 -14   -5.90    7.10
  -3 -11  14  212.68   20.20
   3 -11 -14  219.28   17.00
   3  11 -14  235.08   18.40
  -2 -11  14  138.69   23.60
   2 -11 -14  167.98   22.10
   2  11 -14  168.78   16.20
  -1 -11  14  189.38   19.40
   1 -11 -14  213.38   26.00
   1  11 -14  178.48   18.50
   0 -11 -14  137.99   15.60
   0 -11  14  141.99   16.30
   0  11 -14  176.78   20.90
  -1 -11 -14   62.69   11.30
   1 -11  14   57.09   11.40
  -1  11 -14   44.00    9.30
  -2 -11 -14   38.30   13.80
   2 -11  14   29.00   10.10
  -2  11 -14   18.40    8.20
   9   0 -15   -0.70    6.40
   8   0 -15   -2.80    5.10
   8   0 -15   -6.90    5.10
   7   0 -15   -1.30    4.00
   7   0 -15   10.10    5.10
   6   0 -15   -2.20    3.40
   6   0 -15    1.10    3.80
   5   0 -15   -0.60    3.60
  -5   0  15    1.60    4.00
   5   0 -15    2.50    2.70
  -4   0  15    0.50    2.80
   4   0 -15   -3.70    3.20
   4   0 -15   -0.50    2.40
   3   0 -15    0.50    2.00
   3   0 -15   -2.90    2.90
   3   0 -15    0.30    2.40
   2   0 -15    1.80    1.60
   2   0 -15    0.30    2.40
   2   0 -15    1.30    2.10
   1   0 -15    1.10    1.70
   1   0 -15   -1.70    2.50
   1   0 -15   -2.90    2.00
   0   0 -15    1.90    1.70
   0   0 -15    1.60    2.60
   0   0 -15    2.20    2.10
  -1   0 -15    0.20    2.40
  -1   0 -15    1.50    2.00
  -1   0 -15    2.10    2.70
  -2   0 -15   -2.10    2.30
  -2   0 -15    1.70    2.10
   3   0  15   -2.70    2.70
  -3   0 -15   -0.20    2.70
  -3   0 -15   -1.80    4.30
   4   0  15   -1.60    3.10
  -4   0 -15   -0.40    2.70
   5   0  15   -4.20    3.60
  -5   0 -15   -1.30    3.10
  -6   0 -15   -2.20    3.20
   6   0  15   -6.50    4.50
  -7   0 -15    1.50    3.30
   7   0  15    4.70    5.70
   8   0  15   -7.30    6.50
   9  -1 -15   26.30    7.60
   9  -1 -15   39.10    8.40
   9   1 -15   35.90    8.60
   9   1 -15   44.50    8.50
   8  -1 -15   75.09    8.50
   8  -1 -15   78.69    9.80
   8   1 -15  112.29   11.70
   8   1 -15  101.09   10.90
   7  -1 -15  212.48   13.70
   7  -1 -15  185.68   10.70
   7   1 -15  242.98   15.40
   7   1 -15  195.88   12.00
   6  -1 -15  214.08   10.20
   6  -1 -15  251.97   14.20
   6   1 -15  226.78   13.80
   6   1 -15  228.48   11.80
  -6   1  15  210.08   11.20
   5  -1 -15  398.56   18.00
   5  -1 -15  398.96   13.20
   5   1 -15  417.96   15.50
  -5   1  15  397.66   13.20
   5   1 -15  394.26   18.10
   4  -1 -15  416.56   12.30
  -4  -1  15  415.16   14.50
   4  -1 -15  441.46   18.50
   4   1 -15  425.56   14.90
   4   1 -15  443.56   18.80
  -4   1  15  421.56   12.10
   3  -1 -15  682.63   16.80
   3  -1 -15  689.43   19.60
   3  -1 -15  725.43   24.90
   3   1 -15  753.42   25.50
   3   1 -15  708.73   20.40
   2  -1 -15   83.99    7.60
   2   1 -15   84.09    7.80
   2   1 -15   85.69    6.00
   2   1 -15   87.49    5.60
   1  -1 -15  153.58    9.90
   1   1 -15  138.79    7.50
   1   1 -15  152.18   10.00
   1   1 -15  144.39    7.00
   0  -1 -15  130.89    9.20
   0  -1 -15  127.49    4.90
   0   1 -15  132.09    6.80
   0   1 -15  119.19    7.30
   0   1 -15  138.59    9.40
  -1  -1 -15  428.06   16.90
  -1  -1 -15  378.36   12.00
  -1  -1 -15  402.76   11.90
  -1   1 -15  422.56   16.90
  -1   1 -15  423.76   14.00
  -2  -1 -15  116.19    7.10
  -2  -1 -15  114.19    8.20
  -2  -1 -15  117.09    6.20
  -2   1 -15  114.89    7.10
  -2   1 -15  108.39    8.20
  -2   1 -15  110.69    8.40
  -3  -1 -15  352.76   14.50
   3  -1  15  340.57   14.20
  -3  -1 -15  330.17   13.40
   3   1  15  362.76   13.30
  -3   1 -15  343.67   14.60
   4  -1  15  453.95   17.80
  -4  -1 -15  449.66   16.80
   4   1  15  469.55   16.90
  -4   1 -15  452.65   16.80
  -5  -1 -15  311.57   12.90
   5  -1  15  305.57   15.20
   5   1  15  309.07   14.40
  -5   1 -15  295.97   12.80
  -6  -1 -15  351.76   13.30
   6  -1  15  380.26   17.80
  -6   1 -15  353.36   13.20
   6   1  15  347.67   16.70
  -7  -1 -15   87.79    6.80
   7  -1  15   81.99   11.00
   7   1  15  116.99   11.40
  -7   1 -15   91.89    6.80
   8  -1  15   63.59    9.90
   8   1  15   65.19   10.80
   9  -2 -15   20.60    7.40
   9  -2 -15   29.30    7.70
   9   2 -15   30.20    8.60
   9   2 -15   30.00    8.60
   8  -2 -15   41.50    7.60
   8  -2 -15   32.20    6.40
   8   2 -15   24.70    7.10
   8   2 -15   31.60    7.70
   7   2 -15    3.70    8.90
   7   2 -15    3.60    5.00
   6  -2 -15    1.50    3.00
   6  -2 -15    6.10    4.50
  -6   2  15   -0.10    4.30
   6   2 -15    0.50    3.80
   6   2 -15    6.10    4.90
   5  -2 -15   30.60    3.50
   5  -2 -15   26.10    6.00
   5   2 -15   30.50    6.80
   5   2 -15   26.90    5.10
  -5   2  15   28.80    3.70
   4  -2 -15   67.39    2.50
   4  -2 -15   78.09    8.10
   4   2 -15   54.89    7.40
   3  -2 -15  137.49    9.90
   3   2 -15  135.79   10.10
   3   2 -15  148.79    8.20
   2  -2 -15  290.47   14.10
   2   2 -15  273.27   14.00
   2   2 -15  273.37   11.80
   2   2 -15  272.57   11.20
   1  -2 -15 1338.67   37.20
   1   2 -15 1297.97   33.20
   1   2 -15 1255.47   36.90
   1   2 -15 1222.38   33.20
   0  -2 -15  748.73   24.70
   0   2 -15  733.33   24.80
   0   2 -15  771.22   22.10
   0   2 -15  713.43   22.10
  -1  -2 -15  667.93   16.20
  -1  -2 -15  711.13   17.70
  -1  -2 -15  707.73   23.40
  -1   2 -15  689.13   21.00
  -1   2 -15  682.53   23.40
  -1   2 -15  657.93   21.40
  -2  -2 -15  279.97   13.00
  -2  -2 -15  264.97    9.60
  -2   2 -15  260.27   11.60
  -2   2 -15  290.97   13.30
  -3  -2 -15   10.20    3.80
  -3  -2 -15    8.60    3.70
   3   2  15    8.70    2.90
  -3   2 -15   12.60    3.80
  -3   2 -15   17.30    4.30
  -4  -2 -15  102.09    7.70
   4  -2  15   95.69    8.30
   4   2  15   75.79    8.50
  -4   2 -15   89.19    7.50
  -5  -2 -15    7.00    3.30
   5  -2  15    8.40    4.80
  -5   2 -15    5.80    3.30
   5   2  15    9.50    4.10
   6  -2  15    6.00    5.30
  -6  -2 -15    6.50    5.70
  -6   2 -15   -0.50    3.50
   6   2  15    0.60    4.50
   7  -2  15   63.49   10.50
  -7  -2 -15   56.19    5.90
   8  -2  15   79.69   11.10
   8   2  15   56.19    9.70
   9  -3 -15   -5.60    6.40
   9  -3 -15   -1.40    6.10
   9   3 -15   11.90    7.40
   9   3 -15    7.30    7.80
   8  -3 -15    8.70    4.90
   8  -3 -15   10.00    6.20
   8   3 -15   14.30    6.30
   8   3 -15   12.40    6.60
   7  -3 -15    3.50    3.60
   7  -3 -15    5.30    5.00
   7   3 -15    1.40    5.10
   7   3 -15   -1.30    4.80
   6  -3 -15   74.29    8.90
   6  -3 -15   69.39    5.50
   6   3 -15   89.29    8.80
   6   3 -15   69.49    9.60
  -6   3  15   77.09    6.60
   5  -3 -15   63.49    8.60
   5  -3 -15   58.19    3.50
   5   3 -15   69.19    7.30
   5   3 -15   63.59    8.60
  -5   3  15   53.79    2.90
   4  -3 -15  111.39    9.40
   4   3 -15  113.89    9.80
   4   3 -15   98.59    7.80
   3  -3 -15    0.40    3.20
   3   3 -15    1.30    2.90
   3   3 -15    0.50    3.00
   2  -3 -15   27.70    5.20
   2   3 -15   36.00    6.10
   2   3 -15   36.90    5.40
   1  -3 -15   10.70    3.80
   1   3 -15   10.30    3.50
   0  -3 -15   10.50    3.70
   0   3 -15   12.40    4.10
   0   3 -15    7.00    3.00
  -1  -3 -15    0.50    2.80
  -1   3 -15   -2.50    2.80
  -1   3 -15    1.40    2.80
  -2  -3 -15    2.70    2.00
  -2  -3 -15    2.40    2.80
  -2   3 -15    1.70    2.70
  -2   3 -15    1.80    3.10
  -3  -3 -15    6.90    3.40
  -3  -3 -15   12.80    3.80
  -3   3 -15    6.60    3.50
   3   3  15    9.60    3.20
  -3   3 -15    9.00    3.30
  -4  -3 -15   -1.20    4.90
  -4  -3 -15    5.70    3.30
   4   3  15    4.40    3.30
  -4   3 -15    5.30    3.40
  -5  -3 -15   13.00    4.20
   5  -3  15   12.80    4.90
   5   3  15   11.40    4.60
  -5   3 -15   19.60    4.60
   6  -3  15   31.90    6.70
  -6  -3 -15   31.00    5.20
   6   3  15   25.80    6.20
   7  -3  15   11.60    6.20
  -7  -3 -15    0.00    4.30
   7   3  15    2.10    6.50
   8  -3  15    4.70    7.30
   8   3  15   -1.10    7.10
   9  -4 -15   25.10    8.30
   9   4 -15   35.90    9.20
   9   4 -15   38.90   10.00
   8  -4 -15   59.99    7.10
   8  -4 -15   61.49    9.30
   8   4 -15   71.69   10.70
   8   4 -15   60.99   10.10
   7  -4 -15   72.69    6.60
   7  -4 -15   82.39   10.40
   7   4 -15   59.59   14.40
   7   4 -15   69.09    9.90
   6  -4 -15   37.50    8.30
   6  -4 -15   25.70    3.40
  -6   4  15   37.60    4.10
   6   4 -15   13.90    5.80
   6   4 -15   16.30    5.90
   5  -4 -15   11.60    5.10
   5   4 -15    9.20    4.60
   5   4 -15    7.80    4.50
   4  -4 -15  131.69   10.40
   4   4 -15  118.99    9.30
   4   4 -15  125.99   10.60
   3  -4 -15  355.26   16.90
   3   4 -15  358.96   15.60
   3   4 -15  388.86   17.90
   2  -4 -15  551.04   21.10
   2   4 -15  528.75   19.30
   2   4 -15  519.25   21.10
   1  -4 -15  785.52   26.80
   1   4 -15  798.92   25.10
   1   4 -15  784.22   27.00
   0  -4 -15  887.31   28.70
   0   4 -15  919.71   29.50
   0   4 -15  891.71   27.40
  -1  -4 -15  784.92   26.40
  -1   4 -15  824.72   25.80
  -1   4 -15  834.22   27.30
  -2  -4 -15  501.65   19.20
  -2  -4 -15  498.95   13.50
  -2   4 -15  525.35   19.90
  -2   4 -15  535.05   19.40
  -3  -4 -15  263.77   12.80
  -3  -4 -15  227.08    9.60
   3   4  15  256.37    9.80
  -3   4 -15  233.18   12.80
  -3   4 -15  255.77   13.20
  -4  -4 -15  161.18    9.80
  -4  -4 -15  156.98   10.00
   4   4  15  156.68    9.00
  -4   4 -15  174.88   10.80
  -4   4 -15  173.58   11.50
  -5  -4 -15   16.70    4.50
   5   4  15   17.30    5.40
  -5   4 -15   12.10    4.60
   6  -4  15   10.00    6.00
  -6  -4 -15   13.20    4.60
  -6   4 -15   10.90    4.20
   6   4  15    8.30    5.40
   7  -4  15   18.80    6.70
  -7  -4 -15   12.70    5.00
   8  -4  15   97.69   20.50
   8   4  15  115.99   12.90
   8  -5 -15   20.20    7.50
   8   5 -15   22.50    8.20
   8   5 -15   39.10    9.20
   7  -5 -15   30.30    7.70
   7  -5 -15   23.20    5.40
   7   5 -15   38.60    8.70
   7   5 -15   19.70    6.80
   6  -5 -15   60.99    8.70
   6   5 -15   85.69   16.20
   6   5 -15   67.99    9.90
   5  -5 -15  186.08   12.80
   5   5 -15  167.18   12.20
   5   5 -15  162.38   12.90
   4  -5 -15  304.27   15.80
   4   5 -15  311.77   15.60
   4   5 -15  295.87   17.10
   3  -5 -15  363.26   17.00
  -3  -5  15  326.57   18.20
   3   5 -15  338.27   17.10
   3   5 -15  342.17   16.00
  -2  -5  15   97.99   11.60
   2  -5 -15  108.79    9.30
   2   5 -15  100.69    8.70
  -1  -5  15    2.70    4.40
   1  -5 -15    1.20    3.00
   1   5 -15    7.00    3.50
   0  -5 -15   -0.60    3.10
   0  -5  15    3.30    4.30
   0   5 -15    5.80    3.50
   1  -5  15    0.90    3.90
  -1  -5 -15   -1.60    2.70
  -1   5 -15    1.80    3.20
   2  -5  15   33.90    6.80
  -2  -5 -15   26.80    5.40
  -2   5 -15   24.80    5.60
  -2   5 -15   31.20    5.80
  -3  -5 -15  148.89   10.30
  -3  -5 -15  149.09    7.50
  -3   5 -15  149.79   10.70
  -3   5 -15  156.38   11.00
   3   5  15  142.89    7.10
  -4  -5 -15  422.16   17.20
   4   5  15  401.66   14.80
  -4   5 -15  373.86   20.70
  -4   5 -15  407.86   17.30
  -5  -5 -15  192.98   11.70
  -5   5 -15  201.58   11.90
   5   5  15  220.88   12.00
  -5   5 -15  208.78   13.70
  -6  -5 -15  173.48   11.40
  -6   5 -15  179.78   11.20
   6   5  15  154.28   12.00
  -7  -5 -15   41.40    7.00
   7  -5  15   31.80    8.20
   7   5  15   29.30   10.00
   8  -6 -15   -2.00    6.50
   8   6 -15   13.90    8.00
   8   6 -15   -5.70    7.10
   7  -6 -15   -5.50    5.90
   7   6 -15    5.70    6.50
   7   6 -15    4.40    6.30
   6  -6 -15   20.80    6.60
   6   6 -15   11.70    5.80
   6   6 -15   16.00    7.20
   5  -6 -15   22.40    5.80
  -5  -6  15   13.90    6.50
   5   6 -15   14.10    6.00
   5   6 -15   19.00    7.20
  -4  -6  15   35.90    7.80
   4  -6 -15   49.10    8.20
   4   6 -15   34.80    7.30
  -3  -6  15   42.10    9.20
   3  -6 -15   53.39    9.50
   3   6 -15   52.59    8.50
  -2  -6  15   20.20    7.00
   2  -6 -15   14.20    4.50
   2   6 -15   16.70    5.10
   1  -6 -15   78.49    8.60
  -1  -6  15   64.29    9.50
   1   6 -15   79.59    8.30
   0  -6 -15  105.49    9.30
   0  -6  15  101.29   10.80
   0   6 -15  106.49    9.20
   1  -6  15   75.69    9.80
  -1  -6 -15   79.29    8.30
  -1   6 -15   67.79    8.60
   2  -6  15   32.70    7.00
  -2  -6 -15   45.20    6.70
  -2   6 -15   40.80    7.20
  -3  -6 -15   39.60    5.00
   3  -6  15   32.20    6.90
  -3  -6 -15   19.80    5.20
   3   6  15   34.20    4.20
  -4  -6 -15    4.00    4.00
  -4   6 -15   -1.50    4.20
   4   6  15    0.30    4.00
  -4   6 -15    1.10    4.60
  -5  -6 -15   -2.50    4.60
   5   6  15    2.50    4.90
  -5   6 -15  -10.80    4.90
  -5   6 -15   -1.40    5.20
  -6  -6 -15    4.90    5.40
  -6   6 -15   -7.40    5.70
  -6   6 -15    3.00    5.30
   6   6  15   -2.50    5.70
  -7  -6 -15    8.50    6.90
   7   6  15   -4.00    7.20
   7  -7 -15  138.99   13.50
   7   7 -15  136.39   14.90
   7   7 -15  118.79   14.20
   6  -7 -15  138.59   13.20
  -6  -7  15  153.28   16.00
   6   7 -15  152.58   14.10
   6   7 -15  160.98   14.40
   5  -7 -15  186.98   13.90
  -5  -7  15  152.68   15.70
   5   7 -15  187.58   14.50
   4  -7 -15  179.88   13.30
  -4  -7  15  174.48   15.60
   4   7 -15  192.08   14.10
  -3  -7  15  278.57   18.00
   3  -7 -15  246.08   15.00
   3   7 -15  250.67   19.50
   2  -7 -15  208.58   13.40
  -2  -7  15  190.78   15.00
   2   7 -15  182.98   13.00
  -1  -7  15    2.80    5.60
   1  -7 -15    1.30    4.10
   1   7 -15    1.90    4.10
   0  -7 -15   -4.90    3.50
   0   7 -15    7.00    4.40
  -1  -7 -15   24.00    6.70
   1  -7  15   29.80    7.00
   2  -7  15  127.79   12.60
  -2   7 -15  145.19   11.20
   3  -7  15  277.87   16.60
  -3   7 -15  246.88   15.00
   3   7  15  242.28    9.50
   4  -7  15  331.27   18.50
   4   7  15  342.97   13.80
  -4   7 -15  335.17   18.10
  -5   7 -15  332.87   17.30
  -5   7 -15  309.77   17.90
   5   7  15  326.17   15.10
   6   7  15  177.58   14.00
  -6   7 -15  202.98   14.30
  -6   7 -15  200.48   16.10
   7  -8 -15    0.20    6.90
   7   8 -15   -6.20    9.10
   7   8 -15    9.20    9.20
   6  -8 -15  -10.10    6.00
  -6  -8  15    1.60    8.10
   6   8 -15   -4.90    6.80
   5  -8 -15    2.50    5.30
  -5  -8  15    0.60    7.20
   5   8 -15    1.00    6.30
  -4  -8  15    7.20    6.50
   4  -8 -15    4.50    5.10
   4   8 -15    2.00    5.60
  -3  -8  15   25.40    8.40
   3  -8 -15   26.50    6.70
   3   8 -15   37.30    8.10
   2  -8 -15   71.19   10.00
  -2  -8  15   75.59   12.40
   2   8 -15   70.79    9.50
  -1  -8  15  102.99   12.50
   1  -8 -15  111.49   11.00
   1   8 -15  127.19   11.60
   0  -8 -15  132.19   11.60
   0  -8  15  171.48   14.90
   0   8 -15  157.08   12.10
   1  -8  15  142.39   14.40
  -1  -8 -15  145.09   12.00
  -1   8 -15  154.18   12.10
   2  -8  15   29.80    8.20
  -2  -8 -15   29.40    7.40
  -2   8 -15   39.60    8.30
   3  -8  15   10.00    6.70
  -3  -8 -15    5.50    5.50
   3   8  15    6.50    3.90
  -3   8 -15    7.50    5.60
   4  -8  15    9.80    7.00
  -4  -8 -15    5.90    5.30
   4   8  15    8.70    5.70
  -4   8 -15   -1.80    5.60
  -5  -8 -15   -6.30    5.80
   5  -8  15   -2.20    7.10
   5   8  15    8.70    6.90
  -5   8 -15   -2.90    6.40
  -6  -9  15   81.29   13.50
   6   9 -15   66.39   12.70
   5  -9 -15   57.39   10.10
  -5  -9  15   77.39   13.50
   5   9 -15   69.79   11.50
  -4  -9  15    3.90    9.10
   4  -9 -15   17.20    7.00
   4   9 -15   19.60    8.10
   3  -9 -15   77.79   11.40
  -3  -9  15   85.69   13.00
   3   9 -15   82.79   11.50
  -2  -9  15   39.20    9.20
   2  -9 -15   45.60    9.00
   2   9 -15   28.50    7.60
  -1  -9  15    8.60    7.60
   1  -9 -15    3.50    5.40
   1   9 -15   11.70    6.00
   0  -9 -15   -1.20    5.00
   0  -9  15   -0.90    6.80
   0   9 -15    0.40    5.20
  -1  -9 -15    5.10    5.50
   1  -9  15    5.00    7.00
  -1   9 -15    5.20    5.80
  -2  -9 -15   28.10    7.40
   2  -9  15   18.20    8.50
  -2   9 -15   16.10    6.40
   3  -9  15    2.40    7.90
  -3  -9 -15   17.60    6.90
  -3   9 -15   22.70    7.00
  -4  -9 -15   75.19   10.30
   4  -9  15   84.59   12.50
  -4   9 -15   85.79   15.20
   4 -10 -15   63.89   17.60
  -4 -10  15   35.20   11.10
   4  10 -15   30.70   10.50
   3 -10 -15  142.89   14.40
  -3 -10  15  187.38   18.80
   3  10 -15  153.88   15.40
  -2 -10  15  164.18   18.60
   2 -10 -15  195.78   15.50
   2  10 -15  171.08   14.90
   1 -10 -15  348.37   19.90
   1  10 -15  380.06   21.10
   0 -10  15  280.77   20.80
   0 -10 -15  303.57   18.60
   0  10 -15  298.67   18.80
  -1 -10 -15  284.47   17.80
   1 -10  15  285.37   20.30
  -1  10 -15  314.57   19.20
   2 -10  15  176.38   18.00
  -2 -10 -15  174.88   14.60
  -2  10 -15  172.18   17.20
  -3 -10 -15   75.19   10.60
   3 -10  15   87.39   14.30
  -3  10 -15   78.09   11.80
  -1 -11  15    3.60    9.80
   1 -11 -15    0.60    7.20
   1  11 -15   -3.00    7.50
   0 -11  15   10.90    9.50
   0 -11 -15   -3.70    6.90
   0  11 -15    3.30    7.70
   9   0 -16   31.60    8.70
   8   0 -16    0.60    5.80
   8   0 -16    7.70    6.20
   7   0 -16   52.79    7.20
   7   0 -16   58.89    8.80
   6   0 -16  155.98   20.20
   5   0 -16  343.27   17.00
  -5   0  16  346.67   15.50
   5   0 -16  324.67   12.50
   4   0 -16  564.84   17.00
   4   0 -16  610.54   23.10
   3   0 -16  714.93   25.20
   3   0 -16  671.23   18.10
   3   0 -16  659.63   18.10
   2   0 -16   92.29    5.20
   2   0 -16   98.69    5.00
   2   0 -16  102.09    8.70
   1   0 -16  289.67    9.30
   1   0 -16  273.87   14.00
   1   0 -16  269.37    9.20
   0   0 -16  636.64   17.20
   0   0 -16  618.34   22.60
   0   0 -16  624.64   17.30
  -1   0 -16  203.18    8.40
  -1   0 -16  187.98    8.90
  -1   0 -16  187.18   11.20
  -2   0 -16  291.07   12.10
  -2   0 -16  307.17   11.40
  -2   0 -16  306.17   14.20
  -3   0 -16   -1.40    3.30
   4   0  16  256.47   12.50
  -4   0 -16  270.87   12.70
   5   0  16   51.09    7.60
  -5   0 -16   60.79    6.80
  -6   0 -16  157.08   11.40
   6   0  16  147.89   11.80
   7   0  16  143.19   13.30
   8   0  16  133.89   14.80
   9  -1 -16   19.30    7.30
   9  -1 -16   22.80    7.70
   9   1 -16   12.70    7.90
   9   1 -16   26.10    8.70
   8  -1 -16   33.10    7.60
   8  -1 -16   31.00    6.30
   8   1 -16   20.40    6.80
   8   1 -16   28.80    7.30
   7  -1 -16   61.89    9.10
   7  -1 -16   70.59    7.70
   7   1 -16   75.29    8.60
   7   1 -16   67.89    9.70
   6  -1 -16   98.29    7.10
   6   1 -16   90.49    8.30
  -6   1  16  102.29    9.10
   5  -1 -16   15.30    3.20
   5  -1 -16   12.90    5.00
   5   1 -16   16.90    5.50
   5   1 -16   14.20    5.00
  -5   1  16   11.50    3.80
   4  -1 -16    1.80    2.30
   4  -1 -16    5.80    3.60
   4  -1 -16    0.80    2.00
  -4  -1  16    2.60    3.90
   4   1 -16    2.30    2.60
   4   1 -16   -2.20    3.60
   3  -1 -16    6.40    3.80
   3  -1 -16    7.90    1.30
   3  -1 -16    8.80    1.40
   3   1 -16    8.20    2.90
   3   1 -16    4.70    3.80
   3   1 -16   12.60    3.90
   2  -1 -16    3.50    3.00
   2   1 -16    6.30    3.20
   2   1 -16    3.70    2.60
   2   1 -16    0.10    3.20
   1  -1 -16   39.80    6.10
   1   1 -16   50.69    7.40
   1   1 -16   56.09    5.70
   1   1 -16   50.69    4.60
   0  -1 -16   -0.80    1.60
   0  -1 -16    1.60    1.60
   0  -1 -16   -4.00    3.00
   0   1 -16    0.50    3.20
   0   1 -16    2.10    2.40
   0   1 -16   -2.40    2.80
  -1  -1 -16  159.08    7.00
  -1  -1 -16  167.58   10.60
  -1  -1 -16  158.38    6.50
  -1   1 -16  150.48   10.20
  -1   1 -16  151.08    9.00
  -1   1 -16  157.08    8.10
  -2  -1 -16  161.38    8.40
  -2  -1 -16  179.08    8.00
  -2  -1 -16  194.08   11.10
  -2   1 -16  197.68   11.40
  -2   1 -16  189.88   12.10
  -2   1 -16  181.18    9.10
  -3  -1 -16   74.89    7.80
  -3  -1 -16   86.49    7.70
  -3   1 -16   80.09    6.80
   3   1  16   61.89    6.10
  -3   1 -16   73.09    7.30
   4  -1  16   91.69    8.40
  -4  -1 -16   86.79    7.80
   4   1  16  100.69    8.00
  -4   1 -16   96.19    8.20
  -5  -1 -16   80.09    7.50
   5  -1  16   83.99   10.10
  -5   1 -16   82.39    7.60
   5   1  16   61.29    7.80
  -6  -1 -16   26.00    4.90
   6  -1  16   19.90    6.10
  -6   1 -16   25.10    6.20
   6   1  16   25.90    6.30
   7  -1  16   -4.10    6.20
   7   1  16    0.10    6.40
   8  -1  16   13.20    7.90
   8   1  16   -4.20    7.20
   9  -2 -16    2.30    7.00
   9  -2 -16   -2.80    7.10
   9   2 -16   -7.20    7.20
   9   2 -16   -2.40    7.50
   8  -2 -16   68.09    9.30
   8  -2 -16   48.90    7.40
   8   2 -16   54.69    9.50
   8   2 -16   51.89   10.50
   7  -2 -16   58.09    6.60
   7  -2 -16   60.29    9.20
   7   2 -16   65.59    9.00
   7   2 -16   66.29    9.80
   6  -2 -16   57.99    5.60
   6  -2 -16   55.79    9.00
  -6   2  16   66.89    7.20
   6   2 -16   72.29    8.30
   6   2 -16   62.59    9.20
   5  -2 -16   66.19    4.20
   5  -2 -16   79.19    9.40
   5   2 -16   62.99    7.00
   5   2 -16   69.79    8.90
   4  -2 -16  181.48   12.10
   4   2 -16  155.28   11.60
   4   2 -16  172.98    9.60
   3  -2 -16  222.78   12.90
   3   2 -16  192.38   12.50
   3   2 -16  211.18   10.20
   3   2 -16  197.38   10.70
   2  -2 -16  149.99   10.50
   2   2 -16  152.88    8.40
   2   2 -16  152.18    8.90
   2   2 -16  148.19   10.70
   1  -2 -16   78.29    7.80
   1   2 -16   57.39    7.30
   1   2 -16   60.29    5.70
   1   2 -16   68.99    6.90
   0  -2 -16  127.29    9.40
   0   2 -16  114.99    8.80
   0   2 -16  116.39    7.30
   0   2 -16  115.59    9.20
  -1  -2 -16   15.80    4.10
  -1  -2 -16   18.60    1.90
  -1  -2 -16   17.60    1.80
  -1   2 -16   11.30    4.00
  -2  -2 -16   20.00    4.60
  -2  -2 -16   17.10    3.40
  -2  -2 -16   16.40    2.90
  -2   2 -16   20.10    4.90
  -2   2 -16   19.20    4.00
  -3  -2 -16   -0.10    3.00
  -3   2 -16    1.20    3.30
   3   2  16    1.30    2.90
  -3   2 -16    2.40    3.10
  -4  -2 -16   78.29    7.70
   4   2  16   81.09   11.80
  -4   2 -16   63.69    7.60
  -5  -2 -16   19.30    4.70
   5  -2  16   20.90    6.00
   5   2  16   29.60    5.80
  -5   2 -16   26.40    5.00
   6  -2  16   46.00    8.60
  -6  -2 -16   51.39    6.30
  -6   2 -16   57.69    6.80
   6   2  16   63.69    8.20
   7  -2  16   50.19    9.10
   7   2  16   50.99    8.90
   8  -2  16   43.90    9.70
   8   2  16   50.69   10.40
   9  -3 -16  100.29   11.80
   9   3 -16  139.99   15.30
   9   3 -16  125.19   13.80
   8  -3 -16  153.98   13.80
   8  -3 -16  130.19    9.80
   8   3 -16  128.89   13.20
   8   3 -16  166.58   14.70
   7  -3 -16  187.08   13.70
   7  -3 -16  133.69    8.20
   7   3 -16  169.88   14.10
   7   3 -16  157.98   12.40
   6  -3 -16  108.29    5.80
   6  -3 -16  135.09   11.50
  -6   3  16  124.29    6.70
   6   3 -16  140.49   10.90
   6   3 -16  152.58   12.60
   5  -3 -16   21.30    9.10
   5   3 -16   13.20    5.10
   4  -3 -16    6.50    4.20
   4   3 -16    4.30    4.10
   4   3 -16   -0.40    3.40
   3  -3 -16   22.10    5.20
   3   3 -16   31.60    5.50
   3   3 -16   20.50    5.20
   2  -3 -16   27.70    5.80
   2   3 -16   18.60    4.30
   2   3 -16   22.70    5.30
   1  -3 -16  276.97   14.20
   1   3 -16  259.97   14.00
   1   3 -16  271.47   12.20
   0  -3 -16  415.06   17.50
   0   3 -16  384.36   17.30
   0   3 -16  398.16   15.40
  -1  -3 -16  708.73   25.00
  -1   3 -16  764.12   23.50
  -1   3 -16  715.13   25.20
  -2  -3 -16  617.34   21.90
  -2  -3 -16  575.74   14.90
  -2  -3 -16  572.34   15.60
  -2   3 -16  593.34   20.50
  -2   3 -16  622.64   22.20
  -3  -3 -16  214.68    9.50
  -3  -3 -16  211.78   11.90
  -3   3 -16  213.18   11.80
   3   3  16  226.28    9.40
  -3   3 -16  225.58   12.40
  -4  -3 -16  217.98   11.80
  -4  -3 -16  212.18   14.20
   4   3  16  224.68   10.80
  -4   3 -16  208.28   12.20
  -4   3 -16  239.78   12.50
  -5  -3 -16  214.88   11.80
   5  -3  16  233.98   14.30
  -5   3 -16  218.68   11.90
   5   3  16  227.58   12.30
  -6  -3 -16   92.89    8.60
   6  -3  16   83.39   10.80
  -6   3 -16   85.99    8.50
   6   3  16   79.89    9.40
   7  -3  16   49.20    9.20
   7   3  16   63.99    9.60
   8  -4 -16    4.80    6.70
   8   4 -16    3.30    7.50
   8   4 -16  -15.10    7.10
   7  -4 -16    0.10    5.20
   7   4 -16    5.00    6.40
   7   4 -16   11.40    6.70
   6  -4 -16   19.70    6.20
   6   4 -16   25.70    7.00
   6   4 -16   18.10    5.50
   5  -4 -16   39.90    7.10
   5   4 -16   50.29    7.80
   5   4 -16   34.90    6.90
   4  -4 -16   69.59   10.40
   4   4 -16   68.09    8.50
   3  -4 -16   18.50    5.10
   3   4 -16   29.90    6.60
   3   4 -16   23.30    5.30
   2  -4 -16   21.30    5.70
   2   4 -16   26.40    5.10
   2   4 -16   20.10    5.30
   1  -4 -16   36.50    6.70
   1   4 -16   44.50    6.70
   1   4 -16   45.80    7.70
   0  -4 -16   13.00    4.40
   0   4 -16   15.40    4.60
   0   4 -16    3.90    3.70
  -1  -4 -16   -2.10    3.30
  -1   4 -16    3.90    3.60
  -1   4 -16    3.70    3.40
  -2  -4 -16    7.10    3.90
  -2   4 -16   10.00    4.20
  -2   4 -16   17.70    5.00
  -3  -4 -16   19.90    4.40
  -3  -4 -16   28.40    4.10
   3   4  16   26.70    3.70
  -3   4 -16   28.10    5.20
  -3   4 -16   20.30    5.20
  -4  -4 -16   19.40    5.10
  -4   4 -16   22.90    5.80
   4   4  16   18.60    4.50
  -4   4 -16   19.40    5.20
  -5  -4 -16   -2.40    4.00
   5   4  16    4.00    4.60
  -5   4 -16    1.30    4.50
  -5   4 -16    5.30    4.20
   6  -4  16    9.70    6.10
  -6  -4 -16   10.30    5.00
   6   4  16    8.50    6.00
  -6   4 -16    1.00    4.60
   7  -4  16    3.70    6.90
   7   4  16   -0.80    7.10
   8  -5 -16   33.50    8.20
   8   5 -16   26.60    8.90
   8   5 -16   39.80    9.50
   7  -5 -16   79.99   10.90
   7   5 -16   91.19   12.20
   7   5 -16   73.19   10.80
   6  -5 -16   46.00    7.90
   6   5 -16   55.09    9.30
   6   5 -16   58.99    9.90
   5  -5 -16   50.29    7.80
   5   5 -16   54.39    8.80
   5   5 -16   43.80    7.30
   4  -5 -16    2.00    4.30
   4   5 -16    8.20    5.40
   4   5 -16    5.00    4.60
   3  -5 -16   12.90    6.40
   3   5 -16    7.30    4.80
   3   5 -16    8.60    5.40
   2  -5 -16   10.80    4.70
   2   5 -16   23.90    5.70
   2   5 -16   13.40    5.00
  -1  -5  16   25.40    6.50
   1  -5 -16   22.10    4.90
   1   5 -16   39.70    7.40
   1   5 -16   28.30    5.40
   0  -5 -16  309.07   15.30
   0   5 -16  273.67   14.00
   0   5 -16  266.17   15.10
  -1  -5 -16  259.27   14.10
  -1   5 -16  252.07   14.50
  -1   5 -16  245.18   13.40
  -2  -5 -16  319.17   15.30
  -2   5 -16  287.87   14.80
  -2   5 -16  306.27   15.60
  -3  -5 -16  245.08   13.30
  -3  -5 -16  201.78    8.40
   3   5  16  228.98    8.50
  -3   5 -16  230.98   13.50
  -3   5 -16  253.27   13.90
  -4  -5 -16  154.78   11.00
  -4   5 -16  144.59   11.60
   4   5  16  135.49    8.50
  -4   5 -16  156.78   11.40
  -5  -5 -16  155.58   11.30
  -5   5 -16  166.78   13.20
   5   5  16  153.68   10.50
  -5   5 -16  159.58   11.70
  -6  -5 -16   78.89    9.30
  -6   5 -16   82.99   10.80
  -6   5 -16   79.39    8.80
   6   5  16   92.49   10.20
   7   5  16   18.20    8.40
   8   6 -16   12.00    8.60
   7  -6 -16   11.40    7.20
   7   6 -16   13.40    7.90
   7   6 -16   25.70    8.20
   6  -6 -16  102.69   11.90
   6   6 -16   82.79   10.70
   6   6 -16   96.09   11.60
   5  -6 -16  209.18   14.50
   5   6 -16  209.38   15.30
   5   6 -16  213.98   14.60
  -4  -6  16  351.36   20.80
   4  -6 -16  370.06   18.60
   4   6 -16  342.07   18.20
   4   6 -16  403.56   20.10
  -3  -6  16  276.67   18.50
   3  -6 -16  305.37   16.50
   3   6 -16  294.77   15.90
   2  -6 -16  577.74   23.60
  -2  -6  16  605.14   26.60
   2   6 -16  594.64   23.20
   1  -6 -16  228.08   13.90
  -1  -6  16  227.38   21.30
   1   6 -16  239.48   13.90
   0  -6  16  182.68   14.60
   0   6 -16  171.38   11.90
  -1  -6 -16   84.19   11.40
   1  -6  16   84.79   11.20
  -1   6 -16   63.69    8.20
  -2  -6 -16   -0.10    4.00
   2  -6  16    7.80    5.80
  -2   6 -16    4.50    4.70
  -2   6 -16   -2.70    4.30
  -3  -6 -16   13.40    4.90
  -3   6 -16    8.30    5.20
   3   6  16   13.90    3.10
  -3   6 -16    5.00    4.80
  -4  -6 -16   37.70    6.90
   4   6  16   42.90    5.70
  -4   6 -16   37.30    7.50
  -4   6 -16   40.90    7.70
  -5  -6 -16   86.99    9.60
   5   6  16   96.09    9.50
  -5   6 -16  104.09   11.20
  -5   6 -16  105.49   12.50
  -6  -6 -16  179.38   13.20
  -6   6 -16  172.68   12.90
  -6   6 -16  175.78   15.10
   6   6  16  161.48   13.40
   7  -7 -16   -6.50    6.70
   7   7 -16    0.60    8.10
   7   7 -16    6.40    7.60
   6  -7 -16    3.90    6.10
   6   7 -16    0.10    6.50
   6   7 -16    8.90    7.20
   5  -7 -16    6.80    5.90
  -5  -7  16   11.70    8.20
   5   7 -16   -4.70    5.70
   5   7 -16    7.20    6.70
  -4  -7  16   -3.90    6.60
   4  -7 -16    2.40    5.30
   4   7 -16    1.30    5.10
  -3  -7  16    8.80    6.50
   3  -7 -16    3.20    4.70
   3   7 -16   -0.30    5.00
  -2  -7  16    5.90    6.70
   2  -7 -16    7.50    4.80
   2   7 -16    2.60    5.00
   1  -7 -16   11.20    5.00
  -1  -7  16   10.70    6.30
   1   7 -16   23.80    7.90
   0  -7  16   27.60    7.70
   0  -7 -16   34.50    6.90
   0   7 -16   24.90    6.60
  -1  -7 -16    2.30    4.40
   1  -7  16   -2.50    5.30
  -1   7 -16    3.90    4.50
   2  -7  16    3.30    6.00
  -2  -7 -16   -1.10    4.30
  -2   7 -16   12.30    5.60
   3  -7  16   -7.80    6.90
  -3  -7 -16    8.70    5.10
  -3   7 -16   15.50    6.10
  -4  -7 -16   64.49    9.00
   4   7  16   43.80    6.20
  -4   7 -16   42.80   13.00
  -4   7 -16   46.00    8.30
  -5  -7 -16    4.00    5.50
  -5   7 -16    2.70    6.00
  -5   7 -16    3.20    6.90
   5   7  16    0.30    6.20
  -6  -7 -16    5.10    7.00
  -6   7 -16   14.60    7.50
   6   7  16    2.30    9.30
  -6   7 -16   -2.20    7.10
   6  -8 -16   27.80    8.10
  -6  -8  16   20.80   14.90
   6   8 -16   40.20    9.70
   6   8 -16   23.60    9.10
   5  -8 -16  114.99   12.50
  -5  -8  16   91.99   14.10
   5   8 -16  127.79   14.60
   4  -8 -16  113.79   12.30
  -4  -8  16   91.29   13.00
   4   8 -16  113.59   12.90
  -3  -8  16  226.98   18.10
   3  -8 -16  191.58   14.50
   3   8 -16  203.78   15.40
   2  -8 -16  253.47   16.00
  -2  -8  16  251.87   18.70
   2   8 -16  234.08   16.00
  -1  -8  16  163.38   15.30
   1  -8 -16  135.99   12.20
   1   8 -16  136.69   12.60
   0  -8 -16   80.79   10.50
   0  -8  16   67.49   10.80
   0   8 -16   81.19   10.60
  -1  -8 -16   30.90    6.90
   1  -8  16   37.80    8.50
  -1   8 -16   42.00    7.80
   2  -8  16    6.10    6.70
  -2  -8 -16    1.50    5.30
  -2   8 -16    3.00    5.40
  -3  -8 -16   10.70    5.80
   3  -8  16    8.00    7.70
  -3   8 -16    4.40    5.50
  -4  -8 -16    8.20    6.30
   4  -8  16   -5.30    7.30
  -4   8 -16   -4.10    6.30
  -5  -8 -16   44.80    8.60
  -5   8 -16   49.70   10.10
  -5   8 -16   52.09    9.60
   5  -9 -16    0.80   10.00
  -5  -9  16   30.50   10.70
   4  -9 -16    1.00    6.20
  -4  -9  16    2.90    8.80
   4   9 -16   -3.50    7.10
  -3  -9  16   -2.70    8.00
   3  -9 -16   -1.50    6.10
   3   9 -16    8.40    7.40
   2  -9 -16    5.00    5.80
  -2  -9  16   14.50    8.90
   2   9 -16    3.60    6.40
  -1  -9  16   49.90   11.00
   1  -9 -16   63.69    9.80
   1   9 -16   57.79   10.10
   0  -9  16   62.59   12.40
   0  -9 -16   88.29   11.10
   0   9 -16   89.59   11.90
  -1  -9 -16  156.88   13.50
   1  -9  16  145.39   16.20
  -1   9 -16  170.48   14.60
   2  -9  16  179.18   17.10
  -2  -9 -16  164.48   14.20
  -2   9 -16  190.28   14.60
  -3  -9 -16  148.39   14.00
   3  -9  16  151.88   16.30
  -3   9 -16  174.88   14.80
  -4  -9 -16  134.89   14.10
   4  -9  16  145.19   15.70
  -4   9 -16  151.28   15.20
   3 -10 -16   12.30    8.00
  -3 -10  16    1.70    9.60
   3  10 -16   20.80    8.90
   2 -10 -16   15.00    9.80
  -2 -10  16   24.60   17.70
   2  10 -16   24.00   10.40
  -1 -10  16   25.10   11.40
   1 -10 -16   21.80   10.40
   1  10 -16   11.40    7.30
   0 -10  16    9.10    8.80
   0 -10 -16    3.80    6.70
   0  10 -16   -2.60    7.00
  -1 -10 -16   -3.00    6.90
   1 -10  16    8.60    9.00
  -2 -10 -16    4.40    6.90
   2 -10  16    0.30    9.40
  -2  10 -16   11.00    7.60
   9   0 -17    7.80    7.90
   9   0 -17   13.00    9.00
   8   0 -17   -9.20    6.40
   8   0 -17    2.20    6.30
   7   0 -17   -3.80    5.40
   7   0 -17    1.20    4.90
   6   0 -17   -0.10    4.80
   5   0 -17    1.40    4.60
   5   0 -17    5.70    3.20
   4   0 -17   -1.80    4.20
   4   0 -17   -1.80    3.40
   4   0 -17    1.90    2.70
   3   0 -17    1.00    2.20
   3   0 -17    1.70    2.70
   3   0 -17    5.60    3.90
   2   0 -17   -0.20    1.90
   2   0 -17    0.20    3.80
   2   0 -17   -0.30    2.40
   1   0 -17   -4.20    3.00
   1   0 -17    0.00    1.90
   1   0 -17    0.50    2.40
   0   0 -17    1.40    2.70
   0   0 -17   -0.80    3.40
   0   0 -17   -4.20    2.10
  -1   0 -17    1.10    3.30
  -1   0 -17    1.30    2.40
  -1   0 -17    7.40    3.40
  -2   0 -17   -4.10    3.00
  -2   0 -17    1.00    2.50
  -2   0 -17   -2.80    4.10
  -3   0 -17    1.70    3.60
  -3   0 -17   -1.50    3.00
  -4   0 -17    7.70    4.10
   4   0  17   -1.90    3.90
  -5   0 -17    0.90    4.00
   5   0  17   -5.50    4.80
   6   0  17    4.30    5.70
  -6   0 -17    0.80    4.30
   7   0  17   15.90    7.40
   9  -1 -17   18.20    8.40
   9  -1 -17   34.70    9.40
   9   1 -17    9.30    8.10
   9   1 -17   23.50    8.80
   8  -1 -17   26.90    6.60
   8  -1 -17   26.80    8.10
   8   1 -17   30.80    7.40
   8   1 -17   29.70    8.40
   7  -1 -17   10.20    6.70
   7  -1 -17    6.90    4.70
   7   1 -17   -0.50    5.60
   7   1 -17    7.80    5.60
   6  -1 -17    6.70    3.70
   6  -1 -17    5.50    4.90
   6   1 -17    2.90    5.20
   6   1 -17   10.70    4.80
   5  -1 -17    9.10    5.00
   5  -1 -17    4.00    2.70
   5   1 -17    2.50    4.40
   4  -1 -17   64.59    4.30
   4  -1 -17   64.49    8.50
   4   1 -17   55.09    8.10
   4   1 -17   63.19    6.10
   3  -1 -17  270.57   14.90
   3   1 -17  258.97   10.40
   3   1 -17  245.78   14.30
   3   1 -17  240.58   10.80
   2  -1 -17  695.23   25.10
   2   1 -17  655.93   19.40
   2   1 -17  672.43   19.30
   2   1 -17  666.53   24.90
   1  -1 -17  638.04   23.40
   1   1 -17  601.54   17.90
   1   1 -17  601.34   23.10
   1   1 -17  595.14   18.00
   0  -1 -17  832.92   19.50
   0  -1 -17  848.42   19.40
   0  -1 -17  906.01   29.40
   0   1 -17  899.91   24.10
   0   1 -17  850.81   24.10
   0   1 -17  926.41   29.70
  -1  -1 -17  336.37   11.00
  -1  -1 -17  376.56   11.00
  -1  -1 -17  376.06   16.80
  -1   1 -17  367.26   13.40
  -1   1 -17  329.97   13.80
  -1   1 -17  395.06   17.10
  -2  -1 -17  403.56   14.00
  -2  -1 -17  428.96   13.60
  -2  -1 -17  436.76   18.00
  -2   1 -17  438.86   18.10
  -3  -1 -17  344.07   15.30
  -3  -1 -17  289.97   13.00
  -3   1 -17  318.97   13.40
  -3   1 -17  310.47   14.80
  -4  -1 -17   12.40    4.50
  -4   1 -17    9.20    4.40
   4   1  17   12.30    4.50
  -5  -1 -17    3.70    3.90
   5  -1  17    1.30    5.10
  -5   1 -17    5.60    4.10
   5   1  17    0.60    4.50
  -6  -1 -17    4.10    4.50
   6  -1  17    8.50    6.30
  -6   1 -17    3.20    4.60
   6   1  17    5.10    5.70
   7  -1  17   37.30    8.40
   7   1  17   39.90    9.30
   8  -2 -17   41.10    8.10
   8  -2 -17   37.90    8.20
   8   2 -17   27.80    8.20
   8   2 -17   27.60    9.10
   7  -2 -17   76.19   10.00
   7  -2 -17   76.19    7.30
   7   2 -17   86.19   11.30
   7   2 -17   74.39    9.60
   6  -2 -17  133.09   11.80
   6  -2 -17  125.49    6.70
   6   2 -17  119.39   12.20
   6   2 -17  138.79   10.30
   5  -2 -17  200.28   13.40
   5   2 -17  177.58   10.70
   5   2 -17  212.18   13.90
   4  -2 -17  369.26   19.90
   4   2 -17  321.37   13.70
   4   2 -17  280.07   19.20
   3  -2 -17  324.37   16.30
   3   2 -17  331.47   13.30
   3   2 -17  325.97   16.50
   3   2 -17  311.47   14.00
   2  -2 -17  157.28   11.20
   2   2 -17  118.39    9.10
   2   2 -17  137.19   10.60
   2   2 -17  151.78    8.50
   1  -2 -17   -1.70    3.10
   1   2 -17    5.00    3.60
   1   2 -17   -0.80    4.40
   1   2 -17    2.60    2.90
   0  -2 -17    3.00    3.50
   0   2 -17   -0.70    3.30
   0   2 -17   -1.60    4.20
   0   2 -17    0.30    2.70
  -1  -2 -17   80.49    8.20
  -1   2 -17   66.69    8.00
  -1   2 -17   77.09    6.60
  -2  -2 -17  111.39    6.10
  -2  -2 -17  124.79    9.50
  -2  -2 -17  115.69    5.70
  -2   2 -17  113.89    8.00
  -2   2 -17  120.69    9.60
  -3  -2 -17  148.79   10.50
  -3   2 -17  160.58   10.80
  -3   2 -17  145.79    9.70
  -4  -2 -17  346.47   15.50
   4   2  17  363.06   14.90
  -4   2 -17  333.07   15.40
  -4   2 -17  328.17   15.30
   5  -2  17  393.86   18.40
  -5  -2 -17  369.66   15.80
  -5   2 -17  387.96   16.50
   5   2  17  411.26   16.80
   6  -2  17  149.99   13.00
  -6  -2 -17  173.28   10.50
   6   2  17  143.79   12.30
  -6   2 -17  148.29   10.30
   7  -2  17   99.69   12.70
   7   2  17  123.19   13.30
   8  -3 -17   14.00    7.40
   8   3 -17   10.50    7.50
   8   3 -17    4.50    7.30
   7  -3 -17    9.40    6.20
   7   3 -17    0.20    6.20
   7   3 -17    5.70    6.40
   6  -3 -17   -4.50    4.90
   6   3 -17   11.30    5.50
   6   3 -17   -2.00    5.30
   5  -3 -17    6.40    5.10
   5   3 -17    2.40    4.50
   5   3 -17    7.70    5.20
   4  -3 -17    2.90    4.30
   4   3 -17    5.20    4.50
   4   3 -17    5.70    3.80
   3  -3 -17   -0.70    3.60
   3   3 -17    4.20    3.60
   3   3 -17   -0.20    4.50
   2  -3 -17   26.50    5.70
   2   3 -17   42.20    6.00
   2   3 -17   44.10    7.60
   1  -3 -17    1.50    3.20
   1   3 -17    3.00    3.20
   1   3 -17    5.50    4.20
   0  -3 -17   48.20    7.10
   0   3 -17   59.89    8.10
   0   3 -17   53.99    6.50
  -1  -3 -17   61.59    8.30
  -1   3 -17   54.99    7.80
  -1   3 -17   50.49    6.80
  -2  -3 -17    0.90    3.70
  -2  -3 -17    0.20    1.80
  -2   3 -17    7.10    3.70
  -2   3 -17    4.10    3.80
  -3  -3 -17   32.30    4.90
  -3  -3 -17   17.80    5.20
  -3   3 -17   37.90    6.30
  -3   3 -17   31.70    5.80
  -4  -3 -17   -2.50    4.00
   4   3  17    5.80    4.00
  -4   3 -17   -3.80    4.10
  -4   3 -17    4.40    4.20
  -5  -3 -17    5.60    4.20
   5   3  17    7.10    5.20
  -5   3 -17    4.90    4.40
  -5   3 -17   -0.80    4.50
  -6  -3 -17   -0.80    4.60
   6  -3  17    1.40    6.50
   6   3  17   -1.20    5.70
  -6   3 -17    3.50    5.20
   7  -3  17    1.10    7.00
   7   3  17    4.40    7.60
   8  -4 -17   69.29   10.60
   8   4 -17   40.10   10.00
   8   4 -17   64.49   10.60
   7  -4 -17  140.29   13.50
   7   4 -17  155.88   14.20
   7   4 -17  107.49   12.30
   6  -4 -17  183.18   14.00
   6   4 -17  180.88   13.40
   6   4 -17  186.48   15.00
   5  -4 -17  207.08   14.10
   5   4 -17  217.58   15.00
   5   4 -17  222.48   13.50
   4  -4 -17  233.68   14.70
   4   4 -17  237.28   15.10
   4   4 -17  225.08   13.20
   3  -4 -17  181.68   13.00
   3   4 -17  201.88   13.50
   3   4 -17  184.68   11.30
   2  -4 -17  128.69   12.10
   2   4 -17  108.09    8.80
   2   4 -17  113.19   11.80
   1  -4 -17  103.49    9.90
   1   4 -17   92.89    8.30
   1   4 -17   98.99    9.90
   0  -4 -17   21.60    5.60
   0   4 -17   23.00    5.30
   0   4 -17   19.80    5.80
  -1  -4 -17    7.60    4.30
  -1   4 -17    4.70    3.70
  -1   4 -17    4.60    4.30
  -2  -4 -17  180.68   11.80
  -2   4 -17  204.98   11.80
  -2   4 -17  186.68   12.80
  -3  -4 -17  251.87   13.80
  -3   4 -17  250.87   13.80
  -3   4 -17  281.67   14.70
  -4  -4 -17  306.07   14.90
   4   4  17  278.97   11.80
  -4   4 -17  278.17   14.80
  -5  -4 -17  280.57   14.50
  -5   4 -17  297.47   15.10
  -5   4 -17  299.57   16.60
   5   4  17  315.47   14.30
  -6  -4 -17  225.58   13.40
  -6   4 -17  230.78   15.30
   6   4  17  218.28   14.10
  -6   4 -17  202.58   12.50
   7  -4  17  213.88   17.30
   7   4  17  198.78   15.40
   8   5 -17    2.70    8.60
   7  -5 -17   -1.10    6.30
   7   5 -17    6.40    7.50
   7   5 -17   12.40    7.20
   6  -5 -17    1.00    5.60
   6   5 -17   -6.00    5.80
   6   5 -17   -9.20    6.10
   5  -5 -17    6.70    4.80
   5   5 -17   -0.30    5.50
   5   5 -17   -7.00    5.10
   4  -5 -17   81.09   11.10
   4   5 -17   80.09   10.80
   4   5 -17   81.29   10.10
   3  -5 -17   39.60    7.10
   3   5 -17   51.19    8.00
   3   5 -17   50.49    8.50
   2  -5 -17   95.29    9.80
   2   5 -17  106.39   10.80
   2   5 -17   91.29    9.10
   1  -5 -17  107.79   10.30
   1   5 -17  111.89   12.20
   1   5 -17   86.29    8.80
   0   5 -17  174.08   11.50
   0   5 -17  180.78   13.60
  -1  -5 -17  265.97   15.20
  -1   5 -17  234.08   13.40
  -1   5 -17  227.68   14.20
  -2  -5 -17  255.67   14.00
  -2   5 -17  244.48   14.70
  -2   5 -17  207.38   13.00
  -3  -5 -17   63.89    8.60
  -3   5 -17   61.89    9.00
  -4  -5 -17   -2.80    4.50
  -4   5 -17   12.40    5.50
   4   5  17    2.10    4.20
  -4   5 -17    6.90    5.30
  -5   5 -17    5.90    5.60
   5   5  17   10.30    5.70
  -5   5 -17    9.30    6.00
  -6  -5 -17   10.20    6.80
  -6   5 -17   12.70    6.40
  -6   5 -17   13.90    7.10
   6   5  17   19.50    7.50
   7  -6 -17   35.90    9.10
   7   6 -17   30.70    9.40
   7   6 -17   33.60    9.50
   6  -6 -17   39.20    8.10
   6   6 -17   38.80    8.90
   6   6 -17   32.60    8.40
   5  -6 -17   52.89    9.00
   5   6 -17   43.80    8.80
   5   6 -17   53.99    9.20
   4  -6 -17   36.50    7.30
   4   6 -17   39.20    8.40
   4   6 -17   35.60    7.40
   3  -6 -17   15.40    5.80
   3   6 -17   16.90    5.50
   3   6 -17   22.70    6.90
  -2  -6  17   12.20    7.00
   2  -6 -17   14.30    5.30
   2   6 -17   19.80    6.60
   2   6 -17   24.10    6.00
   1  -6 -17    7.10    4.90
  -1  -6  17    6.10    5.70
   1   6 -17    9.00    5.00
   1   6 -17   -4.40    4.70
   0  -6  17    4.10    5.90
   0  -6 -17   -1.60    4.00
   0   6 -17    4.00    4.60
   0   6 -17   -3.80    4.60
  -1  -6 -17    7.30    4.40
  -1   6 -17    5.10    4.90
  -1   6 -17    1.10    5.00
  -2  -6 -17   10.20    4.60
  -2   6 -17    4.90    5.20
  -2   6 -17    9.20    5.60
  -3  -6 -17   43.30    7.50
  -3   6 -17   51.49    8.20
  -4  -6 -17   18.40    6.20
   4   6  17   10.00    5.00
  -4   6 -17   15.00    6.20
  -4   6 -17   30.30    7.80
  -5  -6 -17    4.00    5.90
  -5   6 -17    6.80    6.50
   5   6  17    5.00    6.00
  -5   6 -17    1.00    6.40
  -6  -6 -17   50.09    8.70
  -6   6 -17   62.09   13.00
  -6   6 -17   63.39    9.60
   6  -7 -17    7.00    6.60
   6   7 -17    4.00    7.10
   6   7 -17    2.80    7.30
   5  -7 -17   22.00    7.80
   5   7 -17   15.00    7.30
   5   7 -17   26.40    8.10
  -4  -7  17   83.89   13.40
   4  -7 -17   64.89   10.30
   4   7 -17   92.59   11.80
   4   7 -17   65.49   10.30
   3  -7 -17  221.08   15.20
  -3  -7  17  210.18   17.80
   3   7 -17  220.98   15.40
  -2  -7  17  418.46   23.70
   2  -7 -17  416.16   20.50
   2   7 -17  419.46   20.40
  -1  -7  17  303.57   20.00
   1  -7 -17  322.77   17.50
   1   7 -17  290.57   16.60
   0  -7 -17  296.47   16.80
   0  -7  17  297.47   19.90
   0   7 -17  353.96   18.00
  -1  -7 -17  312.37   17.40
   1  -7  17  291.17   19.30
  -1   7 -17  337.37   17.60
   2  -7  17  315.17   19.50
  -2  -7 -17  307.47   17.10
  -2   7 -17  325.27   18.00
  -2   7 -17  294.47   17.20
  -3  -7 -17  111.09   11.50
  -3   7 -17   97.09   11.60
  -3   7 -17  121.69   12.10
  -4  -7 -17   42.60    8.10
  -4   7 -17   26.70    8.10
  -4   7 -17   33.40    8.40
  -5  -7 -17    4.70    6.40
  -5   7 -17    2.00    7.10
  -5   7 -17   16.80    7.90
   5  -8 -17   45.90    9.50
  -5  -8  17   86.99   20.80
   5   8 -17   34.60    8.90
   5   8 -17   26.00    9.90
  -4  -8  17   69.19   11.70
   4  -8 -17   52.89    9.80
   4   8 -17   44.10    9.70
   3  -8 -17   50.19    9.00
  -3  -8  17   70.59   12.70
   3   8 -17   46.00    9.30
  -2  -8  17   16.80    8.30
   2  -8 -17   22.50    7.00
   2   8 -17   15.70    7.00
   1  -8 -17   -6.70    5.50
  -1  -8  17   -1.60    6.80
   1   8 -17   -1.70    5.60
   0  -8 -17   43.60    8.30
   0  -8  17   54.39   10.30
   0   8 -17   69.39   10.40
  -1  -8 -17   39.40    7.60
   1  -8  17   33.40    9.70
  -1   8 -17   24.50    7.50
  -2  -8 -17   94.19   11.50
   2  -8  17   79.19   12.40
  -2   8 -17   78.99   11.70
   3  -8  17    3.60    8.20
  -3  -8 -17   11.10    6.70
  -3   8 -17   16.00    7.50
  -4  -8 -17   43.00    8.70
  -4   8 -17   43.20    9.30
  -4   8 -17   54.89   12.80
   4  -9 -17    4.30    7.30
  -4  -9  17   -6.30    9.50
   4   9 -17    4.00    8.50
   3  -9 -17   50.39   14.40
  -3  -9  17   52.09   17.00
   3   9 -17   40.30    9.90
  -2  -9  17   64.49   12.10
   2  -9 -17   49.10    8.70
   2   9 -17   57.09   10.40
  -1  -9  17   40.70   10.30
   1  -9 -17   50.19    9.20
   1   9 -17   40.00    9.70
   0  -9 -17    9.80    6.50
   0  -9  17   17.20    8.90
   0   9 -17   -1.00    6.60
   1  -9  17   70.39   12.70
  -1  -9 -17   75.39   10.70
  -1   9 -17   78.09   11.30
   2  -9  17  229.98   19.90
  -2  -9 -17  227.48   16.60
  -2   9 -17  223.98   16.80
   3  -9  17   88.39   14.10
  -3  -9 -17   78.59   10.80
  -3   9 -17  108.89   14.30
  -1 -10  17   23.00   10.40
   1 -10 -17   20.00    8.50
   1  10 -17   29.90    9.60
   0 -10  17    1.60    9.60
   0 -10 -17   -7.30    7.30
   0  10 -17   -1.60    7.40
   8   0 -18  240.58   14.70
   8   0 -18  258.57   18.30
   7   0 -18  109.59   12.40
   7   0 -18  134.39   10.10
   6   0 -18   82.29    7.80
   6   0 -18   93.29   11.70
   5   0 -18   13.10    3.90
   5   0 -18   17.30    6.00
   4   0 -18   11.70    5.70
   4   0 -18   16.30    3.20
   4   0 -18   15.20    3.80
   3   0 -18   20.80    3.20
   3   0 -18   21.00    3.30
   2   0 -18   47.90    7.60
   2   0 -18   52.39    4.30
   2   0 -18   55.09    4.00
   1   0 -18  213.28    7.90
   1   0 -18  235.58   13.90
   1   0 -18  206.98    7.50
   0   0 -18  506.75   20.60
   0   0 -18  480.85   14.00
   0   0 -18  461.95   14.20
  -1   0 -18  622.54   17.80
  -1   0 -18  627.14   23.30
  -1   0 -18  589.74   18.10
  -2   0 -18  549.15   18.80
  -2   0 -18  610.74   22.70
  -2   0 -18  607.14   18.40
  -3   0 -18  388.66   17.10
  -3   0 -18  382.86   14.60
  -4   0 -18  291.87   14.70
  -5   0 -18  156.18   11.20
   5   0  18  125.79   11.20
  -6   0 -18  131.39   10.20
   7   0  18   18.80    8.20
   8  -1 -18    3.50    7.10
   8   1 -18   -1.80    7.50
   8   1 -18   16.30    7.70
   7  -1 -18   33.10    8.10
   7  -1 -18   29.00    9.70
   7   1 -18   26.10    7.20
   7   1 -18   24.60    6.80
   6  -1 -18   56.89    9.90
   6  -1 -18   49.60    5.20
   6   1 -18   40.50    6.60
   6   1 -18   53.29    9.10
   5  -1 -18   45.10    4.30
   5  -1 -18   47.90    8.30
   5   1 -18   43.20    8.20
   4  -1 -18   26.50    6.30
   4   1 -18   35.40    7.50
   4   1 -18   35.60    4.90
   4   1 -18   23.10    5.70
   3  -1 -18   69.09   13.90
   3   1 -18   66.69    5.80
   3   1 -18   90.89   16.60
   3   1 -18   63.89    6.90
   2  -1 -18   58.39    8.20
   2   1 -18   62.99    6.50
   2   1 -18   64.79    5.40
   2   1 -18   64.09    9.10
   1  -1 -18   67.49    8.60
   1   1 -18   85.29    9.90
   1   1 -18   61.79    5.40
   1   1 -18   67.49    6.70
   0  -1 -18   89.59    9.30
   0   1 -18   98.59    6.50
   0   1 -18   92.29   10.30
   0   1 -18   84.49    9.00
  -1  -1 -18    2.60    2.60
  -1  -1 -18   -0.20    2.20
  -1  -1 -18   -2.40    3.70
  -1   1 -18   -0.30    3.30
  -1   1 -18    0.10    2.90
  -1   1 -18   -4.20    4.40
  -2  -1 -18   -0.20    2.70
  -2  -1 -18   -1.80    3.60
  -2  -1 -18    2.40    3.80
  -2   1 -18   -0.50    3.70
  -2   1 -18    0.50    3.30
  -3  -1 -18    5.50    3.50
  -3  -1 -18    6.40    4.30
  -3   1 -18    2.60    3.60
  -3   1 -18   -1.70    3.50
  -4  -1 -18   24.00    5.80
   4   1  18   38.10    6.30
  -4   1 -18   25.40    5.60
  -4   1 -18   33.80    6.60
  -5  -1 -18   58.19    7.70
   5  -1  18   60.49    8.90
  -5   1 -18   66.99    8.40
   5   1  18   70.59    8.70
  -6  -1 -18   33.20    6.30
   6  -1  18   26.90    7.50
   6   1  18   47.40    8.50
  -6   1 -18   28.20    5.80
   7  -1  18   49.40   10.40
   7   1  18   40.30    9.40
   8  -2 -18   87.19   11.50
   8   2 -18   81.59   10.50
   8   2 -18   68.99   11.00
   7  -2 -18   47.60    8.50
   7   2 -18   75.39   10.80
   7   2 -18   53.39    8.40
   6  -2 -18   61.99    9.70
   6   2 -18   58.19    8.20
   6   2 -18   60.29   10.00
   5  -2 -18   35.80    7.40
   5   2 -18   27.90    7.70
   5   2 -18   39.10    6.60
   4  -2 -18    2.00    4.60
   4   2 -18    0.50    4.80
   4   2 -18   -5.40    3.50
   3  -2 -18   28.80    6.30
   3   2 -18   29.30    7.00
   3   2 -18   27.40    6.00
   2  -2 -18  135.59   12.40
   2   2 -18  125.49    9.30
   2   2 -18  142.19   12.80
   2   2 -18  134.79    8.30
   1  -2 -18   94.79    9.30
   1   2 -18   80.19    6.90
   1   2 -18  107.49    9.90
   1   2 -18   84.99    8.70
   0  -2 -18  141.39   11.00
   0   2 -18  158.88   11.70
  -1  -2 -18  330.27   16.20
  -1   2 -18  279.97   15.40
  -1   2 -18  294.37   12.90
  -2  -2 -18   86.09    5.50
  -2  -2 -18  103.59    9.60
  -2  -2 -18   87.39    5.10
  -2   2 -18   86.49    9.20
  -2   2 -18   93.99    8.00
  -3  -2 -18  178.48    8.60
  -3  -2 -18  203.38   12.30
  -3   2 -18  191.98   11.40
  -3   2 -18  202.58   12.50
  -4  -2 -18   92.19    9.50
  -4   2 -18  101.29    9.60
   4   2  18  103.49    8.70
  -4   2 -18  109.29    9.80
  -5  -2 -18   34.90    6.50
   5   2  18   44.20    6.90
  -5   2 -18   33.70    6.70
  -6  -2 -18   40.20    7.10
   6  -2  18   40.10    8.30
   6   2  18   36.40    8.10
  -6   2 -18   41.40    6.60
   7  -2  18   20.00    8.50
   7   2  18    2.60    7.90
   8  -3 -18   11.00    8.10
   8   3 -18    1.30    8.30
   8   3 -18    4.00    8.50
   7  -3 -18   75.59   10.90
   7   3 -18   46.20   14.60
   7   3 -18   59.09   10.30
   6  -3 -18  235.98   15.90
   6   3 -18  227.48   14.10
   6   3 -18  215.48   16.10
   5  -3 -18  332.97   18.30
   5   3 -18  363.76   16.30
   5   3 -18  349.17   19.00
   4  -3 -18  426.66   20.00
   4   3 -18  398.46   16.80
   4   3 -18  387.66   19.90
   3  -3 -18  595.44   24.00
   3   3 -18  581.34   24.30
   3   3 -18  586.24   20.70
   2  -3 -18  473.65   20.80
   2   3 -18  445.46   17.30
   2   3 -18  445.06   20.80
   1  -3 -18  419.26   22.50
   1   3 -18  407.96   19.80
   1   3 -18  407.16   16.20
   0  -3 -18   89.79    9.60
   0   3 -18  101.19    9.80
   0   3 -18   90.49    7.90
  -1  -3 -18   12.60    5.10
  -1   3 -18   20.30    5.50
  -1   3 -18   22.30    5.20
  -2  -3 -18   14.30    5.20
  -2   3 -18   11.90    4.40
  -2   3 -18   20.30    6.10
  -3  -3 -18   17.10    3.60
  -3  -3 -18   23.30    5.40
  -3   3 -18   12.20    5.40
  -3   3 -18   12.40    5.00
  -4  -3 -18   71.89    8.80
  -4   3 -18   90.99   10.10
   4   3  18   74.79    7.70
  -4   3 -18   87.99    9.50
  -5  -3 -18  160.58   11.70
  -5   3 -18  173.88   12.10
   5   3  18  171.18   11.60
  -5   3 -18  190.18   13.30
  -6  -3 -18  120.09   11.20
   6   3  18  102.49   11.20
  -6   3 -18  127.99   11.30
   7  -4 -18    3.40    6.10
   7   4 -18   10.70    7.30
   7   4 -18    3.40    7.50
   6  -4 -18    8.40    6.40
   6   4 -18   10.30    7.20
   6   4 -18   10.10    6.60
   5  -4 -18    3.00    5.40
   5   4 -18    2.40    5.30
   5   4 -18    3.30    5.40
   4  -4 -18    3.30    4.50
   4   4 -18   -0.20    4.70
   4   4 -18    5.20    4.80
   3  -4 -18    3.00    5.00
   3   4 -18   -3.00    4.30
   3   4 -18   -3.80    4.60
   2  -4 -18    9.20    4.80
   2   4 -18    5.50    4.30
   2   4 -18    7.20    5.20
   1  -4 -18   72.29    9.00
   1   4 -18   93.19   11.10
   1   4 -18   79.99    8.30
   0  -4 -18  128.19   12.00
   0   4 -18  121.49    9.50
  -1   4 -18   28.50    5.80
  -1   4 -18   30.40    6.10
  -2  -4 -18   43.90    7.60
  -2   4 -18   54.29    8.20
  -2   4 -18   46.20    7.00
  -3  -4 -18    8.40    4.70
  -3  -4 -18    3.40    2.60
  -3   4 -18   -2.30    4.50
  -3   4 -18    3.30    4.70
  -4  -4 -18    7.20    4.70
  -4   4 -18    3.10    5.20
  -4   4 -18    6.70    5.00
   4   4  18    3.60    4.30
  -5  -4 -18   18.30    5.70
  -5   4 -18    4.80    5.60
  -5   4 -18   15.40    6.50
   5   4  18   16.80    6.10
  -6  -4 -18    4.60    6.40
  -6   4 -18    3.00    6.60
  -6   4 -18    3.30    6.30
   6   4  18    4.60    7.70
   7  -5 -18   17.90    8.20
   7   5 -18   10.10    8.30
   7   5 -18   12.40    7.90
   6  -5 -18  100.09   12.20
   6   5 -18  126.79   13.70
   6   5 -18   84.29   11.00
   5  -5 -18  116.89   12.30
   5   5 -18  132.89   13.40
   5   5 -18  125.89   13.60
   4  -5 -18  149.99   12.70
   4   5 -18  141.09   13.60
   4   5 -18  157.98   12.30
   3  -5 -18  147.29   12.60
   3   5 -18  173.68   13.80
   3   5 -18  155.18   11.90
   2  -5 -18  234.48   15.10
   2   5 -18  248.88   16.00
   2   5 -18  240.38   13.90
   1  -5 -18  361.96   18.10
   1   5 -18  339.67   18.20
   1   5 -18  339.87   16.50
   0  -5 -18   63.09    8.50
   0   5 -18   96.59   10.60
   0   5 -18   78.19    9.20
  -1  -5 -18   59.99    8.30
  -1   5 -18   69.39    9.30
  -1   5 -18   58.99    8.20
  -2  -5 -18    0.30    4.70
  -2   5 -18   -0.10    4.80
  -2   5 -18    1.80    5.00
  -3  -5 -18    3.80    4.70
  -3   5 -18    5.50    4.80
  -4  -5 -18   33.70    7.10
  -4   5 -18   35.10    7.90
  -4   5 -18   25.70    6.90
  -5  -5 -18   72.99    9.30
  -5   5 -18   66.29    9.70
  -5   5 -18   87.89   10.50
  -6   5 -18  135.39   14.40
  -6   5 -18  117.09   11.70
   6  -6 -18   68.99   10.60
   6   6 -18   72.39   11.70
   6   6 -18   94.09   12.80
   5  -6 -18   36.50    8.00
   5   6 -18   28.90    8.30
   5   6 -18   34.80    8.90
   4  -6 -18   18.70    6.30
   4   6 -18   14.00    7.20
   4   6 -18   12.80    6.90
   3  -6 -18    3.90    5.00
   3   6 -18   -4.30    5.50
   3   6 -18   -1.80    5.80
   2  -6 -18   34.70    7.50
   2   6 -18   37.40    8.20
   2   6 -18   51.69   12.70
   1  -6 -18  140.89   12.10
   1   6 -18  101.09   12.60
   1   6 -18  127.29   12.60
   0  -6 -18  295.47   16.80
   0   6 -18  289.97   17.70
  -1  -6 -18  384.36   18.80
  -1   6 -18  397.66   19.90
  -1   6 -18  379.26   18.50
  -2  -6 -18  331.47   17.80
  -2   6 -18  357.66   18.90
  -2   6 -18  385.56   18.60
  -3  -6 -18  446.56   20.30
  -3   6 -18  460.55   21.50
  -3   6 -18  466.25   21.40
  -4  -6 -18  123.39   12.00
  -4   6 -18  122.59   12.80
  -4   6 -18  116.59   12.70
  -5  -6 -18  125.69   12.40
  -5   6 -18   90.99   11.20
  -5   6 -18   91.59   11.10
   6   7 -18    6.00    7.90
   5  -7 -18   -3.90    6.30
   5   7 -18   -1.00    7.30
   5   7 -18   -3.80    7.10
   4  -7 -18    4.10    5.90
   4   7 -18   15.50    7.40
   4   7 -18    2.70    7.00
   3  -7 -18    8.90    6.00
   3   7 -18   10.20    6.70
   3   7 -18    8.80    6.90
   2  -7 -18   -2.90    4.60
  -2  -7  18    2.40    7.40
   2   7 -18   -2.60    5.40
   2   7 -18   13.70    6.80
  -1  -7  18   -4.50    6.30
   1  -7 -18   -2.20    4.80
   1   7 -18    7.10    5.60
   1   7 -18    6.90    5.80
   0  -7  18    7.30    7.60
   0  -7 -18   -5.70    4.90
   0   7 -18    3.40    5.80
   0   7 -18   -2.50    6.00
  -1  -7 -18   86.39   11.20
  -1   7 -18   58.49   10.20
  -1   7 -18   65.29   10.10
  -2  -7 -18    3.40    5.30
  -2   7 -18   -2.30    5.80
  -2   7 -18   -3.00    5.60
  -3  -7 -18    2.80    5.90
  -3   7 -18   -7.10    6.10
  -3   7 -18   -2.80    5.80
  -4  -7 -18   -2.40    6.20
  -4   7 -18    4.30    6.70
  -4   7 -18   -0.20    7.50
  -4  -8  18   -4.80   15.20
   4   8 -18   24.10   15.30
   4   8 -18    5.40    8.00
   3  -8 -18    2.80    5.80
  -3  -8  18    9.70    8.90
   3   8 -18   13.00    7.70
   2  -8 -18   39.00    8.70
  -2  -8  18   41.20   10.00
   2   8 -18   43.40    9.40
  -1  -8  18  174.18   17.30
   1  -8 -18  162.68   14.30
   1   8 -18  173.08   14.40
   0  -8  18  247.58   19.20
   0  -8 -18  228.68   16.30
   0   8 -18  201.88   15.70
   1  -8  18  224.88   19.00
  -1  -8 -18  206.88   15.20
  -1   8 -18  184.38   15.50
  -2  -8 -18  251.97   17.00
   2  -8  18  286.87   20.60
  -2   8 -18  301.47   19.00
  -2   8 -18  298.27   18.60
  -3  -8 -18  169.08   15.00
  -3   8 -18  181.08   16.10
  -3   8 -18  176.38   15.90
  -2  -9  18  102.69   16.20
   2  -9 -18   80.19   11.40
   2   9 -18  124.89   14.60
   1  -9 -18   83.49   12.30
   1   9 -18   91.59   12.90
   0  -9  18   39.20   11.20
   0   9 -18   41.40    9.70
   1  -9  18   23.00   10.10
  -1   9 -18   26.90   11.20
   8   0 -19   12.00    8.10
   7   0 -19   -7.30    6.30
   6   0 -19   -0.50    6.00
   6   0 -19   -0.10    4.30
   5   0 -19   -8.40    5.10
   5   0 -19   -2.60    3.50
   4   0 -19   -0.10    2.70
   4   0 -19   -6.90    4.50
   3   0 -19   -0.40    4.10
   3   0 -19    0.80    2.60
   2   0 -19   -0.10    4.10
   2   0 -19    2.90    2.50
   1   0 -19    0.20    4.50
   1   0 -19    1.40    2.20
   0   0 -19   -1.50    2.40
   0   0 -19   -4.40    3.80
   0   0 -19    2.40    3.20
  -1   0 -19   -2.40    4.10
  -1   0 -19    3.30    4.00
  -1   0 -19    0.20    2.90
  -2   0 -19   -6.30    4.20
  -2   0 -19   -3.40    3.20
  -3   0 -19    0.00    3.80
  -3   0 -19   -4.70    4.10
  -4   0 -19   -0.20    4.60
  -4   0 -19   -1.10    4.30
  -5   0 -19    0.00    5.20
  -6   0 -19   -7.40    5.80
   6   0  19    7.80    7.50
   8  -1 -19   60.09   11.80
   8   1 -19   64.99   11.30
   7  -1 -19   95.19   11.80
   7   1 -19   72.39   10.70
   7   1 -19   67.39    8.60
   6  -1 -19   86.39   10.90
   6   1 -19   98.49    9.50
   6   1 -19  112.79   13.20
   5  -1 -19  183.68   14.00
   5   1 -19  178.98   11.30
   5   1 -19  185.88   14.40
   4  -1 -19  184.88   14.20
   4   1 -19  205.38    9.70
   4   1 -19  206.48   14.70
   3  -1 -19   84.19   10.10
   3   1 -19  105.49   10.80
   3   1 -19  105.19    7.00
   2  -1 -19   64.89    9.20
   2   1 -19   54.19    5.40
   2   1 -19   47.50    8.20
   2   1 -19   60.39    6.10
   1  -1 -19   -5.00    4.10
   1   1 -19    2.30    4.30
   1   1 -19    2.80    4.20
   1   1 -19    1.50    2.90
   0  -1 -19   -7.30    4.60
   0   1 -19    2.10    3.10
   0   1 -19   -3.90    4.10
  -1  -1 -19   81.09    4.80
  -1  -1 -19   79.79    9.40
  -1   1 -19   83.19    7.10
  -1   1 -19   87.19    8.80
  -1   1 -19   92.99   10.60
  -2  -1 -19  193.08    8.60
  -2  -1 -19  215.28   13.40
  -2   1 -19  195.88   12.90
  -2   1 -19  195.98   10.50
  -3  -1 -19  214.58   10.40
  -3  -1 -19  243.58   13.70
  -3   1 -19  275.77   14.70
  -3   1 -19  231.58   12.00
  -4  -1 -19  327.87   16.20
  -4  -1 -19  315.17   13.80
  -4   1 -19  318.07   15.20
  -4   1 -19  323.67   16.10
  -5  -1 -19  224.98   13.60
  -5   1 -19  281.47   14.70
   5   1  19  206.58   13.40
  -5   1 -19  232.88   14.10
   6  -1  19  123.39   13.70
  -6  -1 -19  121.09   11.50
  -6   1 -19  134.99   11.70
   6   1  19  128.99   14.00
   7  -2 -19    8.20    6.80
   7   2 -19   24.60    8.10
   7   2 -19   17.60    7.70
   6  -2 -19   -2.20    5.40
   6   2 -19   -3.90    5.90
   6   2 -19    1.30    6.20
   5  -2 -19   19.50    6.40
   5   2 -19   33.60    6.10
   5   2 -19   33.80    7.90
   4  -2 -19  108.49   11.00
   4   2 -19   90.29   11.10
   4   2 -19   88.59    8.00
   3  -2 -19  261.17   15.70
   3   2 -19  251.27   15.60
   2  -2 -19  140.19   12.00
   2   2 -19  155.98   12.40
   2   2 -19  143.99    9.10
   1  -2 -19  175.28   12.80
   1   2 -19  193.18   11.00
   1   2 -19  195.48   13.30
   0  -2 -19  357.66   19.50
   0   2 -19  341.97   13.90
   0   2 -19  349.37   25.80
  -1  -2 -19  210.58   17.40
  -1   2 -19  220.28   11.30
  -1   2 -19  227.98   14.50
  -2  -2 -19  201.28   13.20
  -2   2 -19  192.48   13.20
  -2   2 -19  174.58   10.70
  -3  -2 -19   71.99    9.20
  -3  -2 -19   59.59    6.00
  -3   2 -19   72.69    8.80
  -3   2 -19   64.69    7.90
  -4  -2 -19    9.90    5.40
  -4   2 -19   14.50    5.30
  -4   2 -19   11.30    5.20
  -5  -2 -19   10.20    5.70
  -5   2 -19    9.60    6.00
   5   2  19    4.40    5.90
  -5   2 -19   -2.50    5.40
  -6  -2 -19    6.20    6.20
  -6   2 -19    0.40    6.30
   6   2  19    7.90    7.50
   7  -3 -19   17.60    8.50
   7   3 -19   12.40    7.50
   7   3 -19    2.70    7.40
   6  -3 -19    3.40    6.10
   6   3 -19    8.20    6.60
   6   3 -19    4.30    6.50
   5  -3 -19    0.80    5.10
   5   3 -19  -10.00    5.10
   5   3 -19    5.70    6.00
   4  -3 -19    7.40    5.70
   4   3 -19    2.00    4.80
   4   3 -19    7.90    6.40
   3  -3 -19    5.20    4.50
   3   3 -19    6.60    4.50
   3   3 -19    8.40    5.50
   2  -3 -19   -3.40    4.70
   2   3 -19   -1.90    4.10
   2   3 -19   -1.00    4.60
   1  -3 -19    3.60    4.30
   1   3 -19    7.60    4.30
   1   3 -19    6.30    4.90
   0  -3 -19    3.00    4.90
   0   3 -19   -1.10    3.90
   0   3 -19   -1.50    4.30
  -1  -3 -19   37.40    7.30
  -1   3 -19   20.30    6.00
  -1   3 -19   23.40    5.20
  -2  -3 -19    2.90    4.90
  -2   3 -19    6.40    4.50
  -3  -3 -19   28.80    3.90
  -3   3 -19   29.20    6.50
  -3   3 -19   25.90    6.90
  -4  -3 -19   28.00    7.10
  -4   3 -19   34.70    7.10
  -5  -3 -19   17.50    6.10
  -5   3 -19   11.30    6.90
  -5   3 -19   22.90    6.90
   5   3  19   15.60    6.70
  -6  -3 -19    3.40    6.40
  -6   3 -19   12.30    8.60
   6   3  19    5.00    8.60
  -6   3 -19    0.30    6.70
   7  -4 -19    2.50    6.90
   7   4 -19   -2.80    8.10
   7   4 -19    8.90    8.60
   6  -4 -19   27.30    8.00
   6   4 -19   19.90    7.80
   6   4 -19   21.80    7.60
   5  -4 -19   36.90    7.70
   5   4 -19   29.40    7.50
   5   4 -19   34.80    7.60
   4  -4 -19  111.59   11.90
   4   4 -19  114.69   10.50
   4   4 -19   90.79   11.20
   3  -4 -19  187.08   13.90
   3   4 -19  182.98   12.20
   3   4 -19  151.98   13.50
   2  -4 -19  297.87   17.20
   2   4 -19  287.57   17.20
   2   4 -19  287.87   14.90
   1  -4 -19  393.76   19.60
   1   4 -19  420.16   17.60
   1   4 -19  384.26   19.80
   0  -4 -19  307.77   17.20
   0   4 -19  361.26   18.60
   0   4 -19  337.17   15.90
  -1  -4 -19  371.86   18.60
  -1   4 -19  405.96   19.50
  -1   4 -19  361.66   16.80
  -2  -4 -19  141.09   11.60
  -2   4 -19  133.19   11.10
  -2   4 -19  121.59   11.60
  -3  -4 -19   97.09   10.10
  -3   4 -19   76.49   10.20
  -4  -4 -19   34.70    6.80
  -4   4 -19   32.60    7.70
  -5  -4 -19    9.30    6.10
  -5   4 -19    6.10    6.30
  -5   4 -19    1.30    6.50
   6  -5 -19   59.29   10.60
   6   5 -19   28.00    8.90
   6   5 -19   36.10   10.50
   5  -5 -19   97.39   11.60
   5   5 -19   82.19   10.50
   5   5 -19   72.09   11.20
   4  -5 -19   26.30    7.50
   4   5 -19   35.60    8.30
   4   5 -19   29.80    8.10
   3  -5 -19   40.20    8.10
   3   5 -19   29.10    7.50
   3   5 -19   27.10    6.60
   2  -5 -19   25.10    7.30
   2   5 -19   16.60    6.40
   2   5 -19    5.00    5.30
   1  -5 -19    3.10    5.40
   1   5 -19    3.40    5.10
   1   5 -19   -2.00    5.30
   0  -5 -19   30.40    7.70
   0   5 -19   28.60    6.90
   0   5 -19   26.30    6.80
  -1  -5 -19   42.70    7.70
  -1   5 -19   54.99    8.60
  -1   5 -19   61.49    9.30
  -2  -5 -19   30.80    7.50
  -2   5 -19   38.60    8.10
  -2   5 -19   30.90    7.10
  -3  -5 -19  209.48   14.10
  -3   5 -19  207.08   14.40
  -3   5 -19  219.08   15.00
  -4  -5 -19   76.99   10.00
  -4   5 -19   88.29   11.10
  -4   5 -19   63.29    9.70
  -5  -5 -19  159.08   13.80
  -5   5 -19  158.18   15.00
  -5   5 -19  156.98   14.30
   6  -6 -19    2.40    7.30
   6   6 -19    7.80    8.50
   6   6 -19   -1.00    8.00
   5  -6 -19    5.90    6.70
   5   6 -19    7.00    7.70
   5   6 -19   12.60    7.60
   4  -6 -19   29.30    7.10
   4   6 -19   32.50    8.20
   4   6 -19   23.40    8.00
   3  -6 -19   14.10    6.20
   3   6 -19   16.20    7.10
   3   6 -19   15.60    7.10
   2  -6 -19   23.30    7.10
   2   6 -19   31.00    8.00
   2   6 -19   39.10    8.10
   1  -6 -19   45.00    8.70
   1   6 -19   51.69    9.00
   1   6 -19   55.39    9.40
   0  -6 -19   36.90    7.60
   0   6 -19   30.40    7.60
   0   6 -19   54.19    9.90
  -1  -6 -19    5.50    5.60
  -1   6 -19    9.70    6.60
  -1   6 -19   10.20    6.40
  -2  -6 -19    5.60    5.40
  -2   6 -19    5.00    5.60
  -2   6 -19   -2.60    6.40
  -3  -6 -19   10.60    6.00
  -3   6 -19   14.60    7.20
  -3   6 -19   -2.40    6.30
  -4  -6 -19    0.60    6.30
  -4   6 -19   11.60    7.10
  -4   6 -19   17.80    7.80
   5  -7 -19  227.08   17.60
   5   7 -19  242.78   19.10
   5   7 -19  195.38   17.40
   4  -7 -19  188.88   26.70
   4   7 -19  130.29   14.80
   3  -7 -19   50.69    9.90
   3   7 -19   45.70    9.90
   3   7 -19   54.69   10.10
   2  -7 -19   -5.60    5.50
   2   7 -19   18.70    7.50
   2   7 -19    0.80    6.50
   1  -7 -19    6.80    6.10
   1   7 -19    1.20    6.20
   1   7 -19   -0.90    6.40
   0  -7 -19   19.10    7.00
   0   7 -19   17.00    7.50
   0   7 -19   33.30    8.50
  -1  -7 -19   70.09    9.60
  -1   7 -19   58.89    9.70
  -1   7 -19   61.79   10.30
  -2  -7 -19   63.19   10.10
  -2   7 -19   62.89   10.10
  -2   7 -19   78.99   10.90
  -3  -7 -19  186.28   15.20
  -3   7 -19  203.28   16.50
  -3   7 -19  172.98   15.50
   3  -8 -19   60.69   10.50
   3   8 -19   67.99   12.00
   3   8 -19   82.69   13.00
   2  -8 -19  124.49   19.10
   2   8 -19  127.39   14.20
  -1  -8  19   97.89   14.60
   1  -8 -19   79.09   12.00
   1   8 -19   80.39   11.90
   1   8 -19   86.09   12.70
   0  -8 -19   42.80    9.00
   0  -8  19   23.10   10.30
   0   8 -19   37.60    9.70
   0   8 -19   31.80    8.60
  -1  -8 -19   48.50    8.90
  -1   8 -19   62.79    9.90
  -1   8 -19   31.00    9.00
  -2  -8 -19   28.80    8.00
  -2   8 -19   24.90    8.50
  -2   8 -19   24.70    8.50
   7   0 -20   80.19   11.50
   6   0 -20  129.39   14.20
   5   0 -20  212.58   15.70
   4   0 -20  434.66   21.50
   3   0 -20  472.85   22.10
   2   0 -20  458.35   21.50
   1   0 -20  175.38   12.90
   1   0 -20  140.89    4.70
   0   0 -20  152.88    6.60
   0   0 -20  168.68   12.70
  -1   0 -20   62.09    5.80
  -1   0 -20   56.09    8.30
  -2   0 -20   12.60    4.30
  -2   0 -20   23.30    6.40
  -3   0 -20    7.80    6.90
  -3   0 -20   15.40    4.80
  -4   0 -20   91.09    9.30
  -4   0 -20  100.59   11.90
  -5   0 -20   75.69    9.60
  -5   0 -20   85.99   10.00
   7  -1 -20    6.10    7.10
   7   1 -20    6.60    7.80
   6  -1 -20    2.20    6.30
   6   1 -20    1.90    9.00
   6   1 -20   -6.00    6.80
   5  -1 -20    2.20    5.80
   5   1 -20   -0.80    4.70
   5   1 -20   -0.80    5.80
   4  -1 -20    4.10    5.60
   4   1 -20    1.10    3.90
   4   1 -20    3.90    5.40
   3  -1 -20    3.50    5.40
   3   1 -20    2.30    3.40
   3   1 -20    1.90    5.50
   2  -1 -20    6.80    5.50
   2   1 -20    2.20    5.60
   2   1 -20   10.70    3.60
   1  -1 -20   35.30    6.80
   1   1 -20   42.60    7.70
   1   1 -20   56.39    5.50
   0  -1 -20  128.69   11.60
   0   1 -20  117.89   11.30
   0   1 -20  119.19    7.70
  -1  -1 -20   78.39   10.10
  -1   1 -20   63.99    8.70
  -1   1 -20   73.19    7.20
  -2  -1 -20  118.19    6.90
  -2  -1 -20  138.69   11.90
  -2   1 -20  127.29   11.50
  -2   1 -20  126.89    9.30
  -3  -1 -20   73.69    9.50
  -3  -1 -20   88.79    7.50
  -3   1 -20   77.79    8.50
  -3   1 -20   74.89   11.30
  -4  -1 -20   38.70    6.60
  -4   1 -20   47.90   11.90
  -4   1 -20   43.70    7.30
  -5  -1 -20   13.30    6.40
  -5  -1 -20   15.70    6.90
  -5   1 -20    4.00    7.30
  -5   1 -20   25.50    6.90
   7  -2 -20    5.10    8.90
   7   2 -20   10.90    8.30
   7   2 -20   27.30   12.50
   6  -2 -20   45.90    9.70
   6   2 -20   36.40    8.00
   6   2 -20   53.29    9.80
   5  -2 -20  129.69   13.20
   5   2 -20  136.39   10.60
   5   2 -20  144.89   13.90
   4  -2 -20  181.38   14.00
   4   2 -20  164.38   10.40
   4   2 -20  160.68   14.10
   3  -2 -20  163.38   13.30
   3   2 -20  185.78   14.50
   3   2 -20  193.18   12.70
   2  -2 -20   87.49   10.70
   2   2 -20  120.69   13.60
   2   2 -20  105.89   10.80
   1  -2 -20   70.09    9.50
   1   2 -20   76.59    9.80
   0  -2 -20   39.70    7.50
   0   2 -20   30.00    6.40
   0   2 -20   34.90    5.70
  -1  -2 -20    3.40    4.90
  -1   2 -20    8.50    5.50
  -1   2 -20    6.40    4.60
  -2  -2 -20   -0.80    5.10
  -2   2 -20    2.30    5.10
  -2   2 -20    2.70    4.60
  -3  -2 -20   18.10    6.10
  -3   2 -20   31.20    6.70
  -3   2 -20   24.10    6.50
  -4  -2 -20   -1.50    5.20
  -4  -2 -20   -0.10    5.40
  -4   2 -20   -1.00    5.60
  -4   2 -20   18.40    8.40
  -5   2 -20   44.00    8.40
  -5   2 -20   45.50    8.40
   6  -3 -20   60.19   10.30
   6   3 -20   69.39   11.20
   6   3 -20   49.80    9.50
   5  -3 -20   18.80    7.00
   5   3 -20   17.50    7.50
   5   3 -20   33.30    7.20
   4  -3 -20    5.80    5.60
   4   3 -20    8.60    5.40
   4   3 -20   -1.80    6.10
   3  -3 -20   20.80    6.30
   3   3 -20   21.50    5.80
   3   3 -20   17.30    7.00
   2  -3 -20  117.79   11.70
   2   3 -20   93.09   11.30
   2   3 -20   91.49    8.70
   1  -3 -20  250.47   16.00
   1   3 -20  263.37   13.30
   1   3 -20  271.77   16.60
   0  -3 -20  443.56   20.90
   0   3 -20  446.66   17.70
   0   3 -20  404.46   20.60
  -1  -3 -20  439.96   20.50
  -1   3 -20  414.76   20.40
  -1   3 -20  411.36   17.50
  -2  -3 -20  388.66   18.90
  -2   3 -20  338.77   18.70
  -2   3 -20  372.16   17.00
  -3  -3 -20  196.08   14.20
  -3   3 -20  229.08   15.10
  -3   3 -20  238.98   14.10
  -4  -3 -20  200.58   14.00
  -4   3 -20  191.98   13.90
  -4   3 -20  212.98   14.80
  -5  -3 -20   62.99    9.00
  -5   3 -20   64.39    9.90
  -5   3 -20   62.99   10.70
   6  -4 -20   -6.50    8.40
   6   4 -20   -1.90    7.60
   6   4 -20    4.70   10.40
   5  -4 -20   28.00    7.40
   5   4 -20   22.30    7.30
   5   4 -20   13.10    7.10
   4  -4 -20   29.70    8.20
   4   4 -20   30.00    7.30
   4   4 -20   18.70    6.60
   3  -4 -20   39.90    8.00
   3   4 -20   52.99    9.70
   3   4 -20   49.50    8.10
   2  -4 -20   45.50    8.30
   2   4 -20   75.79    9.10
   2   4 -20   63.09   10.00
   1  -4 -20    5.10    5.20
   1   4 -20    6.00    5.20
   1   4 -20    8.50    5.70
   0  -4 -20   -0.20    4.60
   0   4 -20   -2.70    5.10
   0   4 -20    3.90    4.90
  -1  -4 -20   -0.50    4.90
  -1   4 -20    6.60    5.50
  -1   4 -20   -2.20    5.40
  -2  -4 -20   -1.20    5.10
  -2   4 -20   -0.10    5.20
  -2   4 -20    1.10    5.40
  -3  -4 -20    8.70    5.80
  -3   4 -20   11.60    6.50
  -3   4 -20    6.20    5.90
  -4  -4 -20   35.70    7.80
  -4   4 -20   21.50    7.30
  -4   4 -20   25.60    7.70
   5  -5 -20   22.60    8.00
   5   5 -20   12.70    7.30
   5   5 -20   15.80    9.00
   4  -5 -20    0.30    6.20
   4   5 -20   -2.60    6.30
   4   5 -20   -8.90    6.00
   3  -5 -20   14.40    5.70
   3   5 -20    3.70    6.50
   3   5 -20   -0.70    5.90
   2  -5 -20   12.00    5.90
   2   5 -20   30.60    7.40
   2   5 -20   10.80    7.50
   1  -5 -20   40.00    7.80
   1   5 -20   70.49   10.90
   1   5 -20   74.59    9.90
   0  -5 -20  128.69   12.10
   0   5 -20  101.99   10.90
   0   5 -20  119.09   12.70
  -1  -5 -20  183.58   14.00
  -1   5 -20  179.68   13.80
  -1   5 -20  169.48   14.20
  -2  -5 -20  149.59   13.60
  -2   5 -20  175.28   14.70
  -2   5 -20  177.68   13.70
  -3  -5 -20  169.68   13.80
  -3   5 -20  159.88   14.40
  -3   5 -20  157.38   13.90
  -4  -5 -20  149.79   14.00
  -4   5 -20  167.78   14.60
  -4   5 -20  150.48   14.60
   5  -6 -20  165.28   15.30
   5   6 -20  158.98   17.00
   5   6 -20  138.69   15.20
   4   6 -20   76.79   11.40
   4   6 -20  100.89   20.80
   3  -6 -20  191.78   15.40
   3   6 -20  162.48   15.60
   3   6 -20  178.58   14.60
   2  -6 -20  224.68   16.10
   2   6 -20  186.78   15.50
   2   6 -20  196.38   15.20
   1  -6 -20  178.78   14.80
   1   6 -20  194.98   15.80
   1   6 -20  184.98   14.40
   0  -6 -20   64.99    9.40
   0   6 -20   57.99   10.00
   0   6 -20   72.99   10.20
  -1  -6 -20   22.70    8.00
  -1   6 -20   22.60    7.90
  -1   6 -20   16.60    7.40
  -2  -6 -20    7.50    6.20
  -2   6 -20   11.90    7.40
  -2   6 -20   -3.30    6.70
  -3  -6 -20   52.69    9.20
  -3   6 -20   66.89   10.60
  -3   6 -20   65.59   10.90
   3  -7 -20    3.00    6.70
   3   7 -20   -1.30    7.40
   3   7 -20    8.70    8.10
   2   7 -20    8.70   11.10
   2   7 -20   -1.80    7.30
   1  -7 -20    1.30    6.40
   1   7 -20    2.10    7.20
   1   7 -20    1.90    7.00
   0  -7 -20   -5.90    6.50
   0   7 -20   -0.50    7.20
   0   7 -20    9.50    7.10
  -1  -7 -20   26.00    7.40
  -1   7 -20   13.50    7.80
  -1   7 -20   18.20    7.80
  -2  -7 -20   -3.20    6.70
  -2   7 -20   -7.60    7.00
  -2   7 -20    9.20    8.00
   6   0 -21   -3.10    7.50
   5   0 -21    1.70    6.90
   4   0 -21    0.10    6.50
   3   0 -21   -0.10    5.70
   2   0 -21   -2.60    5.50
   1   0 -21   -1.80    4.80
   0   0 -21    4.20    5.80
  -1   0 -21    0.30    3.70
  -1   0 -21    3.80    5.30
  -2   0 -21   -4.60    4.30
  -2   0 -21   -2.40    5.40
  -3   0 -21    1.10    5.70
  -3   0 -21   -0.60    4.90
  -4   0 -21    9.10    5.90
  -4   0 -21   -1.50    6.50
  -5   0 -21    6.00    7.30
  -5   0 -21    7.40    7.10
   6  -1 -21    6.40    8.70
   6   1 -21    5.90    8.70
   5  -1 -21   62.99   10.80
   5   1 -21   40.90    9.20
   4  -1 -21  137.09   13.50
   4   1 -21  178.78   15.10
   3  -1 -21  212.68   15.50
   3   1 -21  196.08   15.30
   2  -1 -21  261.67   16.90
   2   1 -21  256.47   10.00
   2   1 -21  287.87   17.30
   1  -1 -21  260.57   16.10
   1   1 -21  255.97   16.30
   1   1 -21  211.88    9.50
   0  -1 -21  273.17   16.80
   0   1 -21  273.37   16.80
   0   1 -21  261.87   11.00
  -1  -1 -21  318.87   17.70
  -1   1 -21  306.67   12.90
  -1   1 -21  313.47   17.70
  -2  -1 -21  186.88   13.80
  -2   1 -21  189.08   14.00
  -2   1 -21  167.78   10.50
  -3  -1 -21   90.79   11.00
  -3   1 -21   88.79    9.30
  -3   1 -21   80.29   10.20
  -4  -1 -21    6.60    6.50
  -4   1 -21    4.40    6.20
  -4   1 -21   -1.40    6.50
  -5   1 -21   17.70    7.90
   6   2 -21  149.99   24.70
   5  -2 -21   36.40    9.20
   5   2 -21   33.20    8.90
   5   2 -21   26.80    8.40
   4  -2 -21   52.59    9.40
   4   2 -21   65.99    7.50
   4   2 -21   58.29   10.30
   3  -2 -21   26.10    7.30
   3   2 -21   32.50    8.80
   2  -2 -21   13.10    6.30
   2   2 -21   27.40    7.00
   1  -2 -21    9.00    5.70
   1   2 -21    1.80    5.60
   1   2 -21   -1.30    4.90
   0  -2 -21   49.10    8.40
   0   2 -21   78.09    8.00
   0   2 -21   50.39    8.30
  -1  -2 -21  105.49   11.50
  -1   2 -21   92.49   11.10
  -1   2 -21   80.79    9.00
  -2  -2 -21  139.69   13.00
  -2   2 -21  142.19   10.90
  -2   2 -21  155.08   13.10
  -3  -2 -21  186.98   14.10
  -3   2 -21  149.39   11.90
  -3   2 -21  140.69   13.30
  -4  -2 -21  228.98   15.50
  -4   2 -21  210.48   15.50
   6  -3 -21   -1.90    7.40
   6   3 -21  -17.50    8.60
   6   3 -21   -4.50    7.60
   5  -3 -21    6.20    7.20
   5   3 -21   -2.90    6.40
   5   3 -21    2.80    7.60
   4  -3 -21   -0.70    5.80
   4   3 -21    1.00    5.90
   4   3 -21    4.80    6.10
   3  -3 -21   19.40    6.70
   3   3 -21   18.00    6.10
   3   3 -21   38.30    8.80
   2  -3 -21    4.60    6.20
   2   3 -21    3.30    5.10
   2   3 -21    1.70    5.60
   1  -3 -21   30.40    7.60
   1   3 -21   20.70    6.80
   1   3 -21   28.50    6.20
   0  -3 -21    4.20    5.70
   0   3 -21   17.30    6.70
   0   3 -21   14.30    5.90
  -1  -3 -21   46.30    9.10
  -1   3 -21   63.69   10.40
  -1   3 -21   57.29    8.20
  -2  -3 -21   28.00    7.40
  -2   3 -21   22.80    7.00
  -2   3 -21   28.10    7.00
  -3  -3 -21   -3.90    5.60
  -3   3 -21   -2.40    7.20
  -3   3 -21    9.30    6.30
  -4  -3 -21    3.30    6.40
  -4   3 -21   -0.60    6.70
  -4   3 -21   12.40    7.10
   5  -4 -21   90.49   13.60
   5   4 -21  104.99   16.60
   4  -4 -21  150.28   14.40
   4   4 -21  113.79   13.50
   4   4 -21  151.58   12.80
   3  -4 -21   58.29   10.50
   3   4 -21   59.79   10.10
   3   4 -21   66.59    9.00
   2  -4 -21   31.10    7.50
   2   4 -21   27.20    6.80
   2   4 -21   33.60    7.70
   1  -4 -21    1.50    5.50
   1   4 -21    3.60    5.80
   1   4 -21    3.90    6.00
   0  -4 -21   39.90    7.40
   0   4 -21   49.00    8.30
   0   4 -21   47.20    9.10
  -1  -4 -21  127.19   12.50
  -1   4 -21  122.29   11.90
  -1   4 -21  118.99   14.00
  -2  -4 -21  156.18   13.90
  -2   4 -21  124.39   12.90
  -2   4 -21  119.69   13.30
  -3  -4 -21  230.38   15.70
  -3   4 -21  210.08   16.30
  -3   4 -21  221.88   15.50
   4  -5 -21   59.79   11.30
   4   5 -21   76.09   11.00
   4   5 -21   72.09   14.90
   3  -5 -21   86.79   11.60
   3   5 -21   99.09   11.70
   3   5 -21   71.79   11.60
   2  -5 -21  129.79   13.60
   2   5 -21  159.88   15.00
   1  -5 -21  134.59   13.60
   1   5 -21  114.09   14.00
   1   5 -21  131.39   20.30
   0  -5 -21   69.09   10.10
   0   5 -21   85.99   11.50
   0   5 -21   96.69   11.20
  -1  -5 -21  151.88   14.10
  -1   5 -21  154.58   14.40
  -1   5 -21  186.58   14.60
  -2  -5 -21   73.39   10.80
  -2   5 -21   96.69   12.00
  -2   5 -21   84.99   11.70
  -3  -5 -21   27.20    7.70
  -3   5 -21   36.90    9.20
  -3   5 -21   20.60    8.60
   3  -6 -21   -3.70    6.30
   3   6 -21    8.40    8.10
   3   6 -21   15.60    8.40
   2   6 -21   12.40    7.90
   1  -6 -21    9.60    7.00
   1   6 -21    1.20    7.70
   1   6 -21   14.70    7.90
   0  -6 -21   43.70    8.90
   0   6 -21   47.70   10.40
   0   6 -21   33.30    9.10
  -1  -6 -21   16.70    6.80
  -1   6 -21   11.40    8.00
  -1   6 -21    6.80    7.10
  -2  -6 -21    3.90    7.20
  -2   6 -21   12.10    8.20
  -2   6 -21   34.70    8.80
   5   0 -22   37.10   15.20
   4   0 -22   16.90    8.10
   3   0 -22   12.90    7.30
   2   0 -22  119.69   12.60
   1   0 -22  124.99   13.20
   0   0 -22  459.55   22.50
  -1   0 -22  416.06   21.40
  -2   0 -22  191.98   15.20
  -3   0 -22   65.39   10.30
  -4   0 -22    2.70    7.90
   5  -1 -22   -1.10   10.20
   5   1 -22    3.40    8.30
   4  -1 -22   33.60    8.30
   4   1 -22   39.50    8.40
   3  -1 -22   64.09   10.80
   3   1 -22   51.29    9.20
   2  -1 -22   39.40    8.90
   2   1 -22   27.80    7.20
   1  -1 -22   28.90    7.40
   1   1 -22   41.30    7.90
   0  -1 -22    4.80    6.10
   0   1 -22    6.70    6.30
  -1  -1 -22   -4.70    5.90
  -1   1 -22   -0.50    6.00
  -2  -1 -22   20.40    6.90
  -2   1 -22    9.50    6.80
  -3  -1 -22  -11.70    6.70
  -3   1 -22    3.60    7.40
   5  -2 -22   -8.10    7.00
   5   2 -22   -0.20    7.50
   4  -2 -22   -3.70    6.30
   4   2 -22    0.50    7.20
   3  -2 -22   14.20    7.60
   3   2 -22   34.40    8.40
   2  -2 -22   57.29    9.40
   2   2 -22   58.19   10.10
   1  -2 -22  105.69   12.40
   1   2 -22   72.89   10.70
   0  -2 -22  145.29   13.30
   0   2 -22  135.59   10.20
   0   2 -22  136.19   13.60
  -1  -2 -22  236.28   16.30
  -1   2 -22  207.08   16.40
  -1   2 -22  203.68   12.20
  -2  -2 -22  122.99   13.40
  -2   2 -22   94.79   11.50
  -2   2 -22  102.29   10.90
  -3  -2 -22   25.70    7.70
  -3   2 -22   28.50    7.70
  -3   2 -22   26.50    8.10
   3  -3 -22  285.57   18.40
   3   3 -22  285.97   14.60
   3   3 -22  275.27   18.90
   2  -3 -22  228.78   16.60
   2   3 -22  231.88   13.30
   2   3 -22  254.97   17.90
   1  -3 -22  131.59   14.00
   1   3 -22  127.69   11.00
   1   3 -22  129.79   14.00
   0  -3 -22   13.20    7.00
   0   3 -22   21.70    6.90
   0   3 -22   18.70    7.60
  -1  -3 -22   -1.60    6.20
  -1   3 -22   -9.50    6.10
  -1   3 -22   -3.10    6.30
  -2  -3 -22    8.90    6.90
  -2   3 -22    1.10    6.50
  -2   3 -22   16.70    7.10
  -3  -3 -22   38.40    9.00
  -3   3 -22   50.29    9.80
  -3   3 -22   29.60    8.70
   4   4 -22   17.30    8.70
   4   4 -22   23.40    8.10
   3   4 -22  -10.30    6.90
   2  -4 -22   11.10    7.70
   2   4 -22   14.30    7.20
   2   4 -22   18.10    8.00
   1  -4 -22   25.30    7.60
   1   4 -22   28.80    8.30
   1   4 -22    3.50    6.80
   0  -4 -22   13.70    7.00
   0   4 -22   13.60    7.60
   0   4 -22   24.10    7.80
  -1  -4 -22   30.00    8.70
  -1   4 -22   26.80    8.20
  -2  -4 -22   63.99    9.60
  -2   4 -22   34.70    9.10
  -2   4 -22   54.29   10.40
   3  -5 -22   51.59   10.00
   3   5 -22   63.09   12.40
   3   5 -22   74.79   10.80
   2  -5 -22   74.79   11.20
   2   5 -22   68.59   11.10
   2   5 -22   51.29   10.00
   1   5 -22   29.80    9.10
   1   5 -22   26.20   10.40
   0  -5 -22   10.90    6.70
   0   5 -22    7.50    7.50
   0   5 -22   16.70    7.90
  -1  -5 -22   -2.70    6.40
  -1   5 -22    5.30    7.90
  -1   5 -22   -4.20    7.30
   4   0 -23    8.80    7.80
   2   0 -23    5.80    7.00
   1   0 -23    7.00    6.50
   0   0 -23   -7.00    6.50
  -1   0 -23    6.60    6.70
  -2   0 -23   -1.00    7.20
   4  -1 -23   -1.70    7.70
   4   1 -23    6.50    7.80
   3   1 -23   24.70   14.20
   2  -1 -23   -5.10    6.60
   2   1 -23   -3.20    6.90
   1  -1 -23   -8.30    6.30
   1   1 -23    4.80    7.00
   0  -1 -23    4.70    6.30
   0   1 -23    4.20    6.80
  -1  -1 -23   57.39    9.80
  -1   1 -23   40.10    9.30
  -2  -1 -23  256.57   17.60
  -2   1 -23  208.88   17.00
   3  -2 -23  267.87   18.60
   3   2 -23  267.97   19.40
   2  -2 -23  102.39   15.10
   2   2 -23  125.29   15.80
   1  -2 -23  203.98   16.10
   1   2 -23  206.18   16.60
   0  -2 -23  112.99   13.80
   0   2 -23  106.59   13.40
  -1  -2 -23  148.09   14.50
  -1   2 -23  157.08   15.10
  -2  -2 -23  152.88   15.60
  -2   2 -23  164.98   15.20
   3  -3 -23   -2.90    7.60
   3   3 -23   -7.30    7.90
   2  -3 -23   -2.10    7.10
   2   3 -23   -0.10    8.70
   1  -3 -23    9.10   11.20
   1   3 -23    4.30    8.30
   0  -3 -23   -3.30    6.80
   0   3 -23   -8.30    6.90
  -1  -3 -23    9.40    7.40
  -1   3 -23    6.10    7.60
   1  -4 -23  206.08   16.70
   1   4 -23  243.68   18.70
   1   4 -23  232.08   16.50
   1   0 -24   36.40    9.30
   0   0   0    0.00    0.00

_computing_structure_solution     'SHELXT 2018/2 (Sheldrick, 2018)'
;
_shelx_hkl_checksum     168

