data_oav-267
_audit_creation_date               2023-10-24
_audit_creation_method
;
Olex2 1.5
(compiled 2023.08.24 svn.re1ec1418 for OlexSys, GUI svn.r6817)
;
_shelx_SHELXL_version_number       '2014/7'
_audit_contact_author_address      ?
_audit_contact_author_email        ?
_audit_contact_author_name         ''
_audit_contact_author_phone        ?
_publ_contact_author_id_orcid      ?
_publ_section_references
;
Dolomanov, O.V., Bourhis, L.J., Gildea, R.J, Howard, J.A.K. & Puschmann, H.
 (2009), J. Appl. Cryst. 42, 339-341.

Sheldrick, G.M. (2015). Acta Cryst. A71, 3-8.

Sheldrick, G.M. (2015). Acta Cryst. C71, 3-8.
;
_chemical_name_common              ?
_chemical_name_systematic          ?
_chemical_formula_moiety           'C7 H6 N5 O2 Zn0.5, 1[C3H7NO]'
_chemical_formula_sum              'C10 H13 N6 O3 Zn0.50'
_chemical_formula_weight           297.95
_chemical_melting_point            ?
loop_
  _atom_type_symbol
  _atom_type_description
  _atom_type_scat_dispersion_real
  _atom_type_scat_dispersion_imag
  _atom_type_scat_source
 'C' 'C' 0.0033 0.0016 'International Tables Vol C Tables 4.2.6.8 and 6.1.1.4'
 'H' 'H' 0.0000 0.0000 'International Tables Vol C Tables 4.2.6.8 and 6.1.1.4'
 'N' 'N' 0.0061 0.0033 'International Tables Vol C Tables 4.2.6.8 and 6.1.1.4'
 'O' 'O' 0.0106 0.0060 'International Tables Vol C Tables 4.2.6.8 and 6.1.1.4'
 'Zn' 'Zn' 0.2839 1.4301 'International Tables Vol C Tables 4.2.6.8 and 6.1.1.4'

_shelx_space_group_comment
;
The symmetry employed for this shelxl refinement is uniquely defined
by the following loop, which should always be used as a source of
symmetry information in preference to the above space-group names.
They are only intended as comments.
;
_space_group_crystal_system        'monoclinic'
_space_group_IT_number             15
_space_group_name_H-M_alt          'C 1 2/c 1'
_space_group_name_Hall             '-C 2yc'
loop_
  _space_group_symop_operation_xyz
 'x, y, z'
 '-x, y, -z+1/2'
 'x+1/2, y+1/2, z'
 '-x+1/2, y+1/2, -z+1/2'
 '-x, -y, -z'
 'x, -y, z-1/2'
 '-x+1/2, -y+1/2, -z'
 'x+1/2, -y+1/2, z-1/2'

_cell_length_a                     21.1230(5)
_cell_length_b                     17.2281(4)
_cell_length_c                     5.76980(10)
_cell_angle_alpha                  90
_cell_angle_beta                   94.1820(10)
_cell_angle_gamma                  90
_cell_volume                       2094.09(8)
_cell_formula_units_Z              8
_cell_measurement_reflns_used      7861
_cell_measurement_temperature      150.00
_cell_measurement_theta_max        31.51
_cell_measurement_theta_min        3.05
_shelx_estimated_absorpt_T_max     ?
_shelx_estimated_absorpt_T_min     ?
_exptl_absorpt_coefficient_mu      1.249
_exptl_absorpt_correction_T_max    0.7462
_exptl_absorpt_correction_T_min    0.6674
_exptl_absorpt_correction_type     multi-scan
_exptl_absorpt_process_details
;
SADABS-2016/2 (Bruker,2016/2) was used for absorption correction.
wR2(int) was 0.0849 before and 0.0602 after correction.
The Ratio of minimum to maximum transmission is 0.8944.
The \l/2 correction factor is Not present.
;
_exptl_absorpt_special_details     ?
_exptl_crystal_colour              ?
_exptl_crystal_density_diffrn      1.890
_exptl_crystal_density_meas        ?
_exptl_crystal_density_method      ?
_exptl_crystal_description         ?
_exptl_crystal_F_000               1232
_exptl_crystal_size_max            ?
_exptl_crystal_size_mid            ?
_exptl_crystal_size_min            ?
_exptl_transmission_factor_max     ?
_exptl_transmission_factor_min     ?
_diffrn_reflns_av_R_equivalents    0.0395
_diffrn_reflns_av_unetI/netI       0.0385
_diffrn_reflns_Laue_measured_fraction_full  0.999
_diffrn_reflns_Laue_measured_fraction_max  0.999
_diffrn_reflns_limit_h_max         30
_diffrn_reflns_limit_h_min         -31
_diffrn_reflns_limit_k_max         17
_diffrn_reflns_limit_k_min         -25
_diffrn_reflns_limit_l_max         8
_diffrn_reflns_limit_l_min         -6
_diffrn_reflns_number              11938
_diffrn_reflns_point_group_measured_fraction_full  0.999
_diffrn_reflns_point_group_measured_fraction_max  0.999
_diffrn_reflns_theta_full          25.242
_diffrn_reflns_theta_max           31.524
_diffrn_reflns_theta_min           1.527
_diffrn_ambient_temperature        150.00
_diffrn_detector_area_resol_mean   ?
_diffrn_measured_fraction_theta_full  0.999
_diffrn_measured_fraction_theta_max  0.999
_diffrn_measurement_device_type    'Bruker APEX-II CCD'
_diffrn_measurement_method         '\f and \w scans'
_diffrn_radiation_type             MoK\a
_diffrn_radiation_wavelength       0.71073
_diffrn_source                     ?
_diffrn_source_current             1.4
_diffrn_source_power               0.07
_diffrn_source_voltage             50.0
_diffrn_standards_number           0
_reflns_Friedel_coverage           0.000
_reflns_Friedel_fraction_full      .
_reflns_Friedel_fraction_max       .
_reflns_number_gt                  3179
_reflns_number_total               3508
_reflns_special_details
;
 Reflections were merged by SHELXL according to the crystal
 class for the calculation of statistics and refinement.
 
 Structure factors included contributions from the .fab file.
 
 _reflns_Friedel_fraction is defined as the number of unique
 Friedel pairs measured divided by the number that would be
 possible theoretically, ignoring centric projections and
 systematic absences.
;
_reflns_threshold_expression       'I > 2\s(I)'
_computing_cell_refinement         ?
_computing_data_collection         ?
_computing_data_reduction          ?
_computing_molecular_graphics      'Olex2 1.5 (Dolomanov et al., 2009)'
_computing_publication_material    'Olex2 1.5 (Dolomanov et al., 2009)'
_computing_structure_refinement    'SHELXL 2014/7 (Sheldrick, 2015)'
_computing_structure_solution      'SHELXT 2014/5 (Sheldrick, 2014)'
_refine_diff_density_max           0.730
_refine_diff_density_min           -0.895
_refine_diff_density_rms           0.280
_refine_ls_extinction_coef         .
_refine_ls_extinction_method       none
_refine_ls_goodness_of_fit_ref     1.337
_refine_ls_hydrogen_treatment      constr
_refine_ls_matrix_type             full
_refine_ls_number_parameters       133
_refine_ls_number_reflns           3508
_refine_ls_number_restraints       0
_refine_ls_R_factor_all            0.0450
_refine_ls_R_factor_gt             0.0375
_refine_ls_restrained_S_all        1.337
_refine_ls_shift/su_max            0.001
_refine_ls_shift/su_mean           0.000
_refine_ls_structure_factor_coef   Fsqd
_refine_ls_weighting_details      
 'w=1/[\s^2^(Fo^2^)+(0.0759P)^2^+1.9255P] where P=(Fo^2^+2Fc^2^)/3'
_refine_ls_weighting_scheme        calc
_refine_ls_wR_factor_gt            0.1354
_refine_ls_wR_factor_ref           0.1534
_refine_special_details            ?
_olex2_refinement_description
;
1. Fixed Uiso
 At 1.2 times of:
  All C(H) groups, All N(H) groups
 At 1.5 times of:
  All C(H,H,H) groups
2.a Aromatic/amide H refined with riding coordinates:
 N8(H8), C00B(H00D), C10(H10)
2.b Idealised Me refined as rotating group:
 C00A(H00A,H00B,H00C)
;
_atom_sites_solution_hydrogens     geom
_atom_sites_solution_primary       dual
_atom_sites_solution_secondary     ?
loop_
  _atom_site_label
  _atom_site_type_symbol
  _atom_site_fract_x
  _atom_site_fract_y
  _atom_site_fract_z
  _atom_site_U_iso_or_equiv
  _atom_site_adp_type
  _atom_site_occupancy
  _atom_site_site_symmetry_order
  _atom_site_calc_flag
  _atom_site_refinement_flags_posn
  _atom_site_refinement_flags_adp
  _atom_site_refinement_flags_occupancy
  _atom_site_disorder_assembly
  _atom_site_disorder_group
 Zn01 Zn 0.5000 0.45301(2) 1.2500 0.01055(12) Uani 1 2 d S T P . .
 O4 O 0.55008(8) 0.53658(9) 1.0806(3) 0.0134(3) Uani 1 1 d . . . . .
 O5 O 0.64552(9) 0.55662(10) 1.2702(3) 0.0191(3) Uani 1 1 d . . . . .
 N004 N 0.64185(9) 0.72008(11) 0.7033(3) 0.0153(3) Uani 1 1 d . . . . .
 N9 N 0.72480(10) 0.80994(11) 0.7060(3) 0.0174(4) Uani 1 1 d . . . . .
 N6 N 0.57274(9) 0.63260(10) 0.7379(3) 0.0144(3) Uani 1 1 d . . . . .
 N8 N 0.74183(10) 0.86756(11) 0.5636(3) 0.0174(4) Uani 1 1 d . . . . .
 H8 H 0.7760 0.8963 0.5918 0.021 Uiso 1 1 calc R U . . .
 N5 N 0.58819(9) 0.68819(11) 0.5993(3) 0.0159(4) Uani 1 1 d . . . . .
 C009 C 0.61508(10) 0.62805(12) 0.9278(4) 0.0138(4) Uani 1 1 d . . . . .
 C00A C 0.71056(15) 0.93725(15) 0.1947(5) 0.0255(5) Uani 1 1 d . . . . .
 H00A H 0.6780 0.9775 0.2030 0.038 Uiso 1 1 calc R U . . .
 H00B H 0.7070 0.9135 0.0400 0.038 Uiso 1 1 calc R U . . .
 H00C H 0.7527 0.9605 0.2236 0.038 Uiso 1 1 calc R U . . .
 C00B C 0.66001(11) 0.68439(13) 0.9062(4) 0.0167(4) Uani 1 1 d . . . . .
 H00D H 0.6958 0.6958 1.0100 0.020 Uiso 1 1 calc R U . . .
 C00C C 0.60497(10) 0.56933(12) 1.1114(4) 0.0129(4) Uani 1 1 d . . . . .
 C00D C 0.67203(11) 0.78294(12) 0.5985(4) 0.0155(4) Uani 1 1 d . . . . .
 C00E C 0.70118(12) 0.87641(13) 0.3743(4) 0.0176(4) Uani 1 1 d . . . . .
 C10 C 0.65376(12) 0.82150(14) 0.3897(4) 0.0200(4) Uani 1 1 d . . . . .
 H10 H 0.6178 0.8122 0.2850 0.024 Uiso 1 1 calc R U . . .

loop_
  _atom_site_aniso_label
  _atom_site_aniso_U_11
  _atom_site_aniso_U_22
  _atom_site_aniso_U_33
  _atom_site_aniso_U_23
  _atom_site_aniso_U_13
  _atom_site_aniso_U_12
 Zn01 0.00826(18) 0.01035(17) 0.01282(19) 0.000 -0.00070(12) 0.000
 O4 0.0104(7) 0.0146(6) 0.0149(7) 0.0012(5) 0.0001(6) -0.0030(5)
 O5 0.0152(8) 0.0230(8) 0.0183(8) 0.0047(6) -0.0044(6) -0.0061(6)
 N004 0.0140(8) 0.0154(8) 0.0159(8) 0.0025(6) -0.0019(7) -0.0045(6)
 N9 0.0166(9) 0.0171(8) 0.0182(9) 0.0030(7) -0.0010(7) -0.0059(7)
 N6 0.0125(8) 0.0135(8) 0.0169(8) 0.0016(6) -0.0006(7) -0.0013(6)
 N8 0.0175(9) 0.0163(8) 0.0185(9) 0.0018(6) 0.0010(7) -0.0067(7)
 N5 0.0133(8) 0.0148(8) 0.0193(9) 0.0025(6) -0.0017(7) -0.0044(6)
 C009 0.0115(9) 0.0147(8) 0.0150(9) 0.0007(7) -0.0006(7) -0.0019(7)
 C00A 0.0342(15) 0.0197(10) 0.0228(12) 0.0059(9) 0.0037(10) -0.0047(10)
 C00B 0.0155(10) 0.0173(9) 0.0166(10) 0.0026(7) -0.0030(8) -0.0049(8)
 C00C 0.0120(9) 0.0125(8) 0.0144(9) 0.0002(7) 0.0015(7) -0.0025(7)
 C00D 0.0154(10) 0.0149(9) 0.0158(9) 0.0016(7) -0.0010(8) -0.0042(7)
 C00E 0.0199(11) 0.0156(9) 0.0173(10) 0.0011(7) 0.0016(8) -0.0029(8)
 C10 0.0211(11) 0.0193(10) 0.0187(10) 0.0043(8) -0.0043(8) -0.0048(8)

_geom_special_details
;
 All esds (except the esd in the dihedral angle between two l.s. planes)
 are estimated using the full covariance matrix.  The cell esds are taken
 into account individually in the estimation of esds in distances, angles
 and torsion angles; correlations between esds in cell parameters are only
 used when they are defined by crystal symmetry.  An approximate (isotropic)
 treatment of cell esds is used for estimating esds involving l.s. planes.
;
loop_
  _geom_bond_atom_site_label_1
  _geom_bond_atom_site_label_2
  _geom_bond_distance
  _geom_bond_site_symmetry_2
  _geom_bond_publ_flag
 Zn01 O4 2.0733(16) . ?
 Zn01 O4 2.1202(16) 5_667 ?
 Zn01 O4 2.0733(15) 2_657 ?
 Zn01 O4 2.1202(16) 6_566 ?
 Zn01 N6 2.1344(18) 5_667 ?
 Zn01 N6 2.1344(18) 6_566 ?
 O4 Zn01 2.1202(16) 5_667 ?
 O4 C00C 1.290(3) . ?
 O5 C00C 1.227(3) . ?
 N004 N5 1.359(3) . ?
 N004 C00B 1.353(3) . ?
 N004 C00D 1.415(3) . ?
 N9 N8 1.354(3) . ?
 N9 C00D 1.320(3) . ?
 N6 Zn01 2.1345(18) 5_667 ?
 N6 N5 1.305(2) . ?
 N6 C009 1.365(3) . ?
 N8 H8 0.8800 . ?
 N8 C00E 1.348(3) . ?
 C009 C00B 1.369(3) . ?
 C009 C00C 1.491(3) . ?
 C00A H00A 0.9800 . ?
 C00A H00B 0.9800 . ?
 C00A H00C 0.9800 . ?
 C00A C00E 1.497(3) . ?
 C00B H00D 0.9500 . ?
 C00D C10 1.404(3) . ?
 C00E C10 1.385(3) . ?
 C10 H10 0.9500 . ?

loop_
  _geom_angle_atom_site_label_1
  _geom_angle_atom_site_label_2
  _geom_angle_atom_site_label_3
  _geom_angle
  _geom_angle_site_symmetry_1
  _geom_angle_site_symmetry_3
  _geom_angle_publ_flag
 O4 Zn01 O4 92.03(9) . 2_657 ?
 O4 Zn01 O4 97.30(6) 2_657 5_667 ?
 O4 Zn01 O4 75.84(7) . 5_667 ?
 O4 Zn01 O4 97.30(6) . 6_566 ?
 O4 Zn01 O4 75.84(7) 2_657 6_566 ?
 O4 Zn01 O4 170.29(8) 6_566 5_667 ?
 O4 Zn01 N6 76.98(7) 6_566 6_566 ?
 O4 Zn01 N6 94.08(7) . 6_566 ?
 O4 Zn01 N6 76.98(7) 5_667 5_667 ?
 O4 Zn01 N6 94.09(7) 2_657 5_667 ?
 O4 Zn01 N6 152.68(7) 2_657 6_566 ?
 O4 Zn01 N6 110.02(7) 6_566 5_667 ?
 O4 Zn01 N6 152.68(7) . 5_667 ?
 O4 Zn01 N6 110.02(7) 5_667 6_566 ?
 N6 Zn01 N6 92.59(10) 5_667 6_566 ?
 Zn01 O4 Zn01 104.16(7) . 5_667 ?
 C00C O4 Zn01 118.11(13) . 5_667 ?
 C00C O4 Zn01 136.32(14) . . ?
 N5 N004 C00D 120.53(18) . . ?
 C00B N004 N5 111.89(18) . . ?
 C00B N004 C00D 127.57(19) . . ?
 C00D N9 N8 103.04(18) . . ?
 N5 N6 Zn01 137.74(15) . 5_667 ?
 N5 N6 C009 110.83(18) . . ?
 C009 N6 Zn01 111.43(14) . 5_667 ?
 N9 N8 H8 123.4 . . ?
 C00E N8 N9 113.14(19) . . ?
 C00E N8 H8 123.4 . . ?
 N6 N5 N004 105.31(17) . . ?
 N6 C009 C00B 107.72(19) . . ?
 N6 C009 C00C 119.31(18) . . ?
 C00B C009 C00C 133.0(2) . . ?
 H00A C00A H00B 109.5 . . ?
 H00A C00A H00C 109.5 . . ?
 H00B C00A H00C 109.5 . . ?
 C00E C00A H00A 109.5 . . ?
 C00E C00A H00B 109.5 . . ?
 C00E C00A H00C 109.5 . . ?
 N004 C00B C009 104.25(19) . . ?
 N004 C00B H00D 127.9 . . ?
 C009 C00B H00D 127.9 . . ?
 O4 C00C C009 111.89(19) . . ?
 O5 C00C O4 126.6(2) . . ?
 O5 C00C C009 121.5(2) . . ?
 N9 C00D N004 117.4(2) . . ?
 N9 C00D C10 114.0(2) . . ?
 C10 C00D N004 128.6(2) . . ?
 N8 C00E C00A 122.1(2) . . ?
 N8 C00E C10 106.9(2) . . ?
 C10 C00E C00A 131.0(2) . . ?
 C00D C10 H10 128.5 . . ?
 C00E C10 C00D 102.9(2) . . ?
 C00E C10 H10 128.5 . . ?

loop_
  _geom_torsion_atom_site_label_1
  _geom_torsion_atom_site_label_2
  _geom_torsion_atom_site_label_3
  _geom_torsion_atom_site_label_4
  _geom_torsion
  _geom_torsion_site_symmetry_1
  _geom_torsion_site_symmetry_2
  _geom_torsion_site_symmetry_3
  _geom_torsion_site_symmetry_4
  _geom_torsion_publ_flag
 Zn01 O4 C00C O5 -0.1(4) . . . . ?
 Zn01 O4 C00C O5 -164.07(19) 5_667 . . . ?
 Zn01 O4 C00C C009 -179.37(14) . . . . ?
 Zn01 O4 C00C C009 16.6(2) 5_667 . . . ?
 Zn01 N6 N5 N004 -179.88(17) 5_667 . . . ?
 Zn01 N6 C009 C00B 179.79(15) 5_667 . . . ?
 Zn01 N6 C009 C00C -1.7(2) 5_667 . . . ?
 N004 C00D C10 C00E -179.1(2) . . . . ?
 N9 N8 C00E C00A 179.4(2) . . . . ?
 N9 N8 C00E C10 0.1(3) . . . . ?
 N9 C00D C10 C00E 0.3(3) . . . . ?
 N6 C009 C00B N004 0.2(2) . . . . ?
 N6 C009 C00C O4 -9.7(3) . . . . ?
 N6 C009 C00C O5 171.0(2) . . . . ?
 N8 N9 C00D N004 179.23(19) . . . . ?
 N8 N9 C00D C10 -0.3(3) . . . . ?
 N8 C00E C10 C00D -0.2(3) . . . . ?
 N5 N004 C00B C009 -0.2(3) . . . . ?
 N5 N004 C00D N9 -178.4(2) . . . . ?
 N5 N004 C00D C10 1.0(4) . . . . ?
 N5 N6 C009 C00B -0.1(3) . . . . ?
 N5 N6 C009 C00C 178.44(18) . . . . ?
 C009 N6 N5 N004 0.0(2) . . . . ?
 C00A C00E C10 C00D -179.5(3) . . . . ?
 C00B N004 N5 N6 0.2(3) . . . . ?
 C00B N004 C00D N9 1.4(4) . . . . ?
 C00B N004 C00D C10 -179.2(2) . . . . ?
 C00B C009 C00C O4 168.4(2) . . . . ?
 C00B C009 C00C O5 -10.9(4) . . . . ?
 C00C C009 C00B N004 -178.1(2) . . . . ?
 C00D N004 N5 N6 180.00(19) . . . . ?
 C00D N004 C00B C009 180.0(2) . . . . ?
 C00D N9 N8 C00E 0.1(3) . . . . ?

_smtbx_masks_special_details       ?
loop_
  _smtbx_masks_void_nr
  _smtbx_masks_void_average_x
  _smtbx_masks_void_average_y
  _smtbx_masks_void_average_z
  _smtbx_masks_void_volume
  _smtbx_masks_void_count_electrons
  _smtbx_masks_void_content
 1 0.000 0.500 -0.900 276.2 161.4 '4 DMF'
 2 0.500 0.000 -0.059 276.2 161.4 '4 DMF'

_smtbx_masks_void_probe_radius     1.2
_smtbx_masks_void_truncation_radius  1.2
_shelx_res_file
;
    oav-267.res created by SHELXL-2014/7

TITL oav-267_a.res in C2/c
REM Old TITL oav-276 in Cc
REM SHELXT solution in C2/c
REM R1 0.091, Rweak 0.008, Alpha 0.034, Orientation as input
REM Formula found by SHELXT: C22 N2 O4 Zn
CELL 0.71073 21.123 17.2281 5.7698 90 94.182 90
ZERR 8 0.0005 0.0004 0.0001 0 0.001 0
LATT 7
SYMM -X,+Y,0.5-Z
SFAC C H N O Zn
UNIT 80 104 48 24 4

L.S. 4 0 0
PLAN  1
TEMP -123.15
CONF
list 4
fmap 2 53
ACTA
MORE -1
BOND $H
ABIN
REM <olex2.extras>
REM <HklSrc "%.\\oav-267.hkl">
REM </olex2.extras>

WGHT    0.075900    1.925500
FVAR       0.22868
ZN01  5    0.500000    0.453005    1.250000    10.50000    0.00826    0.01035 =
         0.01282    0.00000   -0.00070    0.00000
O4    4    0.550083    0.536578    1.080594    11.00000    0.01038    0.01464 =
         0.01492    0.00123    0.00011   -0.00296
O5    4    0.645518    0.556618    1.270168    11.00000    0.01520    0.02297 =
         0.01834    0.00474   -0.00445   -0.00608
N004  3    0.641852    0.720079    0.703261    11.00000    0.01399    0.01541 =
         0.01592    0.00245   -0.00186   -0.00451
N9    3    0.724803    0.809936    0.705997    11.00000    0.01659    0.01711 =
         0.01818    0.00304   -0.00104   -0.00592
N6    3    0.572738    0.632597    0.737950    11.00000    0.01246    0.01354 =
         0.01689    0.00156   -0.00057   -0.00134
N8    3    0.741831    0.867559    0.563586    11.00000    0.01750    0.01630 =
         0.01845    0.00183    0.00101   -0.00665
AFIX  43
H8    2    0.775962    0.896308    0.591758    11.00000   -1.20000
AFIX   0
N5    3    0.588194    0.688187    0.599289    11.00000    0.01327    0.01476 =
         0.01926    0.00252   -0.00174   -0.00444
C009  1    0.615081    0.628054    0.927761    11.00000    0.01149    0.01468 =
         0.01496    0.00074   -0.00057   -0.00190
C00A  1    0.710559    0.937245    0.194719    11.00000    0.03417    0.01966 =
         0.02284    0.00589    0.00373   -0.00472
AFIX 137
H00A  2    0.678046    0.977527    0.203045    11.00000   -1.50000
H00B  2    0.707043    0.913509    0.039958    11.00000   -1.50000
H00C  2    0.752727    0.960526    0.223613    11.00000   -1.50000
AFIX   0
C00B  1    0.660006    0.684391    0.906183    11.00000    0.01552    0.01730 =
         0.01665    0.00258   -0.00302   -0.00488
AFIX  43
H00D  2    0.695771    0.695812    1.010041    11.00000   -1.20000
AFIX   0
C00C  1    0.604975    0.569326    1.111352    11.00000    0.01197    0.01248 =
         0.01436    0.00023    0.00151   -0.00248
C00D  1    0.672025    0.782944    0.598464    11.00000    0.01544    0.01486 =
         0.01578    0.00156   -0.00100   -0.00420
C00E  1    0.701182    0.876409    0.374259    11.00000    0.01989    0.01565 =
         0.01732    0.00111    0.00157   -0.00292
C10   1    0.653765    0.821498    0.389748    11.00000    0.02112    0.01929 =
         0.01872    0.00434   -0.00429   -0.00485
AFIX  43
H10   2    0.617757    0.812207    0.284972    11.00000   -1.20000
AFIX   0
HKLF 4

REM  oav-267_a.res in C2/c
REM R1 =  0.0375 for    3179 Fo > 4sig(Fo)  and  0.0450 for all    3508 data
REM    133 parameters refined using      0 restraints

END

WGHT      0.0759      1.9255

REM Highest difference peak  0.730,  deepest hole -0.895,  1-sigma level  0.280
Q1    1   0.5878  0.8326  0.3032  11.00000  0.05    0.73
;
_shelx_res_checksum                6936
_shelx_hkl_file
;
   2   0   0  302.87   11.70
  -4   0   0  110.69    4.80
   4   0   0  104.99    4.70
  -4   0   0  114.69    4.70
   4   0   0  107.99    4.70
  -6   0   0  466.85   18.80
   6   0   0  473.65   18.80
   6   0   0  492.75   18.70
  -8   0   0  528.25   20.90
   8   0   0  524.95   20.70
   8   0   0  511.05   20.80
  -8   0   0  532.05   20.70
 -10   0   0   12.60    1.70
 -10   0   0   12.80    1.90
  10   0   0   15.30    2.00
 -12   0   0  522.55   21.60
  12   0   0  519.65   21.30
 -12   0   0  523.15   21.20
  14   0   0  831.92   33.30
 -14   0   0  834.32   33.60
  16   0   0   51.99    3.90
 -16   0   0   49.50    4.80
  18   0   0  294.97   14.00
 -18   0   0  303.07   14.60
 -20   0   0  423.86   19.60
  20   0   0  418.66   19.00
  22   0   0   75.59    5.80
 -22   0   0   79.59    6.30
 -24   0   0   73.09    6.40
  24   0   0   71.49    5.80
 -26   0   0  118.99    8.90
  26   0   0  105.79    7.90
  28   0   0   84.89    7.30
 -28   0   0  103.99   12.60
 -30   0   0   28.70    5.50
  -1  -1   0    0.00    0.10
   3   1   0  354.06   13.60
   5  -1   0  603.04   23.10
   5   1   0  592.74   23.00
   7  -1   0 1268.87   53.69
  -7  -1   0 1304.07   53.29
  -7  -1   0 1257.97   54.19
  -7   1   0 1294.37   53.69
   7   1   0 1303.57   54.19
  -7   1   0 1282.37   54.69
   7   1   0 1244.08   53.69
  -9  -1   0   53.59    3.10
   9  -1   0   46.00    3.10
  -9  -1   0   47.50    3.10
   9  -1   0   50.59    3.10
  -9   1   0   49.80    3.00
  -9   1   0   48.20    3.20
   9   1   0   51.49    3.10
 -11  -1   0  221.68    9.90
  11  -1   0  233.68   10.10
 -11  -1   0  233.28   10.30
 -11   1   0  201.58    9.90
 -11   1   0  218.38   10.20
  11   1   0  232.88   10.00
 -13  -1   0  265.47   12.10
 -13  -1   0  260.67   11.60
  13  -1   0  263.27   11.80
 -13   1   0  250.27   11.90
  13   1   0  263.87   11.70
 -15  -1   0  247.68   12.80
  15  -1   0  231.68   11.20
 -15   1   0  235.48   11.60
  15   1   0  240.38   11.20
 -17  -1   0  206.48   10.80
  17  -1   0  199.58   10.40
 -17   1   0  218.68   11.40
  17   1   0  205.78   10.30
 -19  -1   0  285.87   13.80
  19  -1   0  253.17   13.00
  19   1   0  270.97   13.10
 -19   1   0  279.47   13.80
  21  -1   0  212.18   11.50
 -21  -1   0  227.78   12.20
 -21   1   0  226.18   12.10
  21   1   0  205.78   11.20
 -23  -1   0   72.69    6.30
  23  -1   0   71.99    5.80
 -23   1   0   78.79    6.40
  23   1   0   72.89    5.70
  25  -1   0   54.59    6.50
 -25  -1   0   49.99    6.90
  25   1   0   60.99    6.80
 -25   1   0   55.09    7.20
 -27  -1   0  128.99   10.70
  27  -1   0  149.09    9.70
  27   1   0  154.28    9.70
 -29  -1   0   37.50    6.30
 -29   1   0   33.40    6.10
  -2  -2   0    0.00    0.10
  -4  -2   0 1153.88   49.00
   4  -2   0 1242.28   49.70
  -4   2   0 1234.08   48.90
   4   2   0 1260.17   49.30
  -4   2   0 1253.57   49.80
   4   2   0 1155.58   48.40
  -6  -2   0   37.40    2.30
  -6  -2   0   34.50    2.20
   6  -2   0   38.70    2.40
   6  -2   0   36.90    2.20
  -6   2   0   40.10    2.40
   6   2   0   33.00    2.20
  -6   2   0   43.10    2.30
   6   2   0   35.80    2.20
   8  -2   0   95.59    4.60
  -8  -2   0   94.19    4.60
  -8  -2   0   85.79    4.60
   8  -2   0   88.29    4.80
  -8   2   0   92.59    4.50
  -8   2   0   88.19    4.70
   8   2   0   88.79    4.50
  10  -2   0  216.28    9.80
 -10  -2   0  208.78    9.80
 -10  -2   0  212.58    9.50
  10  -2   0  228.68    9.70
  10   2   0  214.08   11.10
 -10   2   0  217.18    9.90
 -12  -2   0    7.20    1.50
 -12  -2   0    5.70    1.30
  12  -2   0   12.40    2.00
  12   2   0    9.50    1.60
 -12   2   0    8.80    1.70
  14  -2   0  123.89    6.50
 -14  -2   0  111.69    6.20
 -14  -2   0  124.19    9.40
 -14   2   0  119.69    6.70
  14   2   0  106.39    6.10
  16  -2   0  400.26   16.60
 -16  -2   0  371.06   16.80
 -16   2   0  347.87   16.60
  16   2   0  355.06   16.10
 -18  -2   0  187.18   10.30
  18  -2   0  185.48   10.00
  18   2   0  200.38   10.00
 -18   2   0  199.88   10.80
  20  -2   0  340.17   15.90
 -20  -2   0  351.46   16.60
  20   2   0  312.27   15.50
 -20   2   0  338.87   16.40
  22  -2   0   76.09    8.70
  22   2   0   75.29    5.70
 -22   2   0   67.29    5.90
  24  -2   0   37.90    4.50
  24   2   0   33.10    4.80
 -24   2   0   44.70    6.10
 -26  -2   0   34.80    5.00
  26  -2   0   45.10    5.90
 -26   2   0   31.00    4.80
  26   2   0   42.30    5.40
 -28  -2   0   54.19    7.30
  28  -2   0   58.79    5.80
 -28   2   0   45.70    6.30
 -30  -2   0   15.60    4.40
 -30   2   0   17.00    4.60
  -1  -3   0  243.48    9.20
  -1  -3   0  235.38    9.20
   1  -3   0  239.58    9.30
  -1   3   0  231.58    9.20
   1   3   0  237.38    9.20
  -1   3   0  236.48    9.20
   1   3   0  242.78    9.20
  -3  -3   0  235.78    9.50
   3  -3   0  245.58    9.60
   3   3   0  233.58    9.70
   3   3   0  241.08    9.40
  -3   3   0  239.38    9.60
  -3   3   0  245.28    9.50
   5  -3   0 2255.47   92.99
   5  -3   0 2411.46   92.59
  -5   3   0 2399.06   93.29
   5   3   0 2296.27   91.99
  -5   3   0 2361.66   92.19
   5   3   0 2405.46   91.79
  -7  -3   0  330.87   13.50
  -7  -3   0  330.97   13.30
   7  -3   0  344.57   13.40
   7   3   0  319.27   13.20
  -7   3   0  310.97   13.50
  -7   3   0  329.97   13.30
  -9  -3   0  208.68    9.30
   9  -3   0  210.58    9.10
   9  -3   0  186.58    9.20
   9   3   0  212.28    9.00
  -9   3   0  208.38    9.30
  11  -3   0   33.90    2.60
  11  -3   0   28.80    2.50
 -11  -3   0   29.80    2.40
 -11  -3   0   26.80    2.50
 -11   3   0   32.50    2.70
  11   3   0   31.60    2.40
  13  -3   0  102.19    5.70
 -13   3   0   92.19    5.70
  13   3   0  109.89    6.80
 -15  -3   0   18.70    2.80
 -15  -3   0   13.60    1.90
  15  -3   0   16.00    2.50
 -15   3   0   20.30    3.00
  15   3   0   19.70    2.50
  17  -3   0  204.98   10.20
  17   3   0  191.58    9.90
 -17   3   0  199.78   10.50
 -19  -3   0  137.89    8.50
  19  -3   0  141.29    8.40
  19   3   0  132.49    7.70
 -19   3   0  132.59    8.50
 -21  -3   0  218.78   12.00
  21  -3   0  204.18   11.20
  21   3   0  207.18   11.00
 -21   3   0  203.88   11.50
  23  -3   0   27.00    4.10
 -23  -3   0   19.00    3.40
  23   3   0   22.50    3.60
 -23   3   0   36.30    5.20
 -25  -3   0   12.60    3.40
  25  -3   0   11.70    2.70
 -25   3   0   12.20    3.40
  25   3   0   11.10    2.80
 -27  -3   0   14.40    4.00
  27  -3   0   13.30    3.50
 -27   3   0    9.30    3.00
  29  -3   0   16.50    3.90
 -29  -3   0   19.70    4.60
 -29   3   0   13.20    3.40
   0  -4   0  140.09    5.60
   0  -4   0  141.09    5.60
   0   4   0  135.49    5.50
   0   4   0  129.09    5.50
  -2  -4   0  335.57   12.90
  -2  -4   0  332.17   12.90
   2  -4   0  323.97   13.00
   2   4   0  313.67   12.80
   2   4   0  347.67   12.90
  -2   4   0  328.87   12.90
  -2   4   0  350.86   13.00
   4  -4   0    2.90    0.60
  -4  -4   0    2.90    0.60
  -4  -4   0    2.20    0.50
   4   4   0    1.90    0.50
   4   4   0    3.20    0.60
  -4   4   0    1.80    0.50
  -4   4   0    2.30    0.60
  -6  -4   0  855.01   34.40
   6   4   0  938.11   34.20
  -8  -4   0    2.30    0.70
  -8  -4   0    2.60    0.90
   8  -4   0    2.80    0.80
   8  -4   0    2.40    0.70
  -8   4   0    0.70    0.50
   8   4   0    2.90    0.80
  10  -4   0   30.10    2.50
 -10  -4   0   34.40    2.50
  10  -4   0   27.20    2.40
 -10   4   0   35.00    2.70
  10   4   0   31.40    2.30
 -12  -4   0   16.70    2.20
 -12   4   0   19.90    2.60
  12   4   0   17.40    2.10
 -14  -4   0   58.39    4.10
  14  -4   0   61.49    4.20
 -14  -4   0   59.59    4.40
  14   4   0   65.89    4.10
 -14   4   0   56.19    4.20
 -16  -4   0    1.80    1.10
  16  -4   0    5.70    1.80
 -16  -4   0    2.80    1.10
  16   4   0    3.40    1.40
 -16   4   0    7.80    1.90
 -18  -4   0   66.29    5.20
  18  -4   0   58.09    4.70
 -18   4   0   56.49    4.80
  18   4   0   64.39    4.60
  20  -4   0   40.50    4.00
 -20  -4   0   34.50    4.60
 -20   4   0   50.69    5.90
  20   4   0   47.40    4.10
  22  -4   0  206.58   11.70
 -22  -4   0  242.28   12.80
  22   4   0  201.58   11.20
 -22   4   0  219.08   12.20
  24  -4   0    3.30    1.70
 -24  -4   0    5.80    2.30
 -24   4   0    7.40    2.60
  24   4   0    6.20    2.10
  26  -4   0    2.70    1.70
 -26  -4   0    1.90    1.80
 -26   4   0    4.10    2.20
  28  -4   0    4.20    2.10
 -28  -4   0    6.00    2.70
 -28   4   0    2.80    2.10
 -30  -4   0    0.50    1.50
  30  -4   0    2.90    2.10
 -30   4   0    0.50    1.60
  -1  -5   0   31.10    1.70
   1  -5   0   29.60    1.70
  -1  -5   0   27.90    1.70
   1  -5   0   34.60    1.80
  -1   5   0   27.60    1.60
  -1   5   0   30.90    1.70
   1   5   0   28.40    1.60
   1   5   0   29.90    1.60
  -3  -5   0   59.09    3.00
   3  -5   0   64.19    3.10
  -3  -5   0   62.49    3.10
   3   5   0   65.59    2.90
  -3   5   0   63.59    3.10
   3   5   0   60.29    2.90
  -3   5   0   63.09    3.10
  -5  -5   0   62.09    3.20
   5  -5   0   63.99    3.40
   5  -5   0   64.49    3.30
  -5  -5   0   60.69    3.20
   5   5   0   59.79    3.10
  -5   5   0   62.39    3.30
  -7  -5   0    0.00    0.40
   7  -5   0    0.70    0.50
   7  -5   0    0.10    0.40
  -7  -5   0    0.00    0.10
  -7   5   0    0.00    0.40
   7   5   0    0.20    0.30
  -9  -5   0    5.80    1.30
   9  -5   0    3.90    1.00
   9  -5   0    5.60    1.40
   9   5   0    5.60    1.10
  -9   5   0    5.50    1.20
 -11  -5   0    3.30    1.00
  11  -5   0    4.20    1.20
  11  -5   0    4.00    1.00
 -11  -5   0    3.80    1.20
 -11   5   0    4.00    1.20
  11   5   0    3.70    1.00
 -13  -5   0    0.00    0.50
 -13  -5   0    0.70    0.70
  13  -5   0    1.40    0.80
 -13   5   0    1.90    1.00
  13   5   0    2.60    1.00
 -15  -5   0   48.50    4.00
 -15  -5   0   42.30    3.50
  15  -5   0   51.59    4.60
  15   5   0   51.49    3.70
 -15   5   0   53.49    4.10
 -17  -5   0   76.29    5.20
 -17  -5   0   75.99    5.70
  17  -5   0   85.39    5.60
 -17   5   0   87.39    5.80
  17   5   0   78.69    5.20
  19  -5   0    0.50    0.80
 -19  -5   0    2.40    1.20
  19   5   0    2.30    1.20
 -19   5   0    2.30    1.10
  21  -5   0   78.29    6.00
 -21  -5   0   80.19    6.50
  21   5   0   84.99    6.00
 -21   5   0   83.29    6.40
 -23  -5   0    6.30    2.60
  23  -5   0    6.60    2.30
 -23   5   0    5.10    2.10
 -25  -5   0   14.10    3.30
  25  -5   0   14.80    3.50
  27  -5   0   50.99    6.40
 -27  -5   0   42.70    6.40
 -27   5   0   41.90    6.20
 -29  -5   0   -0.10    1.50
  29  -5   0   -0.60    1.10
 -29   5   0   -0.40    1.30
   0  -6   0   10.00    1.20
   0  -6   0   10.30    1.00
   0   6   0    9.00    0.80
   2  -6   0   21.20    1.50
   2  -6   0   22.50    1.50
  -2  -6   0   21.40    1.50
  -2  -6   0   20.60    1.70
   2   6   0   22.50    1.40
  -2   6   0   22.20    1.50
   4  -6   0    4.20    0.80
  -4  -6   0    4.60    0.80
  -4  -6   0    4.30    0.80
  -4   6   0    4.10    0.80
   4   6   0    5.10    0.80
   6  -6   0  156.08    7.30
  -6  -6   0  159.78    7.20
  -6  -6   0  159.48    7.00
   6  -6   0  148.79    7.10
  -6   6   0  164.78    7.30
   6   6   0  164.78    6.90
  -8  -6   0  113.39    5.70
   8  -6   0  107.99    5.80
   8  -6   0  111.99    5.70
  -8   6   0  113.99    5.80
   8   6   0  121.89    5.50
 -10  -6   0  133.19    6.80
  10  -6   0  127.49    6.80
  10  -6   0  134.69    6.70
 -10   6   0  135.49    6.90
  10   6   0  132.39    6.40
  12  -6   0   44.20    3.30
 -12  -6   0   38.70    2.90
 -12  -6   0   34.80    3.10
 -12   6   0   40.70    3.30
  12   6   0   37.60    2.80
 -14  -6   0    8.90    1.90
  14  -6   0    9.10    1.70
 -14  -6   0   14.30    2.20
 -14   6   0   11.70    2.30
  14   6   0   14.10    2.10
 -16  -6   0   45.50    4.00
 -16  -6   0   41.20    3.50
  16  -6   0   42.00    3.70
  16   6   0   43.50    3.50
 -16   6   0   44.80    3.90
 -18  -6   0    1.10    0.90
  18  -6   0    1.80    1.10
 -18  -6   0    2.60    1.60
 -18   6   0    1.30    1.10
  18   6   0    4.50    1.60
  20  -6   0   15.70    2.80
 -20  -6   0   29.20    4.60
 -20   6   0   25.60    4.10
  20   6   0   27.00    3.70
  22  -6   0    7.80    2.10
 -22  -6   0    7.00    2.20
  22   6   0   12.10    2.80
 -22   6   0   10.70    2.70
 -24  -6   0    0.00    1.10
  24  -6   0    1.40    1.50
 -24   6   0    3.60    2.00
  26  -6   0    4.70    2.10
 -26  -6   0    1.00    1.50
 -26   6   0    4.60    2.00
  28  -6   0   55.69    7.30
 -28  -6   0   62.79    8.20
 -28   6   0   49.90    7.00
 -30  -6   0    6.00    2.70
  30  -6   0   15.50    4.20
   1  -7   0  290.87   11.70
  -1  -7   0  291.97   11.70
  -1  -7   0  306.57   11.70
   1  -7   0  288.27   11.80
  -1   7   0  281.57   11.50
   1   7   0  282.87   11.40
  -3  -7   0    5.20    0.90
   3  -7   0    3.70    0.80
   3  -7   0    5.40    1.00
  -3  -7   0    3.80    0.80
   3   7   0    4.60    0.70
  -3   7   0    4.10    0.80
  -5  -7   0    9.90    1.30
   5  -7   0   10.20    1.40
   5   7   0    9.00    1.10
  -5   7   0   11.50    1.50
  -7  -7   0  682.93   25.90
  -7  -7   0  645.94   26.00
   7  -7   0  638.34   26.00
   7  -7   0  678.63   26.30
   7   7   0  642.54   25.60
  -7   7   0  673.93   26.10
   9  -7   0  101.39    5.40
   9  -7   0  105.29    5.70
  -9  -7   0   95.39    5.40
  -9   7   0  104.59    5.50
   9   7   0  104.79    5.10
  11  -7   0    2.00    0.90
  11  -7   0    1.70    1.10
 -11  -7   0    1.50    0.90
  11   7   0    4.60    1.10
  13  -7   0   89.89    5.50
 -13  -7   0   94.19    5.40
 -13  -7   0   85.39    5.50
 -13   7   0   89.89    5.60
  13   7   0   92.49    5.10
  15  -7   0   43.80    3.70
 -15  -7   0   42.10    3.50
 -15  -7   0   49.99    4.10
  15   7   0   47.10    3.50
 -15   7   0   48.10    3.90
 -17  -7   0   15.10    2.40
  17  -7   0   20.30    3.10
 -17  -7   0   12.80    3.40
 -17   7   0   19.30    3.10
  17   7   0   13.10    2.30
 -19  -7   0   28.10    3.70
 -19  -7   0   24.80    3.40
  19  -7   0   28.40    4.00
  19   7   0   25.80    3.50
 -19   7   0   33.90    4.60
  21  -7   0  386.46   17.40
 -21  -7   0  345.87   17.30
  21   7   0  334.97   16.30
 -21   7   0  343.27   17.20
 -23  -7   0    2.80    1.70
  23  -7   0    1.00    1.40
 -23   7   0    0.70    1.20
  25  -7   0    5.90    2.20
 -25  -7   0    2.00    1.60
 -25   7   0    5.70    2.40
  27  -7   0    1.80    1.50
 -27  -7   0    4.90    2.40
 -27   7   0    5.50    2.80
 -29  -7   0   21.50    4.80
  29  -7   0   21.60    4.70
   0  -8   0 1268.17   53.39
   0  -8   0 1296.67   53.59
  -2  -8   0   53.79    2.90
  -2  -8   0   52.99    2.90
   2  -8   0   54.39    3.00
   2  -8   0   55.19    3.00
  -2   8   0   49.50    2.80
   2   8   0   53.79    2.70
   4  -8   0    5.80    1.10
  -4  -8   0    3.60    0.80
  -4  -8   0    4.60    0.90
   4  -8   0    3.30    0.90
   4   8   0    4.50    0.80
  -4   8   0    4.10    0.80
  -6  -8   0  575.74   22.20
   6  -8   0  529.45   22.30
   6   8   0  584.54   21.90
  -6   8   0  552.94   22.30
  -8  -8   0  170.98    8.40
   8  -8   0  196.48    8.60
  -8  -8   0  174.88    8.20
   8  -8   0  181.68    8.70
   8   8   0  198.18    9.60
  -8   8   0  187.28    8.60
  10  -8   0   44.90    3.40
  10  -8   0   43.20    3.20
 -10  -8   0   42.00    3.20
  10   8   0   45.80    3.00
 -10   8   0   44.40    3.30
  12  -8   0  158.88    8.10
 -12  -8   0  159.68    8.20
  12  -8   0  154.78    8.30
  12   8   0  166.58    7.80
 -12   8   0  159.68    8.30
 -14  -8   0  262.27   12.30
  14  -8   0  267.87   12.60
 -14  -8   0  270.47   12.70
  14   8   0  262.77   12.00
 -14   8   0  278.47   12.80
 -16  -8   0   82.69    5.40
 -16  -8   0   91.29    6.00
  16  -8   0   85.49    5.70
  16   8   0   83.49    5.20
 -16   8   0   84.79    5.80
 -18  -8   0  182.58   10.10
  18  -8   0  187.08    9.90
 -18  -8   0  181.28    9.50
  18   8   0  168.68    9.10
 -18   8   0  171.78    9.80
  20  -8   0  171.18    9.80
 -20  -8   0  159.88    9.30
 -20  -8   0  176.38   10.20
  20   8   0  168.08    9.20
 -20   8   0  177.98   10.10
 -22  -8   0  169.08   10.40
  22  -8   0  173.38   10.20
 -22   8   0  158.38   10.10
 -24  -8   0   16.90    3.90
  24  -8   0    7.90    2.40
 -24   8   0    5.20    2.50
 -26  -8   0   16.10    3.80
  26  -8   0   22.50    4.40
 -26   8   0   17.50    4.20
 -28  -8   0   11.90    3.60
  28  -8   0   10.90    3.40
  -1  -9   0  565.14   22.20
  -1  -9   0  557.74   22.20
   1  -9   0  591.64   22.30
   1  -9   0  564.74   22.20
   1   9   0  568.24   21.80
  -1   9   0  545.55   21.80
  -3  -9   0  227.68    9.60
   3  -9   0  242.38   10.60
   3  -9   0  221.08    9.70
   3   9   0  218.18    9.10
  -3   9   0  214.38    9.40
   5  -9   0  377.36   15.00
  -5  -9   0  341.97   14.80
  -5  -9   0  354.66   14.80
   5   9   0  357.46   14.30
  -5   9   0  376.76   14.90
  -7  -9   0  268.07   11.80
   7  -9   0  297.47   12.20
  -7  -9   0  276.17   12.00
  -7   9   0  276.77   12.00
   7   9   0  276.07   11.50
  -9  -9   0   59.69    4.10
   9  -9   0   69.59    4.20
  -9  -9   0   66.49    3.90
   9  -9   0   68.79    4.40
   9   9   0   68.19    3.80
  -9   9   0   67.29    4.20
 -11  -9   0  372.96   16.40
  11  -9   0  354.36   16.50
  11  -9   0  370.96   16.30
 -11   9   0  391.06   16.50
  11   9   0  401.96   15.80
 -13  -9   0  118.39    6.90
  13  -9   0  130.69    7.00
  13  -9   0  111.19    7.00
  13   9   0  124.69    6.40
 -13   9   0  127.39    7.10
  15  -9   0   40.00    3.60
 -15  -9   0   32.70    3.10
 -15  -9   0   26.60    3.30
 -15   9   0   33.90    3.30
  15   9   0   39.30    4.90
 -17  -9   0  150.08    8.70
 -17  -9   0  138.49    8.00
  17  -9   0  153.18    8.60
 -17   9   0  146.69    8.50
  19  -9   0  122.79    7.90
 -19  -9   0  119.29    7.50
 -19  -9   0  129.49    8.20
 -19   9   0  127.69    8.10
  21  -9   0  171.68   10.10
 -21  -9   0  171.08   10.40
 -21   9   0  164.48   10.20
  23  -9   0   59.49    5.70
 -23  -9   0   71.19    6.30
 -23   9   0   60.79    5.80
 -25  -9   0   71.29    6.70
 -27  -9   0    2.90    2.30
  27  -9   0    6.70    2.70
   0 -10   0  557.44   21.30
   0 -10   0  525.95   21.20
   0  10   0  523.75   20.70
   2 -10   0  641.84   25.40
  -2 -10   0  650.13   25.30
  -2 -10   0  642.74   25.30
   2 -10   0  643.44   25.50
  -2  10   0  650.93   25.00
   4 -10   0  370.56   15.50
   4 -10   0  390.86   15.80
  -4 -10   0  367.76   15.40
  -4 -10   0  377.86   15.40
  -6 -10   0  214.88    9.40
   6 -10   0  217.88    9.60
  -6 -10   0  202.78    9.40
  -6  10   0  211.68    9.40
  -8 -10   0  328.77   13.70
   8 -10   0  303.37   13.90
   8 -10   0  309.57   13.80
  -8 -10   0  313.77   13.40
  -8  10   0  325.27   13.70
  10 -10   0   90.39    5.40
 -10 -10   0   93.99    5.10
 -10 -10   0   83.39    5.10
  10 -10   0   74.09    4.90
  10  10   0   90.79    4.90
 -10  10   0   86.79    5.20
 -12 -10   0   59.69    4.20
  12 -10   0   75.59    4.80
  12 -10   0   62.29    4.70
 -12 -10   0   70.89    4.80
  12  10   0   70.09    4.10
 -12  10   0   73.29    4.80
 -14 -10   0  185.78    9.60
  14 -10   0  176.38    9.70
  14 -10   0  185.18    9.50
  14  10   0  185.28    8.80
 -14  10   0  172.08    9.40
  16 -10   0  329.57   14.90
 -16 -10   0  300.47   14.70
 -16 -10   0  305.67   14.30
  16  10   0  287.47   13.70
 -16  10   0  325.97   15.80
 -18 -10   0   81.99    5.80
  18 -10   0   81.89    6.00
 -18 -10   0   88.89    6.40
  18  10   0   82.19    5.40
 -18  10   0   89.79    6.30
 -20 -10   0  225.98   12.40
 -20 -10   0  218.28   11.70
  20 -10   0  223.68   12.10
 -20  10   0  223.38   12.20
  22 -10   0   33.50    4.50
 -22 -10   0   45.10    5.50
 -22  10   0   45.50    5.60
 -24 -10   0   56.59    7.00
  24 -10   0   53.69    6.90
 -24  10   0   44.90    6.00
 -26 -10   0   48.70    6.70
  26 -10   0   49.00    6.60
  28 -10   0  125.09    9.60
 -28 -10   0  121.09    9.70
   1 -11   0  818.42   32.00
  -1 -11   0  817.12   31.90
  -1 -11   0  823.52   31.90
   1 -11   0  818.42   32.00
  -3 -11   0  247.38   10.90
  -3 -11   0  266.57   11.00
   3 -11   0  257.47   11.10
   3 -11   0  248.38   11.10
  -3  11   0  248.28   10.60
  -5 -11   0   80.99    4.40
   5 -11   0   77.19    4.40
   5 -11   0   76.19    4.60
  -5 -11   0   78.09    4.30
  -5  11   0   77.49    4.20
  -7 -11   0  413.56   17.60
  -7 -11   0  420.96   17.50
   7 -11   0  435.36   17.90
  -7  11   0  430.06   17.60
   9 -11   0  144.09    7.20
  -9 -11   0  130.69    6.70
   9 -11   0  135.79    7.30
  -9 -11   0  119.99    6.80
  -9  11   0  134.99    6.90
  11 -11   0    4.10    1.50
 -11 -11   0    3.70    1.30
  11 -11   0    5.30    1.50
 -11  11   0    5.20    1.40
 -13 -11   0  215.78   10.80
  13 -11   0  236.88   11.90
 -13 -11   0  219.88   11.20
  13 -11   0  240.28   11.40
 -13  11   0  238.58   11.30
  15 -11   0  333.37   16.30
  15 -11   0  346.37   16.90
 -15 -11   0  372.76   16.60
 -15  11   0  372.96   16.50
  17 -11   0  116.09    7.40
 -17 -11   0  101.89    7.20
 -17 -11   0  117.89    7.00
 -17  11   0  123.69    7.50
 -19 -11   0  126.39    8.00
  19 -11   0  132.49    8.50
 -19 -11   0  149.09    8.90
 -19  11   0  131.29    8.50
 -21 -11   0  114.69    8.00
  21 -11   0  106.69    7.60
 -21  11   0  107.59    7.80
  23 -11   0   40.30    5.60
 -23 -11   0   36.00    5.60
  25 -11   0   15.20    3.70
 -25 -11   0    7.60    2.70
 -27 -11   0  270.37   16.20
  27 -11   0  298.57   16.40
   0 -12   0 1607.64   61.39
  -2 -12   0  135.39    6.60
   2 -12   0  125.49    6.60
   2 -12   0  137.39    6.60
  -2 -12   0  138.89    6.60
  -4 -12   0  216.38   10.00
  -4 -12   0  215.58    9.90
   4 -12   0  241.98   10.20
   4 -12   0  222.98   11.00
  -4  12   0  221.08    9.90
  -6 -12   0   87.79    4.80
   6 -12   0   82.19    5.00
   6 -12   0   81.39    4.80
  -6 -12   0   83.49    4.80
  -6  12   0   78.79    4.50
  -8 -12   0   92.19    5.20
  -8 -12   0   81.69    4.90
   8 -12   0   89.19    5.20
  10 -12   0   31.10    3.10
  10 -12   0   31.60    3.00
 -10 -12   0   40.10    3.30
 -10 -12   0   33.00    2.80
 -10  12   0   33.90    3.00
  12 -12   0   88.89    5.90
 -12 -12   0   81.09    5.80
  12 -12   0   86.09    5.60
 -12 -12   0   89.19    5.70
 -12  12   0   89.19    5.60
  14 -12   0  140.09    7.70
  14 -12   0  121.79    7.70
 -14 -12   0  134.09    7.70
 -14 -12   0  119.49    7.00
 -14  12   0  123.09    7.40
 -16 -12   0  233.88   12.60
  16 -12   0  237.48   12.00
 -16  12   0  224.38   11.80
 -18 -12   0   59.59    5.20
 -18 -12   0   59.49    4.90
  18 -12   0   64.49    5.30
 -18  12   0   64.99    5.30
  20 -12   0   81.99    7.60
 -20 -12   0   87.99    6.80
 -22 -12   0   38.30    5.10
  22 -12   0   45.50    5.90
 -24 -12   0   87.59    7.40
  24 -12   0   82.09    7.10
  26 -12   0   58.49    7.10
 -26 -12   0   58.69    7.50
  -1 -13   0  347.57   15.00
  -1 -13   0  361.56   15.00
   1 -13   0  378.26   15.10
   1 -13   0  332.87   15.00
  -3 -13   0  277.27   12.50
  -3 -13   0  291.37   12.60
   3 -13   0  280.57   12.80
   3 -13   0  306.87   12.80
  -5 -13   0   58.79    3.80
   5 -13   0   60.29    4.70
  -5 -13   0   62.39    4.00
   5 -13   0   61.79    4.00
  -7 -13   0   72.89    4.50
  -7 -13   0   81.19    4.80
   7 -13   0   80.19    4.90
  -7  13   0   73.69    4.40
  -9 -13   0    1.30    0.80
   9 -13   0    3.20    1.10
  -9 -13   0    2.80    1.20
  -9  13   0    2.40    1.00
 -11 -13   0  159.28    8.40
 -11 -13   0  173.98    8.90
  11 -13   0  171.78    8.90
  11 -13   0  165.28    9.10
 -11  13   0  174.38    8.80
 -13 -13   0   69.79    5.10
  13 -13   0   56.29    4.90
  13 -13   0   70.59    5.00
 -13 -13   0   65.49    4.60
 -13  13   0   69.19    4.90
  15 -13   0   46.30    4.30
 -15 -13   0   45.80    3.90
  15 -13   0   43.80    4.40
 -15 -13   0   61.49    5.30
 -15  13   0   48.30    4.20
 -17 -13   0   89.19    6.30
  17 -13   0   74.59    5.90
 -17  13   0   70.39    5.60
 -19 -13   0   97.39    7.00
  19 -13   0   85.29    6.70
  21 -13   0   27.20    4.50
 -21 -13   0   23.70    4.30
  23 -13   0  104.29    8.10
 -23 -13   0  119.69    8.60
 -25 -13   0   66.89    6.70
  25 -13   0   78.49    7.10
   0 -14   0   24.10    2.40
   0 -14   0   28.40    2.50
   2 -14   0  149.19    7.40
  -2 -14   0  148.19    7.30
  -2 -14   0  139.89    7.20
   2 -14   0  143.59    7.40
   4 -14   0  114.09    6.20
  -4 -14   0  121.19    6.30
  -4 -14   0  115.59    6.20
   4 -14   0  116.49    6.50
   6 -14   0   73.49    4.90
  -6 -14   0   76.39    4.60
   6 -14   0   76.19    4.80
  -6 -14   0   77.29    4.70
  -8 -14   0    2.30    1.00
   8 -14   0    2.70    1.10
  -8 -14   0    2.20    1.00
 -10 -14   0    8.80    1.80
 -10 -14   0    7.60    1.90
  10 -14   0   14.10    2.80
  10 -14   0    8.40    1.80
 -10  14   0    9.40    1.90
 -12 -14   0   26.90    3.50
  12 -14   0   26.70    3.50
  12 -14   0   26.00    3.40
 -12 -14   0   29.40    3.40
 -12  14   0   33.00    3.80
 -14 -14   0   46.00    4.20
 -14 -14   0   45.60    3.80
  14 -14   0   41.40    4.10
 -14  14   0   47.70    4.20
  16 -14   0    0.40    1.10
 -16 -14   0    0.60    1.20
 -16 -14   0    0.60    0.80
 -16  14   0    2.00    1.30
  18 -14   0   66.39    5.70
 -18 -14   0   68.79    5.80
  20 -14   0   57.99    5.40
 -20 -14   0   62.49    5.70
  22 -14   0   46.80    5.60
 -22 -14   0   38.50    5.20
 -24 -14   0   34.60    5.40
  24 -14   0   50.89    6.70
   1 -15   0    2.20    1.00
   1 -15   0    1.10    0.80
  -1 -15   0    0.50    0.80
  -1 -15   0    0.80    0.70
   3 -15   0   35.40    3.00
  -3 -15   0   38.40    3.00
  -3 -15   0   36.90    3.00
   3 -15   0   30.60    2.90
   5 -15   0  282.47   12.50
  -5 -15   0  260.87   12.10
   5 -15   0  269.67   12.60
  -5 -15   0  269.17   12.30
  -7 -15   0   12.00    2.20
  -7 -15   0   10.40    1.90
   7 -15   0   10.40    2.10
   7 -15   0    9.10    1.90
  -9 -15   0   10.30    2.00
   9 -15   0    5.40    2.50
  -9 -15   0   11.70    2.10
   9 -15   0   12.90    2.50
  11 -15   0   26.40    3.60
 -11 -15   0   33.60    3.10
 -11 -15   0   45.80    7.10
  11 -15   0   33.00    4.20
 -13 -15   0    2.40    1.30
 -13 -15   0    1.20    1.00
  13 -15   0    4.60    1.90
 -13  15   0    2.70    1.30
 -15 -15   0    6.30    1.70
  15 -15   0    5.70    1.80
 -15 -15   0    4.90    2.00
  17 -15   0   26.60    4.20
 -17 -15   0   16.50    3.50
 -17 -15   0   21.90    3.80
 -19 -15   0    6.00    2.10
  19 -15   0    8.30    2.40
 -21 -15   0   32.00    5.00
  21 -15   0   37.50    5.40
 -23 -15   0   34.70    5.30
  23 -15   0   37.80    5.70
   0 -16   0  316.27   13.80
   0 -16   0  298.17   13.70
  -2 -16   0   62.79    4.20
   2 -16   0   67.59    4.30
  -2 -16   0   53.29    4.00
   2 -16   0   59.59    4.30
   4 -16   0    3.20    1.30
  -4 -16   0    7.30    1.70
   4 -16   0    6.00    1.50
  -4 -16   0    3.50    1.30
   6 -16   0   52.29    4.10
   6 -16   0   51.69    4.00
  -6 -16   0   52.39    3.90
  -6 -16   0   51.59    3.80
   8 -16   0   12.10    2.30
  -8 -16   0   14.40    2.40
   8 -16   0   17.10    2.80
  -8 -16   0   16.60    2.60
 -10 -16   0   51.99    4.00
 -10 -16   0   49.10    4.10
  12 -16   0    5.50    1.90
 -12 -16   0    2.90    1.30
 -12 -16   0    4.00    1.60
  12 -16   0    4.30    1.70
  14 -16   0   13.20    2.70
 -14 -16   0   18.60    3.20
 -14 -16   0   16.10    2.60
 -16 -16   0   32.50    4.50
  16 -16   0   30.20    4.00
 -16 -16   0   30.80    3.90
  18 -16   0    0.60    1.20
 -18 -16   0    0.20    0.90
 -20 -16   0    1.00    1.50
  20 -16   0   -1.20    0.90
 -22 -16   0   34.80    5.20
  22 -16   0   49.00    6.50
 -24 -16   0    0.10    1.30
  24 -16   0   -0.10    1.10
   1 -17   0   14.00    2.40
   1 -17   0   13.50    2.40
  -1 -17   0   19.40    2.70
  -1 -17   0   16.80    2.50
  -3 -17   0    1.50    0.90
  -3 -17   0    2.70    1.20
   3 -17   0    1.10    0.90
   3 -17   0    1.90    1.00
   5 -17   0    8.40    1.90
  -5 -17   0   10.60    2.10
   5 -17   0    9.40    2.40
  -7 -17   0  100.09    5.80
   7 -17   0   83.29    5.90
   7 -17   0   88.69    5.80
  -7 -17   0   88.59    5.70
  -9 -17   0   13.80    2.40
  -9 -17   0   11.80    2.30
   9 -17   0   15.90    2.90
   9 -17   0   10.30    2.40
 -11 -17   0   32.90    3.30
  11 -17   0   43.00    3.90
 -11 -17   0   37.70    3.70
 -13 -17   0   15.10    2.60
  13 -17   0   12.70    2.80
 -13 -17   0   15.40    2.90
  15 -17   0    5.50    1.90
 -15 -17   0    1.20    1.10
 -15 -17   0    3.40    1.70
  17 -17   0   16.30    3.10
 -17 -17   0    9.30    2.60
  19 -17   0    0.30    1.10
 -19 -17   0   -2.00    0.70
  21 -17   0    2.60    1.70
 -21 -17   0    2.60    1.80
   0 -18   0   10.60    2.00
   0 -18   0    8.60    2.00
   2 -18   0    9.80    2.10
   2 -18   0    9.00    2.10
  -2 -18   0   12.00    2.10
  -2 -18   0    8.40    2.00
   4 -18   0    0.40    0.80
  -4 -18   0   -0.60    0.70
  -4 -18   0   -0.10    0.80
   4 -18   0    1.00    1.10
  -6 -18   0  264.67   12.60
  -6 -18   0  270.67   12.70
   6 -18   0  271.17   12.90
   6 -18   0  255.47   12.90
  -8 -18   0   47.00    4.00
  -8 -18   0   42.40    3.70
   8 -18   0   49.50    4.20
  10 -18   0   15.10    2.70
 -10 -18   0   16.10    2.80
 -10 -18   0   18.60    2.80
 -12 -18   0    2.20    1.40
 -12 -18   0    4.40    1.60
  12 -18   0    2.40    1.50
 -14 -18   0   47.50    4.40
 -14 -18   0   52.79    4.70
  14 -18   0   54.89    4.90
  16 -18   0   16.10    3.10
 -16 -18   0   17.10    3.30
  18 -18   0    0.40    1.20
 -18 -18   0    3.20    1.80
  20 -18   0   34.20    5.30
 -20 -18   0   26.30    4.40
   1 -19   0    7.30    1.80
  -1 -19   0    6.30    1.70
   1 -19   0    7.50    2.00
  -1 -19   0    7.40    1.80
   3 -19   0   28.00    3.80
   3 -19   0   27.50    3.40
  -3 -19   0   34.20    3.30
  -3 -19   0   33.40    3.30
   5 -19   0  193.88   10.50
  -5 -19   0  200.08   10.30
  -5 -19   0  206.18   10.40
   5 -19   0  208.58   10.50
   7 -19   0  108.39    7.00
  -7 -19   0   97.59    6.50
   7 -19   0  107.89    6.80
  -7 -19   0  105.29    6.40
  -9 -19   0   85.59    6.00
   9 -19   0   93.49    7.60
   9 -19   0   94.99    6.40
  -9 -19   0   84.49    5.80
  11 -19   0    2.70    1.60
 -11 -19   0    3.10    1.40
 -11 -19   0    3.00    1.50
  13 -19   0   94.59    6.70
 -13 -19   0   83.29    6.00
 -13 -19   0   86.69    6.40
  15 -19   0   56.09    5.20
 -15 -19   0   56.29    5.10
  17 -19   0    9.80    2.90
 -17 -19   0    2.80    1.70
  19 -19   0   18.30    3.70
 -19 -19   0   13.20    5.20
   0 -20   0    5.40    1.70
   0 -20   0    5.60    1.80
  -2 -20   0  111.19    6.80
  -2 -20   0  111.19    6.80
   2 -20   0  109.49    6.70
   2 -20   0  105.99    6.80
   4 -20   0  170.98    8.80
   4 -20   0  142.09    8.60
  -4 -20   0  141.09    8.30
  -4 -20   0  159.98    8.60
   6 -20   0   72.89    5.30
  -6 -20   0   66.09    5.10
   6 -20   0   75.09    5.60
  -6 -20   0   66.79    5.00
  -8 -20   0   50.39    4.40
  -8 -20   0   48.40    4.20
   8 -20   0   49.70    4.50
   8 -20   0   55.19    5.00
  10 -20   0   48.70    4.40
 -10 -20   0   41.90    4.70
 -10 -20   0   41.00    4.80
 -12 -20   0   55.59    4.80
 -12 -20   0   42.30    4.20
  12 -20   0   51.69    4.80
  14 -20   0   53.99    5.20
 -14 -20   0   66.29    5.50
 -16 -20   0   35.70    4.90
  16 -20   0   28.90    4.60
 -18 -20   0   27.80    4.60
  18 -20   0   21.00    3.80
   1 -21   0   88.49    6.20
   1 -21   0   93.59    6.10
  -1 -21   0   95.79    6.20
  -1 -21   0   92.39    6.30
  -3 -21   0   41.30    3.90
   3 -21   0   44.70    5.10
  -3 -21   0   39.60    3.80
   3 -21   0   36.30    4.40
   5 -21   0  104.39    7.00
  -5 -21   0  113.39    7.00
   5 -21   0  117.29    7.50
  -5 -21   0  111.39    7.00
  -7 -21   0   34.70    4.20
  -7 -21   0   33.90    4.20
   7 -21   0   40.30    4.00
  -9 -21   0    5.40    2.00
  -9 -21   0    4.40    1.70
   9 -21   0    4.80    1.70
  11 -21   0  115.49    7.70
 -11 -21   0  118.59    7.70
 -13 -21   0   72.39    5.80
  13 -21   0   65.99    5.70
 -15 -21   0   50.69    6.80
  15 -21   0   56.39    6.60
  17 -21   0    9.50    3.10
 -17 -21   0    9.60    2.80
   0 -22   0  220.88   11.50
   0 -22   0  212.58   11.20
   2 -22   0   46.70    4.20
   2 -22   0   44.40    5.20
  -2 -22   0   40.50    4.00
  -2 -22   0   43.00    4.00
  -4 -22   0   34.90    4.30
  -4 -22   0   29.20    3.90
   4 -22   0   40.40    3.90
  -6 -22   0   50.99    4.50
  -6 -22   0   39.60    4.80
   6 -22   0   54.29    4.70
  -8 -22   0   40.40    7.00
  -8 -22   0   47.60    4.40
   8 -22   0   49.80    4.70
  10 -22   0    1.00    1.10
 -10 -22   0    1.80    1.30
 -12 -22   0  123.69    8.10
  12 -22   0  115.49    8.00
 -14 -22   0   73.09    6.10
   1 -23   0   73.49    5.40
  -1 -23   0   66.59    8.80
  -1 -23   0   59.79    5.00
  -3 -23   0   71.69    5.40
   3 -23   0   72.39    5.50
  -5 -23   0   29.40    3.90
   5 -23   0   21.90    3.40
  -7 -23   0   19.20    3.30
   7 -23   0   17.50    3.10
  -9 -23   0   37.50    4.70
   9 -23   0   37.60    5.00
  11 -23   0    1.60    1.80
 -11 -23   0    2.40    1.60
  13 -23   0   21.80    3.90
 -13 -23   0   25.60    4.10
   0 -24   0    8.40    2.20
  -2 -24   0   46.50    4.30
   2 -24   0   41.50    4.20
  -4 -24   0   39.10    4.90
   4 -24   0   37.60    5.20
  -6 -24   0   16.40    3.50
   6 -24   0   12.40    3.40
   8 -24   0    7.60    2.20
  -8 -24   0    7.60    2.10
   1 -25   0    7.10    2.20
  -1 -25   0    6.00    2.00
  -3 -25   0   15.60    3.10
   3 -25   0   13.10    2.80
   5 -25   0   11.40    2.60
  -5 -25   0   20.30    3.40
 -30   0   1    0.90    1.40
  26   0  -1    0.30    1.30
 -26   0   1    1.20    1.70
 -24   0   1    0.60    1.20
  24   0  -1   -0.60    0.80
 -22   0   1    0.30    0.90
  22   0  -1   -0.60    0.60
  20   0  -1   -0.30    0.60
 -20   0   1    2.00    1.30
 -18   0   1   -0.60    0.80
  18   0  -1   -0.70    0.40
  16   0  -1   -0.10    0.50
 -16   0   1    0.10    0.70
  14   0  -1    0.40    0.60
 -14   0   1    0.40    0.60
  12   0  -1   -0.30    0.30
 -12   0   1    0.30    0.50
  10   0  -1    0.00    0.50
 -10   0   1   -0.40    0.20
 -10   0   1    0.00    0.50
  -8   0   1    0.30    0.50
   8   0  -1    0.10    0.30
  -8   0   1    0.60    0.40
   6   0  -1    0.30    0.30
  -6   0   1   -0.30    0.20
  -6   0   1    0.30    0.30
   6   0  -1    0.10    0.30
   4   0  -1    0.10    0.30
   4   0  -1    0.00    0.20
  -4   0   1    0.10    0.30
   2   0  -1    0.00    0.20
   2   0  -1    0.40    0.20
  -2   0   1    0.20    0.30
   0   0   1    0.90    0.30
   0   0  -1    0.60    0.30
   0   0  -1    0.70    0.30
   2   0   1    0.50    0.30
  -2   0  -1    0.40    0.30
  -2   0  -1    1.00    0.40
   2   0   1    0.50    0.30
   4   0   1   -0.10    0.30
  -4   0  -1    0.50    0.40
   4   0   1    0.00    0.30
  -6   0  -1   -0.20    0.20
  -6   0  -1    0.20    0.30
   6   0   1   -0.10    0.30
  -8   0  -1    0.10    0.40
   8   0   1   -0.20    0.40
  -8   0  -1   -0.30    0.30
   8   0   1    0.20    0.40
 -10   0  -1   -0.10    0.30
  10   0   1    0.10    0.50
  10   0   1    0.00    0.40
 -12   0  -1    0.30    0.50
  12   0   1   -0.10    0.50
  14   0   1   -0.60    0.30
 -14   0  -1   -0.30    0.60
  16   0   1   -0.80    0.50
 -16   0  -1   -0.80    0.50
  18   0   1    0.90    1.10
 -20   0  -1    0.20    0.80
  20   0   1    0.00    0.90
 -22   0  -1   -0.50    1.00
  22   0   1   -0.50    0.80
  24   0   1    0.40    1.10
 -24   0  -1   -0.70    1.00
 -26   0  -1    0.80    1.40
  26   0   1    0.50    1.10
  28   0   1    0.10    1.40
 -28   0  -1   -0.20    1.30
 -30   0  -1   -0.90    1.60
 -31  -1   1    0.70    1.60
 -31   1   1    2.30    2.00
 -29  -1   1    7.80    2.90
 -27  -1   1   19.60    4.20
  27  -1  -1   20.00    3.50
 -27   1   1   29.00    8.50
 -25  -1   1    0.00    1.10
  25  -1  -1    0.50    1.10
 -25   1   1    0.50    1.30
  25   1  -1    0.40    1.10
 -23  -1   1   17.20    3.80
  23  -1  -1   19.50    3.30
 -23   1   1   22.70    3.90
  23   1  -1   22.80    3.80
 -21  -1   1   26.50    4.30
  21  -1  -1   21.50    3.20
  21   1  -1   26.80    3.60
 -21   1   1   19.90    3.70
 -19  -1   1    3.90    1.80
  19  -1  -1    4.50    1.60
  19   1  -1    3.20    1.20
 -19   1   1    2.10    1.30
 -17  -1   1   13.20    2.50
  17  -1  -1   11.10    2.10
 -17   1   1   13.10    2.40
  17   1  -1   15.80    2.50
 -15  -1   1   21.80    2.60
  15  -1  -1   29.80    3.50
 -15  -1   1   28.60    3.40
 -15   1   1   23.30    3.60
  15   1  -1   25.60    3.10
 -13  -1   1  188.28    8.60
  13  -1  -1  181.08    8.70
  13   1  -1  192.88    8.80
 -13   1   1  168.88    8.50
 -13   1   1  178.98    9.00
  11  -1  -1  199.48    9.60
 -11  -1   1  207.68    9.50
 -11  -1   1  231.88   10.10
  11   1  -1  212.68    9.60
 -11   1   1  217.38   10.10
 -11   1   1  230.88    9.80
  -9  -1   1   56.89    3.60
  -9  -1   1   63.69    3.40
   9  -1  -1   61.59    3.50
  -9   1   1   58.99    3.50
   9   1  -1   63.69    3.40
  -9   1   1   58.49    3.70
   7  -1  -1   13.90    1.60
  -7  -1   1   21.90    2.70
  -7  -1   1   14.20    1.40
   7  -1  -1   17.50    2.10
   7   1  -1   15.90    1.30
  -7   1   1   11.30    1.40
  -7   1   1   15.50    1.40
  -5  -1   1    0.30    0.40
  -5  -1   1    0.00    0.10
   5  -1  -1    0.50    0.40
   5  -1  -1    0.40    0.30
   5   1  -1    0.60    0.30
  -5   1   1    1.70    0.50
  -5   1   1    0.70    0.40
   5   1  -1    0.60    0.30
  -3  -1   1  234.38    8.90
   3  -1  -1  225.78    9.20
  -3  -1   1  228.38    8.90
   3  -1  -1  229.18    9.10
  -3   1   1  210.68    9.10
   3   1  -1  229.38    9.10
   3   1  -1  225.08    8.80
   1  -1  -1   86.09    3.80
   1  -1  -1   84.69    3.80
  -1  -1   1   87.49    3.50
  -1  -1   1   87.49    3.60
   1   1  -1   82.99    3.50
  -1   1   1   87.29    3.80
   1   1  -1   88.49    3.50
  -1   1   1   79.59    3.70
   1  -1   1    0.10    0.10
  -3  -1  -1  104.59    5.20
   3  -1   1  108.89    4.70
  -3   1  -1  109.99    4.80
   3   1   1  102.19    4.80
  -3   1  -1  116.79    4.80
  -5  -1  -1    0.70    0.50
   5  -1   1    1.30    0.50
   5  -1   1    0.70    0.40
  -5  -1  -1    5.20    1.00
  -5   1  -1    1.10    0.40
   5   1   1    1.00    0.60
  -5   1  -1    0.70    0.50
   5   1   1    0.60    0.40
   7  -1   1   20.00    1.80
  -7  -1  -1   20.10    1.70
  -7  -1  -1   21.20    1.80
   7  -1   1   19.50    1.70
  -7   1  -1   20.70    1.60
   7   1   1   17.70    1.70
   7   1   1   19.60    1.80
  -7   1  -1   19.00    1.70
  -9  -1  -1    4.80    1.10
  -9  -1  -1    7.80    1.40
   9  -1   1    4.30    1.00
   9  -1   1    7.50    1.30
   9   1   1    7.70    1.40
   9   1   1    5.50    1.20
  -9   1  -1    6.20    1.40
  11  -1   1   64.09    3.90
  11  -1   1   55.19    4.20
  11   1   1   55.19    3.70
 -13  -1  -1  455.05   19.70
  13  -1   1  428.46   19.20
  13   1   1  475.95   19.40
 -13   1  -1  472.05   19.70
 -15  -1  -1   42.30    3.80
  15  -1   1   41.70    3.50
  15   1   1   44.10    3.60
 -17  -1  -1  112.49    8.20
  17  -1   1  119.99    6.90
 -17   1  -1  107.49    7.10
  17   1   1  110.99    6.80
  19  -1   1   55.99    5.40
 -19  -1  -1   60.79    5.10
 -19   1  -1   64.19    5.40
  19   1   1   50.49    4.50
 -21  -1  -1    4.10    2.00
  21  -1   1    6.70    2.00
 -21   1  -1    4.80    1.60
  21   1   1    4.60    1.50
 -23  -1  -1   43.20    5.30
  23  -1   1   42.40    5.10
  23   1   1   39.10    5.70
 -23   1  -1   36.30    5.10
 -25  -1  -1   22.70    4.40
  25  -1   1   18.30    3.60
  25   1   1   12.80    3.10
 -25   1  -1   19.60    3.70
 -27  -1  -1    7.00    2.40
  27  -1   1    6.00    2.50
 -27   1  -1    7.60    3.00
  27   1   1    5.20    2.20
 -29  -1  -1    3.00    2.60
  29  -1   1    0.70    1.40
 -29   1  -1    2.70    2.00
 -30  -2   1   35.40    5.70
 -30   2   1   34.20    6.10
  28  -2  -1    9.00    3.20
 -28  -2   1   16.10    3.90
 -28   2   1   11.50    3.30
 -26  -2   1  103.79    7.90
  26  -2  -1   88.19    7.00
 -26   2   1   92.69    7.70
 -24  -2   1   15.60    3.20
  24  -2  -1   15.00    3.10
 -24   2   1   11.90    2.70
  24   2  -1   15.50    3.30
 -22  -2   1   19.90    4.00
  22  -2  -1   11.80    2.70
 -22   2   1   12.60    3.00
  22   2  -1    9.00    2.10
 -20  -2   1  114.59    7.40
  20  -2  -1  108.19    6.80
 -20   2   1  102.19    7.20
  20   2  -1  100.79    6.50
  18  -2  -1   11.10    2.40
 -18  -2   1    8.10    2.20
 -18  -2   1    8.00    2.10
 -18   2   1   10.10    2.40
 -16  -2   1    6.60    1.70
  16  -2  -1    4.10    1.20
 -16  -2   1    5.50    1.40
  16   2  -1    7.30    1.70
 -16   2   1    5.50    1.70
 -14  -2   1  221.28   10.90
 -14  -2   1  235.48   10.50
  14  -2  -1  220.98   10.60
  14   2  -1  227.08   10.40
 -14   2   1  234.18   11.10
  12  -2  -1  114.59    6.10
 -12  -2   1  117.69    5.90
 -12  -2   1  119.69    7.00
  12   2  -1  115.79    6.00
 -12   2   1  120.79    6.50
 -12   2   1  116.89    6.20
 -10  -2   1  639.34   25.00
 -10  -2   1  648.14   25.40
  10  -2  -1  601.74   25.10
 -10   2   1  606.14   25.50
 -10   2   1  650.03   25.30
  10   2  -1  664.63   25.00
   8  -2  -1    3.00    0.90
  -8  -2   1    2.30    0.80
   8  -2  -1    4.00    0.90
  -8   2   1    2.20    0.70
   8   2  -1    3.60    0.80
   6  -2  -1   44.30    2.60
  -6  -2   1   45.80    2.60
   6  -2  -1   41.20    2.70
   6   2  -1   50.49    2.50
   4  -2  -1  308.57   13.20
  -4  -2   1  338.67   13.00
   4  -2  -1  319.07   13.30
  -4  -2   1  344.67   12.90
   4   2  -1  349.07   12.90
   4   2  -1  341.77   12.90
   2  -2  -1 1190.98   47.20
  -2  -2   1 1163.68   44.20
  -2  -2   1 1146.09   43.90
  -2   2   1 1136.69   47.30
  -2   2   1 1105.09   46.70
   0  -2  -1  475.25   18.40
   2  -2   1   97.59    4.10
   2  -2   1  101.19    4.20
  -2  -2  -1   94.19    4.40
  -2  -2  -1   94.49    4.50
   2   2   1   95.09    4.50
  -2   2  -1  105.49    4.20
  -2   2  -1   91.79    4.00
   4  -2   1  157.28    6.80
  -4   2  -1  157.68    6.80
  -4   2  -1  161.38    6.70
   4   2   1  168.98    7.00
  -6  -2  -1  162.98    7.30
   6  -2   1  153.68    7.20
  -6  -2  -1  161.68    7.50
   6  -2   1  169.18    7.40
  -6   2  -1  173.58    7.40
   6   2   1  158.78    7.40
   6   2   1  173.88    7.40
  -8  -2  -1   19.70    2.20
   8  -2   1   19.30    1.80
   8  -2   1   18.20    1.70
  -8  -2  -1   16.40    2.20
  -8   2  -1   18.30    1.80
   8   2   1   16.30    1.90
  10  -2   1  219.08   10.30
  10  -2   1  228.48   10.20
 -10  -2  -1  217.88   10.40
 -10  -2  -1  217.88   10.10
  10   2   1  247.68   10.40
 -10   2  -1  234.88   10.50
  12  -2   1  170.48    8.70
 -12  -2  -1  185.48    9.00
  12   2   1  186.58    8.80
 -12   2  -1  175.58    8.90
 -14  -2  -1  329.47   14.70
  14   2   1  303.47   14.10
  16  -2   1  405.76   17.60
 -16  -2  -1  399.36   17.90
 -16   2  -1  372.46   17.70
  16   2   1  393.06   17.40
 -18  -2  -1   19.40    3.50
  18  -2   1   15.10    2.70
  18   2   1   14.10    2.70
 -18   2  -1   14.80    2.90
 -20  -2  -1    0.70    1.10
  20  -2   1    2.40    1.30
 -20   2  -1    2.70    1.60
  20   2   1    1.00    1.10
 -22  -2  -1   25.60    3.90
  22  -2   1   22.00    3.40
 -22   2  -1   25.60    4.40
  22   2   1   30.40    4.40
  24  -2   1  219.78   12.80
 -24  -2  -1  253.47   13.90
 -24   2  -1  235.38   13.60
  24   2   1  254.77   13.20
 -26  -2  -1   31.40    5.70
  26  -2   1   24.20    4.20
 -26   2  -1   19.70    4.10
 -28  -2  -1   10.00    3.40
  28  -2   1   11.50    3.40
 -28   2  -1    7.40    2.60
 -30  -2  -1    3.90    2.30
  30  -2   1    1.50    1.70
 -30   2  -1    2.40    2.40
 -29  -3   1   26.00    4.80
 -29   3   1   66.69    8.50
  27  -3  -1   30.10    5.20
 -27  -3   1   32.20    5.50
 -27   3   1   36.40    6.10
  25  -3  -1  173.58   10.80
 -25  -3   1  183.38   11.20
 -25   3   1  171.58   11.10
 -23  -3   1   92.79    7.00
  23  -3  -1   77.49    6.10
 -23   3   1   84.49    6.70
  23   3  -1   68.39    5.60
 -21  -3   1    8.40    2.20
  21  -3  -1    7.40    2.20
  21   3  -1   11.30    2.50
 -21   3   1   11.30    2.70
 -19  -3   1   62.49    5.10
 -19  -3   1   60.49    4.50
  19  -3  -1   57.39    4.60
 -19   3   1   62.79    5.20
  19   3  -1   57.39    4.40
 -17  -3   1  142.99    8.00
  17  -3  -1  135.79    7.50
 -17  -3   1  115.29    7.00
 -17   3   1  140.09    8.10
  17   3  -1  138.79    7.30
 -15  -3   1   67.49    4.70
  15  -3  -1   63.59    4.40
 -15  -3   1   58.99    4.10
 -15   3   1   65.59    4.70
  15   3  -1   65.09    4.20
 -13  -3   1  142.59    7.20
  13  -3  -1  164.18    7.70
 -13  -3   1  155.18    7.80
 -13   3   1  136.59    7.70
  13   3  -1  145.89    7.20
 -11  -3   1  961.10   37.40
 -11  -3   1  964.60   38.00
  11  -3  -1  976.90   37.80
  11   3  -1  988.30   37.40
 -11   3   1  942.11   38.10
  -9  -3   1  160.38    7.50
   9  -3  -1  149.59    7.40
  -9   3   1  167.78    7.80
   9   3  -1  174.48    7.30
   7  -3  -1  215.78    9.20
  -7  -3   1  206.08    8.80
  -7  -3   1  212.88    9.00
   7  -3  -1  213.78    9.40
   7   3  -1  216.18    8.70
   5  -3  -1   90.59    4.40
   5  -3  -1   89.79    4.50
  -5  -3   1   86.19    4.20
  -5  -3   1   90.79    4.10
  -5   3   1  115.49    5.20
   5   3  -1   92.29    3.90
   5   3  -1   89.59    3.90
  -3  -3   1 6776.02  254.17
  -3  -3   1 6845.22  254.37
   3  -3  -1 6513.25  258.27
   3  -3  -1 6552.74  257.97
  -3   3   1 7090.79  258.87
  -3   3   1 7159.18  258.27
   1  -3  -1  369.36   15.10
   1  -3  -1  389.16   15.20
  -1   3   1  393.36   15.20
  -1  -3  -1    8.80    1.20
   1  -3   1    6.80    0.60
  -1  -3  -1    9.20    1.20
   1  -3   1    6.70    0.50
   1   3   1    7.30    1.00
  -1   3  -1    6.90    0.40
   1   3   1    8.00    1.40
  -3  -3  -1 1033.50   46.90
   3  -3   1 1130.19   45.00
   3  -3   1 1113.59   45.50
   3   3   1 1296.97   51.49
  -3   3  -1 1130.79   44.90
   3   3   1 1083.19   47.20
  -3   3  -1 1042.90   44.10
  -5  -3  -1  145.89    6.70
   5  -3   1  151.18    6.60
   5   3   1  157.78    6.80
  -5   3  -1  152.48    6.60
   7  -3   1  117.99    6.20
  -7  -3  -1  135.79    6.50
   7  -3   1  133.89    6.30
  -7  -3  -1  136.89    6.40
  -7   3  -1  139.49    6.40
   7   3   1  143.69    6.40
   9  -3   1  306.97   12.90
   9  -3   1  306.47   13.00
  -9  -3  -1  302.67   13.10
   9   3   1  305.37   12.90
  -9   3  -1  276.17   14.70
  11  -3   1  484.45   20.30
 -11  -3  -1  446.16   20.20
  11  -3   1  491.65   20.10
 -11  -3  -1  486.05   20.10
  11   3   1  504.85   20.20
 -11   3  -1  509.85   20.40
 -13  -3  -1  143.59    7.30
  13  -3   1  111.49    6.60
 -13   3  -1  127.69    7.00
  13   3   1  122.49    6.70
  15  -3   1  271.97   12.70
 -15  -3  -1  249.08   12.40
  15   3   1  241.78   11.90
 -15   3  -1  257.37   12.40
  17  -3   1  723.13   30.10
 -17  -3  -1  699.03   30.40
  17   3   1  707.53   29.90
 -17   3  -1  773.92   30.70
  19  -3   1    5.50    1.80
 -19  -3  -1    8.70    2.60
 -19   3  -1    4.70    1.70
  19   3   1    9.60    2.20
  21  -3   1   10.10    2.30
 -21  -3  -1   10.70    2.50
 -21   3  -1   18.00    3.70
  21   3   1   14.30    2.90
  23  -3   1   20.10    3.80
  23   3   1   14.80    3.00
 -23   3  -1   14.30    3.20
 -25  -3  -1  101.89    8.20
  25  -3   1  109.49    7.90
  25   3   1  109.99    8.00
 -25   3  -1  113.09    8.40
  27  -3   1   32.00    4.70
 -27  -3  -1   40.60    6.40
 -27   3  -1   53.89    7.10
  27   3   1   41.50    6.70
 -29  -3  -1    0.70    1.80
  29  -3   1    3.30    2.00
 -29   3  -1    3.00    2.30
 -30  -4   1   90.99    8.50
  28  -4  -1   46.80    6.30
 -28  -4   1   28.90    5.20
 -28   4   1   61.49    8.20
 -26  -4   1   38.40    5.60
  26  -4  -1   42.90    5.40
 -26   4   1   44.90    6.50
  24  -4  -1  274.57   14.30
 -24   4   1  283.07   14.90
  24   4  -1  262.67   13.90
 -22  -4   1  162.08    9.90
  22  -4  -1  169.88    9.70
 -22   4   1  147.79    9.60
  22   4  -1  148.09    8.70
  20  -4  -1   23.50    3.50
 -20  -4   1   19.40    3.20
 -20  -4   1   17.40    2.90
 -20   4   1   17.60    3.10
  20   4  -1   20.20    2.90
  18  -4  -1  247.18   12.30
 -18  -4   1  262.67   12.80
 -18  -4   1  229.48   11.80
  18   4  -1  249.18   11.90
 -18   4   1  278.77   13.10
 -16  -4   1  234.28   11.10
 -16  -4   1  244.68   11.70
  16   4  -1  239.58   11.00
 -16   4   1  228.28   11.70
  14  -4  -1   20.30    2.60
 -14  -4   1   24.70    3.20
 -14  -4   1   22.90    2.20
  14   4  -1   24.00    2.80
 -14   4   1   26.20    3.40
 -12  -4   1  296.97   13.40
  12  -4  -1  323.97   13.50
 -12   4   1  288.57   13.60
  12   4  -1  309.37   12.90
 -10  -4   1 1193.48   47.00
  10  -4  -1 1238.08   47.00
  10   4  -1 1222.38   46.40
  -8  -4   1    8.80    1.30
   8  -4  -1   11.10    1.70
  -8  -4   1    8.50    1.10
   8  -4  -1    9.30    1.50
  -8   4   1    9.30    1.40
   8   4  -1   11.40    1.30
  -8   4   1    9.40    1.70
  -6  -4   1  118.09    5.30
   6  -4  -1  124.79    5.80
  -6  -4   1  124.99    5.40
  -6   4   1  120.89    5.70
  -6   4   1  120.09    5.90
   6   4  -1  124.29    5.10
   4  -4  -1 8941.61  342.17
  -4  -4   1 9211.28  338.07
   4  -4  -1 8970.30  341.67
  -4  -4   1 9130.69  337.67
  -4   4   1 9999.00  343.07
  -4   4   1 8075.39  341.17
   2  -4  -1    7.60    1.10
   2  -4  -1   10.50    1.30
  -2   4   1    8.60    1.30
   0  -4  -1   27.20    1.80
   0  -4  -1   27.80    1.90
   0   4   1   26.40    1.90
   0   4   1   22.20    1.70
   2  -4   1    1.40    0.40
  -2  -4  -1    3.10    0.70
  -2  -4  -1    3.20    0.80
   2   4   1    2.10    0.60
   2   4   1    3.00    0.80
  -2   4  -1    3.40    0.40
  -2   4  -1    4.40    0.50
  -4  -4  -1  683.03   25.70
   4  -4   1  692.53   25.30
  -4  -4  -1  615.94   25.40
   4   4   1  653.13   25.50
   4   4   1  633.64   25.50
  -6  -4  -1  118.69    5.50
   6  -4   1  113.29    5.30
  -6  -4  -1  108.59    5.60
  -6   4  -1  112.09    5.40
  -8  -4  -1  569.44   23.80
   8  -4   1  605.54   23.80
   8  -4   1  603.74   24.00
  -8  -4  -1  591.84   24.10
  -8   4  -1  635.94   24.00
   8   4   1  596.44   23.90
 -10  -4  -1 1056.29   39.20
  10  -4   1  947.61   38.80
 -10  -4  -1  965.00   38.70
 -10   4  -1 1019.60   38.90
  10   4   1  973.20   38.70
 -12  -4  -1   17.40    2.40
  12  -4   1   19.50    2.60
  12  -4   1   18.50    2.60
 -12  -4  -1   13.30    2.40
  12   4   1   18.70    2.50
 -12   4  -1   16.70    2.50
 -14  -4  -1  284.97   13.20
  14  -4   1  276.67   12.80
  14   4   1  283.57   12.80
 -14   4  -1  263.77   12.90
 -16  -4  -1  259.77   13.00
  16  -4   1  259.67   12.70
  16   4   1  263.67   12.60
 -16   4  -1  275.47   13.00
 -18  -4  -1  353.86   17.30
  18  -4   1  374.36   17.10
  18   4   1  371.26   16.90
 -20  -4  -1   29.80    4.60
  20  -4   1   21.80    3.70
  20   4   1   23.10    3.50
 -20   4  -1   17.50    3.10
  22  -4   1   48.60    6.00
  22   4   1   44.80    5.30
  24  -4   1   55.49    5.30
 -24   4  -1   65.19    7.60
  24   4   1   51.99    5.10
 -26  -4  -1   33.60    6.00
  26  -4   1   36.50    5.50
  26   4   1   34.10    5.00
 -26   4  -1   32.60    5.10
  28  -4   1   25.00    4.80
 -28  -4  -1   37.80    6.30
 -28   4  -1   28.70    5.20
 -30  -4  -1   54.79    8.30
  30  -4   1   51.79    7.20
 -29  -5   1   50.99    7.20
  29  -5  -1   47.80    6.40
 -29   5   1   39.90    6.70
 -27  -5   1   29.70    5.00
  27  -5  -1   42.60    6.20
 -27   5   1   40.60    6.40
 -25  -5   1  132.39    9.30
  25  -5  -1  136.19    8.90
 -25   5   1  121.09    9.00
  23  -5  -1  169.48   10.30
  23   5  -1  174.28    9.80
 -23   5   1  191.58   11.10
 -21  -5   1  224.28   12.00
  21  -5  -1  233.38   11.70
 -21  -5   1  187.98   10.80
 -21   5   1  209.98   11.90
  21   5  -1  215.58   10.90
  19  -5  -1   13.80    3.10
 -19  -5   1   12.40    2.50
 -19  -5   1   10.30    2.90
  19   5  -1   17.60    2.60
 -19   5   1   13.50    2.80
 -17  -5   1  127.49    7.50
 -17  -5   1  118.89    6.80
  17  -5  -1  128.29    7.30
  17   5  -1  125.49    6.80
 -17   5   1  115.49    7.40
 -15  -5   1  145.19    7.90
  15  -5  -1  147.49    7.80
 -15  -5   1  129.39    7.30
 -15   5   1  156.98    8.30
  15   5  -1  150.28    7.30
 -13  -5   1   79.69    4.80
  13  -5  -1   71.89    4.60
 -13   5   1   68.69    4.80
  13   5  -1   73.49    4.20
  11  -5  -1  432.76   17.60
 -11  -5   1  414.76   17.40
  11   5  -1  411.96   16.80
 -11   5   1  408.16   17.80
   9  -5  -1  216.68    9.80
  -9  -5   1  209.48    9.60
   9  -5  -1  231.98   10.20
  -9  -5   1  216.88    9.40
   9   5  -1  225.08    9.10
  -9   5   1  214.68   10.00
  -7  -5   1  741.93   28.40
   7  -5  -1  747.83   28.90
  -7  -5   1  723.53   28.20
  -7   5   1  706.53   28.90
   7   5  -1  758.02   27.90
   5  -5  -1 2265.47   90.89
  -5  -5   1 2266.87   86.69
  -5  -5   1 2299.87   86.19
   5  -5  -1 2152.98   90.09
  -5   5   1 2178.58   90.89
  -3  -5   1  503.85   19.40
  -3  -5   1  537.15   19.40
   3  -5  -1  518.65   20.50
   3  -5  -1  514.45   20.40
  -3   5   1  519.15   20.60
   1  -5  -1  200.88    8.60
   1  -5  -1  200.58    8.60
  -1   5   1  206.68    8.70
  -1   5   1  198.38    8.60
   1  -5   1  194.68    7.80
   1  -5   1  199.48    7.80
  -1  -5  -1  198.68    8.60
  -1  -5  -1  207.88    8.60
   1   5   1  203.68    8.60
   1   5   1  199.98    8.60
  -3  -5  -1  816.52   30.90
  -3  -5  -1  769.32   30.90
   3   5   1  809.62   30.90
  -3   5  -1  798.72   30.20
   5  -5   1   29.00    1.90
   5  -5   1   30.50    2.00
  -5  -5  -1   27.90    2.20
  -5  -5  -1   27.50    2.10
  -5   5  -1   29.70    1.90
   5   5   1   32.80    2.30
  -7  -5  -1  947.61   38.60
   7   5   1 1022.60   38.70
  -7   5  -1 1027.70   38.50
  -9  -5  -1  291.77   13.00
  -9  -5  -1  314.37   13.40
   9  -5   1  290.07   12.90
   9  -5   1  310.47   13.20
  -9   5  -1  312.37   13.10
 -11  -5  -1  624.54   25.60
 -11  -5  -1  648.34   26.10
  11  -5   1  639.64   26.60
  11  -5   1  629.14   25.80
  11   5   1  629.94   25.60
 -13  -5  -1  153.48    8.30
  13  -5   1  143.59    8.00
 -13  -5  -1  150.78    7.90
  13  -5   1  158.38    8.00
 -13   5  -1  153.08    8.00
  13   5   1  149.49    7.80
  15  -5   1  322.57   14.40
 -15  -5  -1  320.27   14.80
  15   5   1  291.87   14.00
 -15   5  -1  307.07   14.40
  17  -5   1  246.78   12.30
 -17  -5  -1  268.47   12.90
 -17   5  -1  238.88   12.30
  17   5   1  234.88   12.00
 -19  -5  -1  268.47   13.70
  19  -5   1  270.37   13.30
  19   5   1  255.27   12.90
 -19   5  -1  253.87   13.40
 -21  -5  -1   66.49    5.90
  21  -5   1   67.79    5.60
  21   5   1   69.69    5.50
 -21   5  -1   68.39    5.80
  23  -5   1   79.99    6.40
 -23  -5  -1   73.59    6.60
  23   5   1   77.99    6.20
 -23   5  -1   88.59    6.90
 -25  -5  -1   34.30    5.50
  25  -5   1   31.70    4.80
  25   5   1   49.40    6.20
 -25   5  -1   53.29    6.90
  27  -5   1   19.90    4.40
 -27  -5  -1   17.90    4.40
 -27   5  -1   13.50    3.70
  29  -5   1   56.89    7.20
 -29  -5  -1   45.10    7.10
 -30  -6   1   21.10    4.60
 -30   6   1   12.50    4.20
  28  -6  -1   49.90    6.60
 -28  -6   1   46.10    7.00
 -28   6   1   40.70    5.70
  26  -6  -1   19.80    3.90
 -26  -6   1   13.80    3.20
 -26   6   1   17.60    3.70
  24  -6  -1  253.07   13.90
 -24  -6   1  281.87   14.90
 -24   6   1  249.18   14.20
  22  -6  -1   86.89    6.60
 -22  -6   1   88.99    8.50
 -22   6   1   89.49    7.00
  22   6  -1   99.49    6.30
  20  -6  -1  306.97   15.00
 -20  -6   1  301.77   15.20
  20   6  -1  313.87   14.40
 -20   6   1  314.67   15.60
 -18  -6   1   18.40    2.70
 -18  -6   1   24.90    3.70
  18  -6  -1   15.70    2.60
  18   6  -1   24.10    3.00
 -18   6   1   18.10    3.00
 -16  -6   1   16.10    2.80
 -16  -6   1   11.90    1.90
 -16   6   1   16.70    2.90
  16   6  -1   17.50    2.40
  14  -6  -1  175.38    8.90
 -14  -6   1  179.78    8.90
  14   6  -1  171.48    8.10
 -14   6   1  169.48    9.10
 -12  -6   1  269.07   12.00
 -12  -6   1  262.67   11.70
  12  -6  -1  276.17   12.30
 -12   6   1  269.07   12.50
  12   6  -1  267.67   12.20
 -10  -6   1  109.59    6.70
  10  -6  -1  105.19    6.00
  10  -6  -1  103.89    5.70
 -10  -6   1  103.79    5.50
  10   6  -1  111.59    5.10
 -10   6   1  110.89    6.00
   8  -6  -1 2315.47   90.69
   8  -6  -1 1987.40   90.69
  -8  -6   1 2205.08   86.79
  -8  -6   1 2098.39   90.19
  -8   6   1 2223.28   91.69
   8   6  -1 2181.28   84.59
   6  -6  -1 1350.96   51.79
   4  -6  -1  722.43   28.60
  -4  -6   1  747.53   27.60
  -4  -6   1  722.53   27.50
   2  -6  -1  349.37   14.30
   2  -6  -1  330.77   14.20
  -2   6   1  367.96   14.30
   0  -6  -1   33.10    2.30
   0  -6   1   38.50    1.60
   0  -6   1   36.30    1.60
   0  -6  -1   35.60    2.40
   0   6   1   35.90    2.40
  -2  -6  -1  252.97   10.60
  -2  -6  -1  240.68   10.60
   2  -6   1  263.47   10.00
   2  -6   1  253.17    9.90
   2   6   1  239.88   10.50
  -4  -6  -1  425.06   18.20
   4  -6   1  449.26   17.90
  -4  -6  -1  485.95   18.50
   4  -6   1  440.16   17.70
  -4   6  -1  464.55   17.70
   4   6   1  468.95   18.30
  -6  -6  -1  311.57   13.30
   6  -6   1  323.67   12.90
  -6  -6  -1  296.47   13.10
   6   6   1  327.57   13.20
  -6   6  -1  303.77   12.80
  -8  -6  -1  190.28    9.00
  -8  -6  -1  190.88    8.70
   8  -6   1  198.78    8.60
   8   6   1  175.88    8.60
 -10  -6  -1  687.73   27.80
  10  -6   1  711.33   27.80
  10  -6   1  682.53   27.90
  10   6   1  693.83   27.80
 -12  -6  -1  567.74   23.90
  12  -6   1  541.45   23.60
 -12  -6  -1  554.24   23.40
  12  -6   1  600.24   23.50
  12   6   1  580.44   23.80
 -14  -6  -1  157.08    8.70
  14  -6   1  180.88    9.00
 -14  -6  -1  182.78    9.40
  14  -6   1  165.68    9.00
  14   6   1  173.58    8.80
 -14   6  -1  178.88    9.00
  16  -6   1  314.27   14.60
  16   6   1  306.67   14.30
 -16   6  -1  305.57   14.60
  18  -6   1  102.29    6.60
 -18  -6  -1   99.79    6.90
  18   6   1   94.89    6.30
 -18   6  -1   94.19    6.60
 -20  -6  -1   86.79    6.60
  20  -6   1   76.39    6.00
  20   6   1   77.99    5.80
 -20   6  -1   74.99    6.00
  22  -6   1  134.79    8.70
 -22  -6  -1  141.69    9.30
 -22   6  -1  125.29    8.70
  22   6   1  131.19    8.40
  24  -6   1   38.90    5.00
 -24  -6  -1   45.10    7.30
  24   6   1   33.30    4.70
 -24   6  -1   40.30    5.10
 -26  -6  -1   29.10    5.20
  26  -6   1   40.80    5.70
 -26   6  -1   32.20    5.30
  28  -6   1   20.50    4.10
 -28  -6  -1   31.80    5.90
 -29  -7   1    2.90    2.20
  29  -7  -1   12.70    3.70
 -29   7   1   13.70    4.00
 -27  -7   1   19.30    3.90
  27  -7  -1   27.50    5.00
 -27   7   1   24.80    5.20
  25  -7  -1  110.89    8.10
 -25  -7   1  121.99    8.80
 -25   7   1  105.09    8.30
  23  -7  -1  137.19    8.70
 -23  -7   1  120.19    8.70
 -23   7   1  124.49    8.70
  21  -7  -1   99.19    6.90
 -21  -7   1  103.09    7.30
 -21   7   1   98.69    7.20
  21   7  -1   95.99    6.10
 -19  -7   1   69.99    5.40
  19  -7  -1   61.29    5.10
 -19  -7   1   64.69    4.80
 -19   7   1   64.19    5.40
  19   7  -1   67.09    4.60
  17  -7  -1   94.99    6.30
 -17  -7   1  100.19    6.30
 -17  -7   1   91.89    5.70
  17   7  -1  100.49    5.60
 -17   7   1   94.09    6.50
 -15  -7   1    4.20    1.40
  15  -7  -1    4.90    1.40
  15   7  -1    3.50    1.10
 -15   7   1    3.70    1.40
 -13  -7   1  107.29    5.80
 -13  -7   1   95.29    5.30
 -13   7   1   98.39    6.00
  13   7  -1   86.79    4.90
  11  -7  -1  369.86   14.90
 -11  -7   1  330.17   14.40
 -11  -7   1  337.37   14.10
  11   7  -1  322.97   13.70
 -11   7   1  329.67   15.00
  -9  -7   1  838.32   32.30
   9  -7  -1  777.52   33.10
  -9  -7   1  853.71   32.50
   9  -7  -1  862.71   33.10
  -9   7   1  840.62   33.20
  -7  -7   1  372.86   14.70
   7  -7  -1  355.76   15.60
  -7   7   1  381.26   15.70
  -5  -7   1 1231.08   45.60
   5  -7  -1 1191.18   46.60
  -3  -7   1  227.58    8.70
   3  -7  -1  230.18    9.80
  -3  -7   1  224.18    8.70
   3  -7  -1  212.38    9.70
  -3   7   1  220.48    9.80
   1  -7  -1  216.68    9.20
  -1  -7   1  211.78    8.00
  -1  -7   1  205.18    8.00
   1  -7  -1  196.98    9.10
  -1   7   1  209.38    9.10
  -1  -7  -1   29.00    2.30
   1  -7   1   30.10    1.70
  -1  -7  -1   33.10    2.30
   1  -7   1   32.70    1.70
   1   7   1   29.90    2.20
  -3  -7  -1  716.33   27.80
   3  -7   1  689.93   27.20
  -3  -7  -1  663.83   27.60
  -3   7  -1  722.63   26.70
   3   7   1  742.93   27.70
   5  -7   1  252.97   10.60
   5  -7   1  265.27   11.80
  -5  -7  -1  268.57   11.30
  -5  -7  -1  257.97   11.10
  -5   7  -1  246.98   10.60
   5   7   1  255.87   11.10
  -7  -7  -1   29.20    2.40
   7  -7   1   28.30    2.30
  -7  -7  -1   32.10    2.60
   7   7   1   30.90    2.40
   9  -7   1  522.15   20.90
  -9  -7  -1  487.05   21.00
  -9  -7  -1  522.05   21.40
   9  -7   1  516.75   21.20
   9   7   1  525.55   21.10
 -11  -7  -1  579.54   24.00
  11  -7   1  577.34   23.50
 -11  -7  -1  538.05   23.40
  11  -7   1  569.04   23.80
  11   7   1  598.94   23.70
 -11   7  -1  590.54   23.50
  13  -7   1  335.67   15.30
 -13  -7  -1  340.67   15.30
 -13  -7  -1  371.26   16.00
  13   7   1  342.87   15.30
  15  -7   1  182.88    9.90
  15  -7   1  209.28   10.40
 -15  -7  -1  187.98    9.90
 -15  -7  -1  213.68   10.60
 -15   7  -1  189.48   11.40
  15   7   1  199.88    9.90
  17  -7   1  158.98    8.80
 -17  -7  -1  145.29    8.90
 -17   7  -1  149.09    8.70
  17   7   1  150.48    9.10
 -19  -7  -1   91.19    6.80
  19  -7   1   93.19    6.50
 -19   7  -1   91.69    6.60
  19   7   1   97.39    6.60
  21  -7   1   24.90    4.20
 -21  -7  -1   16.60    3.30
 -21   7  -1   25.80    4.30
  21   7   1   22.00    3.50
  23  -7   1  129.49    8.60
 -23  -7  -1  126.69   10.20
 -23   7  -1  118.19    8.40
  23   7   1  110.39    7.80
 -25  -7  -1   25.70    5.10
  25  -7   1   30.30    5.10
 -25   7  -1   19.40    4.30
 -27  -7  -1   14.30    4.10
  27  -7   1   10.10    2.70
 -29  -7  -1   15.80    4.00
  29  -7   1   31.10    5.70
  28  -8  -1   45.60    6.10
 -28  -8   1   42.80    6.40
 -28   8   1   54.89    8.10
  26  -8  -1   83.59    7.00
 -26  -8   1   73.89    6.90
 -26   8   1   66.99    6.70
 -24  -8   1   61.69    5.90
  24  -8  -1   54.39    5.40
 -24   8   1   64.49    6.00
 -22  -8   1   55.79    5.30
  22  -8  -1   50.39    4.90
 -22   8   1   50.09    6.40
  20  -8  -1    0.60    1.00
 -20  -8   1    1.10    0.90
 -20   8   1    3.40    1.60
  18  -8  -1   83.69    5.90
 -18  -8   1   82.89    5.90
 -18  -8   1   75.89    5.30
 -18   8   1   80.99    6.10
 -16  -8   1   63.29    4.80
  16  -8  -1   66.89    5.00
 -16   8   1   70.49    5.30
  14  -8  -1    1.50    1.00
 -14  -8   1    3.80    1.20
 -14   8   1    4.40    1.50
 -12  -8   1   77.29    4.60
 -12  -8   1   87.49    4.90
  12  -8  -1   83.89    5.20
 -12   8   1   77.19    5.30
 -10  -8   1  525.15   21.40
  10  -8  -1  561.14   22.60
 -10   8   1  526.55   22.30
   8  -8  -1  152.08    7.20
  -8  -8   1  136.69    6.30
  -8   8   1  134.59    7.10
   6  -8  -1  219.68    9.80
  -6  -8   1  219.08    8.90
  -6  -8   1  209.58    8.70
   6  -8  -1  200.58    9.50
  -6   8   1  205.78    9.60
  -4  -8   1  564.84   21.00
   4  -8  -1  551.24   22.10
  -4  -8   1  554.84   21.10
   4  -8  -1  525.45   22.10
  -4   8   1  550.44   22.10
  -2  -8   1  220.88    8.80
   2  -8  -1  222.38    9.90
   2  -8  -1  234.98   10.00
  -2  -8   1  218.68    8.80
  -2   8   1  230.38    9.90
   0  -8  -1   99.09    5.10
   0  -8  -1   97.19    5.10
   0  -8   1  101.39    4.30
   0  -8   1  100.99    4.30
   0   8   1   96.99    5.00
  -2  -8  -1   48.00    3.20
  -2  -8  -1   49.20    3.70
   2  -8   1   53.99    2.70
   2  -8   1   51.09    2.60
   2   8   1   45.60    3.00
  -4  -8  -1   75.89    4.20
   4  -8   1   69.49    3.80
   4  -8   1   71.39    4.00
  -4  -8  -1   77.49    4.30
   4   8   1   73.39    4.10
  -4   8  -1   73.79    3.40
  -6  -8  -1   52.09    3.40
   6  -8   1   52.49    3.30
   6  -8   1   47.90    3.00
  -6   8  -1   58.59    3.30
   6   8   1   53.39    3.40
   8  -8   1   27.90    2.30
  -8  -8  -1   27.40    2.60
  -8  -8  -1   26.50    2.40
   8   8   1   31.30    2.50
  10  -8   1  226.68   10.60
 -10  -8  -1  219.58   10.50
 -10  -8  -1  237.28   11.00
  10  -8   1  223.88   10.40
  10   8   1  224.18   10.50
 -10   8  -1  234.88   10.30
  12  -8   1  597.04   24.30
  12  -8   1  573.14   24.50
 -12  -8  -1  579.54   24.30
 -12  -8  -1  610.64   24.90
 -12   8  -1  601.44   24.20
  12   8   1  580.34   24.30
  14  -8   1   77.59    5.30
  14  -8   1   75.29    5.10
 -14  -8  -1   74.69    5.40
 -14  -8  -1   74.29    5.10
  14   8   1   81.09    5.10
  16  -8   1   91.29    5.80
 -16  -8  -1   79.79    5.90
 -16  -8  -1   76.59    5.50
  16   8   1   79.49    5.40
 -16   8  -1   81.69    5.60
  18  -8   1  212.48   11.20
 -18  -8  -1  204.08   11.40
  18   8   1  201.98   10.70
 -18   8  -1  206.98   11.10
 -20  -8  -1   13.60    3.10
  20  -8   1   10.70    2.30
 -20   8  -1   12.30    2.90
  20   8   1   15.40    2.90
  22  -8   1   -0.30    0.90
 -22  -8  -1   -0.20    1.20
 -22   8  -1   -0.10    0.90
  22   8   1   -0.70    0.70
 -24  -8  -1   56.49    7.00
  24  -8   1   72.29   12.40
 -24   8  -1   60.99    7.30
  26  -8   1   15.20    3.50
 -26  -8  -1   18.20    3.90
  28  -8   1    4.60    2.30
 -28  -8  -1    1.40    1.70
 -29  -9   1   82.59    8.10
  29  -9  -1   79.59    7.50
 -27  -9   1   91.89    7.80
  27  -9  -1   84.39    8.00
 -27   9   1   86.89    7.90
  25  -9  -1   30.80    4.90
 -25  -9   1   33.90    5.50
 -25   9   1   38.10    6.00
  23  -9  -1    9.20    2.80
 -23  -9   1    6.40    2.20
 -23   9   1    5.90    2.50
  21  -9  -1    8.40    2.30
 -21  -9   1    7.30    2.20
 -21  -9   1    5.70    1.70
 -21   9   1    5.00    1.90
 -19  -9   1   14.80    3.30
  19  -9  -1   17.80    3.10
 -19   9   1   16.50    3.30
 -17  -9   1   12.00    2.50
  17  -9  -1    9.20    2.10
 -17   9   1   10.40    2.30
 -15  -9   1   73.19    4.80
  15  -9  -1   81.09    5.50
 -15  -9   1   76.09    5.30
 -15   9   1   79.69    5.60
 -13  -9   1    6.80    1.50
  13  -9  -1    3.30    1.10
 -13  -9   1    4.90    1.30
 -13   9   1    7.00    1.60
 -11  -9   1   96.09    5.30
  11  -9  -1   91.79    5.60
 -11  -9   1   92.19    5.00
  11  -9  -1   83.99    5.60
 -11   9   1   95.89    5.80
  -9  -9   1   48.50    3.20
   9  -9  -1   51.29    3.70
   9  -9  -1   53.79    3.90
  -9  -9   1   50.69    3.10
  -9   9   1   59.29    4.70
   7  -9  -1  160.88    8.00
  -7  -9   1  155.88    7.00
   7  -9  -1  162.48    7.90
  -7  -9   1  157.88    7.20
  -7   9   1  173.38    8.10
   5  -9  -1   -0.20    0.50
  -5  -9   1    0.20    0.30
  -5  -9   1    0.10    0.30
   5  -9  -1    1.40    0.80
  -5   9   1    0.40    0.50
   3  -9  -1  644.74   27.10
  -3  -9   1  688.43   26.50
   3  -9  -1  678.93   27.10
  -3  -9   1  675.83   26.00
  -3   9   1  724.13   27.20
  -1  -9   1   57.49    2.80
   1  -9  -1   63.89    3.80
   1  -9  -1   59.99    3.70
  -1  -9   1   62.79    2.90
  -1   9   1   51.89    3.40
  -1  -9  -1  129.69    6.40
   1  -9   1  126.59    5.60
   1   9   1  128.29    6.20
   3  -9   1   32.40    2.00
   3  -9   1   29.30    2.00
  -3  -9  -1   29.10    2.90
   3   9   1   34.00    2.40
   5  -9   1    9.60    1.40
  -5  -9  -1    8.30    1.50
   5  -9   1   10.50    1.40
  -5   9  -1   10.70    1.30
   5   9   1    8.30    1.50
  -7  -9  -1   39.40    3.00
  -7  -9  -1   41.70    3.20
   7  -9   1   40.00    2.80
   7  -9   1   36.00    2.80
   7   9   1   42.00    3.00
  -9  -9  -1   78.59    4.90
  -9  -9  -1   79.99    5.10
   9  -9   1   91.89    4.90
   9   9   1   84.19    4.90
  11  -9   1   74.99    4.80
  11  -9   1   67.19    4.50
 -11  -9  -1   73.69    4.70
 -11  -9  -1   72.89    5.00
  11   9   1   77.69    4.70
 -13  -9  -1   88.59    5.60
  13  -9   1   70.69    5.00
 -13  -9  -1   69.19    4.80
  13  -9   1   71.89    4.80
  13   9   1   70.19    4.80
  15  -9   1   81.89    5.70
 -15  -9  -1   86.09    6.00
 -15  -9  -1   76.89    5.40
  15  -9   1   85.09    5.60
 -15   9  -1   79.99    5.40
  15   9   1   77.79    5.30
  17  -9   1   93.69    6.30
 -17  -9  -1   89.09    6.10
 -17  -9  -1   98.09    6.70
  17   9   1   92.19    6.00
 -17   9  -1   85.99    6.10
 -19  -9  -1    2.50    1.70
  19  -9   1    1.20    1.20
  19   9   1   -0.30    0.80
 -19   9  -1    2.10    1.50
  21  -9   1   18.00    3.30
 -21  -9  -1   19.10    3.50
 -21   9  -1   25.20    4.40
  21   9   1   22.30    3.60
 -23  -9  -1   12.00    3.40
  23  -9   1   17.20    3.50
 -23   9  -1   14.40    3.10
  25  -9   1    8.70    2.80
 -25  -9  -1    5.00    2.30
 -27  -9  -1    6.50    2.80
  27  -9   1    2.20    1.90
 -28 -10   1   22.10    4.50
  28 -10  -1   21.80    4.20
  26 -10  -1   89.89    7.50
 -26 -10   1   82.49    7.40
 -26  10   1   76.59   10.80
  24 -10  -1    9.00    2.70
 -24 -10   1   11.80    3.10
 -22 -10   1    2.50    1.40
  22 -10  -1    1.60    1.40
 -22  10   1   -0.30    1.10
  20 -10  -1    4.20    1.70
 -20 -10   1    4.10    1.80
 -20  10   1    1.40    1.40
 -18 -10   1    1.90    2.10
  18 -10  -1    4.80    1.90
 -18 -10   1    0.20    0.50
 -18  10   1    2.60    1.50
 -16 -10   1    3.70    1.40
  16 -10  -1    3.40    1.50
 -16  10   1    5.00    1.70
  14 -10  -1   16.20    2.40
 -14 -10   1   14.50    2.20
 -14 -10   1   13.60    2.40
 -14  10   1   18.30    2.90
 -12 -10   1    0.50    0.50
 -12 -10   1    0.30    0.60
  12 -10  -1    0.40    0.70
 -12  10   1   -0.60    0.40
  10 -10  -1   59.79    4.20
  10 -10  -1   51.29    4.10
 -10 -10   1   57.29    3.70
 -10 -10   1   52.29    3.30
 -10  10   1   58.89    4.30
   8 -10  -1    1.80    0.90
  -8 -10   1    2.30    0.70
   8 -10  -1    3.20    1.10
  -8 -10   1    1.40    0.60
  -8  10   1    2.90    1.10
   6 -10  -1   85.49    5.10
   6 -10  -1   85.19    5.00
  -6 -10   1   83.39    4.10
  -6 -10   1   82.69    4.20
  -6  10   1   87.29    5.00
  -4 -10   1    0.60    0.40
   4 -10  -1    1.70    0.90
  -4 -10   1    0.20    0.30
   4 -10  -1    0.50    0.60
  -4  10   1    0.80    0.60
  -2 -10   1   74.29    3.60
   2 -10  -1   70.89    4.40
  -2 -10   1   75.29    3.60
   2 -10  -1   75.39    4.40
  -2  10   1   80.69    4.40
   0 -10   1  127.19    5.40
   0 -10   1  121.29    5.40
   0 -10  -1  111.99    6.10
   0  10   1  122.79    6.10
   2 -10   1    0.20    0.40
  -2 -10  -1    0.30    0.60
   2 -10   1    0.70    0.50
   2  10   1    0.20    0.40
   4 -10   1   37.40    2.60
  -4 -10  -1   38.40    3.00
   4 -10   1   40.30    2.60
   4  10   1   44.00    2.90
   6 -10   1   90.69    5.00
   6 -10   1   87.29    4.80
  -6 -10  -1   99.09    5.50
   6  10   1   95.69    5.10
  -8 -10  -1  187.98    9.40
  -8 -10  -1  186.78    9.10
   8 -10   1  198.68    8.90
   8 -10   1  192.08    9.10
   8  10   1  184.88    8.90
 -10 -10  -1   30.20    2.90
 -10 -10  -1   23.50    2.80
  10 -10   1   26.20    2.50
  10  10   1   25.30    2.50
  12 -10   1   20.70    2.70
 -12 -10  -1   25.90    3.30
  12 -10   1   16.60    2.50
 -12 -10  -1   18.20    3.00
  12  10   1   22.50    2.80
 -14 -10  -1  188.18    9.90
  14 -10   1  188.48   10.20
 -14 -10  -1  200.98   10.50
  14 -10   1  208.68   10.20
  14  10   1  193.98    9.80
 -14  10  -1  196.88    9.90
  16 -10   1   74.39    5.70
 -16 -10  -1   81.69    5.60
 -16 -10  -1   85.89    6.20
  16 -10   1   83.39    5.80
 -16  10  -1   80.59    5.60
  16  10   1   77.49    5.40
  18 -10   1   27.10    4.00
 -18 -10  -1   17.50    2.90
 -18 -10  -1   19.40    3.50
 -18  10  -1   25.10    3.90
  18  10   1   24.70    3.50
 -20 -10  -1    9.90    2.90
  20 -10   1    9.40    2.60
 -20  10  -1   14.40    3.20
  20  10   1    6.00    2.30
 -22 -10  -1    6.80    2.70
  22 -10   1    7.20    2.40
  24 -10   1   30.40    5.00
 -24 -10  -1   23.80    4.20
 -26 -10  -1    4.60    2.30
  26 -10   1    2.90    1.90
 -27 -11   1   24.50    4.60
  27 -11  -1   24.40    4.60
  25 -11  -1   16.00    3.70
 -25 -11   1    9.10    2.70
  23 -11  -1    1.70    1.70
 -23 -11   1   -0.20    1.10
 -23  11   1    2.10    1.80
  21 -11  -1   -0.20    1.00
 -21 -11   1   -0.20    1.00
 -21  11   1   -0.10    1.00
 -19 -11   1    0.40    0.70
  19 -11  -1    1.00    1.10
 -19 -11   1    0.20    1.00
 -19  11   1   -0.10    1.00
  17 -11  -1   13.90    2.90
 -17 -11   1   11.90    2.20
 -17 -11   1   12.10    2.70
 -17  11   1   13.10    2.80
  15 -11  -1   39.10    3.80
 -15 -11   1   39.60    3.60
 -15 -11   1   38.20    3.20
 -15  11   1   36.70    4.60
 -13 -11   1   -0.10    0.80
 -13 -11   1    0.80    0.70
  13 -11  -1    0.90    0.90
 -13  11   1    0.20    0.70
  11 -11  -1   40.60    3.60
 -11 -11   1   45.70    3.20
  11 -11  -1   46.80    4.00
 -11 -11   1   49.30    3.50
 -11  11   1   50.49    4.00
   9 -11  -1   59.69    4.30
  -9 -11   1   58.99    3.70
  -9 -11   1   58.29    3.50
   9 -11  -1   62.89    4.90
  -9  11   1   62.89    4.40
  -7 -11   1   14.10    1.70
   7 -11  -1   11.70    2.00
   7 -11  -1   19.20    2.70
  -7 -11   1   13.70    1.60
  -7  11   1   14.50    2.10
  -5 -11   1   18.00    1.50
  -5 -11   1   17.00    1.50
   5 -11  -1   15.20    2.10
   5 -11  -1   21.40    2.60
  -5  11   1   22.90    2.70
   3 -11  -1   81.99    4.70
  -3 -11   1   75.19    3.80
  -3 -11   1   79.99    3.80
   3 -11  -1   70.09    4.50
  -3  11   1   75.59    4.50
   1 -11  -1    0.40    0.60
  -1 -11   1    0.30    0.40
  -1 -11   1    1.70    0.60
  -1  11   1    0.10    0.50
  -1 -11  -1  190.08    9.10
   1 -11   1  199.58    8.40
   1 -11   1  192.48    8.20
   1  11   1  193.08    8.90
  -3 -11  -1  265.67   11.70
   3 -11   1  254.77   11.00
   3 -11   1  253.87   10.80
   3  11   1  258.97   11.30
  -5 -11  -1   15.80    2.30
   5 -11   1   13.50    1.70
   5 -11   1   11.70    1.70
   5  11   1   20.10    2.30
   7 -11   1    3.20    1.10
   7 -11   1    2.20    0.80
  -7 -11  -1    3.50    1.20
   7  11   1    5.30    1.40
   9 -11   1    6.80    1.60
   9 -11   1    4.50    1.20
  -9 -11  -1    4.70    1.30
  -9 -11  -1    5.70    1.50
   9  11   1    5.20    1.40
 -11 -11  -1    7.80    1.80
 -11 -11  -1    2.00    1.10
  11 -11   1    6.20    1.50
  11  11   1    3.40    1.30
 -13 -11  -1   69.59    5.20
 -13 -11  -1   60.59    4.70
  13 -11   1   71.09    4.90
  13 -11   1   70.99    5.00
 -13  11  -1   68.89    4.70
  13  11   1   72.39    4.80
 -15 -11  -1    0.20    0.70
  15 -11   1    0.50    1.10
  15 -11   1    0.50    0.90
 -15 -11  -1    0.30    1.00
  15  11   1   -0.60    0.60
 -15  11  -1    1.20    1.00
 -17 -11  -1   17.10    3.20
  17 -11   1    5.90    1.80
 -17 -11  -1   12.90    2.70
  17 -11   1   11.40    2.40
  17  11   1   12.40    2.50
 -17  11  -1   14.50    2.70
  19 -11   1    1.80    2.40
 -19 -11  -1    3.80    1.70
 -19  11  -1    1.60    1.20
  21 -11   1    1.80    1.50
 -21 -11  -1    1.50    1.60
 -23 -11  -1    4.30    2.00
  23 -11   1    3.30    1.80
  25 -11   1   11.50    3.40
 -25 -11  -1    9.80    3.20
  27 -11   1    0.20    1.60
 -27 -11  -1   -0.70    1.30
 -26 -12   1    9.50    3.00
  26 -12  -1    6.70    2.60
 -24 -12   1   11.80    3.00
  24 -12  -1   13.10    3.40
 -22 -12   1   22.50    4.10
  22 -12  -1   23.30    6.30
 -22  12   1   24.80    4.40
 -20 -12   1   19.90    3.60
 -20 -12   1   12.20    2.50
  20 -12  -1   28.90    4.40
 -20  12   1   23.30    4.00
  18 -12  -1   77.79    5.80
 -18 -12   1   57.99    4.70
 -18 -12   1   66.19    5.30
 -18  12   1   60.49    5.40
 -16 -12   1   15.30    2.60
 -16 -12   1   17.00    2.80
  16 -12  -1   15.10    3.00
 -16  12   1   21.70    3.60
 -14 -12   1  135.19    7.70
  14 -12  -1  149.88    8.30
 -14 -12   1  138.79    7.40
 -12 -12   1   23.10    2.30
  12 -12  -1   20.40    3.10
 -12 -12   1   26.10    3.10
  12 -12  -1   21.60    3.30
 -12  12   1   21.50    3.00
  10 -12  -1   37.30    3.40
 -10 -12   1   36.70    2.90
 -10 -12   1   35.90    2.70
  10 -12  -1   34.10    3.20
 -10  12   1   30.20    3.10
   8 -12  -1   24.50    3.10
  -8 -12   1   28.50    2.40
   8 -12  -1   28.60    2.80
  -8 -12   1   28.60    2.20
  -8  12   1   28.80    3.40
   6 -12  -1    9.90    1.70
  -6 -12   1   10.40    1.50
   6 -12  -1   12.00    2.10
  -6 -12   1    9.70    1.40
  -6  12   1   12.80    2.10
   4 -12  -1  510.05   21.00
  -4 -12   1  500.25   19.80
  -4 -12   1  506.65   19.80
   4 -12  -1  475.05   20.90
  -4  12   1  510.35   20.80
  -2 -12   1   14.00    1.60
   2 -12  -1   16.30    2.20
  -2 -12   1   13.50    1.60
  -2  12   1   15.40    2.10
   0 -12  -1   26.00    2.50
   0 -12   1   25.20    1.90
   0 -12   1   25.60    1.90
   0  12   1   27.00    2.30
  -2 -12  -1   25.60    3.00
   2 -12   1   22.00    1.90
   2 -12   1   22.10    1.80
   2  12   1   20.20    2.40
   4 -12   1  114.89    5.90
  -4 -12  -1  111.49    6.30
   4 -12   1  123.59    5.80
   4  12   1  117.79    7.10
  -6 -12  -1    3.80    1.50
  -6 -12  -1    8.70    1.80
   6 -12   1    8.00    1.50
   6 -12   1   14.10    2.10
   6  12   1   14.30    2.00
   8 -12   1  159.48    7.50
   8 -12   1  142.59    7.60
  -8 -12  -1  145.79    7.90
   8  12   1  146.39    7.50
  10 -12   1   84.19    5.10
 -10 -12  -1   77.39    5.40
 -10 -12  -1   75.09    5.80
  10  12   1   80.39    4.90
  12 -12   1  105.29    6.20
 -12 -12  -1   88.39    6.20
 -12 -12  -1   98.09    6.10
  12 -12   1  105.79    6.50
  12  12   1   92.49    5.70
 -12  12  -1   92.99    5.70
  14 -12   1   64.19    5.10
 -14 -12  -1   76.19    5.60
 -14 -12  -1   66.89    5.00
  14 -12   1   74.19    5.20
  14  12   1   70.99    4.90
 -14  12  -1   66.89    4.90
  16 -12   1   84.59    6.20
  16 -12   1   79.19    5.80
 -16 -12  -1   89.19    6.50
 -16 -12  -1   86.09    6.00
  16  12   1   83.49    5.60
 -16  12  -1   74.79    5.60
 -18 -12  -1   11.00    2.70
  18 -12   1   10.10    2.60
 -18  12  -1    9.90    2.60
 -20 -12  -1    3.60    1.90
  20 -12   1    4.30    1.90
  22 -12   1   41.30    5.80
 -22 -12  -1   42.00    6.30
 -24 -12  -1    4.30    2.50
  24 -12   1    2.90    1.80
  26 -12   1   13.70    3.80
 -26 -12  -1    9.80    3.30
  25 -13  -1    9.50    3.00
 -25 -13   1    4.20    2.20
  23 -13  -1   18.10    3.80
 -23 -13   1   12.00    3.10
 -21 -13   1   20.20    3.50
  21 -13  -1   16.60    3.40
 -19 -13   1    2.80    1.40
  19 -13  -1    1.60    1.50
 -19 -13   1    3.00    1.60
 -19  13   1    4.60    2.00
 -17 -13   1   74.49    5.20
  17 -13  -1   74.49    5.80
 -17 -13   1   78.49    5.70
 -17  13   1   67.79    5.70
 -15 -13   1   78.39    5.50
  15 -13  -1   73.39    5.60
 -15 -13   1   82.39    5.20
 -15  13   1   73.29    5.70
 -13 -13   1   76.99    4.80
  13 -13  -1   75.19    5.50
 -13 -13   1   78.69    5.10
 -13  13   1   72.09    5.40
  11 -13  -1  244.38   12.10
 -11 -13   1  254.57   11.40
  11 -13  -1  246.08   12.30
 -11 -13   1  241.18   10.90
 -11  13   1  229.08   11.80
  -9 -13   1    3.00    1.00
   9 -13  -1    2.70    1.20
   9 -13  -1    2.80    1.20
  -9 -13   1    2.70    1.00
  -9  13   1    1.40    1.00
  -7 -13   1   27.70    2.20
   7 -13  -1   20.40    2.70
  -7 -13   1   29.10    2.30
   7 -13  -1   27.00    3.30
  -7  13   1   29.60    2.80
   5 -13  -1   10.50    1.90
   5 -13  -1   10.90    2.10
  -5 -13   1   12.00    1.60
  -5 -13   1    7.80    1.30
  -5  13   1   10.00    1.90
   3 -13  -1  372.16   16.20
  -3 -13   1  367.16   15.10
  -3 -13   1  370.76   15.10
  -3  13   1  377.06   15.90
   1 -13  -1   73.39    4.80
  -1 -13   1   77.39    4.10
  -1 -13   1   71.29    3.90
  -1  13   1   82.49    5.40
  -1 -13  -1  270.67   12.30
   1 -13   1  266.57   11.30
   1 -13   1  262.47   11.40
   1  13   1  276.87   12.00
   3 -13   1   34.60    2.60
   3 -13   1   30.40    2.40
  -3 -13  -1   37.10    3.10
   3  13   1   30.10    2.60
   5 -13   1   47.80    3.30
  -5 -13  -1   49.40    3.80
   5 -13   1   47.90    3.40
   5  13   1   52.49    3.50
   7 -13   1  186.88    9.00
   7 -13   1  179.88    8.70
  -7 -13  -1  183.98    9.40
   7  13   1  178.08    8.70
   9 -13   1   40.20    3.20
   9 -13   1   39.40    3.80
  -9 -13  -1   40.70    3.60
   9  13   1   37.00    3.10
 -11 -13  -1    6.80    1.90
  11 -13   1    5.90    1.60
  11  13   1    5.50    1.50
  13 -13   1  144.79    7.70
 -13 -13  -1  114.09    7.30
 -13 -13  -1  129.09    7.90
  13 -13   1  119.69    7.50
  13  13   1  139.99    9.10
 -15 -13  -1   33.90    4.00
  15 -13   1   24.90    3.90
  15 -13   1   45.10    5.30
 -15  13  -1   35.10    3.40
  17 -13   1  197.98   10.90
 -17 -13  -1  200.38   11.30
  19 -13   1    0.70    1.10
 -19 -13  -1    1.90    1.60
 -21 -13  -1    6.60    2.60
  21 -13   1    8.90    2.70
  23 -13   1    9.40    2.90
 -23 -13  -1    7.20    2.60
 -25 -13  -1   98.39    8.30
  25 -13   1   79.49    7.40
  24 -14  -1   37.10    5.60
 -24 -14   1   36.30    5.30
 -22 -14   1   10.70    2.70
  22 -14  -1   14.70    3.30
  20 -14  -1   58.89    5.60
 -20 -14   1   65.29    5.60
 -18 -14   1   66.29    5.50
  18 -14  -1   76.19    6.10
 -18 -14   1   72.59    5.30
 -18  14   1   63.39    5.80
  16 -14  -1   41.90    5.10
 -16 -14   1   38.90    3.90
 -16 -14   1   40.20    3.60
 -16  14   1   39.40    4.90
 -14 -14   1   44.80    3.90
  14 -14  -1   49.30    4.40
 -14 -14   1   46.10    3.60
 -14  14   1   35.60    4.40
  12 -14  -1   85.29    6.30
 -12 -14   1   95.09    5.70
  12 -14  -1  101.09    6.40
 -12 -14   1   92.19    5.40
 -12  14   1   89.19    6.10
  10 -14  -1  512.15   23.00
 -10 -14   1  523.85   21.60
 -10 -14   1  517.35   21.30
  10 -14  -1  533.45   22.60
 -10  14   1  520.55   22.50
   8 -14  -1    2.70    1.20
  -8 -14   1    3.10    1.10
   8 -14  -1    1.50    1.00
  -8 -14   1    1.90    0.90
  -8  14   1    1.90    1.10
   6 -14  -1   64.19    4.70
  -6 -14   1   63.79    3.80
   6 -14  -1   67.49    4.70
  -6 -14   1   67.49    3.90
  -6  14   1   68.19    4.50
  -4 -14   1   49.40    3.10
   4 -14  -1   50.79    3.90
  -4 -14   1   49.20    3.10
  -4  14   1   54.09    3.90
  -2 -14   1  348.67   14.20
   2 -14  -1  346.67   15.20
  -2 -14   1  334.37   14.10
  -2  14   1  340.57   14.80
   0 -14  -1  155.78    7.90
   0 -14   1  146.79    6.90
   0 -14   1  143.09    7.00
   0  14   1  147.39    7.40
   2 -14   1  138.69    6.70
  -2 -14  -1  135.19    7.40
   2 -14   1  133.89    6.50
   2  14   1  137.99    8.10
   4 -14   1  200.18    9.20
  -4 -14  -1  211.58   10.10
   4 -14   1  202.28    9.40
  -4 -14  -1  187.58    9.70
  -6 -14  -1   46.50    3.80
   6 -14   1   46.90    3.40
   6 -14   1   42.10    3.30
   8 -14   1   15.40    2.50
  -8 -14  -1    9.00    2.10
   8 -14   1   10.10    1.90
  10 -14   1  158.58    8.30
 -10 -14  -1  161.88    8.80
  10 -14   1  155.38    8.70
  12 -14   1   76.19    8.80
 -12 -14  -1  108.59    6.80
  12 -14   1   99.19    6.20
 -14 -14  -1   82.89    6.10
  14 -14   1   83.19    5.70
  14 -14   1   72.79    5.70
 -14 -14  -1   76.09    5.60
  16 -14   1  158.28    9.30
 -16 -14  -1  178.88   10.00
 -16 -14  -1  147.69    9.10
  18 -14   1   50.29    4.80
 -18 -14  -1   39.70    5.40
 -20 -14  -1    9.00    2.70
  20 -14   1   10.30    2.70
  22 -14   1    1.10    1.50
 -22 -14  -1    0.20    1.40
  24 -14   1  230.08   13.90
 -24 -14  -1  246.88   14.40
 -23 -15   1   32.40    4.90
  23 -15  -1   40.50    5.50
  21 -15  -1   19.30    4.00
 -21 -15   1   13.90    3.20
 -19 -15   1  114.69    7.60
 -19 -15   1  102.99    7.80
  19 -15  -1  105.59    7.80
  17 -15  -1  119.39    8.00
 -17 -15   1  110.79    7.00
 -17 -15   1  124.49    7.70
  15 -15  -1   -0.50    1.10
 -15 -15   1    0.30    0.80
 -15 -15   1    0.40    0.90
 -15  15   1    0.00    0.80
  13 -15  -1  101.29    7.40
  13 -15  -1  109.49    7.10
 -13 -15   1  116.49    6.60
 -13 -15   1  100.49    6.00
 -13  15   1  100.29    6.80
 -11 -15   1  123.99    6.60
 -11 -15   1  129.99    7.40
  11 -15  -1  114.69    7.60
  11 -15  -1  129.29    7.80
 -11  15   1  126.59    7.50
  -9 -15   1  362.86   15.30
   9 -15  -1  333.47   16.40
  -9 -15   1  339.27   15.00
   9 -15  -1  375.66   16.40
  -9  15   1  361.16   16.20
  -7 -15   1   64.99    4.00
   7 -15  -1   63.39    4.90
   7 -15  -1   66.19    4.80
  -7 -15   1   66.79    4.10
  -7  15   1   65.99    4.60
   5 -15  -1   29.80    3.80
   5 -15  -1   36.40    3.30
  -5 -15   1   35.90    2.70
  -5 -15   1   35.80    2.60
  -5  15   1   27.80    2.80
   3 -15  -1  350.46   15.20
  -3 -15   1  341.67   14.10
  -3 -15   1  318.17   14.00
  -3  15   1  327.37   14.60
  -1 -15   1   72.49    4.40
   1 -15  -1   83.19    5.30
  -1 -15   1   82.39    4.40
   1 -15   1   83.19    4.80
   1 -15   1   91.19    4.80
  -1 -15  -1   92.19    5.60
  -1 -15  -1   77.89    5.30
  -3 -15  -1  304.97   13.90
   3 -15   1  307.17   13.20
   3 -15   1  300.07   12.90
  -3 -15  -1  289.07   13.70
   5 -15   1  144.99    7.70
  -5 -15  -1  151.48    8.20
   5 -15   1  149.19    7.50
  -5 -15  -1  162.68    8.40
  -7 -15  -1    0.80    0.80
  -7 -15  -1    2.80    1.20
   7 -15   1    1.10    0.80
   7 -15   1    0.30    0.70
   9 -15   1  156.88    8.50
  -9 -15  -1  148.09    8.70
   9 -15   1  164.88    8.30
  11 -15   1  238.58   11.90
 -11 -15  -1  267.77   14.70
  11 -15   1  207.78   12.40
 -13 -15  -1   87.69    6.20
  13 -15   1   71.99    5.50
 -15 -15  -1   61.69    5.20
  15 -15   1   74.39    5.50
 -15 -15  -1   67.19    5.60
  15 -15   1   54.59    6.80
  17 -15   1  194.48   11.00
 -17 -15  -1  198.48   11.40
  19 -15   1    8.00    2.40
 -19 -15  -1    6.40    2.30
 -21 -15  -1   19.50    3.80
  21 -15   1   16.90    3.50
 -23 -15  -1  106.09    8.50
  23 -15   1  104.69    8.30
  24 -16  -1   47.40    6.30
 -24 -16   1   55.09    6.80
 -22 -16   1   39.80    5.40
  22 -16  -1   31.10    4.90
  20 -16  -1   72.59    6.40
 -20 -16   1   69.89    6.00
 -18 -16   1   51.59    4.80
 -18 -16   1   50.49    4.50
  18 -16  -1   51.89    6.10
  16 -16  -1   93.09    6.80
 -16 -16   1   93.49    6.00
 -16 -16   1   85.09    6.20
 -14 -16   1   30.50    3.70
 -14 -16   1   26.30    3.30
  14 -16  -1   34.00    4.70
 -12 -16   1   67.69    4.60
 -12 -16   1   72.29    4.90
  12 -16  -1   67.09    5.70
  12 -16  -1   68.29    5.80
 -12  16   1   69.19    5.90
 -10 -16   1   97.99    5.80
 -10 -16   1  100.09    5.60
  10 -16  -1   93.59    6.70
  10 -16  -1   99.19    6.50
 -10  16   1   93.69    6.20
  -8 -16   1  329.57   14.20
   8 -16  -1  358.36   15.70
  -8 -16   1  328.47   15.00
   8 -16  -1  309.37   15.50
  -8  16   1  323.57   15.10
  -6 -16   1  231.78   10.20
   6 -16  -1  203.68   11.20
  -6 -16   1  221.38   10.10
   6 -16  -1  233.28   11.30
  -4 -16   1  173.08    8.30
   4 -16  -1  188.98    9.50
  -4 -16   1  170.68    8.30
  -2 -16   1   87.59    5.00
   2 -16  -1   92.49    5.80
  -2 -16   1   92.19    5.00
   0 -16   1  135.69    6.60
   0 -16  -1  124.49    7.40
   0 -16  -1  128.59    7.50
   0 -16   1  136.89    6.80
   2 -16   1   64.79    4.20
  -2 -16  -1   68.59    4.90
  -2 -16  -1   53.29    4.40
   2 -16   1   71.59    4.10
  -4 -16  -1  125.19    7.70
   4 -16   1  148.79    7.30
   4 -16   1  145.19    7.50
  -4 -16  -1  153.28    8.20
   6 -16   1  109.29    6.20
   6 -16   1  104.79    6.00
  -6 -16  -1  102.39    6.50
  -6 -16  -1  107.69    6.70
  -8 -16  -1   85.09    5.90
   8 -16   1   99.19    6.00
   8 -16   1  100.39    7.10
  -8 -16  -1   93.89    6.60
 -10 -16  -1  130.89    8.70
  10 -16   1  177.48    9.10
  10 -16   1  175.18    9.30
 -10 -16  -1  204.88   10.00
 -12 -16  -1  165.08    9.40
  12 -16   1  165.18    8.90
  12 -16   1  149.09    9.00
 -14 -16  -1   62.09    5.40
  14 -16   1   60.69    5.00
 -16 -16  -1   36.40    5.00
  16 -16   1   29.70    4.30
 -18 -16  -1  112.29    8.10
  18 -16   1  104.09    7.60
 -20 -16  -1   69.49    6.50
  20 -16   1   75.19    6.40
 -22 -16  -1   58.49    7.30
  22 -16   1   66.69    6.30
 -21 -17   1   49.10    5.90
  21 -17  -1   42.60    5.70
 -19 -17   1   16.60    3.30
  19 -17  -1   18.40    3.60
 -17 -17   1   53.59    4.60
 -17 -17   1   71.19    5.50
  17 -17  -1   59.99    5.60
  15 -17  -1   97.79    7.20
 -15 -17   1  106.39    6.50
 -15 -17   1  104.49    6.80
 -13 -17   1    5.40    1.50
  13 -17  -1    6.70    1.90
 -13 -17   1    4.50    1.50
 -11 -17   1   51.69    3.90
  11 -17  -1   54.19    4.80
 -11 -17   1   53.79    4.10
  -9 -17   1   99.59    5.80
   9 -17  -1  107.59    6.80
   9 -17  -1   93.19    6.70
  -9 -17   1   92.49    5.60
   7 -17  -1  231.18   12.10
  -7 -17   1  229.68   11.70
  -7 -17   1  239.68   10.90
  -5 -17   1  484.05   22.50
  -5 -17   1  493.35   21.20
   5 -17  -1  492.55   21.40
   3 -17  -1   18.60    2.80
  -3 -17   1   18.40    2.50
  -3 -17   1   25.50    2.40
  -1 -17   1   58.89    3.90
   1 -17  -1   57.69    4.60
   1 -17  -1   66.99    4.80
  -1 -17   1   61.49    3.90
  -1 -17  -1   68.19    4.90
   1 -17   1   62.89    4.10
  -1 -17  -1   67.99    5.00
   1 -17   1   66.29    4.30
   3 -17   1   95.69    5.70
  -3 -17  -1  100.29    6.40
   3 -17   1  112.59    7.90
   5 -17   1   11.80    2.10
   5 -17   1   10.90    2.10
  -5 -17  -1   10.30    3.00
  -7 -17  -1  284.17   13.70
   7 -17   1  267.47   13.00
   7 -17   1  284.67   13.00
  -9 -17  -1   89.19    6.20
   9 -17   1   90.69    6.10
   9 -17   1  105.19    6.20
  -9 -17  -1   96.59    6.50
 -11 -17  -1  157.48    9.00
 -11 -17  -1  157.28    9.20
  11 -17   1  153.38    8.70
  11 -17   1  156.78    9.00
  13 -17   1   34.20    4.50
 -13 -17  -1   30.00    4.20
 -15 -17  -1   76.79    6.20
  15 -17   1   73.39    5.80
  17 -17   1    7.10    2.10
 -17 -17  -1   10.70    2.80
 -19 -17  -1  169.28   11.00
  19 -17   1  182.78   10.90
  21 -17   1   95.89    7.70
 -21 -17  -1   97.49    7.90
  20 -18  -1    2.80    1.90
 -20 -18   1    5.40    3.10
 -18 -18   1   27.80    4.10
  18 -18  -1   30.00    4.90
  16 -18  -1   60.89    5.60
 -16 -18   1   63.59    4.90
 -16 -18   1   59.69    5.10
 -14 -18   1    9.70    2.20
  14 -18  -1    8.30    2.40
 -14 -18   1    7.20    2.00
 -12 -18   1   32.50    4.60
  12 -18  -1   30.50    4.20
 -12 -18   1   30.00    3.60
 -10 -18   1   19.00    2.80
 -10 -18   1   21.00    2.80
  10 -18  -1   18.00    3.30
  -8 -18   1  204.38    9.90
  -8 -18   1  202.78    9.70
   8 -18  -1  204.28   10.90
   8 -18  -1  198.78   11.10
   6 -18  -1  114.59    7.10
  -6 -18   1  106.79    6.10
  -6 -18   1  108.99    6.00
  -4 -18   1  189.68    9.10
   4 -18  -1  186.38   10.10
  -4 -18   1  194.48    9.20
  -2 -18   1   19.20    2.40
   2 -18  -1   20.70    3.30
   2 -18  -1   17.00    2.90
   0 -18  -1    3.50    1.60
   0 -18   1    2.90    1.10
   0 -18  -1    4.70    1.90
   0 -18   1    5.00    1.40
  -2 -18  -1  138.59    8.00
   2 -18   1  142.49    7.40
   2 -18   1  134.69    7.10
  -2 -18  -1  126.69    7.90
   4 -18   1   23.80    3.30
  -4 -18  -1   23.80    3.30
  -4 -18  -1   23.40    3.50
   4 -18   1   23.10    2.90
   6 -18   1    5.40    1.60
   6 -18   1    8.20    2.00
  -6 -18  -1    7.90    2.20
  -6 -18  -1    5.40    1.70
   8 -18   1  134.09    7.40
   8 -18   1  121.39    7.40
  -8 -18  -1  128.89    7.80
  -8 -18  -1  129.69    8.00
 -10 -18  -1  120.29    7.60
  10 -18   1  108.89    7.20
  10 -18   1  119.69    7.10
  12 -18   1   46.30    4.50
  12 -18   1   49.30    4.40
 -12 -18  -1   51.79    4.80
 -14 -18  -1   36.40    5.00
  14 -18   1   37.10    4.50
  16 -18   1   35.50    4.80
 -16 -18  -1   30.70    4.70
 -18 -18  -1   33.90    5.00
  18 -18   1   35.40    5.20
  20 -18   1   47.40    5.90
 -20 -18  -1   73.79    6.60
  19 -19  -1   19.60    3.90
 -19 -19   1   15.00    3.40
  17 -19  -1    3.20    1.70
 -17 -19   1    4.20    1.80
  15 -19  -1   14.80    3.30
 -15 -19   1   13.70    2.70
 -15 -19   1   14.80    3.00
 -13 -19   1   12.20    2.30
 -13 -19   1   12.40    2.50
  13 -19  -1   11.70    2.70
 -11 -19   1    9.20    2.00
 -11 -19   1   11.70    2.30
  11 -19  -1    6.20    2.00
   9 -19  -1  151.78    8.70
  -9 -19   1  129.19    7.30
  -9 -19   1  124.19    7.10
   7 -19  -1   66.29    6.00
   7 -19  -1   63.49    5.20
  -7 -19   1   65.79    4.40
  -7 -19   1   64.29    4.50
  -5 -19   1   44.00    3.50
   5 -19  -1   45.60    4.20
  -5 -19   1   42.80    3.40
  -3 -19   1   12.70    2.00
   3 -19  -1   11.10    2.50
   3 -19  -1   14.00    2.70
  -3 -19   1    9.10    1.80
   1 -19  -1   57.19    5.70
  -1 -19   1   67.19    4.40
  -1 -19   1   62.29    4.20
   1 -19  -1   64.89    5.00
   1 -19   1   29.40    3.60
   1 -19   1   27.20    2.60
  -1 -19  -1   22.30    3.50
  -1 -19  -1   22.80    3.50
  -3 -19  -1   14.50    2.80
  -3 -19  -1   15.40    3.00
   3 -19   1   15.50    2.50
   3 -19   1   13.50    2.20
   5 -19   1   67.29    4.60
   5 -19   1   62.79    4.60
  -5 -19  -1   54.99    4.80
  -5 -19  -1   59.59    5.00
  -7 -19  -1   26.80    4.00
   7 -19   1   25.20    3.30
   7 -19   1   31.10    4.00
  -7 -19  -1   30.00    4.00
   9 -19   1   67.39    5.20
   9 -19   1   67.49    5.00
  -9 -19  -1   68.79    5.50
  -9 -19  -1   62.79    5.20
  11 -19   1   73.79    6.20
 -11 -19  -1   71.09    5.90
  11 -19   1   73.69    5.50
 -13 -19  -1   75.09    6.20
  13 -19   1   76.59    5.80
 -15 -19  -1   16.20    3.40
  15 -19   1   19.60    3.50
 -17 -19  -1    5.10    2.30
  17 -19   1    2.70    1.70
  19 -19   1   43.50    5.60
 -19 -19  -1   55.09    9.20
  18 -20  -1    2.60    1.80
 -18 -20   1    1.60    1.60
 -16 -20   1    0.80    1.20
  16 -20  -1    1.10    1.40
 -14 -20   1    2.30    1.40
 -14 -20   1    0.10    0.90
  14 -20  -1    0.10    1.10
  12 -20  -1   15.70    3.30
 -12 -20   1    7.50    1.80
 -12 -20   1   12.60    2.40
  10 -20  -1   35.10    4.70
 -10 -20   1   36.20    3.30
 -10 -20   1   36.70    3.50
  -8 -20   1   26.80    3.20
  -8 -20   1   32.40    3.10
   8 -20  -1   31.20    4.50
  -6 -20   1   41.70    3.50
   6 -20  -1   36.90    4.60
  -6 -20   1   40.20    3.40
  -4 -20   1   21.00    2.80
   4 -20  -1   26.10    3.90
  -4 -20   1   22.10    2.90
   4 -20  -1   18.40    3.40
  -2 -20   1   61.39    4.40
  -2 -20   1   64.49    4.30
   2 -20  -1   66.69    5.20
   0 -20   1   25.50    3.30
   0 -20  -1   20.00    3.40
   0 -20   1   23.80    3.00
   0 -20  -1   23.00    3.30
  -2 -20  -1   35.90    4.40
   2 -20   1   40.30    3.40
   2 -20   1   41.80    5.70
  -2 -20  -1   37.00    4.60
  -4 -20  -1    4.90    1.80
   4 -20   1    9.80    2.20
   4 -20   1    6.80    1.70
  -4 -20  -1    6.50    2.00
   6 -20   1    4.20    1.50
   6 -20   1    1.20    1.00
  -6 -20  -1    3.30    1.60
  -6 -20  -1    2.80    1.40
   8 -20   1    0.90    1.10
   8 -20   1    1.80    1.20
  -8 -20  -1    2.50    1.50
 -10 -20  -1    0.20    1.10
  10 -20   1    0.70    1.00
 -12 -20  -1  172.18   10.20
  12 -20   1  162.48    9.60
  14 -20   1   11.10    2.60
 -14 -20  -1    8.30    2.40
  16 -20   1   24.20    4.20
 -16 -20  -1   20.20    4.00
  18 -20   1    9.80    2.80
 -18 -20  -1    7.60    2.60
 -17 -21   1   13.60    3.00
  17 -21  -1    6.90    2.50
  15 -21  -1    0.50    1.20
  13 -21  -1    2.90    1.90
 -13 -21   1    3.00    1.50
 -13 -21   1    2.20    1.30
  11 -21  -1    0.60    1.30
 -11 -21   1    0.80    1.10
 -11 -21   1    0.60    0.90
  -9 -21   1    4.90    1.60
  -9 -21   1    6.10    1.70
   9 -21  -1    7.00    2.10
  -7 -21   1    5.90    1.70
  -7 -21   1    6.00    1.60
   7 -21  -1    7.50    2.10
  -5 -21   1    1.80    1.10
   5 -21  -1    0.70    1.10
  -5 -21   1    0.00    0.90
  -3 -21   1    0.40    0.80
   3 -21  -1   -0.90    0.80
  -3 -21   1    0.40    0.80
  -1 -21   1    2.70    1.30
   1 -21  -1    3.00    1.60
  -1 -21   1    3.80    1.50
  -1 -21  -1   47.60    4.50
   1 -21   1   43.30    3.90
  -1 -21  -1   67.39    8.80
   1 -21   1   50.39    3.90
   3 -21   1   53.19    4.40
   3 -21   1   54.79    4.20
  -3 -21  -1   54.59    4.90
   5 -21   1    2.10    1.20
   5 -21   1    1.70    1.20
  -5 -21  -1    0.00    1.00
   7 -21   1    2.40    1.30
   7 -21   1   -0.40    0.70
  -7 -21  -1    3.40    1.70
  -9 -21  -1    1.90    1.60
   9 -21   1    1.10    1.00
 -11 -21  -1    0.70    1.20
  11 -21   1   -0.20    0.90
 -13 -21  -1   22.40    3.90
  13 -21   1   30.70    4.20
 -15 -21  -1   13.80    4.80
  15 -21   1   29.20    6.50
  14 -22  -1    4.90    2.30
 -14 -22   1    2.50    1.60
 -12 -22   1    2.90    1.50
 -12 -22   1    3.50    1.50
  12 -22  -1    3.80    1.70
  10 -22  -1    6.50    2.20
 -10 -22   1   11.30    2.20
 -10 -22   1   13.50    2.50
  -8 -22   1    0.40    1.00
  -8 -22   1   -0.70    0.70
   8 -22  -1    1.10    1.30
  -6 -22   1    0.60    0.90
  -6 -22   1    1.20    1.00
   6 -22  -1    0.20    1.10
  -4 -22   1    9.50    2.00
  -4 -22   1    9.70    2.00
   4 -22  -1    9.70    2.40
   2 -22  -1    4.70    1.80
  -2 -22   1    2.40    1.10
  -2 -22   1    2.30    1.20
   0 -22   1    2.40    1.30
   0 -22   1    2.40    1.30
   0 -22  -1    2.20    1.40
   2 -22   1   66.09    5.10
  -2 -22  -1   72.29    5.70
   2 -22   1   71.19    5.00
  -4 -22  -1   22.20    3.80
   4 -22   1   19.60    3.00
   4 -22   1   21.90    3.40
  -6 -22  -1    9.10    2.40
   6 -22   1    5.40    1.80
  -8 -22  -1    5.20    2.10
   8 -22   1    5.80    1.80
  10 -22   1    7.70    2.20
 -10 -22  -1    6.40    2.20
 -12 -22  -1   19.20    3.80
  12 -22   1   18.00    3.60
  14 -22   1   20.80    3.80
 -14 -22  -1   17.50    3.60
  11 -23  -1   13.20    3.60
 -11 -23   1   12.20    2.50
  -9 -23   1   13.20    2.60
  -9 -23   1   12.20    2.40
   9 -23  -1   10.20    2.70
  -7 -23   1    5.20    1.70
   7 -23  -1    4.60    2.10
  -7 -23   1    2.90    1.30
   5 -23  -1    0.00    1.20
  -5 -23   1    2.40    1.30
  -5 -23   1   -0.20    0.80
  -3 -23   1    0.50    0.80
  -3 -23   1    0.40    0.90
   3 -23  -1   -0.50    1.00
  -1 -23   1   20.20    3.20
   1 -23  -1   12.70    2.80
  -1 -23   1   20.50    2.90
  -1 -23  -1   53.79    5.00
   1 -23   1   48.70    4.40
   1 -23   1   58.99    4.50
   3 -23   1   39.40    4.70
   3 -23   1   48.00    4.10
  -3 -23  -1   49.90    4.80
   5 -23   1   33.70    4.00
   5 -23   1   34.40    7.10
  -5 -23  -1   27.40    4.20
  -7 -23  -1   14.30    3.10
  -9 -23  -1   19.70    4.60
 -11 -23  -1   12.20    3.00
  11 -23   1   11.30    2.80
  -8 -24   1   30.30    3.70
   8 -24  -1   25.30    4.10
  -6 -24   1    4.30    1.70
  -6 -24   1    5.00    1.70
  -4 -24   1   -0.90    0.80
  -4 -24   1    1.50    1.70
   4 -24  -1   -0.40    0.80
   2 -24  -1   43.10    5.20
  -2 -24   1   42.70    4.00
  -2 -24   1   43.20    3.80
   0 -24  -1   80.69    6.20
   0 -24   1   63.19    4.90
   0 -24   1   62.79    5.00
   2 -24   1   29.30    4.20
  -2 -24  -1   31.90    4.50
   4 -24   1   25.00    5.60
  -4 -24  -1   44.80    8.90
   6 -24   1    6.90    1.90
  -6 -24  -1    9.90    2.70
   8 -24   1   10.30    2.40
  -8 -24  -1    9.20    2.50
  -3 -25   1   60.59    4.70
   3 -25  -1   72.29    5.90
  -1 -25   1   18.30    2.90
   1 -25  -1   26.30    4.20
  -1 -25  -1   79.99    6.50
   1 -25   1   79.69    5.60
  -3 -25  -1   26.30    4.30
   3 -25   1   19.90    3.20
 -30   0   2   22.50    5.30
 -28   0   2  275.87   16.00
 -26   0   2  101.79    8.10
  24   0  -2   44.80    5.30
 -24   0   2   60.29    5.70
 -22   0   2  147.89    9.70
  22   0  -2  168.68    9.30
 -20   0   2  217.48   11.70
  20   0  -2  202.88   10.70
 -18   0   2   28.60    4.10
  18   0  -2   19.60    3.10
  16   0  -2  330.77   15.00
 -16   0   2  339.87   15.20
 -16   0   2  347.17   15.80
 -14   0   2 1195.58   44.00
  14   0  -2 1136.79   43.10
 -14   0   2  956.30   45.40
 -12   0   2  256.07   11.60
  12   0  -2  241.68   11.00
 -12   0   2  249.68   11.10
 -10   0   2  247.98   11.60
  10   0  -2  280.47   11.70
 -10   0   2  292.17   12.20
   8   0  -2 1495.65   61.89
  -8   0   2 1450.45   63.79
  -8   0   2 1465.95   62.39
  -6   0   2  239.48   10.40
   6   0  -2  243.98   10.10
   4   0  -2    2.90    0.60
  -4   0   2    2.60    0.70
   2   0  -2   79.99    3.90
  -2   0   2   86.09    4.10
   0   0  -2 1527.45   62.59
   0   0   2 1565.64   63.39
   2   0   2  612.24   25.10
  -2   0  -2  680.53   25.20
   4   0   2 1096.29   48.70
  -4   0  -2 1145.89   48.80
   4   0   2 1083.59   48.50
   6   0   2 1491.85   57.09
   8   0   2   79.79    4.70
  -8   0  -2   85.19    4.80
   8   0   2   83.39    4.90
  10   0   2  239.18   11.10
  10   0   2  237.18   11.20
 -10   0  -2  254.77   11.30
 -12   0  -2  149.49    8.20
  12   0   2  164.48    8.20
  14   0   2 1616.04   63.99
 -14   0  -2 1681.33   64.39
  16   0   2   11.20    2.40
 -16   0  -2    9.10    1.90
 -18   0  -2   95.39    6.50
  18   0   2   77.49    5.90
  20   0   2    6.70    2.10
 -20   0  -2    6.20    2.30
 -22   0  -2  166.68   10.40
  22   0   2  166.78   10.10
 -24   0  -2  172.58   11.10
  24   0   2  179.68   10.90
 -26   0  -2   75.79    7.10
  26   0   2   79.99    7.00
  28   0   2   96.39    8.30
 -28   0  -2  113.99    9.10
 -29  -1   2  101.29    8.90
 -29   1   2  121.19    9.50
 -27  -1   2   75.59    7.10
 -27   1   2   78.99    7.20
 -25  -1   2   46.20    5.70
  25  -1  -2   49.30    4.90
 -25   1   2   54.49    8.20
  23  -1  -2    2.60    1.60
 -23  -1   2    3.70    1.70
  23   1  -2    0.80    1.20
 -23   1   2    3.80    1.70
 -21  -1   2   93.49    7.00
  21  -1  -2   94.69    6.50
  21   1  -2   99.39    6.50
 -21   1   2  103.89    7.40
  19  -1  -2  104.09    6.40
 -19  -1   2  100.59    7.00
 -19   1   2  101.29    7.00
  19   1  -2   97.79    6.20
  17  -1  -2  138.49    7.50
 -17  -1   2  131.19    7.40
 -17  -1   2  153.58    8.30
  17   1  -2  134.19    7.30
 -17   1   2  119.59    7.80
 -15  -1   2  438.36   18.70
 -15  -1   2  408.86   17.90
  15  -1  -2  432.36   18.10
 -15   1   2  424.76   18.70
 -15   1   2  431.46   18.20
  15   1  -2  393.86   17.80
  13  -1  -2  837.32   32.70
 -13  -1   2  827.92   33.10
 -13  -1   2  804.22   32.60
 -13   1   2  762.52   32.60
 -13   1   2  859.51   33.30
  13   1  -2  842.42   32.50
 -11  -1   2  193.28    9.30
 -11  -1   2  194.08    9.00
  11  -1  -2  201.08    9.00
 -11   1   2  192.98    9.10
 -11   1   2  194.68    9.50
  11   1  -2  199.48    8.90
   9  -1  -2  311.67   13.10
  -9  -1   2  325.17   13.40
   9   1  -2  312.47   12.90
  -9   1   2  307.47   13.20
  -9   1   2  305.47   13.50
  -7  -1   2  587.64   22.90
   7  -1  -2  614.64   22.80
  -7   1   2  580.34   23.10
   7   1  -2  546.85   22.40
  -7   1   2  560.14   22.80
  -5  -1   2   40.00    2.50
   5  -1  -2   38.80    2.40
  -5   1   2   42.50    2.70
  -5   1   2   42.00    2.50
   5   1  -2   37.20    2.20
  -3  -1   2   56.49    2.90
  -3  -1   2   59.19    3.10
   3  -1  -2   55.89    3.00
   3   1  -2   57.39    2.80
  -3   1   2   54.39    3.10
  -3   1   2   55.29    3.20
  -1  -1   2  584.04   22.30
   1  -1  -2  644.34   23.10
   1  -1  -2  560.14   22.50
  -1  -1   2  575.94   22.30
   1   1  -2  572.64   22.10
  -1   1   2  559.54   22.60
  -1   1   2  547.45   22.50
  -1  -1  -2  374.76   15.30
  -1  -1  -2  362.86   15.20
   1  -1   2  385.26   15.10
   1   1   2  368.76   15.30
   1   1   2  403.96   15.40
  -1   1  -2  380.16   15.00
  -3  -1  -2 1354.36   57.79
   3  -1   2 1416.16   57.09
   3   1   2 1326.37   57.69
  -3   1  -2 1424.86   56.79
   3   1   2 1269.07   57.69
  -5  -1  -2  547.75   21.70
   5  -1   2  542.35   21.50
   5  -1   2  544.95   21.60
   5   1   2  558.04   21.70
   5   1   2  516.55   21.60
  -5   1  -2  535.15   21.50
   7  -1   2 1344.67   51.99
   7   1   2 1361.06   52.09
   9  -1   2   20.20    2.40
  -9  -1  -2   22.50    2.80
   9   1   2   19.30    2.30
  -9   1  -2   18.80    2.50
   9   1   2   22.20    3.00
 -11  -1  -2  294.87   13.40
  11  -1   2  302.27   13.40
  11  -1   2  301.17   13.20
  11   1   2  288.27   13.20
 -11   1  -2  287.37   13.20
 -13  -1  -2  583.74   23.90
 -13   1  -2  550.44   23.60
  13   1   2  550.74   23.50
  15  -1   2  214.78   10.90
 -15  -1  -2  224.18   11.30
  15   1   2  234.48   11.20
 -15   1  -2  206.88   11.00
  17  -1   2   39.30    4.60
 -17  -1  -2   38.80    4.70
  17   1   2   30.40    4.00
 -17   1  -2   36.80    4.80
  19  -1   2    4.40    1.80
 -19  -1  -2    3.00    1.60
  19   1   2    0.50    0.90
 -19   1  -2    0.90    1.20
  21  -1   2  207.88   11.80
 -21  -1  -2  219.88   12.30
  21   1   2  218.88   11.90
 -23  -1  -2   85.29    7.00
  23  -1   2   71.59    6.30
  23   1   2   70.29    6.20
 -23   1  -2   84.69    6.80
  25  -1   2   88.79    7.10
 -25  -1  -2   81.89    7.30
 -25   1  -2   81.99    7.20
  25   1   2   75.09    6.70
 -27  -1  -2  107.19    8.80
  27  -1   2  104.69    8.30
  27   1   2  110.09    8.50
 -27   1  -2  110.19    8.80
 -29  -1  -2   72.89    9.70
  29  -1   2   92.49    8.00
 -29   1  -2   76.89    7.70
 -30  -2   2   33.30    6.30
 -30   2   2   33.80    5.50
 -28  -2   2   26.70    5.20
 -28   2   2   23.30    4.90
  26  -2  -2   26.20    4.70
 -26  -2   2   29.30    4.60
 -26   2   2   33.00    5.80
  24  -2  -2  151.88    9.40
 -24  -2   2  158.88   10.10
 -24   2   2  152.98   10.20
 -22  -2   2    0.40    1.20
  22  -2  -2    1.00    1.10
  22   2  -2    0.30    0.90
 -22   2   2   -0.20    1.10
  20  -2  -2   14.70    2.80
 -20  -2   2   12.60    2.20
 -20  -2   2   18.50    3.40
 -20   2   2   20.20    3.60
  20   2  -2   18.10    2.70
 -18  -2   2  194.28   10.40
  18  -2  -2  197.48    9.90
 -18  -2   2  176.38    9.50
  18   2  -2  182.58    9.50
 -18   2   2  201.88   10.60
 -16  -2   2  208.78   10.50
  16  -2  -2  199.98   10.00
 -16  -2   2  195.18    9.80
  16   2  -2  211.88    9.80
 -16   2   2  190.88   10.50
 -14  -2   2  342.67   14.80
 -14  -2   2  370.06   15.60
  14  -2  -2  319.17   14.90
  14   2  -2  343.37   14.70
 -14   2   2  336.77   15.50
  12  -2  -2  402.66   16.40
 -12  -2   2  374.46   16.10
 -12  -2   2  412.96   16.70
 -12   2   2  372.86   16.70
 -12   2   2  381.26   16.40
  12   2  -2  370.76   15.90
  10  -2  -2  218.28   10.10
 -10  -2   2  205.78   10.10
  10   2  -2  227.48    9.70
 -10   2   2  238.98   10.50
 -10   2   2  245.38   10.70
   8  -2  -2   82.89    4.40
  -8  -2   2   73.39    4.10
  -8  -2   2   89.49    4.50
   8   2  -2   81.19    4.00
  -8   2   2   75.49    4.60
  -8   2   2   84.29    4.50
  -6  -2   2  378.76   14.90
  -6  -2   2  372.96   14.70
  -6   2   2  340.87   15.00
   6   2  -2  380.86   14.50
  -6   2   2  368.96   15.40
   4  -2  -2   42.60    2.60
  -4  -2   2   40.60    2.30
  -4  -2   2   43.90    2.40
  -4   2   2   43.70    2.80
   4   2  -2   40.30    2.10
  -4   2   2   36.70    2.50
   2  -2  -2  120.89    5.50
  -2  -2   2  114.99    5.00
  -2  -2   2  117.99    5.10
   2  -2  -2  112.29    5.50
   2   2  -2  114.19    4.80
  -2   2   2  117.59    5.70
   0  -2   2  463.15   17.70
   0  -2   2  447.96   18.00
   0  -2  -2  444.76   18.10
   0   2   2  476.75   18.20
   0   2  -2  455.45   17.50
   0   2   2  445.96   18.20
   2  -2   2  181.28    7.80
   2  -2   2  185.58    7.70
  -2  -2  -2  179.28    8.10
  -2  -2  -2  186.48    8.00
   2   2   2  182.08    8.10
   2   2   2  181.08    8.10
  -2   2  -2  179.18    7.60
  -4  -2  -2  347.07   14.40
   4  -2   2  339.27   14.00
  -4   2  -2  350.86   14.00
   4   2   2  334.87   14.30
   4   2   2  359.16   14.50
  -6  -2  -2  911.31   35.50
   6  -2   2  899.31   35.30
   6   2   2  941.11   35.50
  -6   2  -2  924.21   35.20
   6   2   2  866.81   35.50
   8  -2   2  399.06   16.60
   8  -2   2  397.26   16.40
   8   2   2  387.26   16.60
  -8   2  -2  384.86   16.40
   8   2   2  402.86   17.40
  10  -2   2  339.27   14.90
 -10  -2  -2  362.96   15.40
  10   2   2  333.27   15.00
 -10   2  -2  354.06   15.10
  12  -2   2  360.26   15.60
 -12  -2  -2  367.46   16.00
  12  -2   2  329.27   15.60
 -12   2  -2  360.36   15.70
  12   2   2  353.56   15.70
 -14  -2  -2   39.70    3.70
  14  -2   2   42.50    3.60
  14   2   2   44.20    3.70
 -14   2  -2   45.10    3.80
  16  -2   2   16.00    2.80
 -16  -2  -2   11.20    2.30
 -16   2  -2   12.10    2.30
  16   2   2   15.50    2.70
 -18  -2  -2    3.40    1.50
  18  -2   2    3.60    1.30
 -18   2  -2    5.30    2.10
  18   2   2    6.50    2.00
 -20  -2  -2  264.47   14.10
  20  -2   2  266.37   13.70
 -20   2  -2  274.27   14.10
  20   2   2  269.47   13.80
 -22  -2  -2   72.19    6.30
  22  -2   2   75.19    6.10
  22   2   2   63.39    5.80
 -22   2  -2   72.79    6.20
 -24  -2  -2   45.30    6.50
  24  -2   2   35.90    5.30
 -24   2  -2   35.40    5.10
  24   2   2   33.80    4.70
 -26  -2  -2   51.19    6.90
  26  -2   2   62.09    6.00
  26   2   2   64.79    7.50
 -26   2  -2   50.69    6.30
 -28  -2  -2   75.09    9.20
  28  -2   2   47.50    6.40
 -28   2  -2   65.09    8.40
  28   2   2   63.39    7.70
 -29  -3   2   -0.60    1.20
 -29   3   2    1.00    1.50
 -27  -3   2   26.00    4.40
 -27   3   2   38.40    6.00
  25  -3  -2   11.30    2.80
 -25  -3   2   21.30    4.40
 -25   3   2   12.00    3.50
 -23  -3   2   44.80    5.50
  23  -3  -2   51.29    4.80
 -23   3   2   56.49    5.50
  23   3  -2   48.20    4.40
 -21  -3   2   32.70    4.50
  21  -3  -2   27.20    4.10
 -21  -3   2   25.70    3.70
 -21   3   2   29.00    4.50
  21   3  -2   29.90    3.70
 -19  -3   2    0.40    1.00
  19  -3  -2    1.00    1.00
 -19  -3   2    2.90    1.80
  19   3  -2    2.70    1.20
 -19   3   2    3.20    1.60
 -17  -3   2  175.38    9.00
  17  -3  -2  180.38    9.30
 -17  -3   2  189.68    9.90
  17   3  -2  170.38    8.80
 -17   3   2  183.08   10.00
  15  -3  -2  282.97   13.10
 -15  -3   2  278.37   12.80
 -15  -3   2  282.97   13.30
 -15   3   2  299.17   13.90
  15   3  -2  290.97   12.70
  13  -3  -2   57.39    4.00
 -13  -3   2   55.09    4.10
 -13   3   2   59.29    4.50
  13   3  -2   61.79    3.70
 -11  -3   2  206.08    9.70
  11  -3  -2  218.68    9.80
  11   3  -2  217.88    9.20
 -11   3   2  217.18   10.20
 -11   3   2  190.18    9.60
  -9  -3   2  200.18    9.00
  -9  -3   2  200.68    8.70
   9  -3  -2  218.78    9.30
  -9   3   2  194.38    9.40
   9   3  -2  195.18    8.50
  -9   3   2  194.18    9.10
   7  -3  -2  381.06   15.80
  -7  -3   2  373.86   15.40
  -7  -3   2  367.46   15.20
  -7   3   2  399.76   16.20
   7   3  -2  391.36   15.50
   5  -3  -2   40.90    2.60
  -5  -3   2   36.00    2.00
  -5  -3   2   34.90    2.10
  -5   3   2   34.10    2.50
   5   3  -2   36.90    1.80
  -5   3   2   35.10    2.60
  -3  -3   2  116.89    4.90
  -3  -3   2  111.79    4.80
   3  -3  -2  111.19    5.50
   3  -3  -2  107.59    5.40
  -3   3   2  113.19    5.60
   3   3  -2  109.39    4.40
  -1  -3   2   27.80    1.60
   1  -3  -2   27.20    2.10
   1  -3  -2   32.90    2.50
  -1  -3   2   26.40    1.60
  -1   3   2   27.10    2.20
  -1   3   2   31.10    2.20
   1   3  -2   26.60    1.30
  -1  -3  -2  135.59    6.90
  -1  -3  -2  172.58    7.20
   1  -3   2  146.79    6.40
   1  -3   2  151.68    6.40
   1   3   2  154.48    7.10
  -1   3  -2  152.48    6.20
   1   3   2  159.38    7.10
  -3  -3  -2    1.80    0.70
  -3  -3  -2    1.00    0.70
   3  -3   2    0.90    0.50
   3  -3   2    1.00    0.50
  -3   3  -2    1.30    0.50
   3   3   2    1.00    0.50
   3   3   2    1.50    0.60
  -5  -3  -2  495.15   20.20
   5  -3   2  526.75   19.80
  -5  -3  -2  451.45   20.20
   5   3   2  498.55   20.30
  -5   3  -2  519.75   19.70
   5   3   2  490.55   20.20
  -7  -3  -2  323.57   14.00
   7  -3   2  316.47   13.70
   7  -3   2  321.17   13.60
   7   3   2  344.27   14.00
  -7   3  -2  312.87   13.50
   9  -3   2  914.81   36.40
   9  -3   2  911.01   36.30
  -9  -3  -2  927.81   36.70
  -9   3  -2  942.81   36.30
   9   3   2  920.11   36.50
 -11  -3  -2   69.49    4.70
  11  -3   2   64.89    4.30
  11  -3   2   54.79    5.60
  11   3   2   91.99    5.90
 -11   3  -2   68.99    4.50
  13  -3   2  129.09    7.00
 -13  -3  -2  116.19    7.20
  13  -3   2  118.59    7.10
 -13   3  -2  131.69    7.20
  13   3   2  130.39    7.20
 -15  -3  -2   36.60    4.30
  15  -3   2   38.30    3.60
  15   3   2   40.30    3.70
 -15   3  -2   52.69    4.10
  17  -3   2    0.00    0.80
 -17  -3  -2    1.60    1.30
  17   3   2    1.00    1.00
 -17   3  -2    0.00    0.60
  19  -3   2  288.47   14.10
 -19  -3  -2  299.97   14.70
  19   3   2  255.37   13.80
 -19   3  -2  279.57   14.20
 -21  -3  -2   38.90    5.50
  21  -3   2   47.00    4.60
 -21   3  -2   35.90    4.90
  23  -3   2   46.80    5.80
 -23  -3  -2   40.20    5.40
 -23   3  -2   37.30    5.40
  23   3   2   49.00    6.30
 -25  -3  -2   34.10    5.90
  25  -3   2   41.90    6.00
  25   3   2   29.60    5.10
 -25   3  -2   29.40    4.90
 -27  -3  -2   55.19    7.60
  27  -3   2   42.90    6.50
 -27   3  -2   56.09    7.50
  27   3   2   50.19    6.70
  29  -3   2    0.20    1.50
 -29  -3  -2    0.00    1.50
 -30  -4   2    0.80    1.40
 -30   4   2    1.80    2.20
 -28  -4   2    2.90    1.90
 -28   4   2    3.20    2.00
  26  -4  -2    1.80    1.60
 -26  -4   2    1.80    1.70
 -26   4   2    2.80    1.80
 -24  -4   2   -0.10    1.30
  24  -4  -2    0.00    1.00
 -24   4   2    2.50    1.70
  22  -4  -2   24.70    3.80
 -22  -4   2   21.40    4.10
  22   4  -2   21.40    3.40
 -22   4   2   20.80    3.60
 -20  -4   2   22.20    3.30
 -20  -4   2   15.10    2.90
  20  -4  -2   21.10    3.40
  20   4  -2   23.90    3.30
 -20   4   2   17.30    3.20
 -18  -4   2   42.10    4.90
  18  -4  -2   32.10    3.90
 -18  -4   2   35.60    3.20
  18   4  -2   37.70    3.10
 -18   4   2   26.50    4.00
 -16  -4   2   27.20    3.40
  16  -4  -2   26.40    3.30
 -16  -4   2   21.90    2.70
 -16   4   2   33.30    4.10
  16   4  -2   22.30    2.60
  14  -4  -2   72.89    5.10
 -14  -4   2   81.99    5.30
  14   4  -2   91.99    5.30
 -14   4   2  122.89    9.00
 -12  -4   2    4.10    1.20
  12  -4  -2    5.30    1.20
 -12  -4   2    5.00    1.10
 -12   4   2    5.40    1.40
  12   4  -2    4.90    1.10
  10  -4  -2   21.40    2.60
 -10  -4   2   15.60    2.10
 -10  -4   2   14.40    1.80
  10   4  -2   14.30    1.30
 -10   4   2   13.00    1.90
   8  -4  -2  387.56   16.30
  -8  -4   2  388.76   16.40
  -8  -4   2  377.46   15.60
   8   4  -2  391.46   15.30
  -8   4   2  419.76   16.80
  -6  -4   2   55.39    3.00
  -6  -4   2   56.89    2.80
   6  -4  -2   54.39    3.40
   4  -4  -2  146.19    7.10
  -4  -4   2  149.79    6.20
   4  -4  -2  159.18    7.40
  -4  -4   2  156.78    6.30
  -4   4   2  154.58    7.20
  -4   4   2  149.59    7.30
  -2  -4   2  554.34   20.90
   2  -4  -2  518.25   21.90
  -2  -4   2  578.24   21.00
  -2   4   2  553.54   22.10
   0  -4  -2  255.87   10.50
   0  -4  -2  237.68   10.50
   0  -4   2  241.78    9.50
   0  -4   2  236.88    9.60
   0   4   2  237.78   10.50
   2  -4   2  168.78    7.10
  -2  -4  -2  172.08    7.80
  -2  -4  -2  162.28    7.70
   2  -4   2  166.98    7.00
  -2   4  -2  168.58    6.70
   2   4   2  163.28    7.80
   2   4   2  173.48    7.80
   4  -4   2    2.60    0.70
  -4  -4  -2    2.30    0.90
   4  -4   2    1.70    0.60
  -4  -4  -2    0.80    0.60
  -4   4  -2    1.30    0.50
   4   4   2    1.70    0.80
   4   4   2    1.50    0.70
   6  -4   2  229.18    9.80
  -6  -4  -2  230.38   10.40
  -6   4  -2  230.28    9.80
   6   4   2  221.48   10.30
  -8  -4  -2  949.51   37.80
   8  -4   2  977.80   38.10
   8  -4   2  945.41   37.50
   8   4   2  967.40   37.80
  -8   4  -2  952.40   37.20
  10  -4   2   33.70    2.70
  10  -4   2   28.00    2.50
 -10  -4  -2   26.90    3.20
  10   4   2   18.80    2.40
 -10   4  -2   31.00    2.60
 -12  -4  -2   40.90    3.70
  12  -4   2   49.99    3.70
 -12   4  -2   45.50    3.50
  12   4   2   43.60    3.60
  14  -4   2   12.80    2.40
  14  -4   2   10.60    2.00
 -14   4  -2   12.10    2.40
  14   4   2   19.30    3.10
  16  -4   2   20.60    3.10
 -16  -4  -2   20.90    3.30
 -16   4  -2   16.30    2.60
  16   4   2   14.10    2.50
 -18  -4  -2    0.30    1.00
  18  -4   2    0.50    1.10
 -18   4  -2   -0.10    0.60
  18   4   2    0.40    0.90
 -20  -4  -2  113.19    8.00
  20  -4   2  115.39    7.60
  20   4   2  116.09    7.70
 -20   4  -2  115.09    7.80
  22  -4   2   14.80    3.30
 -22  -4  -2   12.30    3.30
 -22   4  -2   11.70    2.50
  22   4   2   14.30    3.30
  24  -4   2    8.70    2.80
 -24  -4  -2    4.60    2.10
  24   4   2   12.00    3.30
 -24   4  -2    4.70    2.00
 -26  -4  -2   16.80    4.10
  26  -4   2   20.90    7.10
 -26   4  -2   23.10    4.60
  26   4   2   15.10    3.80
  28  -4   2   13.00    3.50
 -28  -4  -2   20.60    4.90
 -29  -5   2   -0.60    1.00
 -29   5   2   -0.70    1.30
 -27  -5   2    2.60    2.00
  27  -5  -2    0.30    1.30
 -27   5   2    4.30    2.30
  25  -5  -2    2.30    1.50
 -25  -5   2    2.30    2.00
 -25   5   2    1.20    1.50
  23  -5  -2    3.70    3.00
 -23  -5   2    1.00    1.40
 -23   5   2    2.40    1.80
 -21  -5   2    0.40    0.80
 -21  -5   2    2.40    2.60
  21  -5  -2    1.20    1.20
  21   5  -2    1.10    1.00
 -21   5   2    1.30    1.40
 -19  -5   2   71.39    5.00
 -19  -5   2   69.19    5.50
  19  -5  -2   76.39    5.50
  19   5  -2   69.19    4.70
 -19   5   2   74.59    5.90
  17  -5  -2   14.90    2.60
 -17  -5   2   16.40    2.40
 -17  -5   2   14.40    2.70
  17   5  -2   15.80    2.30
 -17   5   2   15.70    2.90
  15  -5  -2    3.90    1.40
 -15  -5   2    3.40    1.20
  15   5  -2    3.20    1.00
  13  -5  -2    3.30    1.10
 -13  -5   2    4.20    1.20
 -13  -5   2    4.50    1.00
  13   5  -2    4.30    1.00
 -13   5   2    3.90    1.40
 -11  -5   2   43.90    3.20
  11  -5  -2   40.10    3.20
 -11  -5   2   43.80    2.80
  11   5  -2   43.10    2.90
 -11   5   2   46.00    3.60
   9  -5  -2   21.80    2.10
  -9  -5   2   19.50    1.80
  -9  -5   2   16.80    1.50
  -9   5   2   14.70    2.20
  -7  -5   2  590.54   22.40
   7  -5  -2  599.34   23.50
  -7   5   2  547.25   23.60
   5  -5  -2   20.30    2.00
  -5  -5   2   23.20    1.40
  -5  -5   2   26.60    1.50
  -5   5   2   23.60    2.80
  -5   5   2   24.60    3.40
  -3  -5   2  117.39    4.70
  -3  -5   2  119.09    4.80
   3  -5  -2  116.29    5.90
  -3   5   2  112.79    5.90
  -3   5   2  123.29    6.10
   1  -5  -2    6.20    1.30
   1  -5  -2    4.40    1.10
  -1  -5   2    4.50    0.50
  -1  -5   2    4.80    0.50
  -1   5   2    8.50    1.60
  -1   5   2    7.30    1.30
   1  -5   2    2.40    0.50
   1  -5   2    1.90    0.50
  -1  -5  -2    1.80    0.70
  -1  -5  -2    2.50    0.80
   1   5   2    3.60    1.00
   3  -5   2  137.59    6.00
  -3  -5  -2  134.59    6.70
  -3  -5  -2  132.89    6.70
   3  -5   2  135.99    6.10
  -3   5  -2  141.69    5.60
   3   5   2  138.89    6.80
   5  -5   2   22.80    1.80
  -5  -5  -2   22.70    2.60
  -5  -5  -2   27.40    2.40
   5   5   2   22.60    2.20
  -5   5  -2   23.00    1.70
   7  -5   2   40.90    2.80
  -7  -5  -2   37.80    3.10
  -7  -5  -2   41.30    3.10
   7   5   2   38.40    3.10
  -7   5  -2   45.30    2.80
   9  -5   2   44.70    3.40
  -9  -5  -2   53.49    3.90
   9  -5   2   48.80    3.40
  -9   5  -2   50.39    3.30
   9   5   2   49.00    3.60
 -11  -5  -2    0.90    0.90
  11  -5   2   -0.30    0.50
  11  -5   2    0.50    0.70
 -11   5  -2   -0.10    0.50
  11   5   2    0.50    0.70
 -13  -5  -2   48.10    4.20
  13  -5   2   51.79    4.00
  13  -5   2   52.89    4.30
 -13   5  -2   56.69    4.10
  13   5   2   54.49    4.20
  15  -5   2   32.60    5.00
 -15  -5  -2   19.60    2.90
  15  -5   2   30.80    3.80
  15   5   2   30.10    3.80
 -17  -5  -2    6.50    2.20
  17  -5   2    6.00    1.90
  17   5   2    6.90    2.00
 -17   5  -2    4.10    1.40
 -19  -5  -2    7.90    2.50
  19  -5   2    4.30    1.70
  19   5   2    9.60    2.60
 -19   5  -2    7.70    2.40
 -21  -5  -2   -1.10    0.80
  21  -5   2    1.70    1.40
 -21   5  -2   -0.90    0.70
  21   5   2   -0.10    0.90
 -23  -5  -2    6.50    2.50
  23  -5   2    6.20    2.30
 -23   5  -2    7.00    2.60
  23   5   2    8.40    2.60
 -25  -5  -2   -0.20    1.30
  25  -5   2    0.90    1.60
  25   5   2    0.40    1.40
 -25   5  -2   -0.60    1.10
 -27  -5  -2    2.00    1.90
  27  -5   2    3.40    2.00
  28  -6  -2    3.70    2.50
 -28  -6   2    5.10    2.50
 -26  -6   2    5.20    2.30
  26  -6  -2    3.70    2.10
 -26   6   2    3.40    2.10
  24  -6  -2   28.10    4.80
 -24  -6   2   20.70    4.00
 -24   6   2   30.00    4.80
  22  -6  -2    0.00    0.90
 -22  -6   2   -1.40    0.70
 -22   6   2   -0.60    0.90
 -20  -6   2   -0.30    0.90
  20  -6  -2    0.10    1.10
 -20  -6   2    0.80    0.90
 -20   6   2    2.20    1.60
  18  -6  -2    3.50    1.50
 -18  -6   2    7.50    2.10
 -18   6   2    5.10    1.80
  16  -6  -2   13.20    2.50
 -16  -6   2    7.20    1.80
  14  -6  -2   17.50    2.60
 -14  -6   2   18.00    2.50
 -14   6   2   15.90    2.70
  12  -6  -2    4.10    1.30
 -12  -6   2    4.60    1.20
 -12  -6   2    3.00    0.90
 -12   6   2    2.20    1.10
 -10  -6   2    2.70    0.90
  10  -6  -2    2.60    0.90
 -10  -6   2    2.90    0.80
 -10   6   2    2.10    0.90
   8  -6  -2    0.50    0.70
  -8  -6   2    0.10    0.40
  -8  -6   2    0.10    0.50
  -8   6   2    0.60    0.70
  -6  -6   2  273.77   10.90
  -6  -6   2  282.17   11.40
   6  -6  -2  262.67   12.10
  -6   6   2  288.37   12.50
   4  -6  -2   51.59    3.60
   4  -6  -2   54.79    3.60
  -4  -6   2   58.89    2.50
  -4  -6   2   58.19    2.50
  -4   6   2   55.99    3.80
  -2  -6   2   28.80    1.20
  -2  -6   2   30.70    1.20
   2  -6  -2   28.30    2.40
   2  -6  -2   29.20    2.40
  -2   6   2   28.80    2.50
   0  -6  -2  229.08   10.10
   0  -6   2  215.88    8.60
   0  -6   2  220.48    8.70
   0  -6  -2  217.98   10.00
   0   6   2  229.98   10.10
   2  -6   2  230.78    9.40
  -2  -6  -2  238.08   10.60
  -2  -6  -2  240.58   10.50
   2  -6   2  227.28    9.50
   2   6   2  236.58   10.50
  -4  -6  -2   98.09    5.40
   4  -6   2  108.09    5.10
   4  -6   2   91.29    4.70
  -4  -6  -2   92.89    5.20
   4   6   2   87.99    5.20
  -4   6  -2   98.39    4.20
  -6  -6  -2   31.80    2.70
  -6  -6  -2   33.30    2.80
   6  -6   2   28.40    2.20
   6   6   2   33.20    2.70
  -6   6  -2   32.50    2.10
   8  -6   2  254.47   11.30
  -8  -6  -2  258.87   12.00
  -8  -6  -2  262.97   11.70
   8   6   2  260.47   11.80
  -8   6  -2  249.88   11.00
 -10  -6  -2    6.20    1.80
  10  -6   2    5.10    1.30
  10  -6   2    1.40    0.80
  10   6   2    2.60    1.10
 -10   6  -2    1.30    0.80
  12  -6   2   22.70    2.60
  12  -6   2   22.20    3.20
 -12  -6  -2   30.30    4.00
 -12   6  -2   21.10    2.70
  12   6   2   27.30    3.40
  14  -6   2   60.19    4.80
 -14  -6  -2   68.69    5.20
  14  -6   2   66.49    4.90
 -14   6  -2   73.79    4.90
  14   6   2   74.39    5.10
 -16  -6  -2    0.30    1.20
  16  -6   2   -0.10    0.70
  16   6   2    0.10    0.80
 -16   6  -2    0.30    0.70
 -18  -6  -2   18.30    3.40
  18  -6   2   22.50    3.50
 -18   6  -2   20.90    3.70
  18   6   2   21.30    3.30
  20  -6   2  176.08   10.30
 -20  -6  -2  178.68   10.80
  20   6   2  179.38   10.20
 -20   6  -2  166.48   10.10
 -22  -6  -2   10.60    2.80
  22  -6   2    9.40    2.50
  22   6   2   10.20    2.70
 -22   6  -2    6.30    2.00
  24  -6   2    0.70    1.00
 -24  -6  -2   -0.40    1.10
  24   6   2    1.60    1.40
 -24   6  -2    1.00    1.40
  26  -6   2    3.10    1.80
 -26  -6  -2    2.00    2.10
  28  -6   2    3.80    2.20
 -28  -6  -2    5.60    3.00
 -29  -7   2    1.60    1.80
 -29   7   2   -0.90    1.30
  27  -7  -2   23.10    4.50
 -27  -7   2   25.90    4.80
 -27   7   2   23.00    4.80
  25  -7  -2    5.60    2.00
 -25  -7   2   12.90    3.10
 -25   7   2    9.80    3.10
  23  -7  -2    8.70    2.50
 -23  -7   2    7.40    2.40
 -23   7   2    5.20    2.20
  21  -7  -2   38.90    4.60
 -21  -7   2   33.20    4.00
 -21  -7   2   37.50    4.60
 -21   7   2   40.50    5.40
 -19  -7   2   83.69    6.10
  19  -7  -2   84.19    6.20
 -19   7   2  100.59    7.00
 -17  -7   2    7.20    1.60
 -17  -7   2    5.90    1.70
  17  -7  -2    5.80    1.80
 -17   7   2    6.60    2.50
  15  -7  -2  208.98   10.70
 -15  -7   2  146.39    7.90
 -15  -7   2  159.08    8.50
 -15   7   2  152.48    9.00
 -13  -7   2    0.30    0.50
  13  -7  -2    1.10    0.90
 -13  -7   2    3.00    1.10
 -13   7   2    0.20    0.70
 -11  -7   2    6.00    1.10
 -11  -7   2    7.90    1.40
  11  -7  -2    9.20    2.00
 -11   7   2    7.20    1.80
  -9  -7   2    7.40    1.10
   9  -7  -2    5.80    1.40
  -9  -7   2    6.50    1.20
  -9   7   2    6.90    1.70
  -7  -7   2 2133.69   81.99
   7  -7  -2 2012.40   88.09
  -7  -7   2 2075.39   80.89
  -7   7   2 2005.70   89.09
  -5  -7   2   13.30    1.00
   5  -7  -2   16.10    2.30
  -5  -7   2   13.90    0.90
  -5   7   2   14.20    2.10
   3  -7  -2  136.89    6.90
   3  -7  -2  135.59    6.80
  -3   7   2  136.29    7.00
  -1  -7   2  121.29    4.70
  -1  -7   2  128.29    4.70
   1  -7  -2  128.19    6.40
   1  -7  -2  110.59    6.20
  -1   7   2  119.59    6.30
  -1  -7  -2   63.39    3.90
   1  -7   2   55.59    2.60
   1  -7   2   58.89    2.70
  -1  -7  -2   56.79    3.70
   1   7   2   54.79    3.70
  -3  -7  -2   94.99    5.40
  -3  -7  -2  101.19    5.50
   3  -7   2   96.99    4.50
   3   7   2  102.19    5.50
  -5  -7  -2   44.30    3.30
   5  -7   2   43.20    2.70
   5  -7   2   37.30    2.50
  -5  -7  -2   36.70    3.00
   5   7   2   39.20    3.10
  -7  -7  -2  133.39    7.20
   7  -7   2  138.19    6.50
  -7  -7  -2  126.49    6.90
   7   7   2  133.79    7.00
  -7   7  -2  133.59    6.20
   9  -7   2   61.69    4.10
  -9  -7  -2   75.29    4.90
  -9  -7  -2   67.39    4.50
  -9   7  -2   67.49    4.00
   9   7   2   72.49    4.60
  11  -7   2   20.80    2.60
 -11  -7  -2   18.30    2.50
  11  -7   2   20.20    2.80
 -11   7  -2   20.50    2.60
  11   7   2   21.50    3.00
  13  -7   2   58.79    4.30
 -13  -7  -2   57.49    4.70
  13  -7   2   53.99    4.30
 -13   7  -2   54.39    4.10
  13   7   2   57.39    4.40
 -15  -7  -2   11.60    2.50
  15  -7   2    8.00    2.00
  15  -7   2    6.30    1.70
  15   7   2   13.00    2.50
 -15   7  -2    8.70    1.80
 -17  -7  -2    0.80    1.20
  17  -7   2    3.90    1.60
 -17   7  -2    3.40    1.60
  17   7   2    3.70    1.60
 -19  -7  -2    7.20    2.20
  19  -7   2   13.30    2.90
  19   7   2   11.40    2.70
 -21  -7  -2   98.89    7.70
  21  -7   2   98.49    7.30
  21   7   2  105.99    7.40
 -21   7  -2   95.59    7.10
  23  -7   2   43.90    6.00
 -23  -7  -2   47.70    6.80
 -23   7  -2   33.40    5.10
  23   7   2   40.00    5.40
  25  -7   2    2.90    1.70
 -25  -7  -2    2.50    1.70
  27  -7   2   10.80    3.10
 -27  -7  -2   15.70    4.40
 -28  -8   2   35.30    6.10
  28  -8  -2   35.80    5.90
 -28   8   2   29.50    5.20
  26  -8  -2   31.40    4.80
 -26  -8   2   28.90    5.10
 -26   8   2   26.30    4.50
  24  -8  -2    1.80    1.50
 -24   8   2    1.70    1.70
 -22  -8   2   91.09    6.90
  22  -8  -2   89.79    6.80
 -22   8   2   91.29    7.30
 -20  -8   2   47.10    4.60
  20  -8  -2   52.39    4.80
 -20   8   2   54.99    5.20
  18  -8  -2  148.29    8.70
 -18  -8   2  156.98    8.70
 -18  -8   2  138.89    7.80
 -18   8   2  152.58   10.60
 -16  -8   2   53.89    3.90
 -16  -8   2   54.19    4.20
  16  -8  -2   48.80    4.30
 -16   8   2   62.19    5.00
 -14  -8   2  281.07   12.60
  14  -8  -2  279.87   13.10
 -14  -8   2  262.77   12.00
 -14   8   2  267.27   13.40
  12  -8  -2   52.59    4.20
 -12  -8   2   56.59    3.40
 -12  -8   2   46.40    3.50
 -12   8   2   54.89    4.30
 -10  -8   2   13.60    1.80
  10  -8  -2   13.10    2.20
 -10  -8   2   11.10    1.50
 -10   8   2   11.70    2.30
   6  -8  -2   42.20    3.20
   6  -8  -2   42.70    3.30
  -6  -8   2   39.30    2.10
  -6  -8   2   39.40    2.10
  -6   8   2   40.90    3.30
   4  -8  -2  103.89    6.00
   4  -8  -2  113.69    6.10
  -4  -8   2  113.59    4.40
  -4  -8   2  115.79    4.40
   2  -8  -2  157.18    7.80
   2  -8  -2  157.08    7.90
  -2   8   2  162.38    7.90
   0  -8  -2  464.35   18.90
   0  -8  -2  449.66   18.90
   0  -8   2  442.86   17.10
   0  -8   2  457.95   17.20
   0   8   2  442.56   18.80
   2  -8   2   22.90    1.60
  -2  -8  -2   25.60    2.40
   2  -8   2   23.60    1.50
  -2  -8  -2   24.80    2.90
   2   8   2   23.90    2.40
   4  -8   2  543.25   21.00
  -4  -8  -2  507.85   22.10
  -4  -8  -2  562.04   22.30
   4  -8   2  538.95   21.20
   4   8   2  536.25   22.10
   6  -8   2  336.27   14.10
   6  -8   2  339.87   14.00
  -6  -8  -2  339.27   14.80
   6   8   2  333.77   14.80
   8  -8   2   19.10    2.70
  -8  -8  -2   16.40    2.60
  -8  -8  -2   14.80    2.40
   8  -8   2   15.80    2.10
  -8   8  -2   17.00    1.60
   8   8   2   12.20    2.00
  10  -8   2  171.38    8.40
 -10  -8  -2  171.18    8.80
 -10  -8  -2  164.28    9.00
 -10   8  -2  170.58    8.20
  10   8   2  171.58    8.80
  12  -8   2  201.28   10.00
 -12  -8  -2  208.78   10.70
  12  -8   2  188.48   10.00
  12   8   2  207.38   10.30
 -12   8  -2  206.78    9.80
  14  -8   2   18.90    2.90
 -14  -8  -2   19.50    3.10
  14  -8   2   22.70    3.30
  14   8   2   26.20    3.60
 -14   8  -2   24.80    3.20
 -16  -8  -2   47.70    4.60
  16  -8   2   42.30    4.10
  16  -8   2   40.00    3.90
  16   8   2   48.90    5.60
 -16   8  -2   43.60    3.90
 -18  -8  -2   49.50    6.00
  18  -8   2   40.00    4.90
  18   8   2   45.10    4.30
 -18   8  -2   44.10    4.20
  20  -8   2   96.49    6.90
 -20  -8  -2   89.09    7.10
 -20   8  -2   83.89    6.50
  20   8   2   93.19    6.80
  22  -8   2   29.00    4.20
 -22  -8  -2   43.60    7.50
  22   8   2   32.80    4.70
  24  -8   2   40.00    5.30
 -24  -8  -2   29.90    4.90
 -26  -8  -2   32.00    5.90
  26  -8   2   22.50    4.40
 -27  -9   2   42.40    6.20
  27  -9  -2   49.20    6.30
 -27   9   2   42.30    6.50
 -25  -9   2   42.20    6.00
  25  -9  -2   51.39    6.00
 -25   9   2   55.19    7.40
 -23  -9   2   11.00    2.60
  23  -9  -2   16.80    3.60
 -23   9   2   13.20    3.30
 -21  -9   2   90.89    6.50
  21  -9  -2   79.59    6.40
 -21   9   2   78.49    6.70
  19  -9  -2   39.60    5.00
 -19  -9   2   29.90    4.20
 -19   9   2   41.20    6.60
 -17  -9   2  182.68    9.90
 -17  -9   2  187.68    9.40
  17  -9  -2  200.68   10.50
 -17   9   2  188.88   10.80
  15  -9  -2  285.07   14.00
 -15  -9   2  280.77   13.00
 -15  -9   2  301.77   13.60
 -15   9   2  309.17   14.70
 -13  -9   2    6.60    1.50
  13  -9  -2    8.00    2.00
 -13  -9   2    7.30    1.40
 -13   9   2    3.10    1.40
 -11  -9   2  222.48    9.80
 -11  -9   2  231.88   10.10
  11  -9  -2  220.28   11.00
 -11   9   2  222.48   11.30
  -9  -9   2  162.48    7.20
   9  -9  -2  158.98    8.30
  -9  -9   2  161.28    7.00
  -9   9   2  148.89    8.40
  -7  -9   2  652.53   24.60
   7  -9  -2  634.64   27.20
  -7  -9   2  651.23   24.80
  -7   9   2  628.74   26.50
   5  -9  -2   90.89    5.60
  -5  -9   2   98.29    4.10
  -5  -9   2  101.09    4.10
   5  -9  -2  106.29    5.80
   3  -9  -2   59.99    4.10
   3  -9  -2   63.69    4.20
  -3   9   2   66.09    4.30
  -1  -9   2  134.19    5.30
   1  -9  -2  121.99    6.90
   1  -9  -2  133.79    7.00
  -1   9   2  139.59    7.10
  -1  -9  -2  193.78    9.30
   1  -9   2  187.58    7.60
  -1  -9  -2  173.68   10.90
   1  -9   2  189.18    7.70
   1   9   2  197.78    9.50
   3  -9   2  594.44   23.20
   3  -9   2  612.94   23.40
  -3  -9  -2  594.64   24.80
  -5  -9  -2  210.78   10.60
   5  -9   2  210.98    9.50
  -5  -9  -2  234.78   10.70
   5  -9   2  213.18    9.40
   5   9   2  230.08   11.40
   7  -9   2  415.96   16.30
  -7  -9  -2  375.46   17.00
   7  -9   2  389.96   16.30
  -7  -9  -2  372.96   16.90
   9  -9   2  178.48    8.90
   9  -9   2  186.98    8.80
  -9  -9  -2  169.18    9.20
  -9  -9  -2  197.78    9.80
   9   9   2  188.78    9.70
  11  -9   2  121.29    6.70
 -11  -9  -2  128.59    7.50
 -11  -9  -2  119.09    7.00
 -11   9  -2  124.89    6.50
  11   9   2  120.09    7.00
 -13  -9  -2  357.96   16.40
  13  -9   2  329.67   15.60
  13  -9   2  363.16   16.00
 -13   9  -2  336.27   15.90
  13   9   2  338.57   15.80
  15  -9   2   25.50    3.60
  15  -9   2   24.50    3.40
 -15  -9  -2   19.30    3.10
  15   9   2   29.70    4.00
 -15   9  -2   20.80    2.90
 -17  -9  -2   20.40    3.70
  17  -9   2   14.60    3.10
  17  -9   2   14.70    2.70
  17   9   2   18.50    3.40
 -17   9  -2   21.50    3.40
 -19  -9  -2  151.98    9.70
  19  -9   2  145.49   10.00
 -19   9  -2  145.79    8.90
  19   9   2  149.59    9.10
 -21  -9  -2   89.89   14.10
  21  -9   2   73.09    6.10
  21   9   2   69.39    6.00
 -23  -9  -2   26.10    4.50
  23  -9   2   30.00    4.90
  25  -9   2   57.09    7.20
 -25  -9  -2   60.19    7.80
 -27  -9  -2   66.39    8.40
  27  -9   2   78.39    7.20
 -28 -10   2   60.39    7.40
  28 -10  -2   72.19    8.80
  26 -10  -2   27.30    5.10
 -26 -10   2   31.60    5.10
 -26  10   2   30.30    5.60
  24 -10  -2   94.19    7.70
 -24 -10   2  109.19    8.10
 -24  10   2  112.89    8.70
  22 -10  -2   13.00    3.20
 -22 -10   2   12.30    3.10
 -22  10   2   14.90    3.40
 -20 -10   2   42.90    3.90
 -20 -10   2   45.30    4.40
  20 -10  -2   47.90    4.70
 -20  10   2   53.29    7.30
 -18 -10   2   78.29    5.40
  18 -10  -2   98.89    6.70
 -18 -10   2   93.69    6.10
 -18  10   2   84.79    6.60
 -16 -10   2  154.38    8.30
 -16 -10   2  149.59    7.70
  16 -10  -2  138.79    8.50
 -16  10   2  152.78    9.20
  14 -10  -2  452.65   19.90
 -14 -10   2  451.55   19.00
 -14 -10   2  438.96   18.60
 -14  10   2  440.16   20.20
 -12 -10   2  284.97   12.40
  12 -10  -2  293.87   13.80
 -12 -10   2  281.37   12.70
 -12  10   2  303.27   14.10
  10 -10  -2  196.38    9.90
 -10 -10   2  198.98    8.80
 -10 -10   2  189.58    8.60
 -10  10   2  198.98   10.10
  -8 -10   2   82.69    4.10
  -8 -10   2   82.99    4.00
   8 -10  -2   73.09    5.00
  -8  10   2   87.59    5.50
  -6 -10   2  264.67   10.60
  -6 -10   2  268.17   10.50
   6 -10  -2  279.47   12.40
   6 -10  -2  250.87   12.30
  -6  10   2  268.87   12.50
  -4 -10   2   58.99    2.50
   4 -10  -2   51.79    4.00
   4 -10  -2   61.19    4.20
  -4  10   2   53.79    4.00
   2 -10  -2  294.77   13.60
   2 -10  -2  311.97   13.80
  -2 -10   2  303.17   11.60
  -2 -10   2  304.37   11.60
  -2  10   2  322.77   16.40
   0 -10  -2  414.16   17.70
   0 -10   2  405.26   15.40
   0 -10  -2  410.36   17.40
   0 -10   2  410.96   15.50
   0  10   2  371.16   17.10
  -2 -10  -2  262.77   12.00
  -2 -10  -2  241.08   11.80
   2 -10   2  260.27   10.40
   2 -10   2  262.77   10.50
   2  10   2  259.17   11.80
  -4 -10  -2   83.09    5.30
   4 -10   2   81.19    4.20
  -4 -10  -2   78.09    5.10
   4 -10   2   91.59    4.50
   4  10   2   92.89    5.40
   6 -10   2  577.44   22.80
  -6 -10  -2  579.94   24.00
   6 -10   2  574.74   23.00
   6  10   2  557.04   23.70
   8 -10   2  204.98   10.00
   8 -10   2  211.88    9.80
  -8 -10  -2  217.78   10.60
  -8 -10  -2  225.88   10.80
   8  10   2  219.58   10.60
  10 -10   2  207.78   10.00
 -10 -10  -2  202.28   10.50
  10 -10   2  208.48   10.20
 -10 -10  -2  214.98   10.90
  10  10   2  224.68   10.70
 -12 -10  -2  201.98   10.90
  12 -10   2  216.68   10.30
 -12 -10  -2  192.58   10.80
  12  10   2  200.08   10.50
 -12  10  -2  216.28   10.00
 -14 -10  -2  168.38    9.60
  14 -10   2  147.19    8.90
  14 -10   2  168.48    9.00
  14  10   2  162.88    9.10
 -14  10  -2  172.78    8.70
  16 -10   2   44.70    4.20
  16 -10   2   44.70    4.40
 -16 -10  -2   43.60    5.60
  16  10   2   42.30    5.10
 -16  10  -2   41.60    3.90
 -18 -10  -2   19.30    3.80
  18 -10   2   24.20    4.20
  18  10   2   24.00    5.40
 -18  10  -2   21.10    3.60
  20 -10   2  178.78   10.40
 -20 -10  -2  156.88   10.50
  22 -10   2   71.09    6.30
 -22 -10  -2   77.29    6.90
 -24 -10  -2   33.10    5.70
  24 -10   2   33.70    5.40
  26 -10   2   76.59    7.10
 -26 -10  -2   76.19    7.50
  27 -11  -2   68.59    8.20
 -27 -11   2   51.69    7.60
  25 -11  -2   37.60    5.50
 -25 -11   2   28.40    4.60
 -25  11   2   28.10    5.50
 -23 -11   2   20.20    3.80
  23 -11  -2   26.20    4.50
 -23  11   2   20.40    4.10
 -21 -11   2   72.99    5.60
  21 -11  -2   91.69    6.90
 -21 -11   2   82.29    6.40
 -19 -11   2   12.30    2.70
  19 -11  -2   18.70    3.60
 -19 -11   2   18.70    2.80
 -19  11   2   11.90    2.90
 -17 -11   2   73.19    4.90
 -17 -11   2   75.69    5.50
  17 -11  -2   78.49    5.90
 -17  11   2   83.29    6.40
  15 -11  -2  118.69    7.50
 -15 -11   2  113.29    6.40
 -15 -11   2  121.59    6.90
 -15  11   2  124.89    7.90
 -13 -11   2  992.00   39.30
  13 -11  -2 1051.89   41.00
 -13  11   2  983.60   41.10
  11 -11  -2   73.29    5.20
 -11 -11   2   70.29    4.00
 -11  11   2   71.79    5.30
  -9 -11   2  149.88    6.80
   9 -11  -2  152.08    8.30
  -9  11   2  157.68    8.50
  -7 -11   2   44.50    2.50
  -7 -11   2   43.20    2.40
   7 -11  -2   39.10    3.50
   7 -11  -2   37.50    3.40
  -7  11   2   43.60    3.70
  -5 -11   2  116.69    4.80
   5 -11  -2   98.09    6.30
   5 -11  -2  116.79    6.50
  -5  11   2  112.99    6.60
  -3 -11   2   64.99    2.80
   3 -11  -2   57.39    4.30
   3 -11  -2   75.49    4.70
  -3 -11   2   69.09    2.90
  -3  11   2   62.99    4.50
   1 -11  -2  662.43   26.00
   1 -11  -2  582.84   25.80
  -1 -11   2  648.14   23.70
  -1 -11   2  622.04   23.70
  -1  11   2  607.64   25.60
   1 -11   2  361.06   14.00
  -1 -11  -2  353.66   15.80
  -1 -11  -2  355.96   15.80
   1 -11   2  357.16   14.10
   1  11   2  358.36   15.70
  -3 -11  -2   28.40    3.50
   3 -11   2   29.90    2.10
   3 -11   2   26.00    1.90
  -3 -11  -2   33.90    3.10
   3  11   2   28.70    2.80
   5 -11   2  298.07   12.40
   5 -11   2  299.67   12.20
  -5 -11  -2  288.07   13.40
  -5 -11  -2  280.47   13.40
   5  11   2  280.57   13.20
   7 -11   2  497.15   20.50
   7 -11   2  519.45   20.30
  -7 -11  -2  504.75   21.50
   7  11   2  466.85   21.00
   9 -11   2  173.18    8.90
  -9 -11  -2  179.28    9.50
  -9 -11  -2  191.18    9.80
   9 -11   2  197.18    9.00
   9  11   2  171.28    9.30
 -11 -11  -2  117.89    7.10
  11 -11   2  126.89    7.00
  11 -11   2  124.19    6.80
 -11 -11  -2  119.79    7.50
  11  11   2  107.29    6.80
 -13 -11  -2  225.28   11.40
  13 -11   2  204.28   10.40
  13  11   2  188.58   10.40
  15 -11   2  132.49    8.20
  15 -11   2  151.78    8.40
 -15 -11  -2  143.49    8.90
  15  11   2  140.39    8.30
 -15  11  -2  133.79    7.80
  17 -11   2   29.20    4.30
  17 -11   2   36.10    4.50
 -17 -11  -2   29.30    4.40
  17  11   2   28.80    4.10
  19 -11   2   26.20    4.30
 -19 -11  -2   19.90    4.00
  19  11   2   23.10    5.10
 -21 -11  -2  108.09    8.30
  21 -11   2  111.69    8.00
  23 -11   2   60.09    6.00
 -23 -11  -2   75.09    6.90
  25 -11   2   25.10    4.40
 -25 -11  -2   27.00    5.20
  26 -12  -2   33.20    5.60
  24 -12  -2    1.80    1.50
 -24 -12   2   -0.70    1.20
 -24  12   2   -0.30    2.50
 -22 -12   2   45.50    5.50
  22 -12  -2   52.09    6.40
 -22  12   2   46.40    7.00
  20 -12  -2  107.89    7.60
 -20 -12   2   97.59    6.40
 -20 -12   2   99.69    7.00
 -20  12   2   94.89    7.60
 -18 -12   2   11.10    2.50
  18 -12  -2   17.20    3.30
 -18 -12   2   10.20    2.00
 -18  12   2   13.30    3.20
 -16 -12   2  106.49    6.60
  16 -12  -2  102.09    7.10
 -16 -12   2  105.79    6.10
 -16  12   2  102.49    7.30
 -14 -12   2  191.38    9.00
 -14 -12   2  183.58    9.80
  14 -12  -2  196.18   10.50
 -14  12   2  182.38   10.50
 -12 -12   2  439.36   18.80
  12 -12  -2  466.45   20.50
 -12 -12   2  469.75   19.20
 -12  12   2  463.75   20.70
 -10 -12   2  193.08    8.90
 -10 -12   2  192.08    8.70
  10 -12  -2  205.28   10.30
 -10  12   2  195.38   10.40
  -8 -12   2    5.90    1.00
   8 -12  -2    7.50    1.90
  -8 -12   2    6.70    1.10
  -8  12   2    5.50    1.60
   6 -12  -2  106.29    6.60
   6 -12  -2  111.89    6.80
  -6 -12   2  113.89    5.00
  -6 -12   2  119.09    5.10
  -6  12   2  116.49    6.90
  -4 -12   2   45.80    2.20
  -4 -12   2   44.00    2.20
   4 -12  -2   40.80    3.60
   4 -12  -2   45.70    3.70
  -4  12   2   39.30    3.50
  -2 -12   2  119.39    5.00
   2 -12  -2   96.39    7.10
  -2 -12   2  123.59    4.90
   2 -12  -2  112.29    6.70
  -2  12   2  115.79    6.60
   0 -12   2  205.98    8.60
   0 -12  -2  232.08   10.50
   0 -12   2  209.38    8.50
   0 -12  -2  183.38   10.10
   0  12   2  212.28   10.20
   2 -12   2  273.57   11.10
  -2 -12  -2  252.57   12.50
  -2 -12  -2  270.97   12.70
   2 -12   2  269.47   11.20
   2  12   2  286.17   12.70
   4 -12   2   74.99    4.20
  -4 -12  -2   88.99    5.50
   4 -12   2   78.59    4.10
  -4 -12  -2   67.29    4.90
   4  12   2   74.29    5.00
   6 -12   2  302.57   13.00
  -6 -12  -2  311.27   14.10
   6 -12   2  307.97   12.80
  -6 -12  -2  273.37   13.70
   6  12   2  296.87   13.70
   8 -12   2  376.36   15.90
  -8 -12  -2  381.46   17.10
   8 -12   2  368.36   16.00
  -8 -12  -2  358.46   18.50
   8  12   2  375.56   16.60
  10 -12   2   37.40    3.20
  10 -12   2   30.70    3.00
 -10 -12  -2   35.50    3.50
 -10 -12  -2   43.50    4.00
  10  12   2   44.30    3.70
  12 -12   2   19.50    2.80
  12 -12   2   25.80    3.40
 -12 -12  -2   19.30    3.20
 -12 -12  -2   26.90    3.90
  12  12   2   20.00    3.20
  14 -12   2  443.46   20.70
 -14 -12  -2  432.66   20.00
  14  12   2  411.06   19.20
  16 -12   2    7.50    2.00
  16 -12   2   12.30    2.80
 -16 -12  -2   11.40    2.80
  16  12   2    9.40    2.50
 -18 -12  -2   30.40    4.50
  18 -12   2   29.70    4.10
 -20 -12  -2   16.30    3.40
  20 -12   2   13.80    2.90
 -22 -12  -2   43.40    6.20
  22 -12   2   48.20    6.20
  24 -12   2   27.90    4.70
 -24 -12  -2   29.70    4.90
  25 -13  -2    1.40    1.90
  23 -13  -2   13.20    3.00
 -23 -13   2   12.80    3.00
  21 -13  -2   31.80    5.90
 -21 -13   2   35.10    4.70
 -21  13   2   44.80    6.10
 -19 -13   2  103.69    6.60
  19 -13  -2  114.79    7.80
 -19 -13   2  101.49    7.00
 -19  13   2  113.99    8.20
 -17 -13   2   22.30    3.20
 -17 -13   2   20.10    2.80
  17 -13  -2   17.70    3.30
 -17  13   2   24.10    4.00
  15 -13  -2   90.79    6.40
 -15 -13   2   87.49    5.60
 -15 -13   2   80.79    5.10
 -15  13   2   83.49    6.50
 -13 -13   2  105.39    5.80
  13 -13  -2  109.19    7.20
 -13  13   2  113.29    7.40
 -11 -13   2  204.18    9.10
  11 -13  -2  193.08   10.60
 -11 -13   2  203.08    9.40
 -11  13   2  205.68   10.80
  -9 -13   2  224.08   10.30
  -9 -13   2  235.18   10.40
   9 -13  -2  255.07   12.20
  -9  13   2  275.67   15.20
  -7 -13   2   21.30    1.70
   7 -13  -2   17.60    2.90
  -7 -13   2   18.90    1.50
   7 -13  -2   20.20    3.00
  -7  13   2   19.30    3.10
  -5 -13   2   29.00    1.90
   5 -13  -2   29.00    3.70
  -5 -13   2   29.70    1.80
  -5  13   2   30.70    3.60
  -3 -13   2  113.79    4.90
   3 -13  -2  112.99    6.70
  -3 -13   2  110.79    4.90
  -3  13   2  115.59    6.70
  -1 -13   2   29.30    1.80
  -1 -13   2   26.70    1.70
   1 -13  -2   24.10    3.10
   1 -13  -2   31.30    3.60
  -1  13   2   32.40    3.00
  -1 -13  -2   47.20    3.80
  -1 -13  -2   36.90    3.50
   1 -13   2   41.20    2.50
   1 -13   2   41.00    2.40
   1  13   2   38.80    3.40
  -3 -13  -2  243.98   11.60
  -3 -13  -2  230.58   11.40
   3 -13   2  234.58   10.10
   3 -13   2  222.18    9.90
   3  13   2  239.88   11.30
  -5 -13  -2  207.58   11.00
   5 -13   2  227.78   10.10
  -5 -13  -2  230.48   11.40
   5 -13   2  233.88   10.00
   5  13   2  220.08   10.90
   7 -13   2  287.87   12.50
  -7 -13  -2  279.47   13.50
  -7 -13  -2  260.97   13.10
   7 -13   2  277.47   12.20
   7  13   2  276.97   13.10
   9 -13   2   15.00    2.30
  -9 -13  -2   26.40    3.70
   9 -13   2   25.70    3.00
  -9 -13  -2   24.10    4.50
   9  13   2   19.40    3.00
 -11 -13  -2  117.59    7.50
 -11 -13  -2  120.49    7.80
  11 -13   2  121.79    7.10
  11 -13   2  134.49    7.40
  11  13   2  132.89    7.50
 -13 -13  -2   25.70    3.40
  13 -13   2   17.40    3.00
 -13 -13  -2   39.20    4.90
  13 -13   2   36.10    3.40
  13  13   2   31.60    4.00
  15 -13   2   56.89    5.00
  15 -13   2   65.09    5.10
  15  13   2   60.89    5.00
 -17 -13  -2   58.59    5.60
  17 -13   2   61.79    5.30
  19 -13   2    7.10    2.20
 -19 -13  -2    8.20    2.70
  21 -13   2   14.90    3.20
 -21 -13  -2   14.20    3.70
  23 -13   2    8.50    3.10
 -23 -13  -2   12.20    3.60
 -25 -13  -2  136.09   10.40
  25 -13   2  136.99    9.90
  24 -14  -2    0.90    1.40
 -22 -14   2   14.60    3.10
  22 -14  -2   18.30    3.90
 -20 -14   2   30.50    3.90
 -20 -14   2   29.00    4.10
  20 -14  -2   45.80    5.90
 -20  14   2   33.20    7.30
 -18 -14   2   27.80    3.50
 -18 -14   2   24.60    3.50
  18 -14  -2   34.70    4.70
 -18  14   2   34.30    5.10
 -16 -14   2   29.70    3.70
 -16 -14   2   28.40    3.30
  16 -14  -2   21.20    3.40
 -16  14   2   22.80    3.80
  14 -14  -2   20.40    3.40
 -14 -14   2   19.40    2.50
 -14 -14   2   22.30    2.90
 -14  14   2   23.50    3.90
  12 -14  -2   52.49    4.70
 -12 -14   2   57.79    4.00
 -12  14   2   60.29    5.10
  10 -14  -2   70.59    5.30
 -10 -14   2   67.39    3.80
 -10 -14   2   65.09    4.00
 -10  14   2   63.59    5.10
   8 -14  -2  153.68    8.80
  -8 -14   2  157.98    7.20
   8 -14  -2  158.98   12.10
  -8 -14   2  158.18    7.10
  -8  14   2  163.68    9.00
  -6 -14   2    0.90    0.50
   6 -14  -2    0.60    0.90
  -6 -14   2    1.40    0.60
   6 -14  -2    3.10    1.40
  -6  14   2    0.80    0.80
  -4 -14   2    4.00    0.80
  -4 -14   2    3.70    0.80
   4 -14  -2    2.30    1.30
   4 -14  -2    1.10    0.90
  -4  14   2    2.80    1.30
  -2 -14   2   93.79    4.40
  -2 -14   2   94.19    4.30
   2 -14  -2   95.29    6.10
   2 -14  -2   95.19    6.10
  -2  14   2   88.79    5.80
   0 -14  -2    5.50    1.80
   0 -14   2    3.60    0.90
   0 -14   2    4.60    0.90
   0 -14  -2    4.30    1.60
   0  14   2    6.40    1.70
  -2 -14  -2    9.20    2.20
  -2 -14  -2    6.10    1.90
   2 -14   2   11.90    1.60
   2 -14   2   12.40    1.70
   2  14   2   14.50    2.50
   4 -14   2  467.75   19.00
  -4 -14  -2  442.86   20.20
  -4 -14  -2  469.75   20.40
   4 -14   2  474.75   18.70
   4  14   2  455.65   20.00
   6 -14   2   96.09    5.60
   6 -14   2  100.89    5.50
  -6 -14  -2  114.29    6.90
  -6 -14  -2  102.09    6.50
   6  14   2  102.79    6.30
   8 -14   2   39.80    3.20
  -8 -14  -2   33.70    4.40
  -8 -14  -2   40.30    4.70
   8 -14   2   40.50    3.20
   8  14   2   36.30    3.50
  10 -14   2  124.09    7.20
  10 -14   2  146.79    9.50
 -10 -14  -2  138.99    8.30
 -10 -14  -2  125.09   10.20
  10  14   2  119.39    7.50
  12 -14   2   49.70    4.20
  12 -14   2   55.99    4.30
 -12 -14  -2   41.90    4.90
 -12 -14  -2   43.50    5.20
  12  14   2   44.90    4.10
 -14 -14  -2   22.50    3.90
  14 -14   2   26.70    3.60
  16 -14   2   45.50    4.40
 -16 -14  -2   50.79    6.10
  18 -14   2   65.59    5.70
 -18 -14  -2   72.09    6.40
  20 -14   2    2.70    1.50
 -20 -14  -2    4.00    2.10
 -22 -14  -2    4.90    2.20
  22 -14   2    4.80    2.10
 -24 -14  -2   62.69    7.70
  24 -14   2   64.19    7.70
  23 -15  -2    3.90    2.30
  21 -15  -2    0.00    1.30
 -21 -15   2    1.60    1.50
  19 -15  -2   15.60    3.40
 -19 -15   2   17.60    3.20
 -19 -15   2   17.70    2.90
 -17 -15   2    4.10    1.50
 -17 -15   2    7.00    2.00
  17 -15  -2    4.00    1.80
 -17  15   2    4.00    1.90
 -15 -15   2    4.70    2.10
  15 -15  -2    8.80    2.30
 -15 -15   2    8.20    1.90
 -15  15   2   10.60    2.80
  13 -15  -2   13.60    2.80
 -13 -15   2   13.70    2.10
 -13 -15   2   15.70    2.30
 -13  15   2   14.70    3.00
 -11 -15   2   46.50    3.40
 -11 -15   2   40.60    3.00
  11 -15  -2   47.20    4.40
 -11  15   2   52.19    4.60
  -9 -15   2    6.00    1.30
   9 -15  -2    4.50    1.70
  -9 -15   2    4.40    1.00
  -9  15   2    6.80    1.90
  -7 -15   2    9.50    1.40
   7 -15  -2   10.30    2.40
   7 -15  -2    9.90    2.50
  -7 -15   2   10.20    1.50
  -7  15   2   11.40    2.50
   5 -15  -2    6.40    1.60
  -5 -15   2    9.30    1.30
   5 -15  -2    8.10    2.10
  -5 -15   2    9.30    1.30
  -5  15   2   10.90    2.30
   3 -15  -2    1.90    1.20
   3 -15  -2    4.60    1.60
  -3 -15   2    2.30    0.70
  -3 -15   2    3.20    0.80
  -3  15   2    1.60    1.10
   1 -15  -2   13.70    2.60
  -1 -15   2   14.80    1.40
   1 -15  -2   15.40    2.90
  -1 -15   2   17.20    1.50
  -1  15   2   11.70    2.10
   1 -15   2   19.00    1.70
  -1 -15  -2   27.70    3.70
  -1 -15  -2   20.10    3.30
   1 -15   2   23.90    1.90
   1  15   2   21.50    3.30
   3 -15   2    4.70    1.10
  -3 -15  -2    4.20    1.60
  -3 -15  -2    6.10    2.00
   3 -15   2    5.80    1.30
   3  15   2    7.30    1.90
   5 -15   2   55.29    3.70
  -5 -15  -2   48.40    4.40
  -5 -15  -2   45.00    4.20
   5 -15   2   57.19    3.50
   5  15   2   50.89    4.20
   7 -15   2   26.30    2.60
  -7 -15  -2   20.10    3.00
  -7 -15  -2   37.60    4.50
   7 -15   2   30.90    2.80
   9 -15   2  235.68   11.70
  -9 -15  -2  245.58   12.50
   9 -15   2  258.57   11.70
  -9 -15  -2  236.38   12.50
   9  15   2  246.98   12.20
  11 -15   2    1.80    1.30
 -11 -15  -2    0.30    1.30
  11 -15   2   -0.40    0.80
  11  15   2    0.30    0.90
 -13 -15  -2   16.90    3.20
  13 -15   2   15.50    2.90
  13 -15   2   20.10    3.20
 -15 -15  -2    1.40    1.30
  15 -15   2    0.50    1.30
  17 -15   2    0.40    1.10
 -17 -15  -2    1.70    1.70
 -19 -15  -2   23.00    4.50
  19 -15   2   22.50    4.00
  21 -15   2    2.00    1.70
 -21 -15  -2    0.90    1.70
 -23 -15  -2    9.70    3.20
  23 -15   2   16.00    3.70
  22 -16  -2    3.30    2.20
 -22 -16   2    1.90    2.00
  20 -16  -2    2.90    2.10
 -20 -16   2    0.30    1.20
 -18 -16   2   -1.00    0.80
  18 -16  -2    0.90    1.40
 -18 -16   2    0.00    0.70
 -16 -16   2    4.00    1.40
 -16 -16   2    2.60    1.30
  16 -16  -2    7.10    2.30
 -14 -16   2   -0.20    0.70
 -14 -16   2   -0.70    0.50
  14 -16  -2    0.00    1.00
 -14  16   2    0.10    1.00
 -12 -16   2   20.30    2.50
 -12 -16   2   18.70    2.60
  12 -16  -2   23.10    3.90
 -12  16   2   13.70    2.80
 -10 -16   2    5.70    1.30
 -10 -16   2    7.10    1.50
  10 -16  -2    6.00    1.80
 -10  16   2    5.80    2.00
  -8 -16   2   36.10    2.60
   8 -16  -2   38.60    5.10
  -8 -16   2   38.70    3.20
   8 -16  -2   37.40    4.50
  -8  16   2   40.40    4.80
   6 -16  -2    1.30    1.10
  -6 -16   2    1.70    0.70
  -6 -16   2    2.00    0.80
   6 -16  -2    4.80    1.50
  -6  16   2    2.30    1.20
   4 -16  -2    3.60    1.40
  -4 -16   2    5.10    1.00
  -4 -16   2    5.80    1.10
  -4  16   2    3.50    1.50
   2 -16  -2   27.80    4.00
  -2 -16   2   35.10    2.30
   2 -16  -2   27.20    3.90
  -2 -16   2   30.50    2.10
  -2  16   2   34.40    5.50
   0 -16  -2   11.30    2.50
   0 -16   2   16.10    1.80
   0 -16   2   12.30    1.70
   0 -16  -2   13.40    2.80
   0  16   2   15.90    3.50
   2 -16   2   32.40    2.50
   2 -16   2   33.90    2.60
  -2 -16  -2   35.70    4.40
  -2 -16  -2   33.40    4.20
   2  16   2   39.00    4.40
   4 -16   2   80.79    4.80
   4 -16   2   82.89    4.90
  -4 -16  -2   87.19    6.10
  -4 -16  -2   88.79    6.10
   4  16   2   80.69    5.50
   6 -16   2   -0.80    0.40
  -6 -16  -2   -0.40    1.00
   6 -16   2   -0.20    0.60
  -6 -16  -2   -0.40    0.60
   6  16   2    0.20    0.90
   8 -16   2  282.17   12.20
  -8 -16  -2  249.18   15.40
  -8 -16  -2  240.88   13.00
   8 -16   2  263.07   12.30
   8  16   2  258.07   12.80
  10 -16   2    3.50    1.40
  10 -16   2    4.80    1.50
 -10 -16  -2    3.00    1.70
 -10 -16  -2    4.00    1.80
 -12 -16  -2    1.20    1.20
  12 -16   2   -0.70    0.50
  12 -16   2   -0.30    0.60
  14 -16   2   70.59    7.00
  14 -16   2   72.29    5.60
 -14 -16  -2   84.49    6.60
 -16 -16  -2    1.30    1.60
  16 -16   2   -0.30    0.90
  18 -16   2    9.80    2.50
 -18 -16  -2   14.20    3.40
 -20 -16  -2   33.00    5.50
  20 -16   2   42.20    5.80
  22 -16   2    2.10    2.10
 -22 -16  -2   -0.10    1.60
  21 -17  -2   17.90    4.10
 -21 -17   2   22.90    4.00
 -19 -17   2    9.50    2.50
 -19 -17   2    9.10    2.60
  19 -17  -2   10.30    2.90
 -17 -17   2    0.40    0.90
  17 -17  -2    2.10    1.70
 -17 -17   2   -1.10    0.80
 -15 -17   2    3.40    1.50
  15 -17  -2    4.30    2.00
 -15 -17   2    6.40    1.70
 -13 -17   2    2.10    1.10
 -13 -17   2    2.50    1.10
  13 -17  -2    1.70    1.40
  11 -17  -2   -0.20    0.80
 -11 -17   2    0.60    0.70
 -11 -17   2    0.60    0.90
   9 -17  -2    6.00    2.00
  -9 -17   2    2.90    1.10
  -9 -17   2    3.40    1.00
  -9  17   2    4.20    1.70
   7 -17  -2   31.60    4.30
  -7 -17   2   45.90    3.00
   7 -17  -2   44.40    6.30
  -7 -17   2   43.30    2.80
  -7  17   2   43.10    4.10
  -5 -17   2   16.40    1.90
   5 -17  -2   17.80    3.00
  -5 -17   2   18.70    1.70
   5 -17  -2   12.50    2.70
  -5  17   2   11.50    3.10
  -3 -17   2   18.30    1.70
   3 -17  -2   15.20    3.00
   3 -17  -2   14.40    3.10
  -3  17   2   18.80    3.20
   1 -17  -2    8.80    2.30
  -1 -17   2    9.00    1.40
   1 -17  -2   15.50    3.20
  -1  17   2    9.40    2.20
  -1 -17  -2   23.60    3.60
   1 -17   2   23.60    2.10
  -1 -17  -2   20.80    3.50
   1 -17   2   27.70    2.30
   1  17   2   24.10    3.30
  -3 -17  -2    4.00    2.30
  -3 -17  -2    7.50    2.20
   3 -17   2    7.40    1.40
   3 -17   2    6.30    1.40
  -5 -17  -2    0.30    1.00
  -5 -17  -2   -0.20    0.80
   5 -17   2    0.50    0.60
   5 -17   2    0.30    0.70
   7 -17   2   19.70    2.80
  -7 -17  -2   16.70    2.90
  -7 -17  -2   20.80    3.50
   7 -17   2   15.40    2.40
   9 -17   2    7.60    1.90
  -9 -17  -2    4.70    1.90
   9 -17   2    6.20    1.60
  11 -17   2    0.60    1.00
  11 -17   2   -0.60    0.60
 -11 -17  -2   -0.40    1.00
  13 -17   2   45.10    5.00
  13 -17   2   39.60    3.90
 -13 -17  -2   40.20    5.20
  15 -17   2   16.00    3.00
 -15 -17  -2   30.10    5.00
  17 -17   2    3.50    1.80
 -17 -17  -2    5.50    2.30
 -19 -17  -2    1.80    1.70
  19 -17   2    2.30    1.80
  21 -17   2   38.30    6.60
 -21 -17  -2   40.80    6.20
 -20 -18   2   39.60    4.90
  20 -18  -2   35.80    5.20
  18 -18  -2    0.10    1.20
 -18 -18   2    0.70    1.10
 -18 -18   2    0.30    1.20
 -16 -18   2   10.30    2.10
 -16 -18   2   17.30    2.90
  16 -18  -2   15.80    3.70
 -14 -18   2   40.90    3.40
  14 -18  -2   37.30    5.30
 -14 -18   2   40.70    3.60
  12 -18  -2    2.60    1.70
 -12 -18   2    1.40    1.00
 -12 -18   2    3.50    1.10
 -10 -18   2    3.90    1.30
  10 -18  -2    4.70    1.90
 -10 -18   2    7.80    1.50
  -8 -18   2   33.50    2.60
  -8 -18   2   28.70    2.40
   8 -18  -2   28.00    4.00
   6 -18  -2  106.79    7.30
  -6 -18   2  112.49    5.60
  -6 -18   2  110.09    5.50
   4 -18  -2   41.00    5.10
  -4 -18   2   42.60    2.80
   4 -18  -2   34.10    4.30
  -4 -18   2   36.50    2.60
   2 -18  -2   12.30    2.70
   2 -18  -2   14.00    2.70
  -2 -18   2   16.60    1.90
  -2 -18   2   14.00    1.90
   0 -18   2   92.79    5.10
   0 -18   2   95.59    5.00
   0 -18  -2   82.69    6.40
   0 -18  -2  102.19    6.80
   2 -18   2   17.00    2.30
  -2 -18  -2   20.10    3.50
   2 -18   2   22.30    2.10
  -2 -18  -2   24.20    3.80
  -4 -18  -2    1.10    1.10
   4 -18   2    2.10    0.90
   4 -18   2    5.00    1.40
  -4 -18  -2    0.60    1.00
   6 -18   2   30.10    2.80
   6 -18   2   34.80    5.30
  -6 -18  -2   20.20    3.90
  -6 -18  -2   28.10    4.20
   8 -18   2  122.79    7.50
  -8 -18  -2  154.68    9.00
   8 -18   2  132.29    7.40
  10 -18   2    1.20    1.10
 -10 -18  -2   -1.10    0.70
  10 -18   2    1.90    1.10
 -12 -18  -2   25.00    4.20
  12 -18   2   18.30    3.00
  12 -18   2   19.50    3.30
 -14 -18  -2   16.00    3.40
  14 -18   2   13.20    2.70
  16 -18   2   11.70    2.70
 -16 -18  -2   10.40    3.10
  18 -18   2    4.10    2.20
 -18 -18  -2    0.20    1.40
  20 -18   2  142.09    9.70
 -19 -19   2   31.00    4.30
  19 -19  -2   41.40    6.40
 -17 -19   2   14.50    2.90
  17 -19  -2   15.80    3.80
 -17 -19   2    9.50    2.20
 -15 -19   2   30.30    3.80
  15 -19  -2   20.50    3.80
 -15 -19   2   33.10    3.20
  13 -19  -2   33.00    4.70
 -13 -19   2   38.30    3.40
 -13 -19   2   34.80    3.10
  11 -19  -2   16.60    3.50
 -11 -19   2   21.90    2.60
 -11 -19   2   19.80    2.60
  -9 -19   2    8.20    1.60
  -9 -19   2    4.60    1.30
   9 -19  -2    5.40    2.00
  -7 -19   2  188.28    8.60
   7 -19  -2  179.38   10.60
  -7 -19   2  186.28    8.60
   5 -19  -2   48.50    4.60
  -5 -19   2   41.70    3.00
  -5 -19   2   47.00    3.10
  -3 -19   2   34.00    2.70
  -3 -19   2   42.20    2.80
   3 -19  -2   37.90    4.90
  -1 -19   2   94.89    5.30
  -1 -19   2   99.69    5.20
   1 -19  -2   98.69    6.90
   1 -19   2   70.39    4.40
   1 -19   2   68.49    4.20
  -1 -19  -2   75.59    5.90
   3 -19   2    0.70    0.80
  -3 -19  -2    2.00    1.40
   3 -19   2    0.30    0.60
   5 -19   2   57.29    3.90
  -5 -19  -2   42.30    5.10
   5 -19   2   54.09    4.00
  -7 -19  -2   61.29    5.50
   7 -19   2   64.69    4.50
   7 -19   2   65.39    5.40
   9 -19   2  131.89    8.00
  -9 -19  -2  136.99    9.00
   9 -19   2  151.08    8.10
  11 -19   2   17.60    3.30
  11 -19   2   22.60    3.20
 -11 -19  -2   22.30    3.90
 -13 -19  -2   33.10    5.00
  13 -19   2   22.40    3.50
 -15 -19  -2    5.80    2.40
  15 -19   2    3.10    1.50
  17 -19   2   21.80    4.30
 -17 -19  -2   13.90    3.40
 -18 -20   2   97.39    6.60
  18 -20  -2   81.59    7.40
 -16 -20   2   21.50    4.70
  16 -20  -2   16.10    3.70
 -16 -20   2   16.30    2.80
  14 -20  -2   20.30    3.70
 -14 -20   2   27.20    3.30
 -14 -20   2   24.60    3.30
 -12 -20   2   44.10    3.70
 -12 -20   2   47.00    3.60
  12 -20  -2   55.49    5.40
 -10 -20   2   39.90    3.30
 -10 -20   2   39.00    3.10
  10 -20  -2   42.40    5.40
   8 -20  -2   74.49    6.30
  -8 -20   2   79.49    4.70
  -8 -20   2   81.19    4.70
  -6 -20   2   53.29    3.40
  -6 -20   2   50.59    3.40
   6 -20  -2   41.90    5.20
  -4 -20   2   97.69    5.20
  -4 -20   2   96.19    5.10
   4 -20  -2   91.79    6.90
   2 -20  -2   24.10    3.80
  -2 -20   2   23.40    2.70
  -2 -20   2   25.70    2.30
   0 -20  -2   99.49    7.00
   0 -20   2   96.59    5.30
   0 -20   2   94.29    5.40
   2 -20   2   45.40    3.50
   2 -20   2   42.00    3.20
  -2 -20  -2   42.20    5.30
   4 -20   2   31.70    2.90
   4 -20   2   37.00    3.20
  -4 -20  -2   30.90    4.40
   6 -20   2   75.19    5.20
  -6 -20  -2   74.69    6.20
   6 -20   2   79.09    5.10
   8 -20   2   80.29    5.80
  -8 -20  -2   88.09    6.90
   8 -20   2   91.49    5.80
  10 -20   2   51.09    4.40
 -10 -20  -2   61.69    5.70
  10 -20   2   47.40    4.50
  12 -20   2   48.80    4.40
 -12 -20  -2   45.30    5.90
  14 -20   2    6.00    2.20
 -14 -20  -2   11.70    3.30
  16 -20   2   50.89    5.00
 -16 -20  -2   42.00    6.40
 -15 -21   2   69.69    5.20
 -15 -21   2   66.09    4.80
  15 -21  -2   73.89    6.60
 -13 -21   2    7.80    1.80
 -13 -21   2    6.30    1.60
  13 -21  -2    8.30    2.60
  11 -21  -2   79.69    6.80
 -11 -21   2   83.29    5.10
 -11 -21   2   90.39    5.40
   9 -21  -2   74.49    6.30
  -9 -21   2   71.09    4.40
  -9 -21   2   72.29    4.60
  -7 -21   2   41.40    3.10
  -7 -21   2   38.10    3.00
   7 -21  -2   30.40    4.50
  -5 -21   2   32.70    2.60
  -5 -21   2   31.80    2.70
   5 -21  -2   27.20    4.20
   3 -21  -2   58.09    5.40
  -3 -21   2   63.99    4.00
  -3 -21   2   61.69    3.90
  -1 -21   2   75.99    4.70
   1 -21  -2   75.19    6.20
  -1 -21   2   78.29    4.60
  -1 -21  -2   25.60    4.10
   1 -21   2   29.90    2.80
   1 -21   2   30.00    2.70
   3 -21   2  108.19    6.10
  -3 -21  -2  105.19    7.70
   3 -21   2  111.39    6.40
  -5 -21  -2   54.99    5.30
   5 -21   2   47.90    4.10
   5 -21   2   52.49    4.00
   7 -21   2   66.69    5.00
  -7 -21  -2   69.49    6.00
   7 -21   2   59.79    4.60
   9 -21   2   25.50    3.80
   9 -21   2   34.30    4.10
  -9 -21  -2   29.90    4.60
 -11 -21  -2   47.20    5.90
  11 -21   2   43.90    4.20
  13 -21   2   48.60    8.30
 -13 -21  -2   39.30    5.60
  15 -21   2   39.70    5.20
 -15 -21  -2   44.40    5.90
 -14 -22   2  108.49    6.60
  14 -22  -2   96.09    8.00
 -14 -22   2  110.59    6.80
  12 -22  -2   41.20    5.70
 -12 -22   2   47.70    6.20
  10 -22  -2   42.20    5.40
 -10 -22   2   43.00    3.50
   8 -22  -2   41.00    5.30
  -8 -22   2   46.80    3.40
  -8 -22   2   41.80    3.50
  -6 -22   2   16.70    2.30
   6 -22  -2   15.10    3.20
  -6 -22   2   15.50    2.20
   4 -22  -2   14.20    3.30
  -4 -22   2   14.80    2.10
  -4 -22   2   15.90    2.30
  -2 -22   2  120.99    6.40
  -2 -22   2  123.69    6.50
   2 -22  -2  120.29    8.40
   0 -22   2   45.50    3.60
   0 -22  -2   48.90    5.90
   0 -22   2   45.20    3.40
  -2 -22  -2   45.10    5.50
   2 -22   2   40.40    3.50
   2 -22   2   39.00    3.20
   4 -22   2   52.99    4.10
   4 -22   2   56.59    4.40
  -4 -22  -2   62.19    5.70
   6 -22   2   76.39    5.30
  -6 -22  -2   87.29    6.90
   6 -22   2   79.49    5.70
   8 -22   2   13.80    2.50
  -8 -22  -2   24.10    4.30
   8 -22   2    8.90    2.40
 -10 -22  -2   40.50    5.50
 -12 -22  -2   24.00    4.40
  12 -22   2   19.10    3.20
 -11 -23   2   26.80    3.10
 -11 -23   2   24.70    3.10
  -9 -23   2   23.40    2.80
   9 -23  -2   12.50    3.20
  -7 -23   2    1.30    0.90
  -7 -23   2    0.60    0.80
   7 -23  -2    0.40    1.30
  -5 -23   2   39.30    3.20
  -5 -23   2   42.80    3.20
   5 -23  -2   37.70    5.40
  -3 -23   2   30.30    2.70
   3 -23  -2   24.80    4.40
  -1 -23   2   64.89    4.30
  -1 -23   2   70.89    4.60
   1 -23  -2   58.59    5.70
   1 -23   2   50.69    3.80
   1 -23   2   53.09    4.10
  -1 -23  -2   56.29    6.60
   3 -23   2    5.30    1.50
  -3 -23  -2    6.80    2.40
   3 -23   2    5.90    1.80
  -5 -23  -2   45.20    5.70
   5 -23   2   48.70    4.30
   5 -23   2   44.70    3.80
  -7 -23  -2   45.40    5.80
   7 -23   2   28.80    4.30
   9 -23   2   53.09    4.50
  -9 -23  -2   39.70    5.60
  -6 -24   2   17.20    2.50
   6 -24  -2   19.60    3.90
  -6 -24   2   19.60    2.50
  -4 -24   2    7.80    2.10
  -4 -24   2    6.00    1.60
   2 -24  -2   73.79   10.10
  -2 -24   2   68.39    4.60
   0 -24   2    0.30    1.10
   0 -24  -2   -0.10    1.90
   0 -24   2    0.80    1.60
   2 -24   2   21.40    2.90
  -2 -24  -2   22.40    6.20
   2 -24   2   30.30    3.80
  -4 -24  -2    8.00    2.70
   4 -24   2    9.10    2.30
   4 -24   2   13.30    2.30
  -6 -24  -2   17.10    3.70
   6 -24   2   17.50    2.90
 -28   0   3    1.00    1.70
 -26   0   3   -0.40    1.20
 -24   0   3    0.70    1.30
 -22   0   3   -0.50    1.20
  22   0  -3   -0.40    0.70
  20   0  -3   -0.50    0.50
 -20   0   3   -0.10    0.90
 -18   0   3    0.10    1.00
 -18   0   3    0.20    0.60
  18   0  -3   -0.30    0.50
  16   0  -3   -0.20    0.50
 -16   0   3    1.50    0.90
 -16   0   3    0.10    0.80
  14   0  -3    0.20    0.50
 -14   0   3   -0.30    0.70
 -14   0   3    0.10    0.60
 -12   0   3   -0.20    0.40
 -12   0   3   -0.50    0.40
  12   0  -3    0.50    0.60
 -10   0   3   -0.30    0.40
 -10   0   3   -0.70    0.40
  10   0  -3    0.30    0.40
  -8   0   3    0.10    0.60
   8   0  -3   -0.20    0.30
  -8   0   3    0.10    0.40
   6   0  -3    0.20    0.40
  -6   0   3   -0.30    0.50
  -4   0   3    0.10    0.50
   4   0  -3    0.90    0.50
  -2   0   3   -0.30    0.40
   2   0  -3    0.00    0.30
   0   0   3   -0.30    0.40
   0   0  -3    0.30    0.40
   2   0   3    0.00    0.40
  -2   0  -3    0.60    0.50
   2   0   3    0.10    0.50
   4   0   3    0.30    0.60
  -4   0  -3    0.00    0.50
   4   0   3    0.00    0.50
   6   0   3   -0.60    0.30
  -6   0  -3   -0.10    0.50
   6   0   3   -0.70    0.30
   8   0   3   -0.20    0.30
   8   0   3   -0.10    0.50
  -8   0  -3    0.10    0.50
  10   0   3   -0.10    0.60
  10   0   3   -0.80    0.50
 -10   0  -3    0.50    0.70
 -12   0  -3    0.50    0.70
  12   0   3   -0.30    0.60
  14   0   3    0.40    0.90
 -14   0  -3    0.10    0.90
  16   0   3   -1.10    0.60
 -16   0  -3   -0.30    0.80
  18   0   3   -0.30    0.80
 -18   0  -3    0.90    1.20
  20   0   3    0.90    1.20
 -20   0  -3   -0.90    0.70
 -22   0  -3    1.70    1.40
  22   0   3   -0.20    1.00
 -24   0  -3   -0.40    1.40
  24   0   3   -0.20    1.30
 -26   0  -3    2.30    2.00
  26   0   3   -1.40    1.00
  28   0   3    0.60    1.80
 -29  -1   3    3.70    2.30
 -29   1   3    5.10    2.80
 -27  -1   3   40.90    6.40
 -27   1   3   40.10    6.20
 -25  -1   3    0.00    1.30
 -25   1   3    0.30    1.40
 -23  -1   3    4.00    1.90
  23  -1  -3    4.20    1.70
 -23   1   3    3.10    2.10
 -21  -1   3   37.80    5.00
  21  -1  -3   39.80    3.90
 -21   1   3   50.99    6.20
  21   1  -3   38.50    3.70
  19  -1  -3   28.80    3.80
 -19  -1   3   25.10    3.40
 -19  -1   3   27.60    4.20
  19   1  -3   28.50    3.70
 -19   1   3   23.00    3.70
 -17  -1   3    0.60    1.00
  17  -1  -3    0.00    0.60
 -17  -1   3   -0.50    0.40
  17   1  -3   -0.30    0.50
 -17   1   3    0.00    0.90
 -17   1   3   -0.60    0.90
  15  -1  -3   44.20    3.50
 -15  -1   3   48.30    4.10
 -15  -1   3   46.40    3.60
 -15   1   3   43.80    4.00
 -15   1   3   39.30    3.50
  15   1  -3   41.10    3.30
 -13  -1   3   95.99    5.80
 -13  -1   3   81.49    5.20
  13  -1  -3   96.19    5.40
 -13   1   3   75.59    5.40
  13   1  -3   92.99    5.10
 -13   1   3  104.19    6.10
  11  -1  -3    6.40    1.30
 -11  -1   3    8.60    1.80
 -11  -1   3    9.50    1.60
  11   1  -3    8.30    1.40
 -11   1   3    6.90    1.30
 -11   1   3   10.40    2.20
  -9  -1   3   22.10    2.60
   9  -1  -3   19.70    2.30
  -9   1   3   19.40    2.70
   9   1  -3   19.40    1.70
  -9   1   3   14.20    1.90
  -7  -1   3    5.30    1.30
   7  -1  -3    5.00    1.10
   7   1  -3    7.10    1.20
  -7   1   3    6.50    1.60
  -7   1   3    5.30    1.10
  -5  -1   3  184.28    8.40
   5  -1  -3  185.88    8.10
   5   1  -3  184.78    7.80
  -5   1   3  162.98    8.40
  -5   1   3  170.88    8.20
  -3  -1   3   56.09    3.50
   3  -1  -3   60.09    3.50
  -3  -1   3   56.79    3.40
   3   1  -3   63.89    3.20
  -3   1   3   56.39    3.70
  -3   1   3   53.99    3.50
   1  -1  -3   75.19    4.20
  -1  -1   3   75.09    4.20
  -1   1   3   73.49    4.30
  -1   1   3   76.89    4.40
   1   1  -3   78.39    3.90
  -1  -1  -3  258.87   11.40
   1  -1   3  264.67   11.40
  -1   1  -3  270.77   11.10
   1   1   3  257.27   11.50
   1   1   3  268.27   11.60
   3  -1   3  153.88    7.30
  -3  -1  -3  157.98    7.50
  -3   1  -3  153.38    7.20
   3   1   3  153.48    7.50
   3   1   3  149.29    7.50
   5  -1   3    8.10    1.60
   5  -1   3    6.10    1.60
  -5   1  -3    6.50    1.40
   5   1   3    6.70    1.60
   5   1   3    5.10    1.30
   7  -1   3    0.50    0.60
  -7  -1  -3    0.30    0.60
   7  -1   3    0.70    0.80
   7   1   3    0.20    0.60
   7   1   3    0.30    0.40
  -7   1  -3    0.10    0.50
   9  -1   3   30.10    2.80
  -9  -1  -3   30.70    2.90
  -9   1  -3   32.30    2.80
   9   1   3   32.60    3.10
   9   1   3   32.00    3.00
  11  -1   3   21.00    3.20
  11  -1   3   12.30    2.30
 -11  -1  -3   15.40    2.50
  11   1   3   25.60    3.50
 -13  -1  -3   -0.10    0.60
  13  -1   3   -0.90    0.50
  13   1   3    0.10    0.70
 -13   1  -3    2.70    1.30
 -15  -1  -3  241.98   12.20
  15  -1   3  255.77   12.20
 -15   1  -3  220.08   11.80
  15   1   3  223.88   11.90
 -17  -1  -3    1.50    1.20
  17  -1   3    0.40    0.90
 -17   1  -3    0.50    1.00
  17   1   3    0.70    1.00
 -19  -1  -3   13.10    3.20
  19  -1   3    9.00    2.70
 -19   1  -3    8.40    2.40
  19   1   3    6.60    2.00
 -21  -1  -3    6.20    2.30
  21  -1   3    5.10    1.90
 -21   1  -3    7.30    2.40
  21   1   3    4.20    2.10
  23  -1   3    4.40    2.10
 -23  -1  -3    0.80    1.60
  23   1   3    5.50    2.20
 -25  -1  -3    9.50    2.90
  25  -1   3   10.70    2.90
 -25   1  -3    7.60    3.10
  25   1   3    4.80    2.30
  27  -1   3   74.79    8.60
 -27  -1  -3   55.29    7.80
  27   1   3   61.09    7.80
 -28  -2   3   68.69    8.50
 -28   2   3   74.49    9.10
 -26  -2   3   -1.30    0.90
 -26   2   3    1.60    1.90
  24  -2  -3   24.70    5.10
 -24  -2   3   25.80    4.60
 -24   2   3   22.40    4.40
 -22  -2   3   42.40    5.20
  22  -2  -3   33.00    4.20
 -22   2   3   38.90    5.30
  20  -2  -3   37.50    4.60
 -20  -2   3   42.20    5.00
 -20  -2   3   41.70    3.90
  20   2  -3   39.80    3.60
 -20   2   3   35.10    4.70
 -18  -2   3   30.20    4.10
 -18  -2   3   25.20    3.40
  18  -2  -3   19.20    2.90
  18   2  -3   22.70    3.00
 -18   2   3   22.20    3.60
 -16  -2   3  139.79    7.70
 -16  -2   3  141.89    8.40
  16  -2  -3  144.09    7.90
  16   2  -3  152.98    7.60
 -16   2   3  147.09    8.60
 -14  -2   3   12.40    2.00
  14  -2  -3   11.80    2.80
 -14  -2   3   20.60    3.00
 -14   2   3   17.60    2.70
  14   2  -3   15.20    2.20
 -14   2   3   14.70    2.50
  12  -2  -3  184.28    9.10
 -12  -2   3  188.48    9.40
  12   2  -3  186.88    8.70
 -12   2   3  197.08    9.90
 -12   2   3  195.08    9.40
  10  -2  -3   19.00    2.40
 -10  -2   3   17.80    2.30
 -10   2   3   12.30    2.00
 -10   2   3   19.60    2.60
  -8  -2   3   13.70    2.10
   8  -2  -3   12.30    1.70
  -8  -2   3   14.60    1.70
  -8   2   3   20.30    2.80
  -8   2   3   13.00    1.90
   8   2  -3   17.60    2.00
  -6  -2   3    5.10    1.10
  -6  -2   3    3.80    1.10
   6  -2  -3    2.30    0.70
   6   2  -3    4.00    0.80
  -6   2   3    4.80    1.30
  -6   2   3    4.30    1.20
   4  -2  -3  352.76   15.10
  -4  -2   3  353.86   15.00
  -4  -2   3  364.56   15.20
  -4   2   3  378.36   15.60
   4   2  -3  366.46   14.40
  -4   2   3  361.96   15.30
   2  -2  -3  226.28   10.10
  -2  -2   3  232.88   10.10
  -2   2   3  226.68   10.40
  -2   2   3  233.98   10.30
   0  -2  -3   63.19    3.90
   0  -2   3   67.29    3.80
   0  -2   3   69.39    3.80
   0   2   3   68.29    4.10
   0   2  -3   71.19    3.50
   0   2   3   69.89    4.20
  -2  -2  -3  317.17   13.30
   2  -2   3  298.97   12.80
  -2   2  -3  317.57   12.60
   2   2   3  287.97   13.10
   2   2   3  297.07   13.20
  -4  -2  -3  745.93   30.80
   4  -2   3  810.22   30.60
   4   2   3  738.13   31.00
  -4   2  -3  803.42   30.40
   4   2   3  785.32   31.00
  -6  -2  -3   49.60    3.50
   6  -2   3   47.30    3.30
   6  -2   3   42.50    3.20
   6   2   3   48.00    3.60
  -6   2  -3   47.20    3.20
   8  -2   3   34.70    2.90
  -8  -2  -3   29.90    2.90
   8  -2   3   30.60    2.80
  -8   2  -3   33.40    2.70
   8   2   3   36.00    3.10
 -10  -2  -3   30.60    3.00
  10  -2   3   27.90    3.40
  10  -2   3   30.10    3.50
 -10   2  -3   23.60    3.00
  10   2   3   23.50    3.80
  12  -2   3   64.59    4.50
 -12  -2  -3   51.69    4.30
  12  -2   3   51.99    4.20
  12   2   3   50.69    4.20
  14  -2   3   11.20    2.40
 -14  -2  -3   10.30    2.60
 -14   2  -3    8.40    1.90
  14   2   3    9.10    2.20
 -16  -2  -3  281.37   14.10
  16  -2   3  294.27   14.00
 -16   2  -3  260.07   13.60
  16   2   3  281.87   14.00
 -18  -2  -3   38.00    5.00
  18  -2   3   52.49    4.70
  18   2   3   53.69    4.90
 -18   2  -3   54.79    4.80
  20  -2   3    4.50    1.90
 -20  -2  -3    2.50    1.60
  20   2   3    2.30    1.50
 -20   2  -3    2.10    1.40
  22  -2   3   33.20    4.90
 -22  -2  -3   28.50    4.60
 -22   2  -3   24.20    4.30
  22   2   3   21.90    3.90
 -24  -2  -3   31.90    5.70
  24  -2   3   31.30    5.10
  24   2   3   33.00    5.10
 -24   2  -3   25.20    4.30
 -26  -2  -3    1.40    1.90
  26  -2   3    0.30    1.50
  26   2   3   -0.70    1.30
  28  -2   3   71.39    8.90
 -28  -2  -3   75.09    9.50
  28   2   3   69.09    8.30
 -29  -3   3   36.60    6.20
 -29   3   3   35.10    5.60
 -27  -3   3    2.50    2.00
 -27   3   3    1.20    1.60
 -25  -3   3   43.50    5.80
 -25   3   3   68.09    6.50
  23  -3  -3  120.49    8.10
 -23  -3   3  134.29    9.10
 -23   3   3  130.09    9.20
  21  -3  -3   20.70    3.20
 -21  -3   3   15.50    4.10
 -21  -3   3   21.90    3.70
 -21   3   3   25.60    4.60
 -19  -3   3  135.09    8.00
  19  -3  -3  143.19    8.30
 -19  -3   3  143.59    8.70
 -19   3   3  163.48    9.50
  19   3  -3  129.69    7.50
 -17  -3   3   81.69    5.60
 -17  -3   3   94.19    6.40
  17  -3  -3  102.39    6.20
 -17   3   3   95.89    6.70
  17   3  -3   92.59    5.50
 -15  -3   3   77.89    5.40
  15  -3  -3   72.89    5.00
 -15   3   3   75.39    5.60
  15   3  -3   76.89    4.60
  13  -3  -3   52.69    3.80
 -13  -3   3   50.29    3.90
  13   3  -3   46.90    3.20
 -13   3   3   51.99    4.30
 -11  -3   3  585.54   23.70
 -11  -3   3  589.74   24.20
  11  -3  -3  613.04   24.20
 -11   3   3  529.95   24.10
 -11   3   3  633.74   25.00
  11   3  -3  586.64   23.30
   9  -3  -3   55.79    3.70
  -9  -3   3   49.90    3.20
  -9  -3   3   52.39    3.60
   9   3  -3   56.59    3.00
  -9   3   3   60.49    4.20
  -9   3   3   47.60    3.60
  -7  -3   3    6.30    1.20
   7  -3  -3    5.60    1.30
  -7  -3   3    4.00    1.00
  -7   3   3    4.40    1.00
  -7   3   3    8.90    1.90
   7   3  -3    7.50    1.00
   5  -3  -3  192.38    8.80
  -5  -3   3  190.78    8.30
  -5  -3   3  191.08    8.40
  -5   3   3  182.08    9.10
  -5   3   3  187.28    9.20
   5   3  -3  194.88    8.20
   3  -3  -3  471.35   20.00
  -3  -3   3  505.45   19.50
  -3  -3   3  501.65   19.60
  -3   3   3  523.15   20.60
   3   3  -3  499.15   18.90
  -3   3   3  452.75   20.10
  -1  -3   3  986.20   38.10
   1  -3  -3  990.10   38.70
  -1   3   3 1056.69   40.00
   1   3  -3  979.70   37.50
  -1   3   3  964.70   38.90
   1  -3   3  245.78   10.50
  -1  -3  -3  236.18   11.00
   1  -3   3  250.77   10.50
   1   3   3  260.87   11.30
   1   3   3  242.68   11.10
  -1   3  -3  243.08   10.00
  -3  -3  -3  661.13   26.70
   3  -3   3  655.93   26.20
   3  -3   3  691.03   26.20
   3   3   3  676.93   26.80
  -3   3  -3  655.23   25.80
   3   3   3  635.74   26.70
   5  -3   3  149.39    7.70
  -5  -3  -3  176.48    8.40
  -5   3  -3  171.48    7.60
   5   3   3  163.88    8.30
   5   3   3  168.18    8.30
   7  -3   3   29.20    2.60
  -7  -3  -3   27.10    2.70
   7  -3   3   30.00    2.60
   7   3   3   33.40    2.90
  -7   3  -3   28.90    2.40
   9  -3   3   23.30    2.80
  -9  -3  -3   22.50    2.80
   9  -3   3   22.90    3.20
   9   3   3   35.10    4.60
  -9   3  -3   24.00    2.30
  11  -3   3  546.75   22.60
  11  -3   3  504.35   22.60
 -11  -3  -3  557.54   23.10
 -11   3  -3  514.05   22.30
  11   3   3  555.54   23.00
 -13  -3  -3   37.70    3.70
  13  -3   3   41.70    3.70
  13  -3   3   36.10    3.50
  13   3   3   40.60    4.60
 -13   3  -3   34.70    3.30
  15  -3   3   37.70    3.70
 -15  -3  -3   41.70    5.10
  15   3   3   42.70    4.00
 -15   3  -3   30.10    3.70
 -17  -3  -3  221.58   12.20
  17  -3   3  226.18   12.00
  17   3   3  226.78   12.10
 -17   3  -3  231.08   12.00
 -19  -3  -3  131.49    8.60
  19  -3   3  124.49    8.30
  19   3   3  133.79    8.50
 -19   3  -3  117.49    8.10
 -21  -3  -3   44.10    6.10
  21  -3   3   42.80    5.30
 -21   3  -3   40.40    5.20
  21   3   3   46.90    5.90
  23  -3   3   70.99    6.40
 -23  -3  -3   70.69    6.60
  23   3   3   67.49    6.30
 -23   3  -3   63.39    6.10
  25  -3   3   47.00    6.40
 -25  -3  -3   42.50    6.70
  25   3   3   57.19    7.30
  27  -3   3   11.90    3.40
 -27  -3  -3   21.70    5.30
  27   3   3   17.00    4.30
 -28  -4   3    0.60    1.50
 -28   4   3   -0.50    1.40
 -26  -4   3   71.79    6.80
 -26   4   3   77.09    9.00
  24  -4  -3   67.99    6.10
 -24  -4   3   95.89    7.40
 -24   4   3   96.19    7.80
  22  -4  -3  110.09    7.70
 -22  -4   3  121.49    8.30
 -22   4   3  129.09    8.80
  20  -4  -3   95.39    6.70
 -20  -4   3   98.39    7.10
 -20  -4   3  103.29    6.60
 -20   4   3  108.89    7.70
  18  -4  -3  361.86   16.80
 -18  -4   3  351.36   16.40
 -18  -4   3  389.06   17.30
 -18   4   3  358.06   17.60
 -16  -4   3   23.90    3.40
  16  -4  -3   15.70    2.60
 -16   4   3   26.40    3.90
  14  -4  -3   45.50    3.80
 -14  -4   3   48.70    3.50
 -14  -4   3   49.60    4.00
 -14   4   3   54.39    4.50
 -12  -4   3  324.77   14.40
 -12  -4   3  332.47   14.90
  12  -4  -3  359.36   15.20
 -12   4   3  345.07   15.70
 -10  -4   3  247.08   10.90
 -10  -4   3  243.48   10.50
  10  -4  -3  232.78   11.10
 -10   4   3  232.58   11.60
  -8  -4   3   89.19    4.70
   8  -4  -3   92.09    5.10
  -8  -4   3   79.79    4.40
  -8   4   3   79.49    5.00
  -8   4   3   93.69    5.60
  -6  -4   3   11.70    1.60
  -6  -4   3   11.50    1.40
   6  -4  -3   11.50    1.80
  -6   4   3   11.20    2.00
  -6   4   3   10.70    2.10
  -4  -4   3  771.92   29.80
  -4  -4   3  789.72   29.90
   4  -4  -3  763.22   30.70
  -4   4   3  767.32   31.00
  -2  -4   3  273.17   11.10
  -2  -4   3  266.57   11.00
  -2   4   3  259.77   11.90
   0  -4  -3 1023.50   38.90
   0  -4   3 1004.50   37.90
   0  -4   3  999.40   37.90
   0   4   3  932.61   38.70
  -2  -4  -3  481.05   19.80
   2  -4   3  486.25   19.00
   2  -4   3  476.75   19.00
   2   4   3  481.45   19.90
  -2   4  -3  467.25   18.40
   2   4   3  455.65   19.70
  -4  -4  -3   76.19    4.80
   4  -4   3   79.59    4.40
   4   4   3   78.99    4.90
  -4   4  -3   82.19    4.10
  -6  -4  -3  131.49    7.10
   6  -4   3  132.49    6.60
  -6   4  -3  123.09    6.20
   6   4   3  135.79    7.20
   8  -4   3  108.39    5.70
  -8  -4  -3   91.79    5.90
  -8   4  -3  100.29    5.40
   8   4   3   96.29    6.00
  10  -4   3  436.06   18.20
  10  -4   3  406.66   18.20
 -10   4  -3  417.06   17.90
  10   4   3  428.46   18.70
  12  -4   3   49.80    4.10
  12  -4   3   58.99    4.30
 -12  -4  -3   51.59    4.40
  12   4   3   52.79    4.30
 -12   4  -3   50.99    3.90
  14  -4   3  119.49    7.00
  14  -4   3   99.19    6.70
 -14  -4  -3  116.39    7.30
 -14   4  -3  113.49    6.80
  14   4   3  108.99    7.20
  16  -4   3    6.10    2.00
 -16  -4  -3    7.40    2.30
 -16   4  -3    8.10    2.20
  16   4   3    8.10    2.30
  18  -4   3  261.77   13.50
 -18  -4  -3  265.27   13.90
 -18   4  -3  253.47   13.30
  18   4   3  260.97   13.60
  20  -4   3  228.68   12.30
 -20  -4  -3  208.18   12.30
  20   4   3  212.08   12.10
 -20   4  -3  215.08   12.00
 -22  -4  -3   48.50    6.20
  22  -4   3   48.00    7.00
  22   4   3   47.60    5.80
 -22   4  -3   33.20    5.00
 -24  -4  -3   98.29    8.10
  24  -4   3   84.29    7.30
  24   4   3   89.19    7.50
  26  -4   3   70.39    6.70
 -26  -4  -3   54.99    6.90
  26   4   3   66.59    7.70
 -29  -5   3   17.90    4.50
 -29   5   3   14.30    4.10
 -27  -5   3   15.10    3.50
 -27   5   3   17.40    4.40
  25  -5  -3   73.89    6.20
 -25  -5   3   64.49    6.30
 -25   5   3   65.39    9.80
  23  -5  -3   39.70    5.40
 -23  -5   3   36.40    5.20
 -23   5   3   37.70    5.70
  21  -5  -3  236.08   12.70
 -21  -5   3  245.38   12.40
 -21  -5   3  240.58   13.10
 -21   5   3  253.17   13.80
  19  -5  -3  238.28   12.40
 -19  -5   3  230.68   13.70
 -19   5   3  262.37   13.50
 -17  -5   3  256.27   12.80
  17  -5  -3  252.57   12.70
 -17   5   3  273.37   13.70
  15  -5  -3   33.30    3.30
 -15  -5   3   38.10    3.50
 -15   5   3   40.50    5.20
 -13  -5   3   17.20    2.20
  13  -5  -3   18.10    2.60
 -13  -5   3   11.30    2.10
 -13   5   3   16.90    3.00
 -11  -5   3  374.66   15.80
  11  -5  -3  372.26   16.30
 -11  -5   3  358.56   15.40
 -11   5   3  380.56   16.90
  -9  -5   3  108.19    5.80
   9  -5  -3  124.79    6.50
  -9  -5   3  114.89    5.60
  -9   5   3  115.19    6.80
   7  -5  -3  196.38    9.40
  -7  -5   3  199.78    8.50
  -7  -5   3  203.28    8.80
  -7   5   3  191.08    9.80
   5  -5  -3  150.68    7.70
  -5  -5   3  157.98    6.90
  -5  -5   3  160.58    6.80
  -5   5   3  149.79    8.00
   3  -5  -3  653.33   26.10
  -3  -5   3  652.13   24.90
  -3  -5   3  645.44   24.80
  -3   5   3  623.44   26.30
   1  -5  -3  679.53   27.80
  -1  -5   3  699.73   26.70
  -1  -5   3  682.03   26.60
  -1   5   3  703.23   28.10
  -1  -5  -3  367.56   15.90
   1  -5   3  370.66   14.80
   1  -5   3  366.66   14.80
   1   5   3  361.36   15.90
   3  -5   3  740.33   28.70
  -3  -5  -3  738.23   29.70
   3  -5   3  735.03   28.80
   3   5   3  732.03   29.80
   5  -5   3   17.70    2.10
   5  -5   3   16.70    2.20
  -5  -5  -3   20.00    2.60
  -5   5  -3   15.70    1.40
   5   5   3   14.80    2.30
   7  -5   3  217.48   10.40
   7  -5   3  230.68   10.30
  -7  -5  -3  228.98   11.00
  -7   5  -3  230.68    9.90
   7   5   3  213.28   10.80
  -9  -5  -3  809.92   31.60
   9  -5   3  765.82   30.80
  -9   5  -3  741.93   30.40
   9   5   3  749.82   31.40
  11  -5   3   31.00    3.10
  11  -5   3   36.20    3.20
 -11  -5  -3   30.70    3.80
 -11   5  -3   34.70    2.90
  11   5   3   37.00    3.50
  13  -5   3   18.30    2.80
  13  -5   3   30.10    3.50
  13   5   3   25.50    3.40
 -13   5  -3   28.00    3.20
 -15  -5  -3   17.30    2.90
  15  -5   3   10.90    2.20
  15  -5   3   15.40    2.70
 -15   5  -3   19.30    2.90
  15   5   3   18.20    3.10
  17  -5   3  418.96   19.10
 -17  -5  -3  422.46   19.60
  17   5   3  397.66   22.30
 -17   5  -3  399.66   18.80
 -19  -5  -3  123.19    8.40
  19  -5   3  116.29    7.90
 -19   5  -3  130.99   10.00
  19   5   3  104.79    7.70
  21   5   3  131.69    9.00
 -21   5  -3  135.79    8.90
 -23  -5  -3  123.19    8.90
  23  -5   3  103.39    8.10
  23   5   3  105.69    8.20
 -25  -5  -3   83.49    7.70
  25  -5   3   92.79    7.70
  25   5   3   85.29    7.60
 -27  -5  -3    1.70    1.80
  27  -5   3    3.80    2.30
 -28  -6   3   46.40    6.40
 -28   6   3   53.09    7.50
 -26  -6   3   13.50    3.50
 -26   6   3    8.10    3.00
 -24  -6   3   59.39    5.80
  24  -6  -3   65.69    6.10
 -24   6   3   67.79    6.50
 -22  -6   3   68.59    5.80
  22  -6  -3   61.19    5.50
 -22   6   3   63.19    6.10
  20  -6  -3  192.48   11.00
 -20  -6   3  203.68   11.20
 -20   6   3  208.38   12.00
 -18  -6   3  568.94   26.30
 -18  -6   3  500.85   22.20
  18  -6  -3  517.75   23.10
 -18   6   3  527.75   24.00
 -16  -6   3   62.79    4.40
  16  -6  -3   73.39    5.20
 -16  -6   3   63.99    4.90
 -16   6   3   72.49    5.60
 -14  -6   3   74.69    4.50
 -14  -6   3   83.09    5.10
  14  -6  -3   66.39    4.90
 -14   6   3   65.49    5.30
  12  -6  -3    4.50    1.30
 -12  -6   3    6.10    1.30
 -12  -6   3    3.70    1.20
 -12   6   3    2.70    1.10
 -10  -6   3  443.36   17.90
  10  -6  -3  455.15   19.10
 -10  -6   3  428.76   18.10
 -10   6   3  437.36   19.50
  -8  -6   3   70.69    3.70
  -8  -6   3   74.59    4.00
   8  -6  -3   67.79    4.60
  -8   6   3   69.89    4.90
   6  -6  -3  593.74   24.00
  -6  -6   3  564.44   22.50
  -6  -6   3  591.54   22.80
  -4  -6   3  360.36   14.00
  -4  -6   3  349.87   13.80
   4  -6  -3  359.26   15.30
  -4   6   3  332.67   15.50
  -2  -6   3  338.37   13.70
  -2  -6   3  336.07   13.70
   2  -6  -3  345.67   15.10
  -2   6   3  369.66   15.40
   0  -6   3  274.67   10.90
   0  -6   3  269.77   11.00
   0  -6  -3  263.77   12.20
   0   6   3  260.57   12.30
   2  -6   3  695.03   26.30
   2  -6   3  668.23   26.30
  -2  -6  -3  664.43   27.50
   2   6   3  673.23   27.60
  -4  -6  -3  117.79    6.50
   4  -6   3  106.89    5.50
   4  -6   3  107.29    5.60
   4   6   3  124.29    6.60
  -6  -6  -3  531.65   21.90
   6  -6   3  488.55   21.00
   6  -6   3  537.85   20.90
   6   6   3  497.95   21.70
   8  -6   3  167.48    8.40
  -8  -6  -3  168.18    9.00
   8  -6   3  173.28    8.30
  -8   6  -3  173.68    7.90
   8   6   3  167.58    9.00
  10  -6   3  449.36   18.30
 -10  -6  -3  402.46   18.80
  10   6   3  415.66   18.80
  12  -6   3    2.40    1.20
  12  -6   3    2.80    1.20
 -12  -6  -3    1.70    1.30
 -12   6  -3    1.90    0.90
  12   6   3    2.70    1.50
  14  -6   3    1.00    0.90
 -14  -6  -3    2.80    1.20
  14  -6   3    1.80    1.20
  14   6   3    3.20    1.60
 -14   6  -3    1.70    1.20
 -16  -6  -3  536.95   24.60
  16  -6   3  568.24   24.20
  16  -6   3  529.95   24.20
  16   6   3  555.14   24.50
 -16   6  -3  554.64   23.80
  18  -6   3  181.18   10.20
  18   6   3  172.58   10.30
 -18   6  -3  165.58    9.70
  20  -6   3   82.79    6.90
 -20  -6  -3   81.29    6.80
 -20   6  -3   76.69    6.20
  20   6   3   80.89    6.70
 -22  -6  -3  128.79    9.10
  22  -6   3  123.09    8.60
  22   6   3  109.79    8.40
 -24  -6  -3  119.39    9.20
  24  -6   3  121.59    8.90
  24   6   3  120.09    9.00
 -26  -6  -3   10.50    3.30
  26  -6   3   15.60    3.70
 -27  -7   3   37.40    6.10
 -27   7   3   42.90    7.00
  25  -7  -3   47.00    6.10
 -25  -7   3   31.30    4.80
 -25   7   3   33.30    5.60
  23  -7  -3   20.50    3.70
 -23  -7   3   15.30    3.20
 -23   7   3   28.70    5.10
  21  -7  -3  129.19    8.60
 -21  -7   3  126.79    8.40
 -21   7   3  131.39    9.10
  19  -7  -3  115.99    7.70
 -19  -7   3  120.59    7.70
 -19   7   3  125.79    8.50
  17  -7  -3  456.95   20.40
 -17  -7   3  477.95   20.90
 -17  -7   3  424.76   19.30
 -17   7   3  453.35   21.10
  15  -7  -3   20.90    3.10
 -15  -7   3   26.40    3.20
 -15  -7   3   25.90    2.50
 -15   7   3   27.20    3.70
 -13  -7   3   26.80    2.40
  13  -7  -3   34.90    4.00
 -13  -7   3   28.30    3.20
 -13   7   3   24.50    3.30
 -11  -7   3   47.50    3.20
 -11  -7   3   37.80    2.70
  11  -7  -3   37.20    3.40
 -11   7   3   43.20    3.90
  -9  -7   3  100.29    5.20
   9  -7  -3   99.29    6.00
  -9  -7   3   98.69    4.90
  -9   7   3  106.89    6.50
  -7  -7   3  186.98    7.90
  -7  -7   3  182.48    7.70
   7  -7  -3  176.08    9.10
  -7   7   3  177.08    9.40
  -5  -7   3  230.58    9.30
  -5  -7   3  225.08    9.20
   5  -7  -3  225.88   10.80
  -5   7   3  227.78   11.10
  -3  -7   3  463.15   17.90
   3  -7  -3  475.35   19.70
  -3  -7   3  466.15   18.00
  -3   7   3  454.15   19.90
   1  -7  -3  160.58    8.30
  -1  -7   3  160.38    6.80
  -1  -7   3  159.68    6.90
  -1   7   3  180.08    8.70
   1  -7   3  242.78   10.20
  -1  -7  -3  249.08   11.70
   1  -7   3  251.97   10.30
  -3  -7  -3  439.26   19.20
   3  -7   3  436.56   17.90
   3  -7   3  441.36   17.80
   3   7   3  469.05   19.30
  -5  -7  -3  328.37   15.20
   5  -7   3  357.66   14.20
   5  -7   3  354.96   14.50
   5   7   3  312.97   15.10
   7  -7   3   83.09    4.90
  -7  -7  -3   84.99    5.60
   7  -7   3   88.19    4.90
   7   7   3   81.09    5.50
  -9  -7  -3  259.97   13.90
   9  -7   3  270.77   11.80
   9  -7   3  239.58   11.70
   9   7   3  253.67   12.40
  -9   7  -3  254.37   12.00
 -11  -7  -3    0.50    1.00
  11  -7   3    1.60    1.00
 -11   7  -3    2.90    1.10
  11   7   3    3.20    1.40
 -13  -7  -3   59.39    5.00
  13  -7   3   50.09    4.80
  13  -7   3   51.89    4.30
 -13   7  -3   54.39    4.30
  13   7   3   63.59    5.00
  15  -7   3   86.49    7.60
 -15  -7  -3   89.79    6.60
  15  -7   3   89.49    6.10
 -15   7  -3   89.09    5.80
  15   7   3   78.39    6.10
 -17  -7  -3  272.77   14.30
  17  -7   3  251.77   14.20
  17  -7   3  287.77   13.90
 -17   7  -3  271.17   13.40
  17   7   3  264.77   14.00
  19  -7   3  141.29    8.70
 -19  -7  -3  139.59    9.20
  19   7   3  118.09    8.50
 -19   7  -3  126.29    8.30
  21  -7   3   62.79    5.70
 -21  -7  -3   45.10    6.30
  21   7   3   56.59    5.60
 -23  -7  -3   90.39    7.80
  23  -7   3   89.79    7.30
  23   7   3   92.69    7.70
  25  -7   3   26.90    4.80
 -25  -7  -3   29.00    5.60
 -28   8   3    2.50    2.20
 -26  -8   3   21.60    4.20
  26  -8  -3   27.90    5.00
 -26   8   3   27.20    5.50
  24  -8  -3   64.69    6.10
 -24  -8   3   67.09    6.20
 -24   8   3   78.39    7.20
 -22  -8   3   45.20    5.40
  22  -8  -3   45.50    5.40
 -22   8   3   54.49    7.00
 -20  -8   3   41.00    3.80
  20  -8  -3   37.80    4.90
 -20  -8   3   45.30    4.40
 -20   8   3   45.30    5.40
 -18  -8   3   30.80    3.60
 -18  -8   3   30.90    3.80
  18  -8  -3   28.70    3.90
 -18   8   3   36.00    4.90
 -16  -8   3  205.38   10.10
 -16  -8   3  225.98   10.90
 -16   8   3  212.48   11.80
  14  -8  -3   52.39    4.30
 -14  -8   3   50.49    3.80
 -14  -8   3   43.40    3.30
 -14   8   3   51.59    4.70
 -12  -8   3    9.50    1.50
 -12  -8   3    7.10    1.50
  12  -8  -3    9.50    2.30
 -12   8   3    8.70    2.20
 -10  -8   3   90.79    4.70
  10  -8  -3   75.69    5.30
 -10  -8   3   86.99    4.40
 -10   8   3   77.39    5.70
   8  -8  -3   68.89    4.60
  -8  -8   3   65.79    3.40
  -8  -8   3   60.89    3.50
  -6  -8   3    9.80    0.90
   6  -8  -3    8.70    1.70
  -6  -8   3   12.00    1.30
  -6   8   3    7.60    1.80
  -4  -8   3  453.75   17.60
  -4  -8   3  463.75   17.50
   4  -8  -3  459.75   19.60
  -4   8   3  451.25   19.80
  -2  -8   3  410.36   16.20
   2  -8  -3  460.55   18.40
  -2  -8   3  415.66   16.20
  -2   8   3  397.36   18.20
   0  -8   3  104.29    4.60
   0  -8  -3   94.29    6.00
   0  -8   3   99.99    4.60
   0   8   3  112.89    6.40
  -2  -8  -3  254.27   12.60
   2  -8   3  280.67   11.40
   2  -8   3  274.47   11.20
   2   8   3  282.17   12.90
   4  -8   3  569.14   22.10
   4  -8   3  553.44   22.20
  -4  -8  -3  522.05   23.40
   4   8   3  578.54   23.60
   6  -8   3   13.20    1.90
   6  -8   3   13.10    1.80
   6   8   3   10.50    2.00
   8  -8   3    7.30    1.50
  -8  -8  -3    6.90    2.00
   8  -8   3   10.20    1.80
   8   8   3    8.10    1.90
  10  -8   3   40.50    3.40
  10  -8   3   40.80    3.40
 -10  -8  -3   40.90    4.00
  10   8   3   40.60    3.80
  12  -8   3   58.79    4.50
 -12  -8  -3   69.49    5.40
  12   8   3   53.69    4.70
 -12   8  -3   57.99    4.00
  14  -8   3   56.09    4.60
 -14  -8  -3   62.59    5.20
  14  -8   3   53.09    4.60
  14   8   3   57.59    5.00
 -14   8  -3   59.39    4.40
  16  -8   3   81.99    5.90
  16  -8   3   68.19    6.50
 -16  -8  -3   73.39    6.10
  16   8   3   67.49    5.80
 -16   8  -3   87.19    6.70
  18  -8   3   73.29    5.80
 -18  -8  -3   74.39    6.30
  18   8   3   62.59    5.80
 -20  -8  -3   79.89    6.70
  20  -8   3   75.79    6.20
  20   8   3   62.39    6.00
  22  -8   3   30.90    4.80
 -22  -8  -3   33.20    5.90
  22   8   3   29.50    4.60
  24  -8   3   55.69    7.10
 -24  -8  -3   37.50    5.80
  26  -8   3   59.59    8.00
 -26  -8  -3   49.30    7.60
 -27   9   3    0.50    2.40
 -25  -9   3   24.10    4.30
  25  -9  -3   29.10    5.00
 -25   9   3   21.50    4.60
 -23  -9   3  112.79    8.00
  23  -9  -3  111.99    8.10
 -23   9   3   97.69    8.30
  21  -9  -3    3.40    1.80
 -21  -9   3   -0.50    0.70
 -21  -9   3    1.50    1.30
 -21   9   3    0.20    1.20
 -19  -9   3   22.90    3.10
  19  -9  -3   24.90    3.70
 -19  -9   3   27.00    3.90
 -19   9   3   23.20    3.80
 -17  -9   3    1.10    1.10
  17  -9  -3   -0.60    0.70
 -17  -9   3    0.00    0.60
 -17   9   3    0.20    1.10
 -15  -9   3  139.99    7.80
  15  -9  -3  154.48    8.70
 -15  -9   3  142.39    7.30
 -15   9   3  138.79    8.80
 -13  -9   3   79.49    4.50
 -13  -9   3   77.29    4.80
  13  -9  -3   79.29    5.60
 -13   9   3   68.19    5.60
  11  -9  -3   42.70    5.70
 -11  -9   3   35.70    2.80
 -11  -9   3   39.20    2.60
 -11   9   3   30.00    3.70
  -9  -9   3   26.60    2.00
  -9  -9   3   24.20    1.80
   9  -9  -3   16.40    2.50
   7  -9  -3    4.80    1.60
  -7  -9   3    4.90    0.90
  -7  -9   3    6.10    0.90
  -7   9   3    4.70    1.50
  -5  -9   3   35.40    1.90
   5  -9  -3   27.50    3.40
  -5   9   3   39.10    4.40
   3  -9  -3   50.29    3.90
  -3  -9   3   46.70    2.20
  -3  -9   3   48.30    2.20
  -3   9   3   45.00    3.80
  -1  -9   3  304.07   12.00
  -1  -9   3  303.87   12.00
   1  -9  -3  318.57   14.20
  -1   9   3  302.37   14.10
   1  -9   3  124.79    5.40
   1  -9   3  123.49    5.30
  -1  -9  -3  113.39    7.00
   1   9   3  112.89    6.90
   3  -9   3  167.88    7.30
  -3  -9  -3  160.18    8.70
   3  -9   3  171.48    7.50
   3   9   3  154.18    8.60
  -5  -9  -3   14.80    3.10
   5  -9   3    8.80    1.50
   5  -9   3    9.10    1.50
   5   9   3    7.80    2.00
   7  -9   3    3.40    1.10
   7  -9   3    1.40    0.90
  -7  -9  -3    3.70    1.50
   7   9   3    2.60    1.10
   9  -9   3  110.79    6.30
  -9  -9  -3  104.69    6.90
   9  -9   3  108.49    6.10
   9   9   3  109.69    6.90
  11  -9   3  129.39    7.60
 -11  -9  -3  148.19    8.50
  11  -9   3  145.69    7.70
  11   9   3  134.99    8.20
  13  -9   3   23.00    3.20
 -13  -9  -3   34.00    4.30
  13   9   3   35.50    4.50
  15  -9   3   56.59    4.90
 -15  -9  -3   59.49    5.40
  15  -9   3   60.29    5.00
 -15   9  -3   66.59    5.20
  15   9   3   62.09    5.30
  17  -9   3   -0.30    0.90
 -17  -9  -3   -0.80    0.80
  17   9   3   -0.10    1.00
 -19  -9  -3   17.00    3.40
  19  -9   3   20.80    3.90
  19   9   3   17.90    3.40
  21  -9   3   33.90    4.60
  21   9   3   40.70    6.00
 -23  -9  -3   37.10    5.90
  23  -9   3   34.10    4.90
  25  -9   3   19.60    4.00
 -25  -9  -3   23.30    4.70
  26 -10  -3    8.40    3.00
 -26 -10   3    8.30    3.90
 -26  10   3    5.90    2.80
  24 -10  -3   15.10    3.50
 -24 -10   3   13.60    3.10
 -24  10   3    9.70    3.20
 -22 -10   3    9.60    2.80
  22 -10  -3   14.10    3.30
 -22  10   3   11.90    3.50
 -20 -10   3    2.70    1.60
  20 -10  -3    3.80    1.80
 -20 -10   3    1.80    1.10
 -20  10   3    5.90    2.30
 -18 -10   3    1.30    1.30
  18 -10  -3    2.70    1.40
 -18 -10   3    3.40    1.20
 -18  10   3    2.90    1.80
  16 -10  -3    4.50    1.70
 -16 -10   3    7.60    1.80
 -16 -10   3    2.90    1.10
 -16  10   3    4.20    1.80
 -14 -10   3   18.10    2.60
  14 -10  -3   15.80    2.80
 -14 -10   3   20.60    2.40
 -14  10   3   14.60    2.90
  12 -10  -3  296.77   13.40
 -12 -10   3  259.17   11.40
 -12 -10   3  262.97   11.80
 -12  10   3  247.68   13.30
 -10 -10   3  246.48   10.40
  10 -10  -3  257.37   12.40
 -10 -10   3  240.18   10.60
 -10  10   3  242.28   12.50
   8 -10  -3   17.50    3.10
  -8 -10   3   15.20    1.30
  -8 -10   3   16.80    1.50
  -8  10   3   14.40    2.90
  -6 -10   3   84.59    3.80
   6 -10  -3   78.49    5.50
  -6 -10   3   82.99    3.70
  -6  10   3   86.79    5.80
  -4 -10   3    0.20    0.20
  -4 -10   3    0.00    0.30
   4 -10  -3    0.60    0.90
  -4  10   3   -0.70    0.40
  -2 -10   3    9.60    0.80
  -2 -10   3   11.20    0.80
   2 -10  -3   16.10    2.80
  -2  10   3   13.50    2.60
   0 -10   3  401.16   15.70
   0 -10  -3  399.26   17.90
   0 -10   3  414.16   16.10
   0  10   3  405.46   18.00
  -2 -10  -3   28.40    3.60
   2 -10   3   27.90    1.90
   2  10   3   28.90    3.60
  -4 -10  -3   16.10    2.70
   4 -10   3   18.20    2.10
   4 -10   3   18.50    1.70
   4  10   3   18.10    2.80
   6 -10   3    0.70    0.60
   6 -10   3   -0.10    0.50
  -6 -10  -3    0.00    0.90
   6  10   3   -0.10    0.60
   8 -10   3    0.40    0.70
  -8 -10  -3    1.30    1.20
   8 -10   3    1.20    0.80
   8  10   3    1.50    1.10
 -10 -10  -3  128.29    7.80
  10 -10   3  120.99    6.80
  10 -10   3  110.99    6.70
  10  10   3  117.99    7.40
 -12 -10  -3   90.89    6.40
  12 -10   3   81.09    5.40
  12 -10   3   74.89    5.40
  12  10   3   69.59    5.60
 -14 -10  -3  115.59    7.80
  14 -10   3   96.39    8.60
  14  10   3  113.09    7.40
 -16 -10  -3   12.90    3.00
  16 -10   3    8.00    2.30
  16 -10   3   10.30    2.40
  16  10   3   10.20    2.60
  18 -10   3   -1.00    0.60
 -18 -10  -3    3.90    2.00
  18  10   3   -0.40    0.90
  20 -10   3   -0.10    1.20
 -20 -10  -3    1.80    1.50
  20  10   3    1.40    1.70
 -22 -10  -3   51.89    6.90
  22 -10   3   59.39    5.70
 -24 -10  -3    0.00    1.30
  24 -10   3    5.20    2.40
 -25 -11   3    7.20    2.60
  25 -11  -3    3.40    1.90
 -25  11   3    2.40    2.10
  23 -11  -3   -0.10    1.10
 -23  11   3    2.80    2.20
 -21 -11   3   -0.20    1.10
  21 -11  -3   -0.50    0.80
 -21 -11   3   -0.10    0.80
 -21  11   3   -0.40    1.10
  19 -11  -3    0.80    1.30
 -19 -11   3    0.40    0.80
 -19 -11   3    2.50    1.60
 -19  11   3    2.70    1.70
  17 -11  -3    8.10    2.40
 -17 -11   3   10.70    2.00
 -17 -11   3   10.20    2.30
 -17  11   3   14.10    3.10
 -15 -11   3   20.00    2.70
 -15 -11   3   20.70    2.50
  15 -11  -3   19.30    3.40
 -15  11   3   22.30    3.90
  13 -11  -3    6.10    2.10
 -13 -11   3    5.50    1.30
 -13 -11   3    2.50    1.00
 -13  11   3    1.80    1.40
 -11 -11   3  176.08    7.90
 -11 -11   3  156.98    7.70
  11 -11  -3  173.78    9.40
 -11  11   3  158.88    9.50
  -9 -11   3    1.30    0.60
  -9 -11   3    0.50    0.60
   9 -11  -3    0.80    1.00
  -9  11   3    1.40    1.10
  -7 -11   3    8.30    1.00
  -7 -11   3    7.60    0.90
   7 -11  -3    5.80    1.50
  -7  11   3   11.70    2.70
  -5 -11   3    9.60    0.70
  -5 -11   3   10.20    0.70
   5 -11  -3    5.90    1.60
  -5  11   3   13.40    2.80
   3 -11  -3    2.60    1.30
  -3 -11   3    2.30    0.30
  -3 -11   3    2.30    0.30
  -3  11   3    0.90    0.80
  -1 -11   3   45.70    2.20
   1 -11  -3   48.90    4.00
  -1  11   3   50.09    4.10
   1 -11   3   37.40    2.60
   1 -11   3   40.50    2.30
  -1 -11  -3   43.90    3.80
   1  11   3   46.70    3.90
  -3 -11  -3    0.90    0.90
   3 -11   3    2.00    0.70
   3 -11   3    2.20    0.70
   3  11   3    1.00    1.00
  -5 -11  -3   39.00    3.70
   5 -11   3   36.40    2.60
   5 -11   3   36.00    2.70
   5  11   3   32.50    3.90
   7 -11   3   16.10    2.20
   7 -11   3   19.40    2.50
  -7 -11  -3   20.70    3.20
   7  11   3   18.10    2.90
   9 -11   3   45.60    3.60
   9 -11   3   51.39    3.90
  -9 -11  -3   53.69    4.70
   9  11   3   54.19    4.50
 -11 -11  -3   23.90    3.80
  11 -11   3   16.50    2.70
  11 -11   3   18.60    2.70
  11  11   3   18.90    3.10
 -13 -11  -3    0.40    1.00
  13 -11   3    1.50    1.20
  13 -11   3    0.50    0.80
  13  11   3   -0.20    0.90
  15 -11   3   49.99    4.40
 -15 -11  -3   53.69    5.10
  15 -11   3   37.50    4.60
  15  11   3   39.60    4.90
 -17 -11  -3   51.09    6.40
  17 -11   3   34.60    4.40
  17  11   3   34.30    4.60
 -19 -11  -3   -1.00    1.10
  19 -11   3   -0.90    0.80
  21 -11   3    5.80    2.20
 -21 -11  -3    6.60    2.70
  23 -11   3   -0.90    1.10
 -23 -11  -3   -0.90    1.20
  24 -12  -3   23.00    4.30
 -24 -12   3   12.20    3.20
 -24  12   3   15.10    4.10
 -22 -12   3   -1.10    1.00
  22 -12  -3    1.60    1.60
 -22  12   3    0.60    1.70
  20 -12  -3    1.50    1.40
 -20 -12   3    3.40    1.40
 -20  12   3    1.20    1.60
 -18 -12   3   32.00    3.90
 -18 -12   3   32.60    3.10
  18 -12  -3   27.50    4.10
 -18  12   3   26.80    4.20
 -16 -12   3   19.80    2.60
 -16 -12   3   17.90    2.80
  16 -12  -3   24.10    3.90
 -16  12   3   17.90    3.50
  14 -12  -3    6.20    2.00
 -14 -12   3   10.90    2.00
 -14 -12   3    9.30    1.80
 -14  12   3    9.30    2.60
 -12 -12   3  316.17   13.70
 -12 -12   3  318.07   13.40
  12 -12  -3  313.97   15.50
 -12  12   3  326.07   15.90
 -10 -12   3    6.20    1.10
  10 -12  -3    4.70    1.60
 -10 -12   3    6.40    1.20
 -10  12   3    6.30    2.10
  -8 -12   3    9.70    1.20
  -8 -12   3    9.50    1.10
   8 -12  -3    8.70    2.20
  -8  12   3   13.40    2.80
  -6 -12   3    0.40    0.40
   6 -12  -3    0.60    0.90
  -6 -12   3    0.10    0.30
  -6  12   3   -0.90    0.40
   4 -12  -3   90.39    6.10
  -4  12   3   92.29    6.20
  -2 -12   3   10.50    0.70
   2 -12  -3   16.00    2.80
  -2 -12   3   10.00    0.70
  -2  12   3   13.60    2.70
   0 -12   3  385.66   14.90
   0 -12   3  372.76   15.00
   0 -12  -3  385.06   17.50
   0  12   3  393.76   17.50
  -2 -12  -3   29.30    3.90
   2 -12   3   24.30    1.90
   2 -12   3   23.90    1.80
   2  12   3   25.70    3.30
   4 -12   3    9.40    1.50
  -4 -12  -3   10.10    2.30
   4 -12   3   12.10    1.70
   4  12   3    6.20    1.70
   6 -12   3   15.40    2.20
  -6 -12  -3   17.20    3.10
   6 -12   3   16.50    2.20
   6  12   3   12.40    2.50
   8 -12   3   21.90    2.70
  -8 -12  -3   28.10    3.80
   8 -12   3   25.80    2.60
   8  12   3   24.40    3.60
 -10 -12  -3  120.49    7.80
  10 -12   3  106.79    6.80
  10 -12   3  108.79    6.50
  10  12   3  111.39    7.20
 -12 -12  -3   27.80    4.10
  12 -12   3   22.40    3.20
  12 -12   3   23.80    3.30
  12  12   3   22.90    3.40
 -14 -12  -3   27.70    4.40
  14 -12   3   13.20    2.60
  14 -12   3   25.80    3.50
  14  12   3   28.20    4.20
 -16 -12  -3    3.20    1.90
  16 -12   3    3.40    1.50
  16  12   3    4.00    1.80
 -18 -12  -3    9.90    3.00
  18 -12   3   14.80    3.20
 -20 -12  -3    7.70    2.70
  20 -12   3    2.50    1.60
 -22 -12  -3    3.80    2.30
  22 -12   3    3.30    1.80
 -24 -12  -3   24.90    5.20
  24 -12   3   17.80    3.80
 -25 -13   3   19.80    4.00
  25 -13  -3   19.40    4.70
  23 -13  -3   14.30    3.40
 -23 -13   3   19.40    3.80
 -21 -13   3   20.00    3.80
  21 -13  -3   17.30    3.70
 -21  13   3   14.70    3.70
 -19 -13   3   21.50    3.20
  19 -13  -3   38.60    5.50
 -19 -13   3   26.60    3.90
 -19  13   3   30.30    4.90
 -17 -13   3    0.80    1.00
  17 -13  -3    0.70    1.30
 -17 -13   3    0.40    0.80
 -17  13   3    1.40    1.70
  15 -13  -3   63.09    5.60
 -15 -13   3   70.49    4.30
 -15  13   3   63.29    5.80
  13 -13  -3   55.89    5.10
 -13 -13   3   59.49    3.70
 -13  13   3   57.99    5.30
 -11 -13   3  172.08    7.90
  11 -13  -3  198.38   10.40
 -11  13   3  169.88   10.20
  -9 -13   3   31.70    2.10
   9 -13  -3   33.00    4.50
  -9  13   3   33.20    4.50
   7 -13  -3    0.50    0.90
  -7 -13   3    0.40    0.40
  -7 -13   3    0.80    0.40
  -7  13   3    1.80    1.30
  -5 -13   3   59.59    2.40
  -5 -13   3   58.39    2.50
  -5  13   3   64.29    5.00
   3 -13  -3  108.49    6.90
  -3  13   3  106.49    6.90
  -1 -13   3   56.39    2.70
   1 -13  -3   57.99    4.80
  -1 -13   3   58.59    2.80
  -1  13   3   62.69    4.80
   1 -13   3   60.49    3.20
  -1 -13  -3   64.69    5.00
   1 -13   3   56.49    3.00
   1  13   3   63.29    4.90
  -3 -13  -3  250.57   13.00
   3 -13   3  259.57   11.00
   3 -13   3  254.47   11.10
   3  13   3  286.07   13.20
   5 -13   3    0.60    0.60
   5 -13   3    1.50    0.80
  -5 -13  -3    0.70    1.10
   5  13   3   -0.30    0.70
   7 -13   3   28.50    2.60
   7 -13   3   24.20    2.90
  -7 -13  -3   23.40    3.70
   7  13   3   29.50    4.30
  -9 -13  -3   55.99    5.10
   9 -13   3   60.49    4.40
   9 -13   3   63.19    4.30
   9  13   3   52.19    7.40
  11 -13   3  103.89    6.80
  11 -13   3  124.69    7.00
 -11 -13  -3  118.09    8.00
  13 -13   3   15.30    2.70
  13 -13   3   18.80    3.20
 -13 -13  -3   23.90    3.90
  13  13   3   13.30    3.60
  15 -13   3   96.89    6.70
 -15 -13  -3   96.59    7.50
  15  13   3   91.99   10.40
  17 -13   3   27.40    3.90
 -17 -13  -3   27.40    4.50
  19 -13   3   14.50    3.30
 -19 -13  -3   13.50    3.40
 -21 -13  -3    5.40    2.60
  21 -13   3    6.80    2.30
 -23 -13  -3   39.60    6.40
  23 -13   3   29.90    5.20
  24 -14  -3   38.60    5.50
 -24 -14   3   41.10    5.50
  22 -14  -3   17.30    3.60
 -22 -14   3   22.70    3.80
 -20 -14   3   23.80    3.40
 -20 -14   3   21.00    3.50
  20 -14  -3   18.00    5.00
 -20  14   3   20.60    4.60
  18 -14  -3   41.80    5.80
 -18 -14   3   44.90    4.00
 -18 -14   3   36.70    3.40
 -18  14   3   32.60    5.50
  16 -14  -3  121.09    8.00
 -16 -14   3   97.69    5.90
 -16 -14   3  110.29    6.60
 -16  14   3  104.89    8.00
 -14 -14   3   32.30    2.60
 -14 -14   3   32.50    3.00
  14 -14  -3   28.10    4.10
 -14  14   3   26.50    4.30
 -12 -14   3  100.19    5.30
  12 -14  -3   86.79    6.60
 -12 -14   3   91.19    4.90
 -12  14   3   90.19    6.90
 -10 -14   3   74.59    3.90
  10 -14  -3   74.69    5.80
 -10  14   3   71.19    5.80
   8 -14  -3   50.99    5.70
  -8 -14   3   41.80    2.50
  -8 -14   3   43.90    2.40
  -8  14   3   46.40    4.40
   6 -14  -3   31.60    4.10
  -6 -14   3   31.10    1.60
  -6 -14   3   32.30    1.60
  -6  14   3   28.20    4.00
   4 -14  -3  208.98   10.80
  -4  14   3  184.38   10.50
  -2 -14   3  133.69    5.50
  -2 -14   3  136.29    5.50
   2 -14  -3  150.88    8.50
  -2  14   3  128.99    8.00
   0 -14  -3    9.50    2.40
   0 -14   3    6.70    0.90
   0 -14   3    9.00    1.10
   0  14   3    8.30    2.80
  -2 -14  -3  139.29    8.30
   2 -14   3  133.39    6.10
   2 -14   3  128.29    6.00
   2  14   3  131.69    8.00
  -4 -14  -3  339.07   15.80
   4 -14   3  313.47   13.60
   4 -14   3  312.97   13.40
   4  14   3  325.27   15.40
   6 -14   3   11.70    2.60
   6 -14   3   10.70    1.90
  -6 -14  -3   11.80    2.80
   6  14   3    4.50    1.70
   8 -14   3   47.30    3.60
  -8 -14  -3   44.30    5.30
   8 -14   3   44.30    3.60
   8  14   3   39.10    4.60
  10 -14   3   29.20    3.50
 -10 -14  -3   38.80    5.20
  10 -14   3   30.20    3.70
  10  14   3   28.90    4.00
  12 -14   3   97.19    6.40
  12 -14   3   92.49    6.20
 -12 -14  -3  106.89    8.40
  12  14   3   95.29    6.90
  14 -14   3   49.30    4.40
  14 -14   3   41.30    4.90
 -14 -14  -3   44.40    5.80
  16 -14   3  119.19    7.80
 -16 -14  -3  114.39    8.60
 -18 -14  -3   35.00    5.30
  18 -14   3   40.50    5.30
 -20 -14  -3   22.50    4.50
  20 -14   3   23.90    4.00
  22 -14   3   12.10    3.40
 -22 -14  -3   13.30    3.90
 -23 -15   3   60.69    5.70
  23 -15  -3   66.49    8.30
 -21 -15   3   17.60    3.40
  21 -15  -3   14.90    3.70
 -19 -15   3   51.89    4.60
 -19 -15   3   50.19    4.20
  19 -15  -3   59.99    7.20
 -17 -15   3  156.58    8.30
  17 -15  -3  120.69   10.90
 -17 -15   3  142.59    7.60
 -17  15   3  138.09    9.70
 -15 -15   3   50.89    3.90
  15 -15  -3   38.90    5.10
 -15 -15   3   44.50    3.40
 -15  15   3   53.79    6.20
 -13 -15   3   35.20    3.00
  13 -15  -3   34.90    4.80
 -13 -15   3   38.20    2.80
 -13  15   3   33.30    5.10
  11 -15  -3   69.29    5.60
 -11 -15   3   65.49    3.90
 -11 -15   3   63.49    3.70
 -11  15   3   66.49    5.70
   9 -15  -3   91.39    6.50
  -9 -15   3   79.19    4.00
  -9 -15   3   86.49    4.20
  -9  15   3   81.19    6.30
  -7 -15   3   48.20    2.40
   7 -15  -3   53.99    4.80
  -7 -15   3   48.40    2.50
  -7  15   3   50.29    4.70
  -5 -15   3  212.98    7.90
   5 -15  -3  198.58   11.10
  -5 -15   3  203.18    7.90
  -5  15   3  189.28   11.00
   3 -15  -3  181.48    9.90
  -3 -15   3  169.88    6.60
  -3 -15   3  161.98    6.50
  -3  15   3  159.98   10.30
  -1 -15   3   38.60    2.10
  -1 -15   3   32.10    1.90
   1 -15  -3   35.40    4.20
  -1  15   3   35.50    4.60
   1 -15   3   81.69    4.10
  -1 -15  -3   80.59    6.00
   1 -15   3   81.49    4.00
   1  15   3   74.39    5.70
  -3 -15  -3  139.89    8.40
   3 -15   3  133.69    6.30
   3 -15   3  126.99    6.30
   3  15   3  121.99    7.90
  -5 -15  -3  335.07   16.40
   5 -15   3  340.27   14.30
   5 -15   3  329.47   14.40
   5  15   3  335.47   16.10
   7 -15   3   19.70    2.60
   7 -15   3   25.80    3.10
  -7 -15  -3   29.30    4.40
   7  15   3   23.20    3.60
  -9 -15  -3   31.50    4.50
   9 -15   3   29.70    3.50
   9 -15   3   29.10    2.90
   9  15   3   19.10    3.30
  11 -15   3  104.29    6.60
  11 -15   3  102.29    6.50
 -11 -15  -3  100.89    7.50
  11  15   3  103.49    9.10
  13 -15   3   28.50    3.80
 -13 -15  -3   30.80    4.70
  13 -15   3   32.30    4.00
  15 -15   3   73.89    5.80
 -15 -15  -3   71.89    6.60
 -17 -15  -3   88.59    7.70
  17 -15   3   92.49    6.90
 -19 -15  -3   42.20    6.30
  19 -15   3   38.40    5.10
  21 -15   3   32.00    7.30
 -21 -15  -3   19.40    4.10
  22 -16  -3   76.39    7.20
 -22 -16   3   79.59    6.40
 -20 -16   3   19.90    3.40
  20 -16  -3   34.90    5.70
 -18 -16   3   71.29    5.00
 -18 -16   3   79.69    5.70
  18 -16  -3   84.79    7.00
  16 -16  -3   90.49    7.20
 -16 -16   3   88.49    5.70
 -16 -16   3   85.39    5.30
 -14 -16   3   49.40    3.50
  14 -16  -3   54.39    6.60
 -14 -16   3   47.40    3.70
 -14  16   3   64.09    7.20
 -12 -16   3   11.10    1.60
 -12 -16   3    9.80    1.60
  12 -16  -3   10.20    2.50
 -12  16   3    7.10    2.30
  10 -16  -3  102.09    7.40
 -10 -16   3  106.19    5.00
 -10 -16   3   99.09    5.10
 -10  16   3   96.39    7.20
  -8 -16   3   83.89    3.90
  -8 -16   3   83.59    4.00
   8 -16  -3   82.09    6.40
  -8  16   3   86.19    6.60
  -6 -16   3   98.79    4.10
   6 -16  -3   89.69    6.70
  -6 -16   3   97.39    4.10
  -6  16   3   83.09    6.50
  -4 -16   3  153.58    6.00
   4 -16  -3  155.18    9.20
  -4 -16   3  151.98    6.00
  -4  16   3  137.59    8.90
   2 -16  -3  152.48    9.30
  -2 -16   3  161.68    6.50
  -2 -16   3  154.78    6.40
  -2  16   3  152.88    9.20
   0 -16   3   30.00    2.00
   0 -16   3   29.70    2.00
   0 -16  -3   28.10    4.20
   0  16   3   23.70    3.70
  -2 -16  -3  153.98    9.30
   2 -16   3  158.68    7.20
   2 -16   3  148.29    7.00
   2  16   3  155.98    9.10
   4 -16   3  161.78    7.90
  -4 -16  -3  172.88    9.90
   4 -16   3  165.38    7.70
   4  16   3  154.08    9.30
   6 -16   3   80.49    4.70
   6 -16   3   70.19    4.60
  -6 -16  -3   72.99    6.50
   6  16   3   77.29    5.90
   8 -16   3   62.89    4.50
  -8 -16  -3   62.39    5.60
   8 -16   3   64.59    4.40
   8  16   3   52.49    6.70
  10 -16   3  141.19    8.00
  10 -16   3  138.59    8.00
 -10 -16  -3  153.98    9.60
  12 -16   3   19.70    3.30
 -12 -16  -3   22.40    4.00
  12 -16   3   23.90    3.30
  14 -16   3   48.60    4.50
 -14 -16  -3   43.60    5.90
 -16 -16  -3   68.09    6.60
  16 -16   3   72.69    5.90
 -18 -16  -3   73.29    7.00
  18 -16   3   67.79    6.00
  20 -16   3   20.80    4.30
 -20 -16  -3   21.70    4.90
  21 -17  -3   83.49    7.40
 -21 -17   3   76.19    6.20
  19 -17  -3   65.89    6.30
 -19 -17   3   70.49    6.10
 -19 -17   3   49.99    4.30
 -17 -17   3   31.60    3.80
  17 -17  -3   28.30    4.70
 -17 -17   3   31.60    3.00
 -15 -17   3   60.09    4.30
  15 -17  -3   60.99    5.80
 -15 -17   3   55.69    3.90
 -13 -17   3   31.10    2.80
  13 -17  -3   36.70    5.30
 -13 -17   3   33.20    2.60
  11 -17  -3   19.40    3.50
 -11 -17   3   28.20    2.30
 -11 -17   3   29.00    2.20
   9 -17  -3   36.90    5.10
  -9 -17   3   40.10    2.50
  -9 -17   3   40.80    2.40
  -9  17   3   39.40    5.30
  -7 -17   3  126.49    5.60
  -7 -17   3  137.49    5.60
  -7  17   3  129.99    8.50
  -5 -17   3   69.09    3.10
  -5 -17   3   68.69    3.00
   5 -17  -3   69.79    6.50
  -5  17   3   62.59    5.50
   3 -17  -3   84.79    6.60
  -3 -17   3   79.29    3.50
  -3 -17   3   79.49    3.60
  -3  17   3   69.49    5.80
  -1 -17   3  100.79    4.60
  -1 -17   3  104.19    4.50
   1 -17  -3   84.09    7.10
  -1  17   3   83.39    6.50
   1 -17   3  129.69    6.00
   1 -17   3  130.09    6.10
   1  17   3  123.99    8.10
   3 -17   3  115.89    5.70
  -3 -17  -3  126.29    8.10
   3 -17   3  115.09    5.90
   3  17   3   99.09    7.30
   5 -17   3   15.10    2.10
  -5 -17  -3    9.80    2.60
   5 -17   3   16.30    2.30
   7 -17   3  123.69    6.70
   7 -17   3  118.89    6.80
  -7 -17  -3  126.69    8.50
   9 -17   3  122.69    8.20
  -9 -17  -3  129.89    8.80
   9 -17   3  124.59    7.10
  11 -17   3   11.80    2.30
  11 -17   3   13.30    2.50
 -11 -17  -3   14.70    3.40
  13 -17   3   53.59    4.70
 -13 -17  -3   51.19    6.60
 -15 -17  -3   30.20    4.90
  15 -17   3   26.10    4.10
  17 -17   3   32.80    4.50
 -17 -17  -3   34.60    5.20
 -19 -17  -3   24.70    4.80
  19 -17   3   28.30    4.50
  18 -18  -3  109.79    8.40
 -18 -18   3  101.29    6.20
 -18 -18   3   87.79    8.80
  16 -18  -3   10.20    3.00
 -16 -18   3    8.00    1.70
 -16 -18   3    7.00    1.80
  14 -18  -3   37.50    5.10
 -14 -18   3   31.80    3.00
 -14 -18   3   33.20    2.80
 -12 -18   3   20.50    2.40
 -12 -18   3   17.70    2.10
  12 -18  -3   15.20    3.30
  10 -18  -3   20.10    3.90
 -10 -18   3   19.80    1.70
 -10 -18   3   19.30    1.80
  -8 -18   3   15.00    1.40
  -8 -18   3   18.20    1.40
   8 -18  -3   16.20    3.20
   6 -18  -3  148.99    9.60
  -6 -18   3  161.88    6.60
  -6 -18   3  163.28    6.60
  -4 -18   3   28.30    1.70
   4 -18  -3   29.50    4.70
  -4 -18   3   27.20    1.60
  -2 -18   3   25.50    1.70
   2 -18  -3   23.20    4.00
  -2 -18   3   23.90    1.70
   0 -18  -3  199.98   11.30
   0 -18   3  192.38    8.30
   0 -18   3  189.88    8.40
  -2 -18  -3   65.09    5.70
   2 -18   3   65.89    3.70
   2 -18   3   56.49    3.70
   4 -18   3    8.50    1.70
   4 -18   3    7.40    1.50
  -4 -18  -3    7.50    2.40
   6 -18   3  130.29    7.10
  -6 -18  -3  131.99    8.80
   6 -18   3  126.99    6.90
  -8 -18  -3   23.90    4.20
   8 -18   3   28.50    3.60
   8 -18   3   29.90    2.90
  10 -18   3   12.20    3.10
 -10 -18  -3   20.90    4.00
  10 -18   3   14.10    2.50
  12 -18   3   29.60    3.90
  12 -18   3   28.50    4.30
 -12 -18  -3   25.50    4.70
  14 -18   3   30.50    4.10
 -14 -18  -3   34.50    5.10
 -16 -18  -3    2.60    2.10
  16 -18   3    8.40    2.30
  18 -18   3   30.40    4.60
 -18 -18  -3   28.40    5.10
 -17 -19   3  140.19    7.90
  17 -19  -3  131.89    9.60
 -17 -19   3  133.99    8.80
 -15 -19   3    8.40    1.90
 -15 -19   3   11.20    2.50
  15 -19  -3    7.80    2.80
 -13 -19   3    8.60    1.70
  13 -19  -3    7.00    2.60
 -11 -19   3   -1.00    0.50
  11 -19  -3    0.30    1.20
   9 -19  -3   26.00    4.40
  -9 -19   3   21.20    1.80
  -9 -19   3   22.10    2.10
  -7 -19   3   22.00    1.60
   7 -19  -3   18.90    3.70
  -7 -19   3   21.70    1.50
   5 -19  -3   19.30    3.40
  -5 -19   3   20.20    2.30
  -5 -19   3   18.20    1.30
   3 -19  -3   57.49    5.40
  -3 -19   3   55.49    2.90
  -3 -19   3   56.69    2.80
   1 -19  -3   28.00    4.20
  -1 -19   3   32.10    2.20
  -1 -19   3   31.30    2.10
   1 -19   3   30.80    2.30
  -1 -19  -3   24.90    4.00
   1 -19   3   32.10    2.50
  -3 -19  -3   34.20    5.00
   3 -19   3   33.00    2.80
   3 -19   3   31.90    2.60
   5 -19   3  116.69    6.50
   5 -19   3  118.49    6.30
  -5 -19  -3  110.39    8.10
   7 -19   3    1.20    1.00
  -7 -19  -3    1.80    1.50
   7 -19   3    1.40    1.00
  -9 -19  -3    0.30    1.20
   9 -19   3    1.40    1.20
   9 -19   3    0.10    0.90
  11 -19   3   10.60    2.70
 -11 -19  -3   12.60    3.20
  11 -19   3    7.50    2.00
  13 -19   3   23.60    3.60
 -13 -19  -3   21.90    4.40
  15 -19   3    8.10    2.30
 -15 -19  -3   10.80    3.30
 -16 -20   3  102.19    6.30
  16 -20  -3  126.19    9.00
 -16 -20   3  103.59    6.00
  14 -20  -3   12.40    3.50
 -14 -20   3   10.30    1.70
 -14 -20   3   14.80    2.20
 -12 -20   3   13.30    1.90
  12 -20  -3   11.90    3.00
 -12 -20   3   12.90    1.90
 -10 -20   3    0.40    0.60
  10 -20  -3   -0.60    1.00
 -10 -20   3    0.00    0.50
  -8 -20   3    5.80    1.00
  -8 -20   3    6.70    1.00
   8 -20  -3    3.30    1.90
  -6 -20   3    2.00    0.60
   6 -20  -3    1.40    1.30
  -6 -20   3    1.60    0.50
  -4 -20   3   13.70    1.20
   4 -20  -3    9.60    2.60
  -4 -20   3   13.70    1.20
   2 -20  -3   56.39    5.40
  -2 -20   3   50.79    2.80
  -2 -20   3   53.39    3.40
   0 -20  -3    1.40    1.60
   0 -20   3   -0.10    0.60
   0 -20   3   -0.20    0.60
   2 -20   3   28.60    2.50
   2 -20   3   24.20    2.20
  -2 -20  -3   30.90    4.80
   4 -20   3  112.89    5.90
  -4 -20  -3  105.69    7.90
   4 -20   3  104.19    6.00
  -6 -20  -3    1.40    1.60
   6 -20   3   -0.10    0.80
   6 -20   3   -0.20    0.60
   8 -20   3    1.90    1.30
   8 -20   3    0.60    1.10
  -8 -20  -3   -0.50    1.20
  10 -20   3   15.60    3.10
  10 -20   3   17.70    2.90
 -10 -20  -3   17.70    3.90
 -12 -20  -3   11.00    3.10
  12 -20   3    9.20    3.00
  14 -20   3   11.80    2.70
 -14 -20  -3   10.40    3.20
 -13 -21   3   32.00    4.30
  13 -21  -3   26.00    4.80
 -13 -21   3   24.50    2.30
 -11 -21   3   31.00    2.30
  11 -21  -3   34.00    5.50
 -11 -21   3   25.50    2.10
  -9 -21   3    6.20    1.10
  -9 -21   3    7.20    1.20
   9 -21  -3    9.00    2.70
  -7 -21   3    2.50    0.70
   7 -21  -3    5.40    2.20
  -7 -21   3    2.20    0.60
  -5 -21   3    5.00    0.80
   5 -21  -3    5.00    2.20
  -5 -21   3    7.10    0.90
   3 -21  -3   -0.90    0.90
  -3 -21   3    0.20    0.50
  -3 -21   3    0.20    0.50
   1 -21  -3    4.40    2.20
  -1 -21   3    1.50    0.70
  -1 -21   3    0.70    0.70
  -1 -21  -3   31.70    5.00
   1 -21   3   41.60    2.80
  -3 -21  -3    3.20    1.90
   3 -21   3    5.10    1.40
   3 -21   3    1.20    0.90
   5 -21   3    0.60    0.90
   5 -21   3    1.10    0.90
  -5 -21  -3    1.20    1.30
   7 -21   3    0.70    1.10
  -7 -21  -3    0.50    1.40
   7 -21   3   -0.10    0.80
   9 -21   3   28.20    3.70
  -9 -21  -3   31.70    4.90
   9 -21   3   18.50    3.40
 -11 -21  -3    3.40    2.30
  11 -21   3    4.60    1.70
 -10 -22   3   72.49    3.80
 -10 -22   3   71.39    3.80
  10 -22  -3   65.59    6.40
  -8 -22   3   14.20    1.30
  -8 -22   3   13.30    1.40
   8 -22  -3   16.10    3.70
  -6 -22   3    1.00    0.50
   6 -22  -3    0.60    1.50
  -6 -22   3    1.80    0.60
   4 -22  -3   10.80    3.00
  -4 -22   3   12.90    1.40
  -4 -22   3   12.20    1.20
   2 -22  -3   -0.70    1.00
  -2 -22   3    0.10    0.50
  -2 -22   3    0.20    0.60
   0 -22   3   24.10    2.20
   0 -22   3   22.40    2.00
   0 -22  -3   25.30    4.50
   2 -22   3    3.30    1.20
   2 -22   3    2.80    1.00
  -2 -22  -3    3.30    2.00
   4 -22   3    1.50    1.00
  -4 -22  -3    4.20    2.20
   4 -22   3    1.80    1.50
   6 -22   3    9.30    2.10
   6 -22   3   10.10    2.30
  -6 -22  -3    5.40    2.30
   8 -22   3    8.00    1.90
  -8 -22  -3    8.60    3.10
   8 -22   3    1.80    1.30
  10 -22   3   24.20    3.50
 -10 -22  -3   20.60    5.00
  -7 -23   3   27.40    1.80
   7 -23  -3   27.80    4.90
  -7 -23   3   30.30    1.80
   5 -23  -3   14.50    3.40
  -5 -23   3   13.70    1.30
  -5 -23   3   16.10    1.30
  -3 -23   3   10.20    1.30
  -3 -23   3    9.30    1.30
   3 -23  -3   11.50    3.20
  -1 -23   3    0.10    0.60
   1 -23  -3   -1.00    0.90
  -1 -23   3    0.70    0.70
   1 -23   3    1.00    0.90
  -1 -23  -3   -0.90    1.20
   1 -23   3    0.00    0.60
   3 -23   3   24.80    4.30
   3 -23   3   29.50    2.90
  -3 -23  -3   29.60    4.80
   5 -23   3    6.10    1.50
  -5 -23  -3   10.60    4.20
   5 -23   3    6.20    1.80
 -28   0   4   66.79    8.30
 -26   0   4  178.28   12.10
 -24   0   4   46.50    6.10
 -22   0   4  210.48   12.60
 -20   0   4    7.90    2.40
 -18   0   4   28.80    4.20
  18   0  -4   28.10    3.70
 -18   0   4   30.60    4.10
 -16   0   4   88.59    5.90
  16   0  -4   79.79    5.30
 -16   0   4   82.49    6.20
 -14   0   4  458.65   20.20
 -14   0   4  455.75   19.60
  14   0  -4  430.36   18.90
 -12   0   4  190.68   10.10
  12   0  -4  198.68    9.20
 -12   0   4  180.18    9.40
  10   0  -4    5.60    1.30
 -10   0   4    5.30    1.50
 -10   0   4    4.30    1.40
   8   0  -4  483.25   19.70
  -8   0   4  476.95   20.20
  -8   0   4  485.35   20.60
  -6   0   4  304.37   13.40
   6   0  -4  277.07   12.40
  -4   0   4  962.30   38.10
   4   0  -4  959.20   37.30
  -2   0   4  176.48    9.20
  -2   0   4  193.28    9.30
   2   0  -4  199.88    8.80
   0   0  -4   71.49    4.20
   0   0   4   66.99    4.50
   0   0   4   70.99    4.50
   2   0   4  396.96   17.10
  -2   0  -4  394.86   16.70
   2   0   4  399.56   17.10
  -4   0  -4   96.59    5.60
   4   0   4  102.49    6.00
   4   0   4  105.69    6.00
   6   0   4  106.19    6.30
   6   0   4  100.69    6.20
  -6   0  -4  106.79    6.00
  -8   0  -4  295.97   13.60
   8   0   4  314.27   14.00
   8   0   4  277.87   13.80
  10   0   4  210.28   11.10
  10   0   4  232.88   12.80
 -12   0  -4   56.19    4.50
  12   0   4   57.29    4.70
  14   0   4  470.45   21.80
 -14   0  -4  501.25   21.80
  16   0   4  394.16   18.90
 -16   0  -4  401.96   18.80
  18   0   4   23.40    3.80
 -18   0  -4   22.40    3.70
 -20   0  -4   97.69    7.40
  20   0   4   97.09    7.60
 -22   0  -4   40.20    5.90
  24   0   4    0.60    1.70
  26   0   4   22.10    4.70
 -27  -1   4   50.29    6.80
 -27   1   4   55.49    7.20
 -25  -1   4  101.29    8.40
 -25   1   4  108.09    8.80
 -23  -1   4   96.19    7.80
 -23   1   4   99.89    8.10
 -21  -1   4   66.59    6.20
 -21   1   4   69.99    6.40
 -19  -1   4   12.10    2.70
  19  -1  -4    9.50    2.10
 -19  -1   4   12.10    2.90
 -19   1   4   10.60    2.50
  17  -1  -4    1.30    0.90
 -17  -1   4    0.60    0.80
 -17  -1   4    3.30    1.50
 -17   1   4    0.50    1.10
  17   1  -4    3.10    1.20
 -17   1   4    1.30    1.00
 -15  -1   4  414.76   18.00
 -15  -1   4  356.26   17.00
  15  -1  -4  366.96   16.80
  15   1  -4  389.16   16.60
 -15   1   4  388.56   18.00
 -15   1   4  381.86   17.30
  13  -1  -4  104.99    6.10
 -13  -1   4  111.69    6.40
 -13  -1   4  114.69    6.90
  13   1  -4  104.59    5.80
 -13   1   4  108.79    7.30
 -13   1   4  100.49    6.30
  11  -1  -4  153.68    7.90
 -11  -1   4  162.08    8.60
 -11   1   4  158.38    8.80
 -11   1   4  155.68    8.20
  11   1  -4  156.18    7.60
  -9  -1   4   37.80    3.40
   9  -1  -4   38.70    3.00
  -9   1   4   39.40    3.30
  -9   1   4   36.90    4.30
   9   1  -4   38.40    2.80
   7  -1  -4  547.25   22.60
  -7  -1   4  552.94   23.10
  -7   1   4  523.85   22.90
  -7   1   4  593.64   23.50
   7   1  -4  563.34   22.20
   5  -1  -4  458.75   19.10
  -5  -1   4  465.05   19.60
  -5   1   4  454.45   19.60
   5   1  -4  483.75   19.70
  -5   1   4  469.55   19.90
   3  -1  -4  165.48    7.90
  -3  -1   4  163.98    8.20
  -3   1   4  160.78    8.40
  -3   1   4  156.48    8.20
   3   1  -4  178.08    7.80
  -1  -1   4  330.17   14.10
   1  -1  -4  308.17   13.80
  -1   1   4  325.57   14.40
  -1   1   4  315.37   14.20
   1   1  -4  327.87   13.50
  -1  -1  -4  157.38    7.80
   1  -1   4  161.88    8.00
  -1   1  -4  166.28    7.60
   1   1   4  147.89    8.00
   1   1   4  163.58    8.30
   3  -1   4   37.20    3.10
   3  -1   4   32.20    2.90
  -3  -1  -4   37.00    3.00
   3   1   4   40.10    3.30
   3   1   4   33.90    3.10
  -3   1  -4   34.80    2.70
   5  -1   4  216.38   10.20
   5  -1   4  199.78   10.10
  -5  -1  -4  202.08   10.00
  -5   1  -4  209.08    9.80
   5   1   4  213.98   11.40
   5   1   4  204.88   10.30
   7  -1   4  137.09    7.60
   7  -1   4  127.39    7.50
   7   1   4  144.29    7.90
  -7   1  -4  147.39    7.40
   7   1   4  136.49    7.80
   9  -1   4   88.69    6.00
   9  -1   4  112.09    6.40
  -9  -1  -4   88.29    5.90
   9   1   4   95.69    6.20
  -9   1  -4   93.99    5.80
  11  -1   4   80.29    5.60
  11  -1   4   72.59    5.60
 -11  -1  -4   73.49    5.40
  11   1   4   76.99    5.70
 -11   1  -4   92.49    5.60
  13  -1   4  461.35   21.00
 -13  -1  -4  473.25   21.00
  13   1   4  464.85   21.10
 -13   1  -4  477.55   21.00
 -15  -1  -4  174.98   10.00
  15  -1   4  171.28   10.00
 -15   1  -4  182.48   10.00
  15   1   4  172.78   10.10
 -17  -1  -4   91.99    6.80
  17  -1   4   92.39    6.90
 -17   1  -4   93.99    6.80
  17   1   4   95.19    7.00
 -19  -1  -4   74.39    6.20
  19  -1   4   76.29    6.30
 -19   1  -4   64.69    5.80
  19   1   4   66.39    6.10
  21  -1   4   55.19   10.60
 -21  -1  -4   58.09    5.80
  21   1   4   69.09    6.30
 -21   1  -4   63.59    5.90
  23  -1   4    1.70    1.80
 -23  -1  -4    0.00    1.40
  23   1   4    1.50    2.50
  25  -1   4   44.60    6.70
  25   1   4   25.30    5.00
 -28  -2   4   52.49    7.30
 -28   2   4   49.50    7.70
 -26  -2   4    9.80    3.10
 -26   2   4   17.90    4.30
 -24  -2   4   93.19    8.00
 -24   2   4  116.09    8.80
 -22  -2   4  114.39    8.50
 -22   2   4  130.89    9.30
  20  -2  -4   38.20    4.40
 -20  -2   4   33.20    4.80
 -20   2   4   35.60    6.50
 -18  -2   4   15.00    3.60
 -18  -2   4   13.20    2.40
  18  -2  -4   13.50    2.60
 -18   2   4   14.70    3.10
 -16  -2   4   18.20    2.80
 -16  -2   4   18.80    3.30
  16  -2  -4   21.20    3.00
 -16   2   4   19.50    3.30
 -14  -2   4  100.29    6.60
  14  -2  -4  108.79    6.20
 -14   2   4   98.49    6.40
 -14   2   4   98.19    6.80
  12  -2  -4   73.19    4.80
 -12  -2   4   76.09    5.20
 -12   2   4   78.59    5.60
 -12   2   4   68.29    4.90
 -10  -2   4  185.08    8.90
  10  -2  -4  161.48    8.20
 -10  -2   4  154.78    8.10
 -10   2   4  166.68    8.80
 -10   2   4  157.48    8.90
  10   2  -4  159.18    9.10
  -8  -2   4  308.97   13.90
   8  -2  -4  314.37   13.70
  -8  -2   4  307.57   13.50
  -8   2   4  319.07   14.40
   8   2  -4  321.37   13.90
  -8   2   4  290.87   13.90
   6  -2  -4  333.27   14.80
  -6  -2   4  352.46   15.30
  -6  -2   4  356.16   15.10
  -6   2   4  341.77   15.20
   6   2  -4  344.27   14.10
  -6   2   4  342.17   15.60
  -4  -2   4   69.99    4.80
   4  -2  -4   70.09    4.40
  -4  -2   4   66.09    4.40
  -4   2   4   83.49    5.10
  -4   2   4   73.89    4.70
   4   2  -4   69.79    3.80
  -2  -2   4  267.97   12.20
   2  -2  -4  268.07   12.30
  -2  -2   4  300.07   12.50
  -2   2   4  269.27   12.80
   2   2  -4  290.17   11.70
  -2   2   4  281.07   12.70
   0  -2   4  330.17   13.70
   0  -2   4  293.27   13.40
   0  -2  -4  310.57   13.70
   0   2   4  328.47   14.20
   0   2   4  284.87   13.80
   0   2  -4  317.87   12.90
  -2  -2  -4    2.60    1.10
   2  -2   4    2.60    1.00
   2   2   4    1.70    1.00
  -4  -2  -4   33.80    4.60
   4  -2   4   28.70    2.70
   4   2   4   23.70    2.90
  -4   2  -4   27.70    2.40
   4   2   4   31.40    3.60
   6  -2   4  420.66   18.00
  -6  -2  -4  414.26   18.10
   6  -2   4  417.86   18.10
   6   2   4  439.86   18.50
  -6   2  -4  429.36   17.60
   6   2   4  374.16   18.20
   8  -2   4   12.70    2.10
  -8  -2  -4   18.60    2.70
   8  -2   4   11.90    2.10
  -8   2  -4   16.40    2.40
   8   2   4   11.20    2.00
  10  -2   4   11.40    2.50
 -10  -2  -4   12.00    2.40
  10   2   4   11.70    2.50
 -10   2  -4    9.50    2.00
  12  -2   4  711.03   27.60
  12  -2   4  587.24   27.20
 -12  -2  -4  640.64   27.30
  12   2   4  636.24   27.60
 -12   2  -4  635.54   26.90
 -14  -2  -4  152.88    9.00
  14  -2   4  164.58    9.10
  14   2   4  155.38    9.20
 -14   2  -4  135.99    8.40
 -16  -2  -4   34.10    4.80
  16  -2   4   22.90    3.80
  16   2   4   27.80    4.10
 -16   2  -4   24.60    3.50
  18  -2   4   91.69    6.70
 -18  -2  -4   73.39    6.20
  18   2   4   72.59    6.20
 -18   2  -4   68.39    5.80
  20  -2   4   59.09    8.10
 -20  -2  -4   47.70    6.60
  20   2   4   57.59    5.70
 -20   2  -4   60.29    5.50
  22  -2   4   -0.80    1.00
 -22  -2  -4    0.40    1.20
  22   2   4    0.60    1.50
 -24  -2  -4   53.69    6.80
  24  -2   4   42.70    5.90
  24   2   4   73.39   11.80
  26  -2   4   60.49    7.50
  26   2   4   58.39    7.40
 -27  -3   4    9.20    3.20
 -27   3   4    7.90    3.30
 -25  -3   4   31.40    5.30
 -25   3   4   28.30    5.30
 -23  -3   4   20.00    3.90
 -23   3   4   28.80    4.90
  21  -3  -4  110.69   10.10
 -21  -3   4  149.49    9.40
 -21   3   4  134.89    9.50
 -19  -3   4   20.20    3.20
 -19  -3   4   21.40    3.80
 -19   3   4   26.30    4.60
  17  -3  -4   48.90    6.30
 -17  -3   4   30.00    5.90
 -17   3   4   40.80    5.20
 -15  -3   4   10.40    2.30
  15  -3  -4   12.30    2.30
 -15   3   4    9.20    2.40
  13  -3  -4   74.89    5.00
 -13  -3   4   72.99    4.80
 -13  -3   4   77.89    5.30
 -13   3   4   78.79    5.80
  11  -3  -4   21.70    2.90
 -11  -3   4   24.20    3.10
 -11  -3   4   18.80    2.80
 -11   3   4   18.90    3.00
   9  -3  -4  388.36   16.50
  -9  -3   4  393.16   16.60
  -9  -3   4  368.46   16.10
  -9   3   4  395.46   17.40
  -9   3   4  354.96   16.60
   7  -3  -4  202.58   10.00
  -7  -3   4  213.18    9.70
  -7  -3   4  216.38   10.00
  -7   3   4  204.48   10.30
  -7   3   4  228.58   10.90
   5  -3  -4   27.40    3.10
  -5  -3   4   27.80    2.30
  -5  -3   4   28.30    2.50
  -5   3   4   29.60    3.70
  -5   3   4   20.30    2.60
  -3  -3   4  185.38    8.90
  -3  -3   4  200.48    9.10
   3  -3  -4  187.48    9.30
  -3   3   4  180.48    9.50
  -3   3   4  222.68   10.10
  -1  -3   4  233.78   10.40
  -1  -3   4  232.58   10.30
  -1   3   4  202.08   10.70
  -1   3   4  246.58   11.20
  -1  -3  -4    3.50    1.20
   1  -3   4    3.90    1.20
   1  -3   4    5.30    1.30
   1   3   4    4.30    1.30
  -1   3  -4    4.70    1.00
   1   3   4    5.70    1.60
  -3  -3  -4   36.60    3.20
   3  -3   4   35.70    2.90
   3  -3   4   36.20    2.90
   3   3   4   33.20    3.10
   3   3   4   35.90    3.30
  -3   3  -4   37.70    2.60
  -5  -3  -4   63.89    4.60
   5  -3   4   70.19    4.50
  -5   3  -4   62.59    3.90
   5   3   4   70.29    4.90
   7  -3   4  106.69    6.10
  -7  -3  -4   96.69    6.20
   7  -3   4  103.79    6.20
  -7   3  -4  101.29    5.70
   7   3   4  107.29    6.60
   9  -3   4   54.99    4.30
  -9  -3  -4   59.19    4.60
   9  -3   4   56.49    4.30
  -9   3  -4   55.19    4.00
   9   3   4   51.79    4.50
  11  -3   4  129.59    7.50
 -11  -3  -4  129.69    7.70
  11  -3   4  126.99    7.60
  11   3   4  116.89    7.70
 -11   3  -4  123.89    7.10
  13  -3   4  110.79    7.50
 -13  -3  -4  131.09    8.00
  13  -3   4  123.39    7.70
  13   3   4  137.29    8.20
 -13   3  -4  125.19    7.40
  15  -3   4   93.69    6.40
 -15  -3  -4   81.49    6.30
 -15   3  -4   67.39    5.50
  15   3   4   92.49    6.70
 -17  -3  -4   24.20    3.90
  17  -3   4   23.00    3.60
 -17   3  -4   22.60    3.60
  17   3   4   30.80    4.70
 -19  -3  -4   33.20    5.20
  19  -3   4   33.30    5.10
 -19   3  -4   22.20    3.70
  19   3   4   25.70    4.20
 -21  -3  -4    4.20    2.20
  21  -3   4    5.70    2.30
  21   3   4    4.60    2.20
 -23  -3  -4  103.79    8.40
  23  -3   4   97.89    8.00
  23   3   4   98.09    8.20
  25  -3   4    9.10    3.30
 -25  -3  -4   10.50    4.90
  25   3   4    4.50    3.30
 -26  -4   4    6.90    2.70
 -26   4   4    8.70    3.10
 -24  -4   4    3.60    2.30
 -24   4   4    7.50    2.90
 -22  -4   4    3.10    1.90
  22  -4  -4    0.20    1.10
 -22   4   4    2.00    1.90
  20  -4  -4  166.98    9.80
 -20  -4   4  161.08    9.60
 -20  -4   4  182.28   10.50
 -20   4   4  180.38   11.00
 -18  -4   4    2.00    1.40
 -18  -4   4    0.00    0.50
  18  -4  -4    4.50    1.80
 -18   4   4    2.70    1.80
 -16  -4   4    2.30    1.30
  16  -4  -4    1.10    1.20
 -16  -4   4    0.20    0.70
 -16   4   4    0.80    1.10
  14  -4  -4    0.20    0.70
 -14  -4   4    0.50    0.80
 -14  -4   4    0.40    0.80
 -14   4   4    0.70    1.00
  12  -4  -4    8.10    1.80
 -12  -4   4    7.90    1.80
 -12  -4   4   10.90    2.00
 -12   4   4   12.60    2.80
 -10  -4   4   29.60    2.50
  10  -4  -4   31.60    3.00
 -10  -4   4   28.50    2.80
 -10   4   4   27.30    3.90
   8  -4  -4  103.09    6.30
  -8  -4   4  117.59    5.90
  -8  -4   4  118.99    6.20
  -8   4   4  110.89    6.90
  -8   4   4  114.69    7.00
  -6  -4   4  116.59    5.90
  -6  -4   4  115.89    6.10
   6  -4  -4  110.59    6.40
  -6   4   4  118.59    7.00
   4  -4  -4  101.49    5.90
  -4  -4   4  105.99    5.40
  -4  -4   4  104.09    5.50
  -4   4   4   95.19    6.20
  -2  -4   4   16.40    2.00
   2  -4  -4   15.10    2.10
  -2  -4   4   11.50    1.70
  -2   4   4   13.80    2.30
  -2   4   4   11.90    2.00
   0  -4   4   50.09    3.40
   0  -4  -4   53.39    3.90
   0  -4   4   53.39    3.50
   0   4   4   55.29    4.20
   0   4   4   49.20    4.00
   2  -4   4   16.50    2.30
   2  -4   4   17.60    2.20
  -2  -4  -4   19.50    2.80
   2   4   4   15.20    2.40
   4  -4   4    0.20    0.60
  -4  -4  -4   -0.40    0.40
   4  -4   4    0.30    0.60
   4   4   4    1.40    1.00
   6  -4   4   78.59    4.80
  -6  -4  -4   74.19    5.10
  -6   4  -4   65.99    4.10
   6   4   4   75.89    5.30
   8  -4   4   81.79    5.30
  -8  -4  -4   78.89    5.50
   8   4   4   87.39    5.90
  -8   4  -4   77.89    4.80
 -10  -4  -4  115.69    7.20
  10  -4   4  110.79    6.90
  10  -4   4  113.49    6.70
 -10   4  -4  114.59    6.40
  10   4   4  106.19    7.10
  12  -4   4    7.70    2.10
  12  -4   4    3.90    1.60
 -12  -4  -4    9.30    2.30
  12   4   4    5.20    1.90
 -12   4  -4    5.90    1.70
  14  -4   4   63.09    5.10
 -14  -4  -4   69.59    5.50
  14  -4   4   65.49    5.30
 -14   4  -4   57.29    4.60
  14   4   4   56.29    5.20
  16  -4   4   38.10    4.70
  16   4   4   38.80    5.20
 -16   4  -4   27.10    3.60
 -18  -4  -4    5.30    2.20
  18  -4   4    2.50    1.60
  18   4   4    5.90    2.30
 -18   4  -4    2.10    1.30
  20  -4   4   11.50    2.90
 -20  -4  -4    8.00    2.70
  20   4   4   11.60    3.30
  22  -4   4   40.20    5.90
 -22  -4  -4   29.90    5.10
  22   4   4   25.10    4.60
  24  -4   4    0.40    1.50
 -24  -4  -4    3.50    2.20
  24   4   4    2.70    2.20
 -27  -5   4   29.60    5.30
 -27   5   4   25.60    5.30
 -25  -5   4    4.70    2.30
 -25   5   4    3.70    2.20
 -23  -5   4   -1.20    0.90
 -23   5   4   -1.10    1.00
  21  -5  -4    1.60    1.50
 -21  -5   4    1.50    1.50
 -21   5   4   -0.60    1.20
 -19  -5   4   11.80    2.40
  19  -5  -4   18.30    3.30
 -19  -5   4   21.60    3.60
 -19   5   4   18.70    3.90
 -17  -5   4    7.60    2.20
  17  -5  -4   11.00    2.40
 -17  -5   4    7.30    1.80
 -17   5   4   15.90    3.40
 -15  -5   4   15.80    2.60
 -15  -5   4   18.00    2.90
  15  -5  -4   16.60    2.90
 -15   5   4   14.30    2.90
  13  -5  -4    1.30    1.00
 -13  -5   4    0.50    0.90
 -13  -5   4    0.20    0.70
 -13   5   4    0.00    1.00
  11  -5  -4    5.80    1.60
 -11  -5   4    6.20    1.60
 -11  -5   4    7.10    1.50
 -11   5   4    7.60    2.30
   9  -5  -4    0.20    0.60
  -9  -5   4    0.10    0.50
  -9  -5   4    0.70    0.80
  -9   5   4    0.10    0.80
   7  -5  -4   17.20    2.60
  -7  -5   4   13.90    1.90
  -7  -5   4   12.60    1.90
  -7   5   4    9.40    2.00
   5  -5  -4  184.88    9.10
  -5  -5   4  176.78    8.10
  -5  -5   4  175.88    8.30
  -5   5   4  172.08    9.40
  -3  -5   4    3.60    1.00
   3  -5  -4    3.00    1.00
  -3  -5   4    3.20    0.90
  -3   5   4    3.40    1.40
   1  -5  -4    0.30    0.60
  -1  -5   4    0.60    0.60
  -1  -5   4    1.50    0.80
  -1   5   4    1.90    1.00
   1  -5   4   14.50    2.00
   1  -5   4   15.40    2.00
  -1  -5  -4   12.80    2.10
   1   5   4   14.90    2.60
   3  -5   4   -0.20    0.50
  -3  -5  -4   -0.30    0.50
   3  -5   4    1.00    0.80
   3   5   4    1.30    1.10
   5  -5   4   90.29    5.50
   5  -5   4   96.29    5.60
  -5  -5  -4  103.69    6.30
   5   5   4  104.39    6.50
  -7  -5  -4  204.98   10.90
   7  -5   4  224.38   10.40
   7  -5   4  208.88   10.40
   7   5   4  222.68   11.20
  -9  -5  -4    7.40    2.00
   9  -5   4    6.00    1.70
   9   5   4    1.90    1.40
  -9   5  -4    7.90    1.60
 -11  -5  -4    0.40    1.10
  11  -5   4   -0.30    0.60
  11  -5   4   -0.30    0.70
  11   5   4    0.00    1.00
 -11   5  -4   -0.10    0.60
  13  -5   4    2.30    1.40
 -13  -5  -4    4.50    1.70
  13  -5   4    3.00    1.40
 -13   5  -4    1.60    1.10
  13   5   4    1.50    1.30
  15  -5   4   -0.20    0.90
  15  -5   4    0.80    1.00
 -15  -5  -4   -0.20    0.90
 -15   5  -4    1.80    1.10
  15   5   4   -0.60    0.70
  17  -5   4   27.20    3.90
 -17  -5  -4   13.60    3.00
  17   5   4   12.20    2.60
 -17   5  -4   21.90    4.50
  19  -5   4    3.30    1.90
 -19  -5  -4    0.10    1.10
  19   5   4    2.30    1.70
 -21  -5  -4    6.50    2.70
  21  -5   4    4.30    2.20
  21   5   4    1.70    1.60
  23  -5   4    1.20    1.70
 -23  -5  -4   -0.70    1.10
  23   5   4    1.50    1.80
 -25  -5  -4    1.40    2.20
  25  -5   4    1.50    1.80
  25   5   4    0.40    1.70
 -26  -6   4    1.60    1.60
 -26   6   4   -1.30    1.30
 -24  -6   4    2.00    1.60
 -24   6   4    2.90    2.20
 -22  -6   4    4.10    2.00
  22  -6  -4    3.00    1.80
 -22   6   4    1.80    3.30
  20  -6  -4   49.40    5.70
 -20  -6   4   36.50    7.00
 -20  -6   4   46.10    5.60
 -20   6   4   46.80    6.10
  18  -6  -4    0.40    1.10
 -18  -6   4   -0.30    0.60
 -18  -6   4    0.80    1.10
 -18   6   4    2.10    1.70
 -16  -6   4   16.20    3.00
  16  -6  -4   15.80    2.90
 -16  -6   4   13.30    2.20
 -16   6   4    8.30    2.30
 -14  -6   4   77.49    4.90
  14  -6  -4   80.99    5.70
 -14  -6   4   88.59    5.60
 -14   6   4   82.09    6.30
 -12  -6   4   18.20    2.70
 -12  -6   4   12.70    2.00
  12  -6  -4   18.90    3.00
 -12   6   4   12.40    2.60
 -10  -6   4   10.70    1.70
  10  -6  -4   21.40    3.20
 -10  -6   4   12.10    2.00
 -10   6   4   13.60    3.00
  -8  -6   4   40.80    3.00
   8  -6  -4   42.50    3.60
  -8  -6   4   39.40    2.80
  -8   6   4   39.30    3.90
   6  -6  -4   48.60    3.90
  -6  -6   4   55.79    3.40
  -6  -6   4   49.10    3.10
  -6   6   4   45.50    4.10
  -4  -6   4   21.20    1.90
   4  -6  -4   18.70    2.40
  -4  -6   4   15.90    1.60
  -4   6   4   35.00    4.20
  -2  -6   4   25.20    2.10
  -2  -6   4   22.80    2.00
   2  -6  -4   31.10    3.00
  -2   6   4   25.80    3.60
   0  -6  -4   53.59    4.10
   0  -6   4   53.89    3.40
   0  -6   4   52.79    3.30
   0   6   4   49.10    4.90
  -2  -6  -4    0.00    0.50
   2  -6   4    0.30    0.50
   2  -6   4   -0.30    0.40
   4  -6   4    4.70    1.20
   4  -6   4    4.00    1.20
  -4  -6  -4    3.00    1.30
   4   6   4    7.60    2.50
   6  -6   4  104.89    6.00
   6  -6   4  111.89    6.00
  -6  -6  -4  113.39    6.80
   6   6   4   90.69    6.50
   8  -6   4    1.90    1.10
   8  -6   4    0.90    0.80
  -8  -6  -4    1.10    1.10
   8   6   4    1.00    1.00
  10  -6   4    5.90    1.60
 -10  -6  -4    5.40    1.70
  10   6   4    3.50    1.50
  12  -6   4   43.70    3.90
 -12  -6  -4   39.50    5.80
  12  -6   4   30.10    3.90
 -12   6  -4   42.80    3.50
  12   6   4   47.10    5.50
  14  -6   4   13.00    2.60
  14  -6   4   11.50    2.50
 -14  -6  -4   13.50    2.90
  14   6   4   14.40    2.90
 -14   6  -4   20.00    3.00
 -16  -6  -4    2.60    1.70
  16  -6   4    1.40    1.30
  16   6   4    4.30    2.10
 -18  -6  -4    0.30    1.30
  18  -6   4    2.60    1.60
  18   6   4    0.30    1.40
  20  -6   4    5.20    2.10
 -20  -6  -4    6.70    2.60
  20   6   4    5.30    2.40
  22  -6   4    1.30    1.50
 -22  -6  -4    3.90    2.30
  22   6   4    3.90    2.40
  24  -6   4   25.10    4.70
 -24  -6  -4   22.10    4.80
  24   6   4   15.20    3.80
 -27  -7   4   12.90    3.40
 -27   7   4    5.90    2.90
 -25  -7   4   -1.60    1.10
 -25   7   4    3.00    2.40
  23  -7  -4   12.30    3.30
 -23  -7   4    9.30    2.80
 -23   7   4    7.60    2.90
 -21  -7   4   52.29    5.00
  21  -7  -4   45.40    5.30
 -21   7   4   38.50    5.60
  19  -7  -4   12.30    2.60
 -19  -7   4    9.70    2.60
 -19  -7   4   16.00    2.70
 -19   7   4   11.60    3.00
 -17  -7   4   26.30    3.70
  17  -7  -4   18.30    3.10
 -17  -7   4   17.50    2.80
 -17   7   4   26.00    4.40
  15  -7  -4   11.60    2.40
 -15  -7   4   10.70    2.30
 -15  -7   4   13.20    2.20
 -15   7   4   10.50    2.70
 -13  -7   4   34.70    2.80
  13  -7  -4   42.70    3.80
 -13  -7   4   33.80    3.20
 -13   7   4   24.00    3.50
 -11  -7   4   27.50    2.30
  11  -7  -4   18.40    2.80
 -11  -7   4   22.50    2.80
 -11   7   4   23.60    3.80
  -9  -7   4    0.50    0.60
  -9  -7   4    1.20    0.80
   9  -7  -4    0.80    0.70
  -9   7   4    1.00    1.10
  -7  -7   4   74.19    4.10
   7  -7  -4   62.19    4.70
  -7  -7   4   64.69    3.70
  -5  -7   4  297.67   12.90
   5  -7  -4  314.67   14.50
  -5  -7   4  311.57   13.10
  -5   7   4  332.47   15.10
  -3  -7   4    0.50    0.60
   3  -7  -4    1.00    0.90
  -3  -7   4    0.10    0.40
  -3   7   4    3.30    1.80
  -1  -7   4   97.19    5.00
  -1  -7   4  101.09    5.00
  -1   7   4   94.19    6.50
   1  -7   4   14.00    1.80
   1  -7   4   15.00    1.90
  -1  -7  -4    8.10    1.80
   1   7   4    8.40    2.00
   3  -7   4   24.00    2.30
   3  -7   4   28.90    2.40
  -3  -7  -4   22.80    3.10
   3   7   4   34.20    4.30
   5  -7   4    2.50    1.00
  -5  -7  -4    2.20    1.20
   5  -7   4    1.60    0.80
   5   7   4    1.10    1.10
  -7  -7  -4  557.94   24.80
   7  -7   4  570.94   23.90
   7  -7   4  582.54   23.80
   7   7   4  586.24   26.50
   9  -7   4    4.20    1.40
  -9  -7  -4    2.10    1.50
   9  -7   4    1.10    1.00
   9   7   4    5.80    2.40
 -11  -7  -4    3.60    1.70
  11  -7   4    3.00    1.40
  11   7   4    3.60    1.50
  13  -7   4   20.50    3.30
 -13  -7  -4   33.20    4.40
  13  -7   4   37.50    4.30
  13   7   4   25.60    4.00
  15  -7   4   32.80    4.20
 -15  -7  -4   34.40    4.70
  15  -7   4   32.60    4.20
  15   7   4   27.40    4.20
 -17  -7  -4   34.60    5.20
  17  -7   4   39.00    5.40
  17   7   4   33.30    4.70
  19  -7   4    5.60    2.10
 -19  -7  -4    3.70    1.90
  19   7   4    3.60    2.00
  21  -7   4    9.70    3.00
 -21  -7  -4   22.10    4.60
  21   7   4   12.20    3.80
  23  -7   4   57.09    6.70
 -23  -7  -4   57.79    7.60
  23   7   4   47.00    6.50
 -26  -8   4    3.50    2.20
 -26   8   4    3.00    2.70
 -24  -8   4   23.20    4.30
 -24   8   4   32.60    5.80
  22  -8  -4   50.09    6.20
 -22  -8   4   41.30    5.50
 -22   8   4   38.90    5.80
  20  -8  -4   41.70    6.70
 -20  -8   4   31.00    3.80
 -20  -8   4   31.40    4.50
 -20   8   4   27.30    4.80
  18  -8  -4   14.90    3.00
 -18  -8   4   18.50    3.30
 -18  -8   4   16.60    2.80
 -18   8   4   16.50    3.50
  16  -8  -4  107.19    7.10
 -16  -8   4  109.19    6.70
 -16  -8   4  104.19    6.10
 -16   8   4   95.19    7.50
 -14  -8   4   28.50    3.50
  14  -8  -4   28.80    4.00
 -14  -8   4   26.40    2.50
 -14   8   4   26.90    4.20
 -12  -8   4   19.80    2.60
  12  -8  -4   19.50    3.10
 -12  -8   4   25.00    2.20
 -12   8   4   18.80    3.40
  10  -8  -4   42.50    3.80
 -10  -8   4   42.30    3.10
 -10  -8   4   37.40    2.70
 -10   8   4   28.50    3.80
  -8  -8   4  160.28    7.40
  -8  -8   4  162.48    7.70
   8  -8  -4  169.68    9.10
  -8   8   4  170.98    9.60
   6  -8  -4   31.80    4.10
  -6  -8   4   29.90    2.20
  -6  -8   4   30.10    2.30
  -6   8   4   37.10    4.70
  -4  -8   4  642.64   25.10
   4  -8  -4  647.34   27.00
  -4  -8   4  630.54   25.00
  -4   8   4  652.63   29.00
   2  -8  -4   35.10    3.40
  -2  -8   4   33.80    2.30
  -2  -8   4   33.90    2.30
  -2   8   4   27.50    3.60
   0  -8  -4   26.60    3.50
   0  -8   4   29.00    2.20
   0  -8   4   32.70    2.30
   0   8   4   23.20    3.30
   2  -8   4    8.10    1.40
  -2  -8  -4    3.90    1.50
   2  -8   4    7.00    1.40
   2   8   4    5.50    1.80
  -4  -8  -4   31.40    4.10
   4  -8   4   35.60    2.80
   4  -8   4   35.00    2.80
   4   8   4   36.70    4.40
   6  -8   4  494.55   19.80
  -6  -8  -4  438.16   24.00
   6  -8   4  485.25   19.90
   6   8   4  445.76   20.90
   8  -8   4   92.89    5.80
  -8  -8  -4  102.49    6.80
   8  -8   4   91.39    5.70
   8   8   4  100.59    6.80
 -10  -8  -4  121.79    7.90
  10  -8   4  132.79    7.30
  10   8   4  110.69    7.70
 -12  -8  -4   48.10    5.80
  12   8   4   40.10    7.10
 -14  -8  -4  179.28   10.60
  14  -8   4  173.28    9.80
  14  -8   4  168.28    9.80
  14   8   4  169.88   10.40
  16  -8   4   61.89    5.40
 -16  -8  -4   56.69    5.60
  16   8   4   71.69    6.10
  18  -8   4   17.50    3.40
 -18  -8  -4   17.80    3.80
  18   8   4   19.50    4.10
 -20  -8  -4   45.50    6.40
  20  -8   4   44.20    5.80
  20   8   4   46.00    6.60
 -22  -8  -4   37.20    6.50
  22  -8   4   44.50    5.70
  22   8   4   36.10    6.20
 -24  -8  -4    2.50    2.10
  24  -8   4   10.20    3.10
 -25  -9   4   32.70    6.90
 -25   9   4   28.40    5.30
  23  -9  -4   53.29    6.80
 -23  -9   4   31.90    4.70
 -23   9   4   40.70    6.50
  21  -9  -4   72.19    6.30
 -21  -9   4   81.19    6.30
 -21   9   4   82.99    7.40
 -19  -9   4   24.40    3.70
  19  -9  -4   27.30    4.60
 -19  -9   4   20.50    3.00
 -19   9   4   27.20    4.70
  17  -9  -4   29.80    4.40
 -17  -9   4   24.60    3.10
 -17  -9   4   29.50    3.80
 -17   9   4   26.60    4.70
 -15  -9   4  112.09    6.70
 -15  -9   4  106.59    6.20
  15  -9  -4  115.79    8.00
 -15   9   4  121.29    8.20
 -13  -9   4   76.79    4.60
 -13  -9   4   75.39    4.90
  13  -9  -4   72.89    5.90
 -13   9   4   80.29    6.40
  11  -9  -4   28.70    4.10
 -11  -9   4   28.00    2.30
 -11  -9   4   31.90    2.70
 -11   9   4   20.20    3.30
  -9  -9   4  158.18    7.60
   9  -9  -4  170.78    9.20
  -9   9   4  153.78    9.40
   7  -9  -4  296.67   14.00
  -7  -9   4  293.07   12.20
  -7  -9   4  287.87   11.90
  -7   9   4  277.97   14.30
  -5  -9   4   74.59    3.90
  -5  -9   4   79.49    4.00
  -5   9   4   79.69    5.80
  -3  -9   4  246.08   10.30
  -3  -9   4  238.88   10.20
   3  -9  -4  245.18   12.20
  -3   9   4  262.57   12.80
  -1  -9   4  377.86   15.30
   1  -9  -4  355.56   17.10
  -1  -9   4  383.76   15.30
  -1   9   4  389.96   17.70
   1  -9   4   16.10    2.00
   1  -9   4   13.10    1.70
  -1  -9  -4    8.70    2.30
   1   9   4   12.40    2.40
  -3  -9  -4   98.69    6.60
   3  -9   4   99.99    5.40
   3  -9   4  106.89    5.40
   3   9   4   99.59    6.70
   5  -9   4  149.88    7.40
  -5  -9  -4  132.19    8.30
   5  -9   4  142.69    7.10
   5   9   4  135.69    8.30
   7  -9   4  317.67   14.00
  -7  -9  -4  314.27   15.40
   7  -9   4  303.87   14.00
   7   9   4  320.07   15.40
   9  -9   4   33.60    3.20
   9  -9   4   32.50    3.10
  -9  -9  -4   34.70    4.70
   9   9   4   35.10    4.80
  11  -9   4   27.90    4.20
  11  -9   4   30.30    3.70
 -11  -9  -4   32.60    4.50
  11   9   4   24.90    3.70
  13  -9   4  241.38   12.20
 -13  -9  -4  241.18   13.20
  13   9   4  237.28   13.00
  15  -9   4   75.69    5.80
 -15  -9  -4   75.29    6.50
 -17  -9  -4   56.99    6.70
  17  -9   4   50.29    4.90
  17   9   4   39.00    5.40
 -19  -9  -4   64.99    6.30
  19  -9   4   63.09    5.80
  19   9   4   57.79    7.00
  21  -9   4   75.09    6.60
 -21  -9  -4   70.19    8.70
  21   9   4   53.49    7.80
  23  -9   4    2.80    1.80
 -23  -9  -4    3.10    2.00
 -24 -10   4   52.89    8.00
 -24  10   4   62.59   10.00
 -22 -10   4   78.99    6.30
  22 -10  -4   77.19    6.80
 -22  10   4   75.69    7.40
 -20 -10   4   36.00    4.50
  20 -10  -4   28.80    4.40
 -20 -10   4   38.10    3.70
 -20  10   4   45.20    6.30
 -18 -10   4   22.30    3.10
  18 -10  -4   25.30    4.30
 -18 -10   4   21.90    3.30
 -18  10   4   17.80    3.80
 -16 -10   4   16.30    2.70
  16 -10  -4   20.30    3.50
 -16 -10   4   23.60    3.00
 -16  10   4   19.70    4.00
 -14 -10   4  189.88    9.30
 -14 -10   4  169.78    9.70
  14 -10  -4  180.78   10.40
 -14  10   4  184.88   11.00
  12 -10  -4   94.19    6.50
 -12 -10   4   88.59    5.10
 -12 -10   4   79.79    4.60
 -12  10   4   77.89    6.40
 -10 -10   4  128.59    6.40
  10 -10  -4  121.79    7.80
 -10 -10   4  131.79    6.20
 -10  10   4  129.19    8.40
  -8 -10   4  176.28    7.80
   8 -10  -4  189.58   10.00
  -8 -10   4  177.08    8.00
  -8  10   4  178.78   10.60
   6 -10  -4  223.18   11.20
  -6 -10   4  207.38    8.90
  -6 -10   4  204.38    8.80
  -6  10   4  211.58   11.40
  -4 -10   4   44.30    2.50
  -4 -10   4   41.80    2.50
   4 -10  -4   47.00    4.20
  -4  10   4   46.50    4.30
  -2 -10   4  164.18    7.20
   2 -10  -4  159.88    9.20
  -2 -10   4  168.28    7.20
  -2  10   4  160.18    9.50
   0 -10   4  279.27   11.70
   0 -10   4  278.97   11.80
   0 -10  -4  305.47   14.10
   0  10   4  274.47   14.00
   2 -10   4   79.29    4.40
  -2 -10  -4   78.99    5.90
   2 -10   4   85.79    4.40
   2  10   4   79.79    5.90
   4 -10   4   64.69    4.10
  -4 -10  -4   79.79    5.70
   4 -10   4   68.69    4.20
   4  10   4   69.89    5.50
   6 -10   4  181.88    8.80
  -6 -10  -4  169.08   10.00
   6 -10   4  182.38    8.70
   6  10   4  174.08   10.00
   8 -10   4   38.30    3.30
  -8 -10  -4   34.50    4.40
   8 -10   4   43.70    3.50
   8  10   4   36.60    4.40
  10 -10   4   34.00    3.90
 -10 -10  -4   37.00    5.10
  10 -10   4   39.40    3.50
  10  10   4   24.90    3.90
  12 -10   4  391.96   17.90
 -12 -10  -4  391.66   19.10
  12 -10   4  372.66   18.00
  12  10   4  425.06   19.30
 -14 -10  -4  147.99    9.80
  14 -10   4  163.58    9.20
  14  10   4  144.09    9.60
 -16 -10  -4   89.39    7.30
  16 -10   4   86.49    6.40
  16  10   4   73.39    6.60
  18 -10   4   42.70    5.50
 -18 -10  -4   36.10    5.70
  18  10   4   40.20    6.40
 -20 -10  -4   73.59    7.00
  20 -10   4   84.09    6.90
  22 -10   4    5.50    2.30
 -22 -10  -4    3.10    2.10
  23 -11  -4   37.60    5.20
 -23 -11   4   45.90    5.80
 -23  11   4   62.99    7.80
  21 -11  -4   69.09    6.20
 -21 -11   4   63.29    5.50
 -21  11   4   63.99    7.90
 -19 -11   4   15.50    2.90
 -19 -11   4   16.80    2.90
  19 -11  -4   25.40    4.50
 -19  11   4   17.40    3.80
 -17 -11   4   10.40    2.30
  17 -11  -4   13.10    3.10
 -17 -11   4    6.90    1.70
 -17  11   4    3.30    2.00
 -15 -11   4   74.59    4.80
  15 -11  -4   83.79    6.40
 -15 -11   4   77.39    5.20
 -15  11   4   88.69    7.00
 -13 -11   4  123.99    6.70
 -13 -11   4  125.69    6.30
  13 -11  -4  128.09    8.20
 -13  11   4  119.79    8.50
  11 -11  -4  164.98    9.70
 -11 -11   4  164.48    7.70
 -11 -11   4  172.38    8.10
 -11  11   4  185.58   10.60
  -9 -11   4   70.19    3.70
   9 -11  -4   74.69    5.60
  -9 -11   4   66.79    3.80
  -7 -11   4  270.17   11.30
   7 -11  -4  278.67   13.80
  -7 -11   4  272.77   11.20
  -7  11   4  294.67   14.40
  -5 -11   4  119.59    5.50
  -5 -11   4  128.39    5.50
   5 -11  -4  131.79    7.90
  -5  11   4  125.39    8.00
  -3 -11   4   58.39    3.00
   3 -11  -4   57.89    4.90
  -3 -11   4   55.99    3.00
  -3  11   4   61.99    5.20
  -1 -11   4  110.89    5.20
   1 -11  -4  109.39    7.20
  -1 -11   4  112.49    5.10
  -1  11   4  107.99    7.40
   1 -11   4  566.14   22.40
   1 -11   4  571.84   22.30
  -1 -11  -4  545.85   24.60
   1  11   4  579.94   25.00
  -3 -11  -4   23.40    3.50
   3 -11   4   21.80    2.00
   3  11   4   21.50    3.60
   5 -11   4  106.49    5.70
  -5 -11  -4  103.99    7.10
   5 -11   4  101.79    5.70
   5  11   4   99.99    7.00
  -7 -11  -4    0.40    1.10
   7 -11   4    0.90    0.70
   7  11   4   -1.10    0.60
   9 -11   4  110.89    6.60
  -9 -11  -4  121.19    7.90
   9 -11   4  104.79    6.40
   9  11   4  100.39    7.30
  11 -11   4  136.09    8.10
  11 -11   4  153.88    8.20
 -11 -11  -4  137.49    9.00
  11  11   4  128.69    8.80
  13 -11   4  272.87   14.20
 -13 -11  -4  292.57   15.50
  13 -11   4  296.57   14.30
  13  11   4  302.47   15.40
 -15 -11  -4  107.29    8.00
  15 -11   4   95.79    6.90
  15  11   4   95.19    7.60
  17 -11   4   62.79    5.50
 -17 -11  -4   58.19    6.70
  17  11   4   55.29    6.40
 -19 -11  -4   31.30    5.10
  19 -11   4   37.20    5.00
 -21 -11  -4   12.40    3.60
  21 -11   4   12.50    3.30
  24 -12  -4   13.10    4.20
 -24  12   4   16.90    4.50
  22 -12  -4   45.30    6.10
 -22 -12   4   29.40    4.40
 -22  12   4   30.40    5.30
  20 -12  -4   32.10    5.20
 -20 -12   4   21.30    3.60
 -20 -12   4   22.10    3.40
 -20  12   4   34.40    5.90
 -18 -12   4   25.70    3.60
 -18 -12   4   28.10    3.40
  18 -12  -4   20.10    3.80
 -18  12   4   25.50    4.60
  16 -12  -4    8.30    2.30
 -16 -12   4    6.60    1.80
 -16 -12   4    7.20    1.70
 -16  12   4    6.50    2.30
 -14 -12   4  162.68    7.80
  14 -12  -4  153.38    9.70
 -14 -12   4  161.48    8.10
 -14  12   4  143.99    9.80
  12 -12  -4   97.89    7.10
 -12 -12   4   98.89    5.20
 -12 -12   4   99.79    5.50
 -12  12   4  104.79    7.60
 -10 -12   4   16.00    1.90
 -10 -12   4   17.80    1.60
  10 -12  -4   16.40    3.10
 -10  12   4   22.40    4.60
   8 -12  -4  248.28   12.70
  -8 -12   4  240.28    9.80
  -8 -12   4  234.88   10.00
  -8  12   4  237.58   12.90
   6 -12  -4  218.78   11.20
  -6 -12   4  191.38    8.10
  -6 -12   4  203.28    8.10
  -6  12   4  184.18   11.00
  -4 -12   4   37.80    2.10
   4 -12  -4   45.50    4.30
  -4 -12   4   39.70    2.10
  -4  12   4   45.20    5.30
  -2 -12   4  112.49    5.10
   2 -12  -4  117.59    7.50
  -2 -12   4  119.59    5.20
  -2  12   4  111.79    7.60
   0 -12  -4  138.19    8.30
   0 -12   4  129.69    6.00
   0 -12   4  131.09    6.00
   0  12   4  128.69    8.30
   2 -12   4  148.19    7.10
   2 -12   4  152.98    7.00
  -2 -12  -4  161.78    9.20
   2  12   4  143.79    9.00
   4 -12   4   32.90    2.70
  -4 -12  -4   45.10    4.40
   4 -12   4   38.10    2.90
   4  12   4   37.80    4.70
  -6 -12  -4    9.80    2.60
   6 -12   4   10.00    1.90
   6 -12   4   10.70    2.00
   6  12   4    9.20    2.60
   8 -12   4   68.09    4.70
  -8 -12  -4   66.99    5.80
   8 -12   4   67.79    4.60
   8  12   4   67.59    5.70
 -10 -12  -4   82.09    6.40
  10 -12   4   62.89    4.70
  10 -12   4   64.99    4.80
  10  12   4   56.59    5.40
 -12 -12  -4  190.58   11.50
  12 -12   4  203.68   10.50
  12 -12   4  196.08   10.60
  12  12   4  195.98   11.50
  14 -12   4   91.99    6.40
 -14 -12  -4   97.89    7.60
  14 -12   4   81.69    7.20
  14  12   4   88.69    7.20
  16 -12   4   61.39    5.40
 -16 -12  -4   63.89    7.90
  16  12   4   56.79    6.90
 -18 -12  -4   44.10    6.40
  18 -12   4   36.70    5.30
 -20 -12  -4   48.70    6.70
  20 -12   4   45.10    5.70
  22 -12   4   18.20    5.10
 -23 -13   4   26.70    4.30
  23 -13  -4   16.90    4.30
  21 -13  -4    0.90    1.70
 -21 -13   4    2.80    1.60
 -21  13   4    0.20    1.70
 -19 -13   4   28.30    3.90
  19 -13  -4   35.30    5.50
 -19 -13   4   28.80    3.60
 -19  13   4   23.90    4.60
 -17 -13   4   13.10    2.30
  17 -13  -4   15.40    3.40
 -17 -13   4   11.60    2.40
 -17  13   4   22.90    4.60
 -15 -13   4   69.79    4.60
  15 -13  -4   71.89    6.10
 -15 -13   4   61.39    4.10
 -15  13   4   51.49    6.80
 -13 -13   4    3.50    1.30
 -13 -13   4    6.10    1.30
  13 -13  -4    5.00    2.00
 -13  13   4    4.10    1.90
 -11 -13   4   50.19    3.20
  11 -13  -4   51.99    6.00
 -11 -13   4   46.80    2.90
 -11  13   4   51.19    6.30
   9 -13  -4  101.99    7.00
  -9 -13   4   92.69    4.40
  -9 -13   4   88.69    4.50
  -9  13   4   91.59    7.00
   7 -13  -4  110.89    7.30
  -7 -13   4  104.49    4.50
  -7 -13   4  103.19    4.60
  -7  13   4   91.39    7.10
   5 -13  -4  135.09    8.60
  -5 -13   4  138.69    5.60
  -5 -13   4  136.89    5.60
  -5  13   4  150.08    9.00
   3 -13  -4   82.49    6.20
  -3 -13   4   80.39    3.60
  -3 -13   4   78.99    3.60
  -3  13   4   90.19    6.50
  -1 -13   4   69.39    3.40
   1 -13  -4   72.19    5.70
  -1 -13   4   68.59    3.40
  -1  13   4   65.49    5.50
   1 -13   4   19.30    1.70
   1 -13   4   19.70    1.70
  -1 -13  -4   23.20    3.80
   1  13   4   16.60    3.30
  -3 -13  -4   44.50    5.40
   3 -13   4   36.30    4.30
   3 -13   4   38.30    2.80
   3  13   4   40.70    5.00
   5 -13   4   25.60    2.40
  -5 -13  -4   26.80    4.10
   5 -13   4   24.40    2.90
   5  13   4   25.50    4.10
   7 -13   4   37.10    3.30
  -7 -13  -4   33.70    4.60
   7 -13   4   42.50    3.30
   7  13   4   41.30    5.30
   9 -13   4   70.19    5.00
   9 -13   4   71.79    4.90
  -9 -13  -4   76.09    6.30
   9  13   4   70.89    6.00
  11 -13   4  110.69    7.10
 -11 -13  -4  122.59    8.50
  11 -13   4  123.79    7.20
  11  13   4  108.99    7.90
 -13 -13  -4   45.70    5.80
  13 -13   4   42.90    4.10
  13 -13   4   40.20    4.90
  13  13   4   42.40    5.50
  15 -13   4   54.79    4.90
 -15 -13  -4   49.30    6.10
  17 -13   4   31.00    4.60
 -17 -13  -4   26.20    4.90
 -19 -13  -4   58.09    7.50
  19 -13   4   77.69    6.40
 -21 -13  -4   60.29    7.50
  21 -13   4   62.09    7.10
 -22 -14   4   15.90    3.40
  22 -14  -4   12.30    3.10
 -20 -14   4    1.90    1.30
 -20 -14   4    1.00    1.10
  20 -14  -4   -0.20    1.00
 -20  14   4    2.20    1.90
 -18 -14   4   26.40    3.30
  18 -14  -4   18.20    3.80
 -18  14   4   26.80    5.20
 -16 -14   4   48.50    3.70
 -16 -14   4   51.89    4.10
  16 -14  -4   49.70    6.10
 -16  14   4   51.59    6.30
 -14 -14   4   33.00    2.70
  14 -14  -4   27.50    4.40
 -14 -14   4   34.80    3.00
 -14  14   4   27.70    4.60
 -12 -14   4    8.10    1.30
 -12 -14   4    5.60    1.30
  12 -14  -4    4.60    2.20
 -12  14   4    5.30    2.10
 -10 -14   4  137.49    6.30
 -10 -14   4  131.69    6.00
  10 -14  -4  137.69    8.90
 -10  14   4  141.69    9.20
   8 -14  -4   43.30    5.30
  -8 -14   4   42.50    2.20
  -8 -14   4   38.60    2.10
  -8  14   4   41.00    5.10
   6 -14  -4   36.70    4.90
  -6  14   4   35.60    5.20
   4 -14  -4  152.08    9.30
  -4  14   4  154.68    9.50
  -2 -14   4   26.90    1.60
  -2 -14   4   30.80    1.70
   2 -14  -4   35.00    4.90
  -2  14   4   22.10    3.50
   0 -14   4    3.60    0.80
   0 -14   4    2.50    0.80
   0 -14  -4    3.00    1.50
   0  14   4    1.40    1.40
   2 -14   4    9.10    1.40
  -2 -14  -4    8.60    2.40
   2 -14   4    9.20    1.40
   2  14   4    8.00    2.40
  -4 -14  -4    2.90    1.60
   4 -14   4    6.00    1.30
   4 -14   4    2.70    1.00
   4  14   4    4.40    2.00
  -6 -14  -4    9.00    2.60
   6 -14   4    9.40    1.90
   6 -14   4    8.10    1.70
   6  14   4   10.10    2.60
   8 -14   4   65.89    4.50
   8 -14   4   63.19    4.60
  -8 -14  -4   52.49    6.20
   8  14   4   71.09    5.90
 -10 -14  -4   72.19    6.40
  10 -14   4   80.49    5.40
  10 -14   4   68.79    5.20
  10  14   4   75.59    6.30
  12 -14   4   20.40    3.30
 -12 -14  -4   14.60    3.40
  12 -14   4   20.60    3.40
  12  14   4   16.20    3.60
  14 -14   4   15.90    3.00
 -14 -14  -4   16.70    3.90
  16 -14   4   11.60    2.90
 -16 -14  -4    9.60    3.20
  18 -14   4   82.79    6.70
 -18 -14  -4   84.89    7.70
 -20 -14  -4    8.70    3.10
  20 -14   4   11.60    3.00
  21 -15  -4   34.90    5.70
 -21 -15   4   30.80    4.30
  19 -15  -4   14.50    3.90
 -19 -15   4    6.50    2.10
 -19 -15   4    9.60    2.10
 -17 -15   4    7.70    2.00
 -17 -15   4    7.70    1.90
 -17  15   4   11.80    3.50
 -15 -15   4   71.19    4.40
  15 -15  -4   65.49    6.20
 -15 -15   4   73.89    4.80
 -15  15   4   67.49    7.70
 -13 -15   4    5.80    1.20
 -13 -15   4    7.80    1.60
  13 -15  -4    8.10    2.70
 -13  15   4    7.20    2.60
 -11 -15   4    0.50    0.50
  11 -15  -4    1.10    1.20
 -11 -15   4    1.70    0.70
 -11  15   4   -0.50    0.90
  -9 -15   4   89.59    4.00
   9 -15  -4   95.59    7.00
  -9 -15   4   89.99    4.10
  -9  15   4   75.39    6.70
   7 -15  -4   25.00    3.90
  -7  15   4   17.50    3.30
   5 -15  -4   10.30    2.50
  -5  15   4    9.40    2.80
   3 -15  -4   13.30    3.10
  -3  15   4   14.00    3.20
  -1 -15   4    5.00    0.80
  -1 -15   4    4.00    0.70
   1 -15  -4    3.70    1.80
  -1  15   4    2.30    1.40
   1 -15   4    3.80    0.90
   1 -15   4    3.40    0.90
  -1 -15  -4    3.30    1.70
   1  15   4    2.50    1.40
   3 -15   4    2.40    0.90
   3 -15   4    2.50    0.90
  -3 -15  -4    3.20    1.60
   3  15   4    1.80    1.30
  -5 -15  -4    5.40    2.10
   5 -15   4   10.80    1.90
   5 -15   4   11.60    1.90
   5  15   4   12.30    2.90
   7 -15   4   26.60    3.10
   7 -15   4   29.80    2.90
  -7 -15  -4   25.50    4.20
   7  15   4   21.60    3.80
   9 -15   4   17.10    4.70
   9 -15   4   12.10    2.30
  -9 -15  -4   19.30    4.00
   9  15   4   10.40    2.70
  11 -15   4   33.80    4.10
  11 -15   4   37.90    3.70
 -11 -15  -4   44.80    5.80
 -13 -15  -4   -1.20    1.00
  13 -15   4    0.20    0.90
  15 -15   4   10.40    2.60
 -15 -15  -4    8.90    3.10
  17 -15   4    1.60    1.50
 -17 -15  -4    0.60    1.50
 -19 -15  -4    3.00    2.10
  19 -15   4    9.90    2.70
 -20 -16   4  117.09    7.50
  20 -16  -4  109.89    8.80
  18 -16  -4    3.90    2.10
 -18 -16   4    1.10    1.20
 -18 -16   4    4.70    1.50
  16 -16  -4   43.80    5.70
 -16 -16   4   50.39    3.60
 -16 -16   4   54.59    4.10
  14 -16  -4   15.40    3.70
 -14 -16   4   15.40    2.20
 -14 -16   4   11.00    1.70
 -14  16   4    8.50    3.10
  12 -16  -4    0.80    1.40
 -12 -16   4   -0.20    0.70
 -12 -16   4    0.10    0.50
 -12  16   4    0.30    1.30
  10 -16  -4   14.40    3.30
 -10 -16   4   16.20    1.40
 -10  16   4   17.40    3.90
   8 -16  -4    0.90    1.20
  -8  16   4    2.40    1.80
   6 -16  -4   33.10    4.90
  -6  16   4   33.30    5.30
   4 -16  -4   26.30    4.10
  -4  16   4   30.10    5.00
   2 -16  -4   -0.10    1.00
  -2  16   4    0.40    1.10
   0 -16   4    3.20    0.70
   0 -16  -4    3.50    1.70
   0 -16   4    4.10    0.80
   0  16   4    0.80    1.20
  -2 -16  -4   10.20    2.70
   2 -16   4   11.40    1.60
   2 -16   4   13.00    1.70
   2  16   4    7.30    2.20
   4 -16   4    2.90    1.10
   4 -16   4    4.70    1.20
  -4 -16  -4    7.40    2.70
   4  16   4    6.40    2.20
   6 -16   4   32.90    2.90
   6 -16   4   31.10    2.90
  -6 -16  -4   30.40    4.60
   6  16   4   25.60    4.30
   8 -16   4    5.40    1.60
   8 -16   4    5.30    1.60
  -8 -16  -4    3.60    2.10
  10 -16   4   15.60    2.80
 -10 -16  -4   14.10    3.50
  10 -16   4   13.80    2.50
  12 -16   4    0.40    1.10
  12 -16   4    0.20    0.90
 -12 -16  -4   -0.80    1.10
  14 -16   4   -0.40    0.90
 -14 -16  -4    0.00    1.20
  16 -16   4    2.50    1.70
 -16 -16  -4    5.00    2.40
 -18 -16  -4    3.10    2.20
  18 -16   4    3.50    1.90
 -17 -17   4   -1.60    0.70
  17 -17  -4    0.20    1.70
 -17 -17   4    0.30    0.90
 -15 -17   4   77.89    4.90
 -15 -17   4   80.99    4.70
  15 -17  -4   92.49    7.50
 -13 -17   4    9.70    1.50
 -13 -17   4    9.30    1.60
  13 -17  -4    4.00    2.20
 -11 -17   4    0.40    0.50
  11 -17  -4    1.10    1.30
 -11 -17   4   -0.40    0.40
   9 -17  -4    0.60    1.30
   7 -17  -4    9.50    2.70
  -7  17   4    5.90    2.20
   5 -17  -4    5.20    2.20
  -5  17   4    1.00    1.30
   3 -17  -4    1.60    1.60
  -3  17   4    1.90    1.50
  -1 -17   4   26.90    1.50
   1 -17  -4   25.70    4.10
  -1  17   4   23.40    3.80
  -1 -17  -4    0.30    1.10
   1 -17   4    0.90    0.60
   1 -17   4    2.80    0.90
   1  17   4    1.90    1.60
   3 -17   4    8.10    1.50
  -3 -17  -4   13.70    3.10
   3 -17   4    9.20    1.60
   5 -17   4   31.00    2.80
  -5 -17  -4   25.40    4.30
   5 -17   4   31.80    2.80
  -7 -17  -4   18.70    3.70
   7 -17   4   16.90    2.50
   7 -17   4   17.50    2.70
  -9 -17  -4    0.40    1.40
   9 -17   4    0.30    0.80
   9 -17   4    0.00    0.90
  11 -17   4    0.60    1.10
 -11 -17  -4    1.70    1.70
  11 -17   4    1.10    1.20
 -13 -17  -4   11.30    3.60
  13 -17   4   10.70    2.50
 -15 -17  -4   -0.20    1.30
  15 -17   4   -0.10    1.10
 -16 -18   4    2.40    1.10
  16 -18  -4    3.30    2.20
  14 -18  -4   39.90    5.40
 -14 -18   4   49.20    3.30
 -14 -18   4   48.60    3.10
  12 -18  -4   12.90    3.80
 -12 -18   4   17.60    1.40
 -12 -18   4   15.60    1.70
  10 -18  -4    5.80    2.40
   8 -18  -4   29.60    4.40
   6 -18  -4   24.90    4.30
   4 -18  -4    2.50    1.70
   2 -18  -4   21.30    3.90
   0 -18   4   27.90    1.80
   0 -18  -4   35.70    5.10
   0 -18   4   28.80    1.90
  -2 -18  -4   31.30    4.80
   2 -18   4   27.10    2.20
   2 -18   4   31.10    2.30
   4 -18   4   14.20    2.00
   4 -18   4   14.20    2.10
  -4 -18  -4   13.10    3.20
  -6 -18  -4   20.40    3.90
   6 -18   4   29.10    2.90
   6 -18   4   28.30    2.80
  -8 -18  -4   41.20    5.80
   8 -18   4   38.90    3.60
   8 -18   4   42.30    3.70
  10 -18   4   11.50    2.40
 -10 -18  -4   15.00    3.70
  10 -18   4    8.70    2.20
 -12 -18  -4    1.60    1.60
  12 -18   4    2.10    1.30
 -14 -18  -4   11.60    3.70
  14 -18   4    8.10    2.20
 -15 -19   4    3.20    1.90
 -15 -19   4    3.80    1.10
  15 -19  -4    6.30    2.50
 -13 -19   4   43.60    2.70
  13 -19  -4   42.00    5.60
 -13 -19   4   44.40    2.60
  11 -19  -4   28.50    5.10
   9 -19  -4   55.39    6.50
   7 -19  -4   55.09    6.90
   5 -19  -4   18.60    3.70
   3 -19  -4    4.50    2.20
   1 -19  -4   75.99    6.70
  -1 -19  -4   30.50    5.00
   1 -19   4   35.10    2.40
   1 -19   4   37.40    2.30
   3 -19   4   23.80    3.10
   3 -19   4   17.30    2.10
  -3 -19  -4   23.10    4.30
   5 -19   4   30.00    3.30
  -5 -19  -4   22.50    4.10
   5 -19   4   25.60    2.90
   7 -19   4  104.59    6.30
   7 -19   4   96.79    6.00
  -7 -19  -4  106.29    8.30
  -9 -19  -4   11.50    3.30
   9 -19   4   15.50    2.80
   9 -19   4   14.80    2.60
 -11 -19  -4   25.10    4.70
  11 -19   4   25.30    4.40
 -13 -19  -4   17.30    4.00
  13 -19   4   18.00    3.20
  12 -20  -4   26.00    5.00
  10 -20  -4   58.49    7.20
   8 -20  -4   48.30    5.90
   6 -20  -4   27.30    4.80
   4 -20  -4   24.40    4.60
   2 -20  -4   36.50    5.40
   0 -20   4  127.19    5.40
   0 -20   4  126.29    5.30
   0 -20  -4  128.99    9.20
   2 -20   4    2.70    0.90
   2 -20   4    2.80    0.90
  -2 -20  -4    1.00    1.50
   4 -20   4   19.00    2.50
   4 -20   4   20.40    2.50
  -4 -20  -4   18.20    3.90
   6 -20   4  146.69    7.70
   6 -20   4  143.89    7.80
  -6 -20  -4  148.59   10.20
   8 -20   4   18.60    2.90
   8 -20   4   23.10    4.70
  -8 -20  -4   29.00    5.20
  10 -20   4   32.60    4.00
 -10 -20  -4   38.30    6.10
   9 -21  -4   49.99    6.50
   7 -21  -4   49.60    6.20
   5 -21  -4    9.30    2.80
   3 -21  -4   85.39    7.40
   1 -21  -4   62.79    6.20
   1 -21   4   13.10    1.40
  -1 -21  -4   19.00    3.90
   1 -21   4   12.90    1.40
   3 -21   4   57.69    3.50
   3 -21   4   58.89    3.70
  -3 -21  -4   53.39    6.60
   5 -21   4   11.70    2.10
   5 -21   4   13.50    2.30
  -5 -21  -4   10.30    3.30
   7 -21   4   60.19    4.50
  -7 -21  -4   71.59    6.80
   7 -21   4   66.89    4.90
   4 -22  -4   31.50    5.00
   2 -22  -4   30.20    5.50
   0 -22  -4   38.10    5.70
   2 -22   4   66.59    3.60
  -2 -22  -4   56.09    7.10
   2 -22   4   66.59    3.70
 -26   0   5   -0.20    1.90
 -24   0   5    1.50    1.80
 -22   0   5    0.30    1.40
 -20   0   5    0.80    1.50
 -18   0   5    0.40    1.20
 -16   0   5    1.20    1.40
 -16   0   5    1.00    1.10
 -14   0   5   -0.40    0.60
 -14   0   5    0.60    1.00
  14   0  -5   -0.50    0.60
 -12   0   5    0.30    0.80
 -12   0   5    0.50    1.00
  12   0  -5   -0.10    0.60
  10   0  -5   -0.20    0.50
 -10   0   5   -0.40    0.50
 -10   0   5    0.00    0.70
   8   0  -5   -0.30    0.40
  -8   0   5    1.60    1.20
  -8   0   5   -0.10    0.50
  -6   0   5   -0.80    0.50
  -6   0   5   -0.50    0.50
   6   0  -5    1.00    0.80
  -4   0   5    0.30    0.90
   4   0  -5   -0.20    0.60
  -4   0   5    0.50    0.70
  -2   0   5    0.20    0.80
   2   0  -5    0.10    0.50
  -2   0   5    0.80    0.70
   0   0  -5    0.20    0.60
   0   0   5    0.20    0.90
   0   0   5   -0.30    0.50
  -2   0  -5   -0.30    0.40
   2   0   5   -0.70    0.40
   2   0   5   -0.40    0.80
   4   0   5    0.80    0.70
   4   0   5   -0.10    0.90
  -4   0  -5   -0.40    0.40
   6   0   5   -0.70    0.60
  -6   0  -5    0.90    0.80
   6   0   5   -0.20    0.60
  -8   0  -5    0.20    0.60
   8   0   5   -0.30    0.60
   8   0   5   -0.30    0.70
 -10   0  -5   -0.10    0.60
  10   0   5    0.30    1.00
 -12   0  -5   -0.20    0.60
  12   0   5    0.00    1.10
  14   0   5   -0.30    1.10
 -14   0  -5   -0.20    0.80
 -16   0  -5   -0.10    0.90
  16   0   5    0.70    1.70
  18   0   5    2.10    1.60
  20   0   5    1.70    1.80
  22   0   5   -0.40    1.50
 -25  -1   5   89.19    8.00
 -25   1   5   78.79    7.80
 -23  -1   5   17.40    4.00
 -23   1   5   10.50    3.50
 -21  -1   5   -1.90    0.90
 -21   1   5    0.70    1.40
 -19  -1   5   -0.10    1.20
 -19   1   5    0.80    1.60
 -17  -1   5   27.40    4.20
 -17   1   5   26.60    4.50
  15  -1  -5    4.80    2.40
 -15  -1   5    3.80    1.40
 -15  -1   5    5.40    2.00
 -15   1   5    7.40    2.20
  13  -1  -5   86.39    5.50
 -13  -1   5   77.29    5.60
 -13  -1   5  106.59    6.80
 -13   1   5   79.59    5.90
 -13   1   5   90.69    6.60
  11  -1  -5    7.20    1.70
 -11  -1   5   12.00    2.70
 -11   1   5    8.70    2.20
 -11   1   5    8.60    2.10
  -9  -1   5    2.30    1.20
   9  -1  -5    1.00    0.80
  -9   1   5    1.60    0.90
  -9   1   5    1.10    1.20
   7  -1  -5    9.00    1.80
  -7  -1   5   11.70    2.40
  -7   1   5    9.30    2.20
  -7   1   5   14.00    2.90
   5  -1  -5   21.70    2.70
  -5  -1   5   23.00    3.20
  -5   1   5   20.90    3.20
   5   1  -5   29.50    3.70
  -5   1   5   19.30    3.20
  -3  -1   5    3.90    1.30
   3  -1  -5    6.30    1.50
  -3   1   5    5.50    1.70
   3   1  -5    5.20    1.20
  -3   1   5    8.00    2.10
   1  -1  -5   33.30    2.90
  -1  -1   5   38.10    3.50
   1   1  -5   26.90    2.50
  -1   1   5   28.50    3.60
  -1   1   5   35.70    3.50
   1  -1   5   74.59    5.20
   1  -1   5   68.09    5.00
  -1  -1  -5   70.49    4.60
  -1   1  -5   67.99    4.30
   1   1   5   64.49    4.90
   1   1   5   77.89    5.40
   3  -1   5   12.50    2.50
   3  -1   5   13.30    2.50
  -3  -1  -5   11.00    2.20
   3   1   5    8.00    1.90
  -3   1  -5   13.50    2.30
  -5  -1  -5    2.10    1.00
   5  -1   5    1.60    1.20
   5  -1   5    3.50    1.50
   5   1   5    3.20    1.50
   5   1   5    0.70    1.00
  -5   1  -5    1.00    0.80
   7  -1   5    8.60    1.90
   7  -1   5    8.00    2.20
  -7  -1  -5    7.60    1.80
  -7   1  -5    9.30    1.90
   7   1   5    8.00    2.30
   7   1   5    7.70    2.20
   9  -1   5  107.79    7.60
  -9  -1  -5  123.19    7.60
   9  -1   5  139.59    8.10
  -9   1  -5  124.59    7.40
   9   1   5  139.19    8.20
  11  -1   5   14.70    3.00
 -11  -1  -5   15.50    3.10
 -11   1  -5   13.70    2.50
  11   1   5   11.80    2.60
  13  -1   5    4.60    2.00
 -13  -1  -5    3.60    1.60
 -13   1  -5    6.20    1.80
  13   1   5    8.70    2.60
 -15  -1  -5   12.10    3.00
  15  -1   5   10.40    2.80
 -15   1  -5    9.10    2.40
  15   1   5    9.00    2.70
  17  -1   5    2.40    1.60
 -17  -1  -5    3.90    1.90
  19  -1   5   14.50    3.60
  19   1   5    9.20    2.80
  21  -1   5   -1.40    1.00
  21   1   5    2.00    2.00
  23  -1   5    5.90    2.80
  23   1   5    2.80    2.30
 -26  -2   5   43.60    7.70
 -26   2   5   31.60    5.70
 -24  -2   5   45.80    6.60
 -24   2   5   60.79    7.60
 -22  -2   5   -0.30    1.60
 -22   2   5    0.10    1.60
 -20  -2   5   17.10    3.70
 -20   2   5   20.90    4.20
 -18  -2   5  113.39    8.00
 -18   2   5  109.89    8.20
 -16  -2   5   37.20    4.80
  16  -2  -5   39.50    3.70
 -16   2   5   42.10    5.60
  14  -2  -5   51.39    4.20
 -14  -2   5   53.79    4.80
 -14   2   5   53.39    4.70
 -14   2   5   52.89    5.10
  12  -2  -5   56.79    4.30
 -12  -2   5   70.09    5.30
 -12   2   5   59.49    5.30
 -12   2   5   58.69    4.80
 -10  -2   5   89.69    5.80
 -10  -2   5  102.69    6.50
  10  -2  -5  103.69    6.00
 -10   2   5   90.29    6.60
 -10   2   5   95.79    6.40
  -8  -2   5    0.30    0.90
   8  -2  -5    0.40    0.60
  -8  -2   5    0.40    0.70
  -8   2   5    0.70    1.10
  -8   2   5    0.60    0.80
   6  -2  -5   36.60    3.10
  -6  -2   5   32.10    3.00
  -6  -2   5   36.30    3.40
  -6   2   5   36.60    4.40
  -4  -2   5   43.40    3.60
   4  -2  -5   35.30    3.10
  -4  -2   5   34.40    3.10
  -4   2   5   38.20    4.40
  -4   2   5   32.40    3.30
  -2  -2   5    6.10    1.60
  -2  -2   5    5.20    1.50
   2  -2  -5    6.50    1.70
  -2   2   5    3.70    1.50
  -2   2   5    6.70    2.00
   0  -2  -5   20.60    2.60
   0  -2   5   22.70    3.10
   0   2   5   14.50    2.60
   0   2   5   20.50    3.00
  -2  -2  -5  607.74   25.20
   2  -2   5  626.54   25.40
   2   2   5  627.84   25.90
   2   2   5  570.94   25.60
  -2   2  -5  583.74   24.30
  -4  -2  -5    6.20    1.60
   4  -2   5    8.30    2.40
   4  -2   5   13.70    2.60
  -4   2  -5    8.20    1.70
   4   2   5   10.90    2.40
   4   2   5    9.00    2.30
   6  -2   5    3.00    1.40
  -6  -2  -5    3.80    1.30
   6  -2   5    4.70    1.70
   6   2   5    4.30    1.60
  -6   2  -5    5.30    1.40
   8  -2   5  101.59    6.60
   8  -2   5   93.79    6.50
  -8  -2  -5   96.79    6.40
  -8   2  -5   93.19    5.90
   8   2   5   98.39    6.80
 -10  -2  -5   93.69    6.50
  10  -2   5   90.29    6.50
  10  -2   5   93.89    6.70
  10   2   5   92.29    6.80
 -10   2  -5  101.99    6.20
  12  -2   5   19.70    3.60
 -12  -2  -5   18.80    3.20
  12  -2   5   14.70    4.50
  12   2   5   15.70    3.20
 -12   2  -5   18.40    3.00
  14  -2   5    7.00    2.30
 -14  -2  -5   10.10    2.50
  14   2   5   12.90    3.20
 -14   2  -5   12.70    2.80
  16  -2   5   28.70    4.20
 -16  -2  -5   25.10    4.10
  16   2   5   24.40    4.30
  18  -2   5   20.30    3.80
 -18  -2  -5   23.70    4.10
  20  -2   5   17.60    4.10
  20   2   5   13.70    3.70
  22  -2   5   26.60    4.90
  22   2   5   22.80    4.70
 -25  -3   5   66.49    8.00
 -25   3   5   61.19    8.30
 -23  -3   5    8.70    3.00
 -23   3   5    1.40    1.80
 -21  -3   5    9.10    2.70
 -21   3   5    8.50    2.90
 -19  -3   5   17.40    3.70
 -19   3   5    9.90    2.80
 -17  -3   5  131.79    8.60
  17  -3  -5  125.29    8.30
 -17   3   5  135.69    9.10
 -15  -3   5  133.89    8.00
  15  -3  -5  138.19    8.10
 -15  -3   5  153.48    8.90
 -15   3   5  141.89    9.20
 -13  -3   5    1.30    1.10
 -13  -3   5    1.90    1.20
  13  -3  -5    0.90    0.90
 -13   3   5    1.60    1.50
 -11  -3   5  162.78    8.80
  11  -3  -5  177.58    9.10
 -11  -3   5  174.48    9.40
 -11   3   5  169.38    9.50
 -11   3   5  170.28   10.00
  -9  -3   5  219.18   10.70
  -9  -3   5  204.88   10.20
   9  -3  -5  209.28   10.40
  -9   3   5  199.28   10.80
  -9   3   5  216.28   11.40
  -7  -3   5   18.10    2.80
  -7  -3   5   18.40    2.60
   7  -3  -5   16.90    2.40
  -7   3   5   21.70    3.30
  -7   3   5   27.00    3.80
  -5  -3   5   85.99    5.30
   5  -3  -5   83.79    5.40
  -5  -3   5   87.19    5.60
  -5   3   5   82.09    5.70
  -5   3   5  100.09    6.40
  -3  -3   5    0.50    0.80
   3  -3  -5    1.10    1.00
  -3  -3   5    0.90    0.70
  -3   3   5    1.50    1.00
  -3   3   5    0.70    1.10
  -1  -3   5  110.09    6.40
  -1  -3   5  117.79    6.70
   1  -3  -5  116.69    6.70
  -1   3   5  105.79    6.90
  -1   3   5  120.99    7.30
  -1  -3  -5   97.29    6.10
   1  -3   5  103.99    6.10
   1  -3   5   99.39    6.00
   1   3   5   89.19    6.20
   1   3   5   91.59    6.40
  -3  -3  -5  402.16   20.10
   3  -3   5  385.26   16.60
   3  -3   5  306.17   16.10
   3   3   5  398.46   17.40
   5  -3   5   58.69    4.60
  -5  -3  -5   62.59    4.70
   5   3   5   60.09    5.00
  -7  -3  -5   26.80    3.70
   7  -3   5   24.70    3.30
   7  -3   5   21.10    3.10
  -7   3  -5   24.10    3.00
   7   3   5   25.00    3.70
   9  -3   5  138.69    8.30
  -9  -3  -5  135.49    8.30
   9  -3   5  133.19    8.20
  -9   3  -5  140.19    7.60
   9   3   5  141.19    8.70
  11  -3   5  107.79    7.10
 -11  -3  -5  105.49    7.10
  11   3   5  102.39    7.40
 -11   3  -5  103.59    7.80
  13  -3   5  133.59    8.20
 -13  -3  -5  120.79    8.00
  13   3   5  123.19    8.30
 -13   3  -5  105.89    7.40
  15  -3   5    9.60    2.50
 -15  -3  -5   13.20    2.90
  15   3   5   12.20    3.10
  17  -3   5   49.00    6.10
 -17  -3  -5   34.70    5.10
  17   3   5   34.40    4.90
 -19  -3  -5   57.09    6.90
  19  -3   5   41.20    5.60
  19   3   5   73.29   12.80
  21  -3   5   11.20    3.20
  21   3   5   19.00    4.40
  23  -3   5   14.50    4.00
  23   3   5   23.60    5.10
 -24  -4   5    3.70    2.10
 -24   4   5    8.00    3.20
 -22  -4   5   26.80    4.70
 -22   4   5   18.50    3.90
 -20  -4   5   48.40    5.90
 -20   4   5   57.99    6.80
 -18  -4   5  113.09    7.60
 -18  -4   5  120.19    8.00
 -18   4   5  110.89    8.40
  16  -4  -5   79.49    5.80
 -16  -4   5   81.39    6.20
 -16  -4   5   77.69    5.60
 -16   4   5   92.89    7.10
 -14  -4   5   63.89    4.70
 -14  -4   5   64.59    5.20
  14  -4  -5   59.79    4.80
 -14   4   5   68.59    5.90
 -12  -4   5   85.79    6.20
 -12  -4   5   86.09    5.50
  12  -4  -5   86.99    5.80
 -12   4   5   95.69    6.90
  10  -4  -5   57.09    4.50
 -10  -4   5   63.69    4.70
 -10  -4   5   62.49    4.30
 -10   4   5   56.39    5.10
  -8  -4   5  572.94   23.90
   8  -4  -5  553.24   24.20
  -8  -4   5  578.54   24.20
  -8   4   5  606.14   25.50
   6  -4  -5    8.10    1.90
  -6  -4   5    7.60    1.70
  -6  -4   5   10.70    2.00
  -6   4   5   10.20    2.20
   4  -4  -5   40.50    6.10
  -4  -4   5   44.00    3.60
  -4  -4   5   40.60    3.30
  -4   4   5   49.99    4.40
   2  -4  -5   50.59    4.10
  -2  -4   5   51.89    3.70
  -2  -4   5   48.90    3.80
  -2   4   5   47.90    4.40
   0  -4   5   67.29    4.70
   0  -4  -5   74.49    5.10
   0  -4   5   67.59    4.60
   0   4   5   69.49    5.40
   2  -4   5  148.49    7.90
   2  -4   5  143.39    7.80
  -2  -4  -5  144.69    8.20
   2   4   5  148.39    8.70
   4  -4   5  355.46   16.90
  -4  -4  -5  388.46   17.40
   4  -4   5  385.46   17.00
   4   4   5  391.96   17.80
   6  -4   5  194.68   10.10
  -6  -4  -5  194.28   10.40
   6   4   5  188.88   10.70
   8  -4   5    1.60    1.20
   8  -4   5    3.30    1.90
  -8  -4  -5    3.20    1.60
   8   4   5    2.50    1.30
  10  -4   5  327.27   15.70
  10  -4   5  334.87   15.60
 -10  -4  -5  311.97   15.60
  10   4   5  310.37   16.00
  12  -4   5  150.98    8.70
 -12  -4  -5  122.29    8.30
  12  -4   5  131.39    8.60
  12   4   5  141.89    9.00
 -14  -4  -5   16.10    3.20
  14  -4   5   11.20    2.80
  14   4   5   15.00    3.20
  16  -4   5   56.69    5.40
 -16  -4  -5   55.79    5.50
  16   4   5   52.99    6.90
  18  -4   5   38.70    5.40
 -18  -4  -5   32.60    5.10
  18   4   5   41.70    6.20
  20  -4   5    6.20    2.50
 -20  -4  -5    5.80    2.70
  20   4   5    8.60    4.00
  22  -4   5   48.40    6.70
  22   4   5   39.40    6.70
 -25  -5   5    9.70    3.40
 -25   5   5   14.60    4.10
 -23  -5   5   24.60    4.40
 -23   5   5   19.30    4.50
 -21  -5   5    9.70    2.70
 -21   5   5   12.60    3.60
 -19  -5   5  237.58   13.20
 -19   5   5  243.08   14.10
  17  -5  -5   56.49    5.00
 -17  -5   5   71.99    5.60
 -17  -5   5   59.49    4.80
 -17   5   5   72.79    9.30
  15  -5  -5   62.89    5.00
 -15  -5   5   55.99    4.80
 -15  -5   5   53.79    4.30
 -15   5   5   57.39    5.60
 -13  -5   5   68.79    4.80
  13  -5  -5   67.39    5.20
 -13  -5   5   75.79    5.40
 -13   5   5   75.09    6.20
 -11  -5   5  273.57   14.10
 -11  -5   5  266.97   12.60
  11  -5  -5  276.37   13.40
 -11   5   5  281.67   14.40
   9  -5  -5   77.59    5.30
  -9  -5   5   74.79    5.10
  -9  -5   5   75.59    4.80
  -9   5   5   69.39    5.80
  -7  -5   5  183.98    9.50
  -7  -5   5  190.98    9.30
   7  -5  -5  197.78   10.00
  -7   5   5  195.98   10.80
  -5  -5   5  141.29    7.70
   5  -5  -5  165.78    8.60
  -5  -5   5  153.68    8.00
  -5   5   5  163.28    9.30
  -3  -5   5   78.79    5.10
  -3  -5   5   79.19    4.90
   3  -5  -5   92.39    5.80
  -3   5   5   83.69    6.10
   1  -5  -5    5.90    1.50
  -1  -5   5    6.90    1.60
  -1  -5   5    5.90    1.50
  -1   5   5    7.30    2.30
   1  -5   5   52.69    3.90
   1  -5   5   51.49    3.90
   1   5   5   51.49    4.70
   3  -5   5  416.76   17.40
   3  -5   5  382.66   17.30
  -3  -5  -5  387.26   18.00
   3   5   5  390.66   18.40
  -5  -5  -5  128.49    7.90
   5  -5   5  132.29    7.60
   5  -5   5  134.29    7.60
   5   5   5  135.59    8.40
  -7  -5  -5  118.69    7.70
   7  -5   5  129.99    7.50
   7  -5   5  123.49    7.50
   7   5   5  133.09    8.30
  -9  -5  -5  262.27   14.20
   9  -5   5  303.87   15.50
   9   5   5  300.97   14.90
  11  -5   5  129.09    8.10
  11  -5   5  124.39    7.80
 -11  -5  -5  122.89    8.10
  11   5   5  122.79    8.40
  13  -5   5   29.10    4.20
 -13  -5  -5   33.50    4.90
  13   5   5   24.90    4.30
  15  -5   5   45.90    5.70
 -15  -5  -5   44.60    8.20
  15   5   5   46.80    5.90
 -17  -5  -5   58.79    7.00
  17  -5   5   67.59    6.00
  17   5   5   57.89    6.80
 -19  -5  -5    0.60    1.40
  19  -5   5    1.00    1.40
  19   5   5    2.00    1.90
 -21  -5  -5   93.89    8.20
  21  -5   5   73.09    6.90
  21   5   5   55.09    9.40
 -24  -6   5   18.20    4.80
 -24   6   5   14.60    4.10
 -22  -6   5   18.80    3.60
 -22   6   5   21.30    4.90
 -20  -6   5   61.19    5.70
 -20   6   5   51.89    6.70
 -18  -6   5  100.29    6.60
  18  -6  -5   87.79    6.70
 -18  -6   5  104.19    7.20
 -18   6   5   93.79    8.20
 -16  -6   5   96.59    6.70
 -16  -6   5   99.29    6.30
  16  -6  -5   89.19    6.60
 -16   6   5  108.39    8.00
 -14  -6   5   42.10    4.00
  14  -6  -5   43.70    4.20
 -14  -6   5   45.00    3.70
 -14   6   5   36.40    4.70
  12  -6  -5  212.08   11.30
 -12  -6   5  208.88   10.30
 -12  -6   5  210.78   10.80
 -12   6   5  241.48   12.70
 -10  -6   5  220.78   10.30
  10  -6  -5  224.18   11.30
 -10  -6   5  217.48   11.80
 -10   6   5  195.58   11.70
  -8  -6   5    2.20    1.10
   8  -6  -5    0.70    0.80
  -8  -6   5    0.90    0.80
  -8   6   5    3.70    1.60
  -6  -6   5  176.28    8.60
  -6  -6   5  163.48    8.20
   6  -6  -5  168.58    9.20
  -6   6   5  172.38    9.90
   4  -6  -5  397.96   18.40
  -4  -6   5  395.26   17.20
  -4  -6   5  415.56   17.60
  -4   6   5  438.76   19.40
   2  -6  -5    1.90    1.10
  -2  -6   5    1.30    0.90
  -2  -6   5    0.90    0.90
  -2   6   5    0.70    1.20
   0  -6  -5   50.49    4.40
   0  -6   5   50.19    3.70
   0  -6   5   54.49    3.90
   0   6   5   59.89    5.00
  -2  -6  -5  131.79    7.90
   2  -6   5  130.59    7.10
   2  -6   5  130.79    7.10
   2   6   5  132.19    8.20
   4  -6   5  193.18    9.70
   4  -6   5  192.28    9.70
  -4  -6  -5  189.18   10.40
   4   6   5  193.08   10.80
   6  -6   5   77.39    5.40
  -6  -6  -5   87.19    6.10
   6  -6   5   80.59    5.40
   6   6   5   73.99    6.00
  -8  -6  -5  595.04   25.30
   8  -6   5  525.55   26.40
   8  -6   5  565.44   24.50
   8   6   5  581.44   25.50
 -10  -6  -5  124.49    8.10
  10  -6   5  131.49    7.80
  10   6   5  109.99    8.10
 -12  -6  -5   48.00    5.60
  12  -6   5   43.50    5.10
  12  -6   5   53.59    4.80
  12   6   5   60.39    7.10
  14  -6   5   34.00    4.50
 -14  -6  -5   30.60    4.60
  14   6   5   23.60    4.50
  16  -6   5   55.79    5.40
 -16  -6  -5   59.49    5.80
  16   6   5   51.79    6.30
  18  -6   5    0.70    1.50
 -18  -6  -5    0.00    1.10
  18   6   5    2.40    1.90
  20  -6   5  108.09    8.30
 -20  -6  -5  108.79    8.70
  20   6   5   89.19    8.10
  22  -6   5   71.69    6.90
  22   6   5   82.39   14.70
 -23  -7   5   29.90    4.90
 -23   7   5   33.50    5.80
 -21  -7   5   14.90    3.40
 -21   7   5   13.20    3.70
 -19  -7   5   26.00    4.00
  19  -7  -5   24.00    5.20
 -19   7   5   43.00    6.50
  17  -7  -5   93.39    6.80
 -17  -7   5   92.59    6.10
 -17  -7   5   93.59    6.70
 -17   7   5   94.39    7.60
  15  -7  -5   77.99    5.80
 -15  -7   5   65.19    4.80
 -15  -7   5   67.49    5.30
 -15   7   5   71.49    6.40
 -13  -7   5  132.69    7.60
 -13  -7   5  132.99    7.20
  13  -7  -5  135.69    8.30
 -13   7   5  121.29    8.70
  11  -7  -5  144.69    8.40
 -11  -7   5  134.39    7.10
 -11  -7   5  129.89    7.50
 -11   7   5  136.59    9.00
  -9  -7   5   47.60    4.30
  -9  -7   5   51.59    3.50
   9  -7  -5   48.10    4.30
  -9   7   5   39.40    4.80
   7  -7  -5   51.59    4.40
  -7  -7   5   52.09    3.60
  -7  -7   5   52.29    3.80
  -7   7   5   52.69    4.90
  -5  -7   5   53.69    3.60
  -5  -7   5   56.49    3.90
   5  -7  -5   51.49    4.40
  -5   7   5   49.70    4.80
   3  -7  -5  197.38   10.60
  -3  -7   5  207.18    9.60
  -3  -7   5  194.88    9.40
  -3   7   5  207.98   11.30
  -1  -7   5    9.40    1.70
   1  -7  -5    8.50    2.10
  -1  -7   5   10.90    1.90
  -1   7   5   12.90    2.80
   1  -7   5   74.09    4.70
  -1  -7  -5   76.69    5.60
   1  -7   5   62.79    4.40
   1   7   5   76.89    5.90
  -3  -7  -5   47.40    4.40
   3  -7   5   45.90    3.70
   3  -7   5   48.30    3.70
   5  -7   5  182.18    9.50
   5  -7   5  182.68    9.40
  -5  -7  -5  183.98   10.40
   5   7   5  187.48   10.60
  -7  -7  -5  241.78   12.70
   7  -7   5  245.98   12.00
   7  -7   5  233.48   11.70
   7   7   5  238.78   12.90
   9  -7   5  137.29    8.10
  -9  -7  -5  144.99    8.90
   9  -7   5  126.89    9.00
   9   7   5  140.19    9.10
  11  -7   5  102.19    6.60
 -11  -7  -5   87.89    6.80
  11   7   5   79.69    6.70
 -13  -7  -5   49.30    6.10
  13  -7   5   53.89    4.90
  13   7   5   45.50    5.80
  15  -7   5   10.10    2.50
 -15  -7  -5   10.20    3.20
  15   7   5    6.10    2.70
 -17  -7  -5    9.10    2.90
  17  -7   5    8.80    2.70
  17   7   5    6.80    2.70
  19  -7   5   75.59    6.70
 -19  -7  -5   70.69    6.90
  19   7   5   66.39    8.30
  21  -7   5   34.60    5.70
 -21  -7  -5   25.10    5.00
  21   7   5   24.00    4.90
 -24  -8   5   26.50    4.80
 -24   8   5   31.10    6.00
 -22  -8   5    4.50    2.10
 -22   8   5    5.60    2.80
 -20  -8   5    1.40    1.70
 -20   8   5   -0.40    1.40
  18  -8  -5   30.90    4.50
 -18  -8   5   33.60    4.20
 -18  -8   5   36.20    4.60
 -18   8   5   34.30    5.60
  16  -8  -5   54.39    5.00
 -16  -8   5   53.19    4.20
 -16  -8   5   49.30    4.50
 -16   8   5   61.99    7.60
 -14  -8   5   71.79    4.80
 -14  -8   5   72.89    5.30
  14  -8  -5   68.99    5.70
 -14   8   5   82.89    6.80
 -12  -8   5   87.39    5.60
  12  -8  -5   76.69    6.00
 -12  -8   5   83.79    5.10
 -12   8   5   91.59    7.10
 -10  -8   5   93.69    5.30
  10  -8  -5   86.99    6.30
 -10  -8   5   94.69    5.70
 -10   8   5   90.39    7.00
  -8  -8   5   54.89    3.70
  -8  -8   5   54.09    4.00
   8  -8  -5   62.09    5.00
  -8   8   5   56.69    5.30
  -6  -8   5   14.40    2.00
  -6  -8   5   10.90    1.90
   6  -8  -5    9.20    2.00
  -6   8   5    9.20    2.60
  -4  -8   5    7.20    1.40
  -4  -8   5    6.80    1.50
   4  -8  -5    8.00    2.30
  -4   8   5    8.90    2.50
   2  -8  -5   81.49    5.90
  -2  -8   5   76.99    4.70
  -2  -8   5   77.79    4.60
  -2   8   5   90.49    6.50
   0  -8   5   25.70    3.00
   0  -8  -5   22.90    3.10
   0  -8   5   28.10    2.50
   0   8   5   18.50    3.20
   2  -8   5   37.70    3.10
  -2  -8  -5   44.30    4.20
   2  -8   5   34.00    3.00
   2   8   5   33.10    4.50
  -4  -8  -5  113.09    7.60
   4  -8   5  117.19    6.70
   4   8   5  121.89    8.00
   6  -8   5  114.49    6.80
   6  -8   5  107.69    6.60
  -6  -8  -5  118.19    7.80
   6   8   5  118.19    8.00
  -8  -8  -5   39.80    4.90
   8  -8   5   39.40    3.70
   8  -8   5   39.50    3.70
   8   8   5   31.00    4.50
  10  -8   5  110.39    6.90
 -10  -8  -5   93.19    7.20
  10  -8   5   90.39    6.50
  10   8   5  111.89    7.80
  12  -8   5   29.70    4.20
 -12  -8  -5   19.40    3.60
  12   8   5   27.20    4.70
  14  -8   5   26.40    4.00
 -14  -8  -5   30.80    4.70
  14   8   5   25.20    4.60
 -16  -8  -5   17.10    3.80
  16  -8   5   17.60    3.60
  16   8   5   17.60    3.80
 -18  -8  -5   13.30    3.50
  18  -8   5   18.70    3.70
  18   8   5    5.90    2.40
 -20  -8  -5    9.10    3.30
  20  -8   5   11.50    3.40
  20   8   5    3.90    2.60
 -23  -9   5    2.80    2.00
 -23   9   5    0.80    1.90
 -21  -9   5    4.30    1.80
 -21   9   5    3.80    2.50
  19  -9  -5    1.40    1.60
 -19  -9   5   -0.30    1.20
 -19  -9   5    0.70    0.90
 -17  -9   5   14.10    2.80
 -17  -9   5   13.50    2.60
  17  -9  -5   16.80    3.40
 -17   9   5   17.70    4.20
  15  -9  -5   53.29    5.10
 -15  -9   5   50.39    4.30
 -15   9   5   57.19    7.10
  13  -9  -5   38.10    5.00
 -13  -9   5   32.20    2.90
 -13  -9   5   34.70    3.30
 -13   9   5   40.30    6.00
  11  -9  -5   40.90    5.00
 -11  -9   5   43.90    3.50
 -11  -9   5   36.60    3.00
 -11   9   5   42.50    5.50
   9  -9  -5   91.49    6.50
  -9  -9   5   87.99    5.00
  -9  -9   5   87.99    5.30
  -9   9   5   89.39    7.00
  -7  -9   5    0.10    0.70
   7  -9  -5    0.40    1.10
  -7  -9   5    0.80    0.70
  -7   9   5    0.80    1.30
  -5  -9   5    3.70    1.40
  -5  -9   5    5.00    1.20
   5  -9  -5    2.70    1.30
  -5   9   5    1.20    1.30
  -3  -9   5   14.20    2.00
  -3  -9   5   13.40    2.00
   3  -9  -5   14.80    2.80
  -3   9   5   12.90    3.10
  -1  -9   5   57.39    4.50
  -1  -9   5   56.89    3.80
   1  -9  -5   58.39    4.90
  -1   9   5   45.30    5.40
  -1  -9  -5   11.50    2.50
   1  -9   5   21.00    3.80
   1  -9   5   16.70    2.30
   1   9   5   19.40    3.60
   3  -9   5  123.39    6.50
  -3  -9  -5  111.09    8.70
   3  -9   5  113.49    6.40
   3   9   5  112.99    7.90
   5  -9   5   26.50    3.30
  -5  -9  -5   18.10    3.20
   5  -9   5   23.20    3.00
   5   9   5   27.50    4.30
   7  -9   5   15.10    2.50
  -7  -9  -5   20.20    3.60
   7  -9   5   17.20    2.70
   7   9   5   20.60    3.90
   9  -9   5   15.60    2.70
   9  -9   5   19.10    3.20
  -9  -9  -5   16.10    3.50
   9   9   5   18.20    3.60
  11  -9   5   12.30    2.60
 -11  -9  -5   15.20    3.20
  11  -9   5   15.20    2.80
  11   9   5   13.50    3.10
  13  -9   5   11.10    2.80
 -13  -9  -5   18.80    3.80
  13   9   5   14.50    3.60
 -15  -9  -5   14.10    3.60
  15  -9   5   25.70    4.20
  15   9   5   27.50    5.40
  17  -9   5   23.00    3.90
 -17  -9  -5   42.40    6.40
  17   9   5   29.10    5.60
  19  -9   5    3.90    2.10
 -19  -9  -5    3.40    2.30
  19   9   5    2.30    2.10
  21  -9   5   -0.90    1.00
 -21  -9  -5    1.10    1.90
 -22 -10   5    3.60    2.00
 -22  10   5    2.00    2.10
 -20 -10   5   -0.50    1.10
 -20  10   5    1.10    1.80
 -18 -10   5    5.80    2.00
  18 -10  -5    4.80    2.20
 -18 -10   5    3.80    1.50
 -18  10   5    0.60    1.40
 -16 -10   5    1.60    1.10
 -16 -10   5    1.50    1.30
  16 -10  -5    0.10    1.10
 -16  10   5    4.50    2.10
  14 -10  -5   61.99    5.50
 -14 -10   5   60.39    4.50
 -14 -10   5   56.09    4.10
 -14  10   5   68.69    6.30
 -12 -10   5    5.30    1.40
  12 -10  -5    7.30    2.40
 -12 -10   5    5.90    1.60
 -12  10   5    8.70    2.90
 -10 -10   5    2.60    1.00
 -10 -10   5    2.20    1.10
  10 -10  -5    2.40    1.40
 -10  10   5    5.50    2.10
  -8 -10   5   21.10    2.00
  -8 -10   5   23.30    2.70
   8 -10  -5   24.50    4.90
  -8  10   5   14.70    3.10
  -6 -10   5    1.40    0.70
   6 -10  -5    0.00    1.00
  -6 -10   5    1.40    0.80
  -6  10   5    3.00    1.80
   4 -10  -5   16.90    3.20
  -4 -10   5   19.60    1.90
  -4 -10   5   20.50    2.40
  -4  10   5   20.00    3.60
  -2 -10   5    1.60    0.80
  -2 -10   5    1.90    1.10
   2 -10  -5    0.80    1.20
  -2  10   5    2.30    1.60
   0 -10   5    2.60    1.00
   0 -10  -5    4.90    1.80
   0 -10   5    3.90    1.20
   0  10   5    5.50    2.00
  -2 -10  -5   52.99    5.00
   2 -10   5   66.49    5.80
   2 -10   5   58.09    4.00
   2  10   5   60.69    5.50
  -4 -10  -5   -0.40    0.90
   4 -10   5    1.80    0.90
   4 -10   5    0.00    0.70
   4  10   5   -0.30    1.10
   6 -10   5   34.40    3.20
  -6 -10  -5   27.90    4.20
   6  10   5   31.50    4.60
   8 -10   5    0.10    0.70
   8 -10   5    0.30    0.90
  -8 -10  -5    1.00    1.20
   8  10   5   -0.30    0.80
  10 -10   5    3.60    1.50
 -10 -10  -5    6.20    2.20
  10 -10   5    8.00    2.20
  10  10   5    6.60    2.20
 -12 -10  -5    0.10    1.10
  12 -10   5    1.50    1.20
  12 -10   5    0.60    1.10
  12  10   5    1.30    1.70
  14 -10   5    5.20    1.90
 -14 -10  -5    2.40    1.70
  14  10   5    9.00    3.10
 -16 -10  -5    4.00    2.20
  16 -10   5    1.40    1.40
  16  10   5    2.20    1.90
 -18 -10  -5   32.80    5.20
  18 -10   5   29.30    4.60
  18  10   5   41.20    6.50
 -20 -10  -5   53.99    7.80
  20 -10   5   35.00    6.00
 -21 -11   5    2.10    1.60
 -21  11   5    0.60    1.80
  19 -11  -5    7.80    2.70
 -19 -11   5   16.70    3.00
 -19 -11   5   11.70    2.50
 -19  11   5    9.90    3.20
 -17 -11   5    0.40    0.90
  17 -11  -5   -0.10    1.20
 -17 -11   5    2.00    1.30
 -17  11   5   -0.90    1.00
 -15 -11   5   -0.20    0.60
  15 -11  -5    0.60    1.20
 -15 -11   5    0.60    1.00
 -15  11   5    2.10    1.80
 -13 -11   5   36.80    3.30
 -13 -11   5   36.60    3.00
  13 -11  -5   33.20    5.00
 -13  11   5   35.80    5.60
 -11 -11   5    0.80    0.90
  11 -11  -5    0.00    0.90
 -11 -11   5    1.60    0.90
 -11  11   5    0.80    1.40
  -9 -11   5    9.30    1.70
   9 -11  -5   11.30    2.50
  -9 -11   5    8.80    1.50
  -9  11   5    8.60    2.80
  -7 -11   5    1.30    0.80
  -7 -11   5    1.30    0.70
   7 -11  -5    1.70    1.30
  -7  11   5   -0.40    1.10
  -5 -11   5    7.90    1.40
  -5 -11   5   10.00    1.50
   5 -11  -5    5.30    1.90
  -5  11   5    6.60    2.50
  -3 -11   5    3.20    1.00
   3 -11  -5    3.90    1.70
  -3 -11   5    2.90    0.90
  -3  11   5    4.00    1.80
  -1 -11   5   -0.40    0.60
   1 -11  -5    0.90    1.10
  -1 -11   5   -0.50    0.40
  -1  11   5    0.70    1.10
  -1 -11  -5    1.30    1.30
   1 -11   5    0.10    0.60
   1 -11   5    0.80    0.70
   1  11   5    0.40    1.20
  -3 -11  -5   33.70    4.60
   3 -11   5   30.50    2.80
   3 -11   5   33.20    2.90
   3  11   5   37.10    5.30
  -5 -11  -5    3.20    1.70
   5 -11   5    5.00    1.50
   5  11   5    4.50    2.20
   7 -11   5    1.70    1.10
   7 -11   5    2.30    1.10
  -7 -11  -5    1.20    1.50
   7  11   5    1.60    1.40
  -9 -11  -5    9.90    2.90
   9 -11   5    4.60    1.70
   9 -11   5    8.10    1.90
   9  11   5    5.10    2.10
  11 -11   5    5.00    1.70
 -11 -11  -5    2.20    1.70
  11 -11   5    3.10    1.50
  11  11   5    4.20    2.30
  13 -11   5   14.10    2.90
 -13 -11  -5   17.60    4.10
  13  11   5   16.20    3.80
 -15 -11  -5    3.30    2.00
  15 -11   5    3.80    1.90
  15  11   5    1.30    1.80
 -17 -11  -5    4.80    4.30
  17 -11   5    5.10    2.30
  17  11   5    7.10    3.20
 -19 -11  -5    0.80    1.40
  19 -11   5   -0.30    1.80
  20 -12  -5   15.80    4.50
 -20 -12   5   15.70    3.90
 -20  12   5   13.50    4.70
 -18 -12   5   25.20    3.30
 -18 -12   5   25.80    3.60
  18 -12  -5   25.80    4.60
 -18  12   5   26.20    5.00
 -16 -12   5    2.50    1.20
  16 -12  -5    9.80    3.10
 -16 -12   5    5.20    1.70
 -16  12   5    3.90    2.30
 -14 -12   5    1.40    0.80
 -14 -12   5    2.70    1.30
  14 -12  -5    3.20    2.00
 -14  12   5    1.90    1.70
 -12 -12   5    5.60    1.50
 -12 -12   5    5.50    1.30
  12 -12  -5    4.00    2.00
 -12  12   5    1.80    1.70
 -10 -12   5    4.90    1.20
  10 -12  -5    3.10    1.80
 -10 -12   5    2.10    0.90
 -10  12   5    4.00    2.00
   8 -12  -5   71.89    6.10
  -8 -12   5   80.69    4.20
  -8 -12   5   78.19    4.30
  -8  12   5   79.79    6.80
   6 -12  -5    3.60    1.70
  -6 -12   5    5.80    1.20
  -6 -12   5    6.40    1.10
  -6  12   5    4.90    1.90
  -4 -12   5   12.40    1.60
   4 -12  -5   11.10    2.60
  -4 -12   5   13.90    1.70
  -4  12   5   17.90    3.80
   2 -12  -5    1.10    1.30
  -2 -12   5    0.90    0.80
  -2 -12   5    0.30    0.60
  -2  12   5    1.60    1.30
   0 -12   5   21.40    2.40
   0 -12   5   16.90    2.10
   0 -12  -5   15.30    3.30
   0  12   5   16.90    3.40
  -2 -12  -5  164.88    9.90
   2 -12   5  163.48    7.80
   2 -12   5  149.49    7.70
   2  12   5  149.29    9.80
   4 -12   5    5.90    1.40
  -4 -12  -5    1.50    1.50
   4 -12   5    5.70    1.50
   4  12   5    1.00    1.40
   6 -12   5    2.40    1.20
  -6 -12  -5    2.00    1.60
   6 -12   5    2.70    1.20
   6  12   5    0.90    1.40
  -8 -12  -5   36.40    5.00
   8 -12   5   34.90    4.20
   8 -12   5   33.80    3.40
   8  12   5   41.00    5.60
  10 -12   5   83.49    5.70
 -10 -12  -5   68.69    6.40
  10 -12   5   67.69    5.40
  10  12   5   71.19    6.50
 -12 -12  -5    3.90    2.10
  12 -12   5    5.70    1.90
  12  12   5    8.10    2.90
  14 -12   5   28.10    4.40
 -14 -12  -5   33.40    5.90
  14  12   5   26.00    4.70
 -16 -12  -5   30.00    5.60
  16 -12   5   24.40    4.30
 -18 -12  -5   23.20    4.60
  18 -12   5   27.10    6.70
 -19 -13   5   31.50    6.10
  19 -13  -5   24.00    4.70
 -19  13   5   33.60    5.50
 -17 -13   5   40.00    3.80
  17 -13  -5   44.80    6.30
 -17 -13   5   39.30    3.50
 -17  13   5   38.80    6.50
  15 -13  -5    9.00    3.00
 -15 -13   5   11.70    2.30
 -15 -13   5   13.70    2.20
 -15  13   5   12.40    3.60
 -13 -13   5   22.00    2.80
 -13 -13   5   23.00    2.20
  13 -13  -5   22.70    3.90
 -13  13   5   22.30    4.40
  11 -13  -5   58.69    6.80
 -11 -13   5   38.50    2.80
 -11 -13   5   40.60    3.00
 -11  13   5   47.90    6.40
  -9 -13   5   16.30    1.90
  -9 -13   5   18.50    1.80
   9 -13  -5   15.50    3.40
  -9  13   5   18.40    4.10
  -7 -13   5   23.30    1.80
  -7 -13   5   24.50    1.90
   7 -13  -5   18.70    3.40
  -7  13   5   16.60    3.40
  -5 -13   5   60.39    3.30
  -5 -13   5   58.69    3.20
   5 -13  -5   59.19    5.50
  -5  13   5   62.79    5.90
  -3 -13   5    0.90    0.60
   3 -13  -5    1.10    1.50
  -3 -13   5    1.10    0.70
  -3  13   5    0.30    1.30
  -1 -13   5   64.39    3.80
  -1 -13   5   66.89    3.80
   1 -13  -5   69.89    5.90
  -1  13   5   64.19    6.00
  -1 -13  -5   53.89    5.40
   1 -13   5   64.89    3.90
   1  13   5   57.89    5.80
   3 -13   5  197.58    8.90
  -3 -13  -5  176.58   10.90
   3 -13   5  174.98    8.80
   3  13   5  184.68   12.20
  -5 -13  -5    2.80    1.80
   5 -13   5    0.10    0.60
   5 -13   5    1.90    1.00
   5  13   5    1.10    2.90
  -7 -13  -5   11.40    2.90
   7 -13   5   15.50    2.60
   7 -13   5   14.80    2.50
   9 -13   5  108.59    7.00
   9 -13   5  110.69    7.00
  -9 -13  -5  123.79    8.80
   9  13   5  123.49   11.00
  11 -13   5   35.10    4.40
 -11 -13  -5   27.50    4.80
  11 -13   5   27.00    3.80
  11  13   5   27.30    4.70
 -13 -13  -5    6.90    3.40
  13 -13   5    6.80    2.00
  13  13   5    0.90    1.70
 -15 -13  -5   51.69    6.50
  15 -13   5   55.39    5.20
 -17 -13  -5   74.19    8.80
  17 -13   5   84.49    7.10
  18 -14  -5   75.89    7.10
 -18 -14   5   87.39    5.50
 -18 -14   5   81.29    8.10
 -18  14   5   94.89    8.40
 -16 -14   5   42.40    3.60
  16 -14  -5   42.60    5.90
 -16 -14   5   35.10    3.10
 -16  14   5   40.20    6.80
 -14 -14   5   62.09    4.20
 -14 -14   5   58.19    3.80
  14 -14  -5   58.89    6.80
 -14  14   5   52.29    7.10
 -12 -14   5   30.40    2.40
  12 -14  -5   37.20    5.70
 -12 -14   5   32.60    2.70
 -12  14   5   32.80    5.00
  10 -14  -5   61.39    7.10
 -10 -14   5   56.79    3.40
 -10 -14   5   54.89    3.20
 -10  14   5   65.39    6.30
  -8 -14   5   25.60    1.90
  -8 -14   5   25.10    1.70
   8 -14  -5   19.70    4.00
  -8  14   5   14.90    3.20
  -6 -14   5   24.50    1.70
   6 -14  -5   24.90    4.30
  -6 -14   5   22.80    1.60
  -6  14   5   31.40    4.80
   4 -14  -5   41.40    5.80
  -4 -14   5   36.70    2.20
  -4 -14   5   37.90    2.20
  -4  14   5   38.30    5.20
   2 -14  -5   84.39    6.70
  -2 -14   5   80.09    4.00
  -2  14   5   67.89    6.70
   0 -14  -5   20.90    3.80
   0 -14   5   24.60    2.10
   0 -14   5   26.90    2.20
   0  14   5   22.00    4.40
  -2 -14  -5  152.58   10.10
   2 -14   5  167.18    7.90
   2 -14   5  164.78    7.90
   2  14   5  171.58   10.70
   4 -14   5   16.40    2.40
  -4 -14  -5   12.80    3.30
   4 -14   5   12.70    2.20
   4  14   5    8.40    2.60
  -6 -14  -5   26.00    4.40
   6 -14   5   30.00    2.90
   6 -14   5   29.40    3.50
   6  14   5   21.20    4.10
  -8 -14  -5   35.30    5.70
   8 -14   5   36.90    3.50
   8 -14   5   34.30    3.40
   8  14   5   31.90    4.80
  10 -14   5   76.59    7.00
  10 -14   5   75.29    5.50
  10  14   5   69.19    6.70
  12 -14   5   53.79    4.70
 -12 -14  -5   43.00    6.30
  14 -14   5    3.90    1.80
 -14 -14  -5   -0.50    1.40
 -16 -14  -5   53.99    7.10
  16 -14   5   41.10    5.20
 -17 -15   5   93.49    5.60
 -15 -15   5   83.69    5.20
 -15 -15   5   80.89    4.80
  15 -15  -5   82.19    7.30
 -15  15   5   83.29    7.80
 -13 -15   5   26.90    2.40
  13 -15  -5   14.30    3.40
 -13 -15   5   22.90    2.10
 -13  15   5   20.10    4.30
 -11 -15   5   88.89    4.70
  11 -15  -5  101.59    7.70
 -11 -15   5   95.29    4.60
 -11  15   5   98.19    8.10
  -9 -15   5   51.59    2.60
   9 -15  -5   60.49    5.70
  -9 -15   5   49.70    2.70
  -9  15   5   46.10    6.30
   7 -15  -5    7.50    2.40
  -7  15   5    8.00    2.40
   5 -15  -5   74.09    6.40
  -5  15   5   64.89    7.60
  -3 -15   5   73.59    3.60
   3 -15  -5   81.39    6.70
  -3 -15   5   70.29    3.30
  -3  15   5   70.09    6.60
  -1 -15   5   53.39    3.10
   1 -15  -5   60.79    5.70
  -1 -15   5   52.49    3.00
  -1  15   5   64.49    6.00
   1 -15   5   64.69    3.80
   1 -15   5   62.59    3.70
  -1 -15  -5   67.69    6.10
   1  15   5   60.99    6.00
   3 -15   5   21.80    2.60
  -3 -15  -5   28.60    4.50
   3 -15   5   25.70    2.90
   3  15   5   17.40    4.00
  -5 -15  -5   68.49    6.30
   5 -15   5   61.19    4.40
   5 -15   5   67.59    4.50
   5  15   5   75.49    6.60
  -7 -15  -5   60.99    9.40
   7 -15   5   61.59    4.60
   7 -15   5   66.89    4.70
   7  15   5   65.89    6.30
  -9 -15  -5   88.59    7.60
   9 -15   5   90.49    6.10
   9 -15   5   85.19    5.90
 -11 -15  -5   30.90    4.90
  11 -15   5   31.50    4.10
 -13 -15  -5   42.20    5.90
  13 -15   5   47.60    5.60
 -15 -15  -5    5.60    2.70
  15 -15   5    7.30    2.40
  16 -16  -5   30.40    4.80
 -16 -16   5   25.00    4.10
 -16 -16   5   32.90    2.70
  14 -16  -5   23.10    4.30
 -14 -16   5   22.20    2.60
 -14 -16   5   27.30    2.20
  12 -16  -5   91.99   11.40
 -12 -16   5   95.89    4.60
 -12 -16   5   97.09    4.80
 -12  16   5   92.19    8.70
 -10 -16   5   53.99    2.40
 -10 -16   5   50.29    2.40
  10 -16  -5   39.50    5.60
 -10  16   5   54.99    7.20
   8 -16  -5   47.20    6.50
  -8  16   5   36.40    5.40
   6 -16  -5   32.90    4.70
  -6  16   5   37.40    6.30
   4 -16  -5  129.89    9.10
  -4  16   5  124.39    9.20
  -2 -16   5   18.30    1.20
  -2 -16   5   16.40    1.20
   2 -16  -5   19.20    3.90
  -2  16   5    9.20    2.80
   0 -16   5   31.90    3.80
   0 -16  -5   27.20    4.80
   0 -16   5   29.60    2.10
   0  16   5   27.20    4.50
  -2 -16  -5   54.39   10.90
   2 -16   5   45.60    3.10
   2 -16   5   44.70    3.20
   2  16   5   51.59    6.70
  -4 -16  -5   89.69    7.30
   4 -16   5   78.09    4.90
   4 -16   5   75.99    4.70
   4  16   5   86.59   13.00
   6 -16   5   73.09    4.80
  -6 -16  -5   68.79    6.60
   6 -16   5   66.19    4.80
   8 -16   5  144.89    8.40
  -8 -16  -5  152.28   10.50
   8 -16   5  151.98    8.30
  10 -16   5   44.20    4.30
 -10 -16  -5   39.30    6.10
  10 -16   5   48.60    4.30
 -12 -16  -5   16.60    3.90
  12 -16   5   11.30    3.30
 -14 -16  -5   28.40    5.70
  14 -16   5   23.20    3.80
 -15 -17   5   16.40    2.70
  15 -17  -5   14.20    3.90
 -15 -17   5   20.20    2.00
  13 -17  -5   67.29    6.50
 -13 -17   5   59.69    3.20
 -13 -17   5   60.49    3.30
  11 -17  -5   64.39    6.30
   9 -17  -5   16.80    3.60
   7 -17  -5   66.19    6.30
   5 -17  -5   35.00    5.60
   3 -17  -5   60.89    6.00
  -1 -17   5   13.60    1.00
  -1 -17   5   13.00    1.00
   1 -17  -5   14.70    3.70
   1 -17   5    2.40    0.90
  -1 -17  -5    1.30    1.50
   1 -17   5    2.00    0.80
   3 -17   5   86.19    6.00
   3 -17   5   92.09    5.00
  -3 -17  -5   85.19    7.40
   5 -17   5   86.79    5.40
   5 -17   5   89.39    5.30
  -5 -17  -5   93.29    7.80
  -7 -17  -5  102.29    8.20
   7 -17   5   96.99    6.00
   7 -17   5   88.29    5.90
  -9 -17  -5   56.99    7.30
   9 -17   5   45.70    4.30
   9 -17   5   55.69    4.50
  11 -17   5   49.30    4.60
 -11 -17  -5   54.69    7.40
  12 -18  -5   45.10    6.80
  10 -18  -5   48.30    6.80
   8 -18  -5   15.70    3.70
   6 -18  -5   29.50    5.00
   4 -18  -5   41.40    6.10
   2 -18  -5   26.70    4.70
   0 -18  -5   22.60    4.40
   0 -18   5   20.40    1.40
   0 -18   5   21.90    1.40
   2 -18   5    4.60    1.10
   2 -18   5    5.20    1.10
  -2 -18  -5    9.10    3.10
  -4 -18  -5  127.09    9.50
   4 -18   5  128.19    6.60
   4 -18   5  126.59    6.70
   6 -18   5   76.59    5.50
  -6 -18  -5   80.49    7.30
   6 -18   5   79.49    5.10
   8 -18   5   38.70    4.50
  -8 -18  -5   39.30    5.90
   8 -18   5   43.30    6.40
  10 -18   5   12.80    2.60
 -10 -18  -5   19.60    4.80
   9 -19  -5   13.00    3.20
   7 -19  -5    2.20    1.50
   5 -19  -5    2.60    2.00
   3 -19  -5   87.69    7.60
   1 -19  -5    1.90    2.00
   1 -19   5   16.90    1.30
   1 -19   5   13.90    1.30
  -1 -19  -5   14.40    3.60
   3 -19   5    1.40    0.90
  -3 -19  -5    0.00    1.80
   3 -19   5    1.20    0.70
   5 -19   5   43.50    3.80
  -5 -19  -5   41.90    5.90
   5 -19   5   42.90    3.50
   7 -19   5  103.49    6.00
  -7 -19  -5   86.49    7.90
   7 -19   5   92.19    6.00
   6 -20  -5    5.90    2.80
   4 -20  -5    7.30    2.60
   2 -20  -5   33.80    5.40
   0 -20  -5    4.50    2.40
   2 -20   5    0.60    0.50
  -2 -20  -5   -0.40    1.20
   2 -20   5    0.10    0.50
   4 -20   5    8.70    1.60
  -4 -20  -5    3.10    2.00
   4 -20   5    4.40    1.20
 -22   0   6   16.10    4.00
 -20   0   6   67.69    6.70
 -18   0   6   94.99    7.70
 -16   0   6   10.90    2.90
 -14   0   6   27.90    4.30
 -12   0   6  408.56   19.60
 -10   0   6    1.00    1.10
 -10   0   6    1.60    1.40
  -8   0   6   78.69    6.00
  -8   0   6   75.99    5.70
  -6   0   6    0.60    1.20
  -6   0   6    1.30    1.10
  -4   0   6  105.69    7.60
  -4   0   6  110.09    7.10
  -2   0   6  102.39    6.90
  -2   0   6   84.99    6.20
   0   0  -6  664.43   28.20
   0   0   6  681.13   29.30
   0   0   6  727.33   29.70
  -2   0  -6  166.38    8.80
   2   0   6  152.18    9.40
   2   0   6  189.58   10.20
   4   0   6    9.30    2.60
  -4   0  -6    5.90    1.80
   6   0   6  216.18   14.10
  -6   0  -6  193.58   10.50
   6   0   6  215.48   12.00
   8   0   6   61.29    5.50
  10   0   6   46.00    6.00
  12   0   6   35.60    4.90
  14   0   6   37.40    5.40
  16   0   6  100.99    8.20
  18   0   6   95.19    8.10
  20   0   6   99.29    8.60
 -23  -1   6   30.90    7.50
 -23   1   6   28.80    5.30
 -21  -1   6   79.69    7.40
 -21   1   6   91.89    7.90
 -19  -1   6   71.99    6.70
 -19   1   6   69.39    6.70
 -17  -1   6   23.20    4.00
 -17   1   6   38.10    5.90
 -15  -1   6  101.09    7.50
 -15   1   6   93.69    7.50
 -13  -1   6   44.90    5.70
 -13   1   6   38.20    5.30
 -11  -1   6   95.29    7.00
 -11   1   6   98.29    7.30
  -9  -1   6   46.40    4.50
  -9   1   6   50.09    4.80
  -9   1   6   32.20    4.00
   7  -1  -6   18.10    2.60
  -7  -1   6   16.80    3.10
  -7   1   6   10.60    2.20
  -7   1   6   20.20    4.90
  -5  -1   6   29.80    4.00
   5  -1  -6   27.80    3.30
  -5   1   6   29.00    4.10
  -5   1   6   25.30    3.60
   3  -1  -6   43.80    3.60
  -3   1   6   41.70    5.00
  -3   1   6   36.70    4.40
  -1  -1   6  614.54   27.10
  -1  -1   6  547.65   25.10
  -1   1   6  560.54   25.20
  -1   1   6  600.74   25.70
  -1  -1  -6   93.09    5.90
   1  -1   6   97.59    8.80
   1  -1   6   89.39    6.40
   1   1   6   99.29    6.90
   1   1   6   88.39    6.70
  -3  -1  -6   89.19    5.90
   3  -1   6   87.39    6.40
   3  -1   6   98.09    8.40
   3   1   6  103.99    7.00
   3   1   6   79.79    6.30
  -5  -1  -6   38.00    3.70
   5  -1   6   39.00    4.70
   5  -1   6   42.00    5.10
   5   1   6   41.40    4.90
   5   1   6   35.50    5.20
  -7  -1  -6   88.89    6.30
   7  -1   6   97.59    7.00
   9  -1   6   50.99    4.90
  -9  -1  -6   53.49    7.10
   9   1   6   41.10    5.20
  11  -1   6    8.80    2.80
  11   1   6    9.60    2.80
  13  -1   6   58.29    5.70
  13   1   6   50.79    6.70
  15  -1   6   45.20    6.00
  15   1   6   48.00    6.70
  17  -1   6   58.09    6.90
  17   1   6   56.59    6.80
  19  -1   6  140.99   10.50
  19   1   6  158.08   10.90
 -22  -2   6  128.29    9.70
 -22   2   6  119.69    9.70
 -20  -2   6   56.49    7.20
 -20   2   6   62.39    7.80
 -18  -2   6   25.60    4.60
 -18   2   6   26.40    4.90
 -16  -2   6   83.19    6.90
 -16   2   6   88.89    7.30
 -14  -2   6   89.89    6.90
 -14   2   6   86.79    7.10
 -12  -2   6   10.90    2.70
 -12   2   6    5.20    1.90
 -10  -2   6   57.99    4.90
 -10  -2   6   71.99    5.60
 -10   2   6   73.29    6.10
  -8  -2   6  125.79    7.90
  -8  -2   6  119.59    7.50
  -8   2   6  150.98   10.90
  -8   2   6  114.49    7.80
  -6  -2   6    6.00    2.00
  -6  -2   6    5.80    1.70
   6  -2  -6    5.70    1.70
  -6   2   6    4.40    1.80
  -6   2   6    5.30    2.00
  -4  -2   6   45.50    4.40
   4  -2  -6   46.70    3.90
  -4  -2   6   51.19    4.20
  -4   2   6   53.59    5.00
  -4   2   6   44.40    4.40
  -2  -2   6  221.38   11.60
   2  -2  -6  228.88   11.00
  -2   2   6  223.78   12.00
  -2   2   6  199.18   11.40
   0  -2  -6   62.99    4.70
   0  -2   6   61.89    5.20
   0   2   6   67.49    5.50
   0   2   6   61.99    5.20
  -2  -2  -6   43.10    3.90
   2  -2   6   54.29    4.70
   2   2   6   46.90    5.70
   2   2   6   45.50    5.40
  -4  -2  -6  112.09    7.10
   4  -2   6  120.79    7.70
   4  -2   6  104.19    7.30
   4   2   6  119.79    7.90
   6  -2   6   84.99    6.50
   6  -2   6   93.49    6.70
  -6  -2  -6   90.79    6.30
   6   2   6   95.09    7.00
   8  -2   6   30.10    4.50
  -8  -2  -6   33.60    4.20
   8   2   6   25.80    4.60
  10  -2   6    1.60    1.50
 -10  -2  -6    0.70    1.10
  10   2   6    1.30    1.40
  12  -2   6   35.10    5.20
  12   2   6   37.00    5.50
  14  -2   6   31.40    5.00
  14   2   6   22.30    4.30
  16  -2   6   45.50    6.30
  16   2   6   49.50    6.70
  18  -2   6   41.90    5.90
  18   2   6   50.59    7.00
  20  -2   6   86.39    8.00
  20   2   6   93.29    8.30
 -23  -3   6   14.20    3.70
 -23   3   6   15.00    4.30
 -21  -3   6   65.69    6.40
 -21   3   6   57.59    7.20
 -19  -3   6   35.10    5.20
 -19   3   6   33.90    5.40
 -17  -3   6   38.10    4.90
 -17   3   6   48.80    6.80
 -15  -3   6   22.70    4.10
 -15   3   6   22.80    4.40
 -13  -3   6   10.50    2.60
 -13  -3   6   13.90    2.60
 -13   3   6   14.20    3.40
 -11  -3   6    1.20    1.20
 -11  -3   6    0.40    0.80
 -11   3   6   -1.60    0.90
  -9  -3   6   10.00    2.30
   9  -3  -6   13.30    2.50
  -9  -3   6   15.10    2.80
  -9   3   6    8.00    2.90
  -7  -3   6  102.39    6.60
   7  -3  -6   89.09    5.90
  -7  -3   6   85.09    6.00
  -7   3   6   91.39    6.90
  -7   3   6  105.79    9.10
  -5  -3   6   36.80    4.30
  -5  -3   6   34.00    3.40
   5  -3  -6   34.00    4.00
  -5   3   6   36.50    5.00
  -5   3   6   32.60    4.80
  -3  -3   6   85.39    6.10
   3  -3  -6   88.19    5.80
  -3  -3   6   88.19    5.90
  -3   3   6   93.39    6.80
   1  -3  -6    4.90    1.60
  -1  -3   6    9.10    2.30
  -1  -3   6    9.10    2.80
  -1   3   6    6.90    2.10
  -1  -3  -6   64.89    5.00
   1  -3   6   74.49    5.40
   1  -3   6   59.69    4.90
   1   3   6   69.09    5.80
  -3  -3  -6    7.00    1.80
   3  -3   6   12.30    2.70
   3   3   6   14.80    2.90
  -5  -3  -6  181.28   10.20
   5  -3   6  190.78   10.50
   5   3   6  188.98   11.00
  -7  -3  -6   35.90    5.00
   7  -3   6   31.10    4.60
   7  -3   6   25.30    3.90
   7   3   6   33.50    4.60
  -9  -3  -6    6.60    2.00
   9  -3   6   10.30    2.70
   9   3   6    6.10    2.20
 -11  -3  -6    5.10    2.00
  11  -3   6    7.60    2.60
  11   3   6    8.80    2.80
  13  -3   6   25.50    4.60
  13   3   6   16.50    3.90
  15  -3   6   19.60    3.90
  15   3   6   18.80    3.90
  17  -3   6   16.40    4.10
  17   3   6   19.00    4.60
  19  -3   6   31.20    5.50
  19   3   6   35.80    5.90
 -22  -4   6   34.50    7.30
 -22   4   6   30.60    5.40
 -20  -4   6   16.60    3.50
 -20   4   6   18.60    4.50
 -18  -4   6   18.90    3.80
 -18   4   6   31.90    5.60
 -16  -4   6    2.40    1.70
 -16   4   6    3.40    2.10
 -14  -4   6    6.10    1.90
 -14  -4   6    9.80    2.60
 -14   4   6   13.80    3.50
 -12  -4   6    3.40    1.60
 -12  -4   6    2.80    1.40
 -12   4   6    3.60    2.00
  10  -4  -6    0.80    0.90
 -10  -4   6    0.30    0.70
 -10  -4   6   -0.50    0.90
 -10   4   6    0.70    1.10
  -8  -4   6    3.20    1.50
   8  -4  -6    4.90    1.70
  -8  -4   6    1.90    1.10
  -8   4   6    5.10    2.00
  -6  -4   6  146.39    8.30
   6  -4  -6  140.29    8.10
  -6  -4   6  145.39    8.00
  -6   4   6  131.29    8.90
  -4  -4   6    5.20    1.60
  -4  -4   6    6.70    2.00
   4  -4  -6   10.20    2.30
  -4   4   6    9.30    2.40
  -2  -4   6   28.10    3.70
  -2  -4   6   28.70    3.50
   2  -4  -6   24.00    3.80
  -2   4   6   24.00    3.80
   0  -4  -6    0.50    1.00
   0  -4   6    0.00    1.00
   0  -4   6   -0.10    0.60
   0   4   6   -1.00    0.80
  -2  -4  -6   18.00    3.00
   2  -4   6   14.50    2.70
   2  -4   6   18.10    3.00
   2   4   6   16.80    3.10
   4  -4   6   46.10    4.30
  -4  -4  -6   49.30    4.50
   4  -4   6   47.10    4.30
   4   4   6   53.59    5.10
   6  -4   6    8.60    2.90
   6  -4   6   11.60    2.50
  -6  -4  -6   11.00    2.60
   6   4   6   15.70    3.60
  -8  -4  -6    0.90    1.30
   8  -4   6    1.40    1.20
   8  -4   6    2.70    1.60
   8   4   6    1.10    1.20
 -10  -4  -6   21.90    3.80
  10  -4   6   28.40    4.40
  10   4   6   23.20    4.10
 -12  -4  -6    3.70    1.90
  12  -4   6    4.10    2.00
  12   4   6    7.90    2.90
  14  -4   6    2.40    1.80
  14   4   6    6.80    2.80
  16  -4   6    1.80    1.50
  16   4   6    0.30    1.50
  18  -4   6   11.70    3.30
  18   4   6   10.40    3.40
 -21  -5   6    0.30    1.50
 -21   5   6    0.60    1.60
 -19  -5   6    7.20    2.50
 -19   5   6   12.90    3.90
 -17  -5   6    3.10    1.70
 -17   5   6    8.90    3.30
 -15  -5   6    2.90    1.50
 -15  -5   6    2.80    1.50
 -15   5   6    0.80    1.30
 -13  -5   6    7.10    2.10
 -13  -5   6    6.10    1.80
 -13   5   6   12.80    3.40
 -11  -5   6    2.00    1.40
 -11  -5   6    1.70    1.20
  11  -5  -6    3.20    1.60
 -11   5   6    3.40    2.10
  -9  -5   6    0.60    0.80
   9  -5  -6    0.60    1.00
  -9  -5   6    1.60    1.10
  -9   5   6   -0.70    1.20
  -7  -5   6    5.20    1.60
  -7  -5   6    4.60    1.70
   7  -5  -6    3.80    1.50
  -7   5   6    2.10    1.70
   5  -5  -6   21.70    3.30
  -5  -5   6   20.00    2.90
  -5  -5   6   20.50    3.20
  -5   5   6   25.20    4.00
  -3  -5   6    9.10    2.10
  -3  -5   6    8.30    1.90
   3  -5  -6   10.40    2.70
  -3   5   6    8.90    2.60
  -1  -5   6    6.30    1.80
   1  -5  -6    9.10    2.30
  -1  -5   6    5.10    1.70
  -1   5   6    6.50    2.10
   1  -5   6    9.30    2.10
  -1  -5  -6   15.80    3.10
   1  -5   6    9.00    2.10
   1   5   6   11.00    2.70
  -3  -5  -6   13.10    2.70
   3  -5   6   13.40    2.60
   3  -5   6   11.70    2.40
   3   5   6   14.20    3.10
   5  -5   6    8.70    2.30
   5  -5   6    3.90    1.70
  -5  -5  -6    5.20    1.80
   5   5   6    7.70    2.70
  -7  -5  -6    0.30    0.90
   7  -5   6    0.70    0.90
   7  -5   6   -1.00    0.80
   7   5   6    0.40    1.20
  -9  -5  -6    3.80    1.70
   9  -5   6    1.90    1.60
   9   5   6    2.90    1.60
  11  -5   6    2.80    1.90
 -11  -5  -6    2.70    1.70
  11   5   6    4.30    2.20
 -13  -5  -6    7.00    2.40
  13  -5   6    1.90    1.60
  13   5   6    2.40    2.00
  15  -5   6   13.60    3.50
  15   5   6   17.70    3.70
  17  -5   6    0.90    1.50
  17   5   6   -1.00    1.20
  19  -5   6    0.30    1.50
  19   5   6    0.20    1.60
 -22  -6   6   13.90    3.70
 -22   6   6   19.40    4.70
 -20  -6   6   -1.50    1.10
 -20   6   6    8.20    3.10
 -18  -6   6   -1.10    1.00
 -18   6   6    1.30    1.70
 -16  -6   6    1.50    1.30
 -16   6   6   -0.60    1.10
 -14  -6   6    7.60    2.20
 -14  -6   6    2.90    1.40
 -14   6   6    6.40    2.60
 -12  -6   6    1.30    1.00
  12  -6  -6    0.00    1.10
 -12  -6   6    0.10    1.00
 -12   6   6   -0.70    0.90
 -10  -6   6   10.10    2.40
  10  -6  -6    8.50    2.40
 -10  -6   6    9.50    2.10
 -10   6   6   11.10    3.00
  -8  -6   6   14.20    2.50
   8  -6  -6   13.00    2.70
  -8  -6   6   17.60    2.70
  -8   6   6   16.60    3.60
   6  -6  -6    0.90    1.20
  -6  -6   6    1.60    1.20
  -6  -6   6    2.10    1.00
  -6   6   6    3.70    1.70
  -4  -6   6    0.60    0.90
  -4  -6   6    0.50    0.80
   4  -6  -6   -0.40    0.70
  -4   6   6    0.00    1.10
   2  -6  -6   34.60    4.40
  -2  -6   6   25.60    3.40
  -2  -6   6   23.70    3.30
  -2   6   6   23.30    3.80
   0  -6   6    5.30    1.60
   0  -6  -6    4.90    1.90
   0  -6   6    4.30    1.60
   0   6   6    6.00    2.30
  -2  -6  -6    0.70    1.10
   2  -6   6    0.90    0.90
   2  -6   6   -0.60    0.80
   2   6   6    1.20    1.30
   4  -6   6   15.20    2.80
   4  -6   6   16.00    2.80
  -4  -6  -6   15.10    3.20
   4   6   6   11.90    2.70
   6  -6   6   12.10    2.50
   6  -6   6   11.40    2.40
  -6  -6  -6   14.40    3.00
   6   6   6   15.10    3.60
  -8  -6  -6    5.40    2.00
   8  -6   6    5.30    2.00
   8  -6   6    2.00    1.40
   8   6   6    5.00    2.00
  10  -6   6   10.60    2.70
 -10  -6  -6   12.10    2.90
  10   6   6   14.80    3.60
  12  -6   6    3.40    1.80
 -12  -6  -6    2.90    2.00
  12   6   6    7.20    2.80
 -14  -6  -6    4.10    3.70
  14  -6   6    5.90    2.30
  14   6   6    7.30    3.40
  16  -6   6   32.50    4.90
  16   6   6   33.10    5.80
  18  -6   6    8.80    3.00
  18   6   6    5.30    2.80
 -21  -7   6   43.30    5.80
 -21   7   6   44.40    6.90
 -19  -7   6   33.20    4.80
 -19   7   6   33.20    5.60
 -17  -7   6    5.00    2.10
 -17   7   6   10.20    3.20
 -15  -7   6   18.20    3.20
 -15  -7   6   17.30    3.00
 -15   7   6   16.40    3.90
 -13  -7   6   16.70    3.20
 -13  -7   6   22.90    3.40
 -13   7   6   24.90    5.00
 -11  -7   6    8.10    2.00
  11  -7  -6    9.20    2.30
 -11  -7   6    9.50    2.20
 -11   7   6    6.80    3.10
   9  -7  -6   17.70    3.30
  -9  -7   6    9.80    2.10
  -9  -7   6   11.80    2.40
  -9   7   6   14.30    3.30
  -7  -7   6    2.90    1.40
   7  -7  -6    2.10    1.20
  -7  -7   6    4.10    1.30
  -7   7   6    7.10    2.60
  -5  -7   6   58.39    4.50
   5  -7  -6   53.99    4.90
  -5  -7   6   61.39    4.40
  -5   7   6   63.69    5.80
   3  -7  -6   28.80    3.70
  -3  -7   6   37.70    3.30
  -3  -7   6   37.80    3.50
  -3   7   6   36.50    4.80
  -1  -7   6   10.40    2.20
  -1  -7   6   11.10    2.10
   1  -7  -6    7.70    2.30
  -1   7   6   10.60    3.00
   1  -7   6   14.50    2.60
   1  -7   6   13.70    2.50
  -1  -7  -6   10.00    2.30
   1   7   6   12.80    3.30
   3  -7   6    2.30    1.20
   3  -7   6    2.40    1.30
  -3  -7  -6    2.50    1.40
   3   7   6    2.00    1.70
   5  -7   6    5.70    1.80
   5  -7   6    7.50    2.10
  -5  -7  -6    5.80    2.00
   5   7   6    4.90    2.10
   7  -7   6   34.70    4.50
  -7  -7  -6   43.40    5.50
   7  -7   6   36.30    4.70
   7   7   6   38.30    5.80
  -9  -7  -6   76.49    6.40
   9  -7   6   69.79    5.70
   9   7   6   75.19    6.80
 -11  -7  -6   -0.20    1.20
  11  -7   6    0.30    1.30
  11   7   6    1.40    1.60
  13  -7   6   24.70    4.10
 -13  -7  -6   31.40    4.80
  13   7   6   22.10    4.50
  15  -7   6    4.20    2.10
 -15  -7  -6    2.20    2.10
  15   7   6    2.30    3.20
  17  -7   6    4.60    2.20
  17   7   6    6.30    3.00
 -20  -8   6   20.00    4.00
 -20   8   6   26.70    5.30
 -18  -8   6   21.80    3.70
 -18   8   6   20.50    4.30
 -16  -8   6    3.00    2.50
 -16  -8   6    0.80    1.10
 -16   8   6    2.90    2.10
 -14  -8   6   21.50    3.20
 -14  -8   6   20.50    3.30
 -14   8   6   12.40    3.30
 -12  -8   6  111.59    6.60
  12  -8  -6  115.79    7.90
 -12  -8   6  103.59    6.80
 -10  -8   6    3.90    1.60
 -10  -8   6    2.20    1.10
  10  -8  -6    2.70    1.50
 -10   8   6    2.10    1.70
  -8  -8   6    8.50    1.80
  -8  -8   6   10.50    2.10
   8  -8  -6   12.70    2.80
  -8   8   6   12.10    3.00
   6  -8  -6   70.89    5.90
  -6  -8   6   79.89    5.30
  -6  -8   6   68.79    4.80
  -6   8   6   84.59    6.80
   4  -8  -6   22.90    3.90
  -4  -8   6   28.30    3.40
  -4  -8   6   30.40    4.50
  -4   8   6   21.70    4.00
  -2  -8   6   93.79    5.80
  -2  -8   6   97.09    6.00
   2  -8  -6   94.99    6.90
  -2   8   6  102.19    7.60
   0  -8   6   55.29    4.30
   0  -8  -6   62.89    5.30
   0  -8   6   57.29    4.30
   0   8   6   52.79    6.30
   2  -8   6   20.40    3.10
  -2  -8  -6   21.90    3.70
   2  -8   6   22.90    3.30
   2   8   6   24.70    4.30
   4  -8   6    2.00    1.20
   4  -8   6    4.00    1.50
  -4  -8  -6    0.00    1.20
   4   8   6    0.20    1.20
   6  -8   6  150.08    8.70
   6  -8   6  146.89    8.70
  -6  -8  -6  148.79    9.60
   6   8   6  147.39    9.90
   8  -8   6   46.90    4.40
   8  -8   6   39.90    5.20
   8   8   6   46.00    6.40
 -10  -8  -6   30.30    4.70
  10  -8   6   36.30    4.80
  10   8   6   35.70    5.20
  12  -8   6   23.60    3.80
 -12  -8  -6   21.30    4.10
  12   8   6   30.60    5.30
  14  -8   6   48.40    5.70
 -14  -8  -6   42.50    5.90
  14   8   6   55.49    7.30
  16  -8   6   21.90    4.00
  16   8   6   22.30    6.60
  18  -8   6   13.10    3.10
  18   8   6   19.10    4.60
 -19  -9   6   29.50    4.50
 -19   9   6   42.60    6.90
 -17  -9   6   14.50    3.00
 -17   9   6   20.30    4.70
 -15  -9   6   50.89    4.30
 -15  -9   6   55.89    4.70
 -15   9   6   50.79    6.60
  13  -9  -6   30.30    4.70
 -13  -9   6   19.40    3.20
 -13  -9   6   37.10    3.30
 -13   9   6   34.50    5.90
 -11  -9   6   18.00    3.00
  11  -9  -6   19.90    3.60
 -11  -9   6   26.80    3.30
 -11   9   6   23.10    4.30
  -9  -9   6   54.29    4.10
   9  -9  -6   33.20    4.80
  -9  -9   6   44.40    3.60
  -9   9   6   51.59    6.10
   7  -9  -6   53.59    5.10
  -7  -9   6   55.39    4.00
  -7  -9   6   54.79    4.20
  -7   9   6   59.89    7.20
   5  -9  -6   30.30    4.30
  -5  -9   6   26.80    3.30
  -5  -9   6   24.20    3.00
  -5   9   6   31.50    5.10
  -3  -9   6   54.19    4.10
  -3  -9   6   49.50    3.80
   3  -9  -6   51.49    5.00
  -3   9   6   44.70    6.00
  -1  -9   6  238.48   11.50
   1  -9  -6  222.08   12.80
  -1  -9   6  256.67   11.70
  -1   9   6  246.78   13.70
  -1  -9  -6   35.30    5.10
   1  -9   6   36.70    3.40
   1   9   6   30.70    5.10
  -3  -9  -6    4.90    2.20
   3  -9   6    1.70    1.20
   3  -9   6    5.40    1.70
   3   9   6    2.40    1.90
   5  -9   6  164.18    9.20
  -5  -9  -6  175.18   10.50
   5  -9   6  153.78    9.00
   5   9   6  173.78   10.90
   7  -9   6   69.29    5.40
   7  -9   6   64.19    5.30
  -7  -9  -6   65.89    6.10
   7   9   6   61.79    6.20
   9  -9   6    8.50    2.30
  -9  -9  -6    3.60    1.90
   9   9   6    2.80    2.00
  11  -9   6   76.09    6.00
 -11  -9  -6   72.69    6.60
  11   9   6   53.59    6.70
  13  -9   6   79.59    6.60
 -13  -9  -6   83.89    7.40
  13   9   6   87.39    9.80
  15  -9   6    1.10    1.50
 -15  -9  -6    0.30    1.20
  15   9   6    0.30    1.70
  17  -9   6   45.00    6.00
  17   9   6   29.50    8.80
 -18 -10   6   26.10    4.50
 -18  10   6   26.40    5.00
 -16 -10   6   65.19    5.30
 -16 -10   6   58.59    4.70
 -16  10   6   68.19    8.10
 -14 -10   6   60.49    4.50
 -14 -10   6   60.99    4.80
 -14  10   6   54.99    6.80
  12 -10  -6    5.40    2.30
 -12 -10   6    4.10    1.40
 -12 -10   6    9.00    2.10
 -12  10   6    9.60    3.20
  10 -10  -6   45.90    5.90
 -10 -10   6   46.90    3.60
 -10 -10   6   43.40    3.80
 -10  10   6   35.00    5.30
  -8 -10   6   93.69    5.60
   8 -10  -6   97.99    7.30
  -8 -10   6   95.19    5.80
  -8  10   6  106.09    8.20
   6 -10  -6   15.70    3.20
  -6 -10   6   13.50    2.30
  -6 -10   6   22.60    2.80
  -6  10   6   20.70    4.30
  -4 -10   6   43.60    3.60
  -4 -10   6   47.50    3.50
   4 -10  -6   32.30    4.70
  -4  10   6   33.60    5.00
   2 -10  -6   98.69   10.20
  -2 -10   6  124.79    6.80
  -2 -10   6  121.69    6.70
  -2  10   6  129.49    9.10
   0 -10  -6  112.49    8.00
   0 -10   6  108.99    6.40
   0 -10   6  112.09    6.50
   0  10   6  111.39    8.40
   2 -10   6   58.19    4.50
  -2 -10  -6   61.79    5.80
   2 -10   6   67.89    4.80
   2  10   6   68.89    6.40
  -4 -10  -6   95.39    7.40
   4 -10   6   95.69    6.10
   4  10   6   90.39    7.60
  -6 -10  -6   67.49    6.20
   6 -10   6   68.19    5.20
   6 -10   6   68.59    5.30
   6  10   6   69.49    8.00
   8 -10   6   44.30    4.20
   8 -10   6   49.20    4.50
  -8 -10  -6   48.10    6.20
   8  10   6   34.00    5.30
 -10 -10  -6    7.50    2.80
  10 -10   6    4.90    1.80
  10  10   6    5.10    2.40
  12 -10   6   51.79    5.10
 -12 -10  -6   54.19    6.80
  12  10   6   54.89    7.20
 -14 -10  -6   46.40    6.20
  14 -10   6   42.40    5.70
  14  10   6   46.50    7.00
 -16 -10  -6   56.69    7.10
  16 -10   6   73.99    6.50
  16  10   6   60.69    7.80
 -17 -11   6   59.09    7.50
 -17  11   6   36.20    6.00
 -15 -11   6   57.49    4.60
 -15 -11   6   45.30    3.90
 -15  11   6   49.99    7.00
 -13 -11   6   20.60    2.90
  13 -11  -6   25.30    4.70
 -13 -11   6   19.60    2.90
 -13  11   6   22.90    5.10
 -11 -11   6   32.40    3.00
 -11 -11   6   37.20    3.30
  11 -11  -6   35.30    5.40
 -11  11   6   38.40    5.50
  -9 -11   6   45.80    3.40
  -9 -11   6   45.20    3.60
   9 -11  -6   46.60    6.20
  -9  11   6   37.50    5.50
  -7 -11   6   41.50    3.40
   7 -11  -6   51.09    6.30
  -7 -11   6   40.90    3.20
  -7  11   6   42.10    6.00
  -5 -11   6   37.00    3.10
   5 -11  -6   40.50    5.30
  -5 -11   6   45.10    3.50
  -5  11   6   38.50    6.00
  -3 -11   6   44.20    3.50
   3 -11  -6   54.99    5.30
  -3 -11   6   46.00    3.60
  -3  11   6   42.50    5.60
  -1 -11   6   81.69    5.30
   1 -11  -6   90.99    7.20
  -1 -11   6   87.49    5.30
  -1  11   6   91.99    7.70
   1 -11   6  133.79    7.40
   1 -11   6  131.89    7.40
  -1 -11  -6  139.79    9.20
   1  11   6  130.99    9.50
  -3 -11  -6  179.48   10.60
   3 -11   6  145.89    8.30
   3 -11   6  150.88    8.30
   3  11   6  152.98   10.40
  -5 -11  -6   20.00    3.90
   5 -11   6   12.90    2.50
   5 -11   6   20.00    3.10
   5  11   6   21.40    4.10
   7 -11   6   48.70    4.50
   7 -11   6   45.90    4.30
  -7 -11  -6   67.79    7.90
   7  11   6   49.40    6.80
  -9 -11  -6   31.40    4.70
   9 -11   6   53.59    4.70
   9  11   6   38.10    5.70
  11 -11   6    0.50    1.10
 -11 -11  -6    2.70    2.00
  11  11   6   -0.50    1.20
 -13 -11  -6   12.70    3.20
  13 -11   6   19.90    3.60
  13  11   6   21.50    4.50
  15 -11   6  195.38   11.60
 -15 -11  -6  180.48   12.30
  15  11   6  182.68   12.60
 -16 -12   6   37.80    3.50
 -16 -12   6   40.80    6.40
 -16  12   6   41.20    6.80
 -14 -12   6   31.50    3.70
 -14 -12   6   34.20    3.20
  14 -12  -6   30.70    4.90
 -14  12   6   26.90    6.90
 -12 -12   6   39.00    3.30
 -12 -12   6   38.90    3.40
  12 -12  -6   45.30    6.40
 -12  12   6   46.00    6.50
 -10 -12   6    6.50    1.60
  10 -12  -6    7.00    2.50
 -10 -12   6    8.20    1.80
 -10  12   6    8.70    2.70
  -8 -12   6   65.19    4.20
   8 -12  -6   68.29    6.10
  -8 -12   6   71.99    4.50
  -8  12   6   75.59    7.10
  -6 -12   6    4.30    1.20
  -6 -12   6    6.50    1.50
   6 -12  -6    1.40    1.60
  -6  12   6    5.40    2.50
  -4 -12   6   47.60    3.50
  -4 -12   6   51.39    3.60
   4 -12  -6   42.60    5.50
  -4  12   6   55.99    7.40
  -2 -12   6   45.60    3.50
   2 -12  -6   52.69    6.60
  -2 -12   6   52.89    3.80
  -2  12   6   49.30    6.40
   0 -12  -6  179.88   11.10
   0 -12   6  184.08    9.00
   0 -12   6  174.68    8.90
   0  12   6  178.58   11.60
  -2 -12  -6   81.49    7.00
   2 -12   6   77.79    5.20
   2 -12   6   82.99    5.30
   2  12   6   87.69    7.50
   4 -12   6   48.60    4.10
  -4 -12  -6   56.09    6.50
   4  12   6   53.09    7.00
  -6 -12  -6   45.10    6.30
   6 -12   6   40.10    3.80
   6 -12   6   45.20    4.00
   6  12   6   30.60    5.00
   8 -12   6    5.60    2.00
   8 -12   6    5.80    2.10
  -8 -12  -6    4.40    2.40
   8  12   6    6.40    2.60
 -10 -12  -6   28.80    5.20
  10 -12   6   27.20    4.00
  10  12   6   19.90    4.30
  12 -12   6   22.00    4.00
 -12 -12  -6   18.30    4.20
  12  12   6   29.30    5.70
  14 -12   6    7.50    2.40
 -14 -12  -6    6.50    3.80
 -15 -13   6   24.10    4.90
 -15 -13   6   32.80    5.20
 -15  13   6   31.20    5.50
 -13 -13   6   15.10    2.50
  13 -13  -6   11.80    3.30
 -13  13   6   14.00    4.00
 -11 -13   6   16.40    2.40
  11 -13  -6   12.60    3.20
 -11  13   6   24.00    4.50
  -9 -13   6    4.50    1.30
   9 -13  -6    1.90    1.80
  -9 -13   6    5.90    1.70
  -9  13   6    1.70    1.90
   7 -13  -6   35.40    5.00
  -7 -13   6   32.10    2.70
  -7 -13   6   28.40    2.50
  -7  13   6   25.30    5.00
   5 -13  -6   13.80    3.20
  -5 -13   6   14.50    2.00
  -5 -13   6   15.50    2.00
  -5  13   6   16.10    3.90
  -3 -13   6    7.10    1.50
  -3 -13   6   11.10    1.80
   3 -13  -6    7.50    2.60
  -3  13   6    7.30    2.70
   1 -13  -6  195.68   11.70
  -1 -13   6  183.48    8.90
  -1 -13   6  188.58    9.00
  -1  13   6  179.58   11.80
  -1 -13  -6   45.10    6.00
   1 -13   6   33.80    3.20
   1 -13   6   41.90    3.40
   1  13   6   46.50    6.60
   3 -13   6   38.40    3.50
  -3 -13  -6   52.99    6.60
   3 -13   6   43.60    3.60
   3  13   6   46.00    6.40
  -5 -13  -6   28.60    5.00
   5 -13   6   25.50    3.50
   5 -13   6   20.20    3.00
   5  13   6   21.80    4.60
   7 -13   6   18.70    3.10
   7 -13   6   25.30    3.60
  -7 -13  -6   25.50    5.00
   7  13   6   20.70    4.50
   9 -13   6    1.90    1.40
  -9 -13  -6    2.90    2.10
   9  13   6    1.10    1.70
 -11 -13  -6   16.20    4.60
  11 -13   6   19.40    4.90
  11  13   6   24.80    5.40
  13 -13   6   45.10    5.50
 -13 -13  -6   43.40    6.10
  14 -14  -6   13.10    4.40
 -14 -14   6   18.50    2.50
 -14 -14   6   16.90    3.40
 -14  14   6   16.60    4.40
 -12 -14   6    2.10    1.10
  12 -14  -6    0.20    1.30
 -12 -14   6    0.10    0.60
 -12  14   6   -0.90    1.30
 -10 -14   6    3.10    1.00
 -10 -14   6    4.50    1.30
  10 -14  -6    6.80    2.50
 -10  14   6    1.90    2.00
  -8 -14   6    0.70    0.70
  -8 -14   6    2.00    0.90
   8 -14  -6    2.20    1.60
  -8  14   6    2.20    1.90
  -6 -14   6   32.00    2.40
   6 -14  -6   31.00    5.10
  -6 -14   6   31.60    2.50
  -6  14   6   39.40    6.00
  -4 -14   6   26.10    2.20
  -4 -14   6   30.10    2.30
   4 -14  -6   22.20    4.40
  -4  14   6   26.20    5.10
   2 -14  -6    6.40    2.40
  -2 -14   6    5.50    1.40
  -2  14   6    4.70    2.50
   0 -14   6   29.80    2.80
   0 -14  -6   38.60    5.80
   0  14   6   30.40    5.10
   2 -14   6   57.79    4.10
   2 -14   6   55.19    4.00
  -2 -14  -6   50.19    6.70
   2  14   6   54.09    6.70
   4 -14   6    3.40    1.50
  -4 -14  -6    7.40    2.70
   4 -14   6    3.60    1.40
   4  14   6    3.80    2.40
   6 -14   6   16.60    2.90
  -6 -14  -6   21.10    4.30
   6 -14   6   21.30    3.20
   6  14   6   20.50    4.30
   8 -14   6    9.30    2.30
  -8 -14  -6   12.00    4.50
   8  14   6   13.80    4.10
 -10 -14  -6    0.60    1.90
  10 -14   6    1.30    1.30
  12 -14   6    6.50    2.20
 -12 -14  -6   10.10    3.60
 -13 -15   6    0.90    0.80
  13 -15  -6    0.30    1.50
 -13 -15   6    1.10    1.60
 -13  15   6    1.30    1.90
 -11 -15   6   12.00    1.70
 -11 -15   6   10.60    1.50
  11 -15  -6    6.80    2.60
 -11  15   6    8.60    3.40
  -9 -15   6    1.60    0.70
  -9 -15   6    0.90    0.80
   9 -15  -6    1.20    1.70
  -9  15   6    0.40    1.50
  -7 -15   6   23.70    1.80
  -7 -15   6   22.80    1.80
   7 -15  -6   20.90    4.40
  -7  15   6   18.30    4.20
  -5 -15   6   17.00    1.50
  -5 -15   6   12.80    1.50
   5 -15  -6   11.40    3.10
  -5  15   6   16.80    4.10
  -3 -15   6   38.30    2.60
   3 -15  -6   42.00    6.00
  -3  15   6   35.60    6.10
  -1 -15   6   43.00    3.00
  -1 -15   6   45.50    3.00
   1 -15  -6   33.80    5.10
  -1  15   6   35.50    5.70
  -1 -15  -6   26.50    4.80
   1 -15   6   23.50    2.70
   1 -15   6   27.20    4.00
   1  15   6   20.70    4.50
  -3 -15  -6   15.90    3.70
   3 -15   6   18.30    2.60
   3 -15   6   22.90    3.00
   3  15   6   14.60    3.80
   5 -15   6   26.10    3.40
  -5 -15  -6   24.60    5.00
   5 -15   6   23.00    3.30
   7 -15   6    1.10    1.30
   7 -15   6    2.70    2.00
  -7 -15  -6    2.40    2.10
   9 -15   6    1.40    1.30
  -9 -15  -6    1.80    2.00
  10 -16  -6   -1.90    1.20
 -10 -16   6    1.10    0.50
  -6  16   6   94.49   11.60
  -4 -16   6    0.20    0.40
  -4 -16   6    0.80    0.50
  -4  16   6    0.10    1.70
  -2 -16   6    0.80    0.60
   2 -16  -6    0.70    1.70
  -2 -16   6    0.50    0.60
   0 -16   6   16.90    2.00
   0 -16  -6   20.70    4.10
   0 -16   6   19.20    2.30
   2 -16   6    1.70    1.00
   2 -16   6    1.00    1.00
  -2 -16  -6    2.10    2.20
   4 -16   6   78.49    5.30
  -4 -16  -6   83.39    7.60
   4 -16   6   82.19    5.20
   6 -16   6   19.00    2.90
   6 -16   6   26.60    3.60
  -6 -16  -6   19.00    4.30
  -8 -16  -6    5.40    2.70
   8 -16   6    0.40    1.10
   8 -16   6    4.10    1.60
   7 -17  -6   15.30    3.70
   5 -17  -6   -0.20    1.40
   3 -17  -6    2.30    2.00
  -1 -17   6   48.50    2.70
   1 -17  -6   49.90    7.00
  -1 -17   6   46.20    2.60
   1 -17   6    3.50    1.10
  -1 -17  -6    1.90    1.80
   1 -17   6    1.90    0.90
   3 -17   6    2.20    1.20
   3 -17   6    1.50    1.50
  -3 -17  -6   -0.10    1.50
  -5 -17  -6    5.50    2.40
   5 -17   6    3.50    1.30
   5 -17   6    6.20    1.80
 -18   0   7   -0.70    1.10
 -16   0   7    0.60    1.50
 -14   0   7    1.90    1.80
 -12   0   7    1.30    1.80
 -10   0   7    0.50    1.40
  -8   0   7    0.20    1.20
  -6   0   7    0.70    1.40
  -4   0   7   -0.60    0.80
  -2   0   7    0.60    1.40
   0   0   7   -0.60    1.00
   2   0   7   -0.60    1.00
   4   0   7   -0.90    1.10
   6   0   7   -1.30    0.80
   8   0   7    0.10    1.10
  10   0   7   -0.40    1.20
  12   0   7    0.80    1.40
  14   0   7    0.40    1.60
 -19  -1   7    3.20    2.20
 -19   1   7    0.80    2.20
 -17  -1   7    1.90    1.80
 -17   1   7    1.20    1.90
 -15  -1   7    1.80    1.80
 -15   1   7    1.00    1.50
 -13  -1   7    7.50    2.40
 -13   1   7    7.10    2.50
 -11  -1   7  101.59    7.70
 -11   1   7   91.49    7.60
  -9  -1   7    8.00    2.60
  -9   1   7    8.30    2.60
  -7  -1   7    2.40    1.80
  -7   1   7    3.10    1.90
  -5  -1   7   -0.70    0.90
  -5   1   7    0.60    1.30
  -3  -1   7   22.40    4.10
  -3   1   7   19.00    3.80
  -1  -1   7    0.90    1.30
  -1   1   7    0.90    1.40
   1  -1   7   41.00    5.30
   1   1   7   31.60    5.10
   3  -1   7    2.60    1.60
   3   1   7    0.30    1.40
   5  -1   7    6.60    2.40
   5   1   7    6.20    2.50
   7  -1   7    3.20    1.90
   7   1   7    5.20    2.20
   9  -1   7    2.50    1.90
   9   1   7    0.00    1.30
  11  -1   7    6.80    2.60
  11   1   7   10.80    3.00
  13  -1   7   11.10    3.30
  13   1   7    5.80    2.40
  15  -1   7    5.10    2.30
  15   1   7   13.80    3.60
 -18  -2   7   22.00    7.80
 -16  -2   7   11.20    3.10
 -16   2   7   12.90    3.30
 -14  -2   7   37.40    5.20
 -14   2   7   56.89    7.30
 -12  -2   7   45.90    5.80
 -12   2   7   53.09    7.00
 -10  -2   7   41.00    5.60
 -10   2   7   41.30    6.10
  -8  -2   7    5.70    2.20
  -8   2   7    3.70    2.00
  -6  -2   7    7.40    2.30
  -6   2   7   11.30    3.00
  -4  -2   7   25.70    4.20
  -4   2   7   39.00    5.60
  -2  -2   7    8.60    2.50
  -2   2   7    7.90    2.60
   0  -2   7   56.19    5.30
   0   2   7   55.29    6.60
   2  -2   7   11.50    2.90
   2   2   7   18.70    3.80
   4  -2   7    8.70    2.50
   4   2   7   16.20    3.80
   6  -2   7   11.20    3.00
   6   2   7    7.40    2.50
   8  -2   7    6.60    2.70
   8   2   7    5.30    2.30
  10  -2   7   -0.70    1.10
  10   2   7   -0.60    1.30
  12  -2   7   43.70    6.10
  12   2   7   51.79    6.80
  14  -2   7   24.10    4.80
  14   2   7   36.80    6.30
 -19  -3   7   13.20    3.40
 -19   3   7    5.00    2.70
 -17  -3   7    6.10    2.70
 -17   3   7    2.40    1.90
 -15  -3   7   44.80    5.80
 -15   3   7   41.60    6.40
 -13  -3   7   17.00    3.80
 -13   3   7   17.80    3.90
 -11  -3   7   48.30    5.90
 -11   3   7   37.80    6.00
  -9  -3   7   23.50    4.00
  -9   3   7   19.40    3.90
  -7  -3   7   34.50    4.80
  -7   3   7   32.20    4.70
  -5  -3   7   40.20    5.00
  -5   3   7   50.29    6.60
  -3  -3   7   69.79    5.90
  -3   3   7   69.69    6.30
  -1  -3   7   33.80    4.80
  -1   3   7   31.80    5.00
   1  -3   7    2.40    1.60
   1   3   7    6.10    2.40
   3  -3   7   63.89    5.80
   3   3   7   61.99    6.10
   5  -3   7   38.70    5.30
   5   3   7   41.90    5.70
   7  -3   7   11.70    2.90
   7   3   7   11.10    3.00
   9  -3   7   43.90    5.60
   9   3   7   49.50    7.00
  11  -3   7    0.20    1.40
  11   3   7    0.50    1.70
  13  -3   7   73.39    6.90
  13   3   7   83.09    7.70
  15  -3   7   80.39    9.50
  15   3   7   93.39    8.40
 -18  -4   7   20.60    4.10
 -18   4   7   14.40    4.10
 -16  -4   7   98.09    7.60
 -16   4   7   94.79    8.40
 -14  -4   7    2.80    1.80
 -14   4   7    5.10    2.70
 -12  -4   7   38.70    5.10
 -12   4   7   36.20    6.00
 -10  -4   7   16.50    3.20
 -10   4   7   12.00    3.00
  -8  -4   7   60.89    5.50
  -8   4   7   63.69    7.50
  -6  -4   7   65.29    6.10
  -6  -4   7   72.99    6.00
  -6   4   7   69.49    6.50
  -4  -4   7  214.48   11.80
  -4  -4   7  212.58   11.50
  -4   4   7  209.18   12.60
  -2  -4   7   36.80    5.10
  -2  -4   7   37.00    5.10
  -2   4   7   41.90    5.80
   0  -4   7    4.60    2.00
   0   4   7    1.40    1.80
   2  -4   7   78.09    6.30
   2   4   7   69.79    6.50
   4  -4   7   19.90    3.50
   4   4   7   26.30    4.90
   6  -4   7   83.59    6.60
   6   4   7   63.99    6.50
   8  -4   7   25.00    4.50
   8   4   7   19.90    4.70
  10  -4   7   68.09    6.40
  10   4   7   78.99    7.20
  12  -4   7   12.40    3.20
  12   4   7   10.40    3.20
  14  -4   7   43.60    6.40
  14   4   7   44.90    6.70
 -17  -5   7   24.40    4.30
 -17   5   7   21.20    4.40
 -15  -5   7   25.90    4.40
 -15   5   7   27.70    5.20
 -13  -5   7   26.30    4.20
 -13   5   7   28.60    5.10
 -11  -5   7   20.20    3.50
 -11   5   7   29.50    5.10
  -9  -5   7   41.40    4.90
  -9   5   7   43.50    5.90
  -7  -5   7   54.09    5.00
  -7  -5   7   44.50    5.00
  -7   5   7   36.30    5.40
  -5  -5   7  367.96   17.70
  -5  -5   7  400.36   18.40
  -5   5   7  389.16   19.70
  -3  -5   7   24.90    3.70
  -3  -5   7   23.70    3.90
  -3   5   7   22.20    4.20
  -1  -5   7   12.00    2.60
  -1  -5   7    8.50    2.50
  -1   5   7   10.80    3.20
   1  -5   7   18.20    3.40
   1   5   7   18.40    4.00
   3  -5   7   72.99    6.10
   3   5   7   78.09    7.00
   5  -5   7   21.10    3.80
   5   5   7   20.90    4.10
   7  -5   7   44.50    5.90
   7   5   7   46.20    6.40
   9  -5   7   90.69    7.20
   9   5   7   76.99    7.40
  11  -5   7   67.19    6.30
  11   5   7   74.59    8.90
  13  -5   7   19.60    4.10
  13   5   7   26.50    5.50
 -16  -6   7    1.50    1.50
 -16   6   7    3.80    2.50
 -14  -6   7   17.40    3.60
 -14   6   7   23.60    4.70
 -12  -6   7   59.09    5.40
 -12   6   7   61.29    7.80
 -10  -6   7   11.20    2.70
 -10   6   7   13.10    3.70
  -8  -6   7   69.19    5.30
  -8  -6   7   71.69    5.70
  -8   6   7   49.90    6.70
  -6  -6   7  169.08    9.70
  -6  -6   7  157.48    9.20
  -6   6   7  164.58   10.90
  -4  -6   7   81.99    6.20
  -4  -6   7   81.69    5.90
  -4   6   7   84.39    7.40
  -2  -6   7   36.30    4.80
  -2  -6   7   41.60    4.00
  -2   6   7   40.30    5.90
   0  -6   7    1.50    1.30
   0  -6   7    3.00    1.60
   0   6   7    3.70    2.10
   2  -6   7   84.39    6.40
   2   6   7   81.39    7.30
   4  -6   7   44.50    5.20
   4   6   7   32.60    5.10
   6  -6   7    1.10    1.50
   6   6   7    0.20    1.60
   8  -6   7   73.19    6.40
   8   6   7   79.79    7.30
  10  -6   7  131.69    9.10
  10   6   7  134.49   10.10
  12  -6   7   58.19    7.20
  12   6   7   47.60    6.60
  14  -6   7   34.40    5.10
  14   6   7   27.90    5.50
 -17  -7   7    5.60    2.10
 -17   7   7    9.20    3.30
 -15  -7   7    7.40    2.60
 -15   7   7    9.90    3.40
 -13  -7   7   20.60    3.60
 -13   7   7   15.40    4.00
 -11  -7   7   20.70    3.50
 -11   7   7   23.40    4.80
  -9  -7   7   76.69    5.80
  -9  -7   7   83.09    6.10
  -9   7   7   77.29    7.30
  -7  -7   7   63.59    5.10
  -7   7   7   43.10    5.80
  -5  -7   7   53.39    4.80
  -5  -7   7   61.29    5.10
  -5   7   7   84.09    7.10
  -3  -7   7   54.49    4.80
  -3  -7   7   54.89    4.60
  -3   7   7   38.80    6.00
  -1  -7   7   26.40    4.00
  -1  -7   7   29.00    4.00
  -1   7   7   24.40    4.50
   1  -7   7   44.20    5.20
   1  -7   7   40.40    5.00
   1   7   7   34.10    5.30
   3  -7   7   22.20    3.60
   3   7   7   21.20    4.40
   5  -7   7   26.90    4.10
   5   7   7   18.70    4.00
   7  -7   7    6.40    2.20
   7   7   7    5.70    2.60
   9  -7   7   28.20    4.40
   9   7   7   37.40    6.50
  11  -7   7  134.49    9.50
  11   7   7  146.99   10.70
  13  -7   7   20.00    4.30
  13   7   7   30.80    5.70
 -16  -8   7    7.10    2.30
 -16   8   7    3.40    2.50
 -14  -8   7    0.70    1.50
 -14   8   7    1.80    2.00
 -12  -8   7   22.80    3.60
 -12   8   7   22.30    4.40
 -10  -8   7   35.40    4.50
 -10  -8   7   31.60    4.00
 -10   8   7   30.10    5.60
  -8  -8   7   36.80    4.40
  -8  -8   7   31.00    4.00
  -8   8   7   37.60    6.00
  -6  -8   7   43.20    4.10
  -6  -8   7   38.40    4.40
  -6   8   7   37.40    6.10
  -4  -8   7   16.70    3.00
  -4  -8   7   22.70    3.40
  -4   8   7   18.80    4.20
  -2  -8   7   28.90    3.90
  -2  -8   7   26.70    3.80
  -2   8   7   26.60    4.80
   0  -8   7   73.59    5.60
   0  -8   7   72.69    6.90
   0   8   7   71.49    6.90
   2  -8   7    4.40    1.80
   2  -8   7    1.90    1.50
   2   8   7    0.80    1.60
   4  -8   7    3.00    1.70
   4   8   7    1.70    1.80
   6  -8   7   40.10    5.20
   6   8   7   49.90    6.90
   8  -8   7   10.90    3.00
   8   8   7   12.00    3.70
  10  -8   7    6.80    2.70
  10   8   7    2.80    2.00
  12  -8   7   71.79    6.60
  12   8   7   79.99    9.80
 -15  -9   7    3.10    1.60
 -15   9   7    4.40    2.50
 -13  -9   7    0.20    1.10
 -13   9   7   -0.10    1.50
 -11  -9   7   31.90    4.10
 -11  -9   7   39.80    3.80
 -11   9   7   44.00    6.40
  -9  -9   7    6.40    1.70
  -9  -9   7    9.80    2.30
  -9   9   7    5.10    2.40
  -7  -9   7   13.40    2.70
  -7  -9   7    9.80    2.20
  -7   9   7    8.50    3.10
  -5  -9   7    3.00    1.50
  -5  -9   7    3.50    1.50
  -5   9   7    2.20    1.90
  -3  -9   7   38.20    4.50
  -3  -9   7   34.80    4.20
  -3   9   7   34.40    5.50
  -1  -9   7   20.60    3.20
  -1  -9   7   21.00    3.30
  -1   9   7   17.80    4.00
   1  -9   7    0.40    1.00
   1  -9   7    1.10    1.30
   1   9   7    3.00    2.20
   3  -9   7    1.50    1.40
   3  -9   7    1.70    1.80
   3   9   7    4.00    2.30
   5  -9   7    1.60    1.40
   5   9   7    0.80    1.50
   7  -9   7   16.70    3.30
   7   9   7    7.20    2.80
   9   9   7   17.20    3.90
  11  -9   7    1.40    1.50
  11   9   7    5.80    3.10
 -14 -10   7   -1.20    0.80
 -14  10   7    0.20    1.80
 -12 -10   7   -0.40    1.00
 -12 -10   7    0.10    0.80
 -12  10   7    0.10    1.60
 -10 -10   7   35.70    4.20
 -10 -10   7   37.00    4.40
 -10  10   7   52.19    7.40
  -8 -10   7    1.80    1.30
  -8 -10   7    1.40    1.20
  -8  10   7    1.00    1.70
  -6 -10   7   13.00    2.50
  -6 -10   7   18.60    2.90
  -6  10   7   21.40    4.70
  -4 -10   7   26.80    3.60
  -4 -10   7   33.60    3.90
  -4  10   7   33.40    5.50
  -2 -10   7    5.50    1.80
  -2 -10   7    5.20    1.70
  -2  10   7    9.30    3.00
   0 -10   7   -0.10    1.00
   0 -10   7    1.50    1.30
   0  10   7   -0.20    1.40
   2 -10   7    1.10    1.20
   2 -10   7    0.10    1.00
   2  10   7   -0.10    1.40
   4 -10   7    1.20    1.30
   4  10   7    0.30    1.70
   6 -10   7    8.60    2.30
   6  10   7    9.70    3.30
   8 -10   7    1.10    1.60
   8  10   7    1.40    1.90
  10 -10   7   24.70    4.40
  10  10   7   21.00    4.80
 -13 -11   7    0.10    0.70
 -13 -11   7    1.50    1.30
 -13  11   7   -0.90    1.40
 -11 -11   7    7.40    1.90
 -11 -11   7    8.60    2.10
 -11  11   7    5.70    2.60
  -9 -11   7    0.40    1.00
  -9 -11   7    1.40    1.20
  -9  11   7   -0.30    1.30
  -7 -11   7    5.30    1.70
  -7 -11   7    7.50    2.00
  -7  11   7    2.80    2.20
  -5 -11   7   30.10    3.70
  -5 -11   7   33.50    3.20
  -5  11   7   28.60    4.90
  -3 -11   7    0.70    1.10
  -3 -11   7    1.30    1.10
  -3  11   7    3.60    2.40
  -1 -11   7    2.70    1.40
  -1 -11   7    3.00    1.40
  -1  11   7    2.90    2.20
   1 -11   7    1.00    1.20
   1 -11   7    3.10    1.50
   1  11   7   -0.20    1.50
   3 -11   7   14.80    3.00
   3 -11   7   13.70    2.80
   3  11   7   17.00    4.30
   5 -11   7    6.20    2.50
   5  11   7    9.10    3.50
   7 -11   7   -0.30    1.10
   7  11   7    1.20    1.80
   9 -11   7    7.20    2.40
   9  11   7    3.30    2.60
 -10 -12   7   -0.20    0.80
 -10 -12   7    1.40    1.00
 -10  12   7   -0.50    1.40
  -8 -12   7    2.10    1.30
  -8  12   7    1.80    1.90
  -6 -12   7    0.50    1.00
  -6  12   7   -1.20    1.20
  -4 -12   7   66.49    4.70
  -4 -12   7   59.79    4.50
  -4  12   7   70.89    8.00
  -2 -12   7    0.50    1.10
  -2 -12   7    3.40    1.40
  -2  12   7    0.90    1.90
   0 -12   7   21.20    3.20
   0 -12   7   20.90    3.20
   0  12   7   28.40    5.20
   2 -12   7   61.39    5.30
   2 -12   7   57.49    4.80
   2  12   7   71.29    9.10
   4 -12   7   24.30    3.80
   4  12   7   27.80    5.50
   6 -12   7    0.40    0.90
   6  12   7    1.80    1.90
  -9 -13   7    5.90    1.60
  -9 -13   7    3.50    1.40
  -9  13   7    5.80    3.00
  -7 -13   7    2.90    1.30
  -7 -13   7    1.60    1.10
  -7  13   7    0.80    1.70
  -5 -13   7   31.80    3.50
  -5  13   7   26.60    5.10
  -3 -13   7   13.00    3.30
  -3 -13   7   12.70    2.20
  -3  13   7   10.00    3.70
  -1  13   7    2.30    2.30
   1 -13   7   26.60    3.80
   1 -13   7   26.50    3.60
   1  13   7   34.40    7.50
   3 -13   7   13.80    2.60
   3 -13   7    6.60    1.90
   3  13   7   15.10    5.00
   5 -13   7   15.20    2.90
   5  13   7   18.50    5.40
  -4 -14   7   29.00    2.70
  -4 -14   7   21.90    2.70
  -4  14   7   31.80    6.10
  -2 -14   7   17.70    2.60
  -2 -14   7   21.60    2.80
  -2  14   7   25.00    6.70
   0 -14   7   50.89    4.10
   0  14   7   65.49   13.00
 -12   0   8   68.69    8.40
 -10   0   8   73.29    7.20
  -8   0   8   33.20    5.00
  -6   0   8   13.10    3.30
  -4   0   8   -0.30    1.30
  -2   0   8   33.70    5.40
   0   0   8   27.10    4.60
   2   0   8  101.29    8.20
   4   0   8   36.90    5.60
   6   0   8  146.39   10.50
   8   0   8    6.20    2.80
 -11  -1   8   38.20    6.00
 -11   1   8   28.60    5.60
  -9  -1   8   72.29    7.00
  -9   1   8   87.19    7.50
  -7  -1   8   18.90    4.10
  -7   1   8   23.80    4.80
  -5  -1   8    6.90    2.60
  -5   1   8    6.40    2.70
  -3  -1   8    2.00    1.90
  -3   1   8    5.50    2.40
  -1  -1   8   38.90    5.50
  -1   1   8   42.20    6.00
   1  -1   8   27.50    4.60
   1   1   8   34.70    5.70
   3  -1   8   60.89    7.30
   3   1   8   69.29    6.80
   5  -1   8   57.69    7.20
   5   1   8   64.59    8.00
   7  -1   8   14.30    3.80
   7   1   8   11.10    3.50
 -12  -2   8   13.70    3.40
 -12   2   8    9.00    4.80
 -10  -2   8   21.30    4.70
 -10   2   8   14.70    3.70
  -8  -2   8   41.20    5.60
  -8   2   8   39.90    5.80
  -6  -2   8    7.50    2.60
  -6   2   8   20.70    4.50
  -4  -2   8    3.40    2.00
  -4   2   8    0.70    1.60
  -2  -2   8   26.00    4.40
  -2   2   8   29.50    4.90
   0  -2   8   25.30    4.40
   0   2   8   26.00    4.80
   2  -2   8    5.50    2.60
   2   2   8    9.40    3.20
   4  -2   8   14.60    3.40
   4   2   8   23.40    4.60
   6  -2   8   33.20    5.80
   6   2   8   39.30    6.30
 -11  -3   8   10.10    3.00
 -11   3   8    9.50    3.60
  -9  -3   8   10.70    3.50
  -9   3   8    9.30    3.00
  -7  -3   8   38.80    5.50
  -7   3   8   30.00    5.40
  -5  -3   8   15.80    3.80
  -5   3   8   11.30    3.10
  -3  -3   8    1.40    1.60
  -3   3   8    0.00    1.40
  -1  -3   8    9.90    2.90
  -1   3   8    7.70    3.10
   1  -3   8   20.30    4.20
   1   3   8   25.00    4.80
   3  -3   8    2.90    2.00
   3   3   8    7.20    2.70
   5  -3   8   24.10    5.70
   5   3   8   19.40    4.40
   7  -3   8   99.59    8.00
   7   3   8   76.89    7.70
 -10  -4   8    0.50    1.40
 -10   4   8    2.20    2.10
  -8  -4   8   15.70    3.60
  -8   4   8   18.30    4.00
  -6  -4   8    6.80    3.20
  -6   4   8    6.60    2.70
  -4  -4   8   14.70    3.40
  -4   4   8    9.70    2.90
  -2  -4   8    1.20    1.50
  -2   4   8    1.80    1.80
   0  -4   8    2.20    1.80
   0   4   8    1.80    1.70
   2  -4   8    7.10    2.70
   2   4   8    6.00    2.50
   4  -4   8    0.80    2.00
   4   4   8   -1.10    1.10
   6  -4   8    3.20    2.20
   6   4   8    2.80    2.30
  -9  -5   8    5.20    2.30
  -9   5   8    1.30    1.80
  -7  -5   8    0.30    1.30
  -7   5   8   -1.10    1.20
  -5  -5   8    0.50    2.20
  -5   5   8    7.90    2.90
  -3  -5   8    3.60    2.80
  -3   5   8    3.90    2.40
  -1  -5   8   -1.30    1.50
  -1   5   8    2.30    2.00
   1  -5   8    7.30    3.90
   1   5   8   10.70    3.30
   3  -5   8   11.00    3.00
   3   5   8   13.10    3.50
   5  -5   8    7.30    2.60
   5   5   8    1.40    2.20
  -8  -6   8   -0.20    1.00
  -8   6   8    0.70    1.60
  -6  -6   8    1.90    1.80
  -6   6   8    3.20    2.30
  -4  -6   8   11.30    2.90
  -4   6   8   14.60    3.90
  -2  -6   8   -0.10    1.20
  -2   6   8   -0.10    1.60
   0  -6   8    3.90    2.00
   0   6   8    1.20    1.70
   2  -6   8    9.60    2.80
   2   6   8    8.90    3.00
   4  -6   8    1.00    1.50
   4   6   8    4.20    2.60
  -7  -7   8   15.70    3.30
  -7   7   8   17.80    4.10
  -5  -7   8    4.30    2.00
  -5   7   8    4.30    2.60
  -3  -7   8    0.60    1.30
  -3   7   8   -1.50    1.20
  -1  -7   8   22.00    4.00
  -1   7   8   20.80    4.60
   1  -7   8    2.50    1.60
   1   7   8    3.50    2.30
   3  -7   8    6.20    2.30
   3   7   8    9.10    3.40
  -4  -8   8    5.60    2.30
  -4   8   8    5.90    2.80
  -2  -8   8   16.50    3.30
  -2   8   8   24.20    5.20
   0  -8   8   23.80    4.10
   0   8   8   27.80    5.50
   0   0   0    0.00    0.00

_computing_structure_solution     'SHELXT 2014/5 (Sheldrick, 2014)'
;
_shelx_hkl_checksum                95693
_shelx_fab_file
;
-31 1 1 -1.2734 0.0825
-30 0 2 -0.7512 1.7840
-30 2 1 0.5228 -0.1288
-30 2 2 -0.1948 0.0269
-30 4 1 0.8099 -0.5198
-30 4 2 -0.3441 0.3243
-30 6 1 -0.7032 -0.5377
-29 1 1 -1.1118 -0.1345
-29 1 2 0.1609 -0.5172
-29 1 3 -0.5024 0.1479
-29 3 1 -0.1994 0.3967
-29 3 2 1.1024 -0.5023
-29 3 3 -0.3446 0.3456
-29 5 1 0.7103 0.3552
-29 5 2 -0.2508 0.0798
-29 5 3 -0.3132 0.6562
-29 7 1 0.2203 0.0093
-29 7 2 0.3222 -0.1436
-29 9 1 0.0848 -0.3557
-28 0 2 -0.5046 2.5232
-28 0 4 0.9922 -1.6348
-28 2 1 -0.0523 0.0588
-28 2 2 -0.4031 -0.3370
-28 2 3 1.0747 -0.5490
-28 2 4 0.5617 0.0468
-28 4 1 0.4530 -0.2700
-28 4 2 -0.5770 0.2188
-28 4 3 -0.1305 -0.1857
-28 6 1 -1.9233 -0.2852
-28 6 2 -0.1012 0.0382
-28 6 3 0.8728 -0.0126
-28 8 1 0.2375 0.5004
-28 8 2 0.7898 -0.1562
-28 8 3 0.8106 0.2929
-28 10 1 -0.0372 -0.0489
-28 10 2 0.3899 -0.4146
-27 1 1 -0.7667 -0.3838
-27 1 2 0.1186 -0.1932
-27 1 3 -0.6976 0.0909
-27 1 4 -1.4159 0.4366
-27 3 1 0.3728 0.3233
-27 3 2 1.3077 -0.2788
-27 3 3 -0.5172 0.0136
-27 3 4 -0.0611 0.1967
-27 5 1 0.6757 -0.1641
-27 5 2 -0.3868 0.2696
-27 5 3 0.3069 0.4435
-27 5 4 0.1879 -0.1742
-27 7 1 0.8000 0.0239
-27 7 2 -0.1877 -0.0657
-27 7 3 -0.3091 -0.6301
-27 7 4 0.3894 0.1960
-27 9 1 -0.3359 -0.1447
-27 9 2 -1.0206 0.2520
-27 9 3 -0.0977 0.0333
-27 11 1 0.7308 0.0098
-27 11 2 -0.5366 0.0374
-26 0 2 -0.4000 2.6830
-26 0 4 1.6208 -2.3937
-26 2 1 -0.4573 0.1388
-26 2 2 -0.3332 -0.8441
-26 2 3 0.9277 -0.3922
-26 2 4 1.0807 0.4158
-26 2 5 0.7129 -0.1009
-26 4 1 0.6107 0.0419
-26 4 2 -0.5384 0.1256
-26 4 3 -0.7862 0.2943
-26 4 4 -0.3265 0.0131
-26 6 1 -1.0908 -0.0959
-26 6 2 -0.1680 -0.0150
-26 6 3 -0.6712 0.0456
-26 6 4 -0.3161 -0.2576
-26 8 1 0.4860 0.2562
-26 8 2 1.3290 0.0099
-26 8 3 -0.3578 0.0762
-26 8 4 -0.1411 0.1158
-26 10 1 0.0397 -0.1693
-26 10 2 0.3301 -0.2717
-26 10 3 -0.3152 0.0681
-26 12 1 -1.1765 0.0401
-26 12 2 -0.0671 0.1293
-25 1 1 -0.5285 -0.3603
-25 1 2 -0.1402 0.2057
-25 1 3 -0.3033 -0.0089
-25 1 4 -1.3571 0.1843
-25 1 5 -1.0361 0.1161
-25 3 1 0.5912 0.3796
-25 3 2 0.8034 -0.1874
-25 3 3 0.0547 -0.3589
-25 3 4 -0.0766 0.1915
-25 3 5 -0.1500 0.0045
-25 5 1 -0.8445 -0.4753
-25 5 2 0.0723 0.2392
-25 5 3 1.3253 0.3435
-25 5 4 0.1134 -0.2058
-25 5 5 -0.2433 -0.7000
-25 7 1 0.0857 0.1712
-25 7 2 -0.0198 -0.1366
-25 7 3 1.2390 -0.4474
-25 7 4 0.8686 0.0657
-25 9 1 -0.8419 0.0744
-25 9 2 -1.0280 0.0554
-25 9 3 0.3548 0.2093
-25 9 4 -0.5070 0.0717
-25 11 1 0.8914 -0.0539
-25 11 2 0.1993 -0.0165
-25 11 3 0.2270 -0.0290
-25 13 1 0.8975 0.0132
-25 13 2 0.2930 0.0655
-25 13 3 -0.3474 -0.3032
-24 0 2 0.2724 2.6899
-24 0 4 0.5690 -2.5855
-24 2 1 -0.4872 0.0505
-24 2 2 0.2779 -0.9943
-24 2 3 0.1742 -0.2934
-24 2 4 0.7501 0.7297
-24 2 5 1.2827 0.0641
-24 4 1 0.3964 0.1242
-24 4 2 -0.3189 0.2392
-24 4 3 -0.9475 0.3976
-24 4 4 -0.3699 -0.0717
-24 4 5 -0.3162 0.1967
-24 6 1 0.8117 -0.1458
-24 6 2 -0.7986 0.0358
-24 6 3 -1.2990 -0.0597
-24 6 4 -0.4728 -0.0924
-24 6 5 0.5058 0.0581
-24 8 1 0.6243 0.1435
-24 8 2 1.0314 0.1125
-24 8 3 -0.8239 -0.1797
-24 8 4 -0.7367 0.1175
-24 8 5 -0.6249 -0.3254
-24 10 1 0.1265 -0.1890
-24 10 2 -0.1459 -0.1906
-24 10 3 -0.3221 0.0788
-24 10 4 0.5893 0.1289
-24 12 1 -1.0786 0.0664
-24 12 2 -0.3927 0.1714
-24 12 3 -0.1701 0.1540
-24 12 4 0.1810 0.3368
-24 14 1 -1.4448 0.0661
-24 14 2 0.8078 0.0295
-24 14 3 -0.2588 -0.0294
-24 16 1 -0.3576 1.0384
-23 1 1 -0.3314 -0.2814
-23 1 2 -0.7126 0.2287
-23 1 3 0.0762 0.0197
-23 1 4 -0.2087 -0.1080
-23 1 5 -1.0027 -0.0084
-23 1 6 0.5419 0.3793
-23 3 1 1.2457 0.4423
-23 3 2 -0.3722 -0.3483
-23 3 3 0.2141 -0.3519
-23 3 4 0.2472 0.2541
-23 3 5 -0.4817 0.1315
-23 3 6 0.6031 0.2050
-23 5 1 -0.9418 -0.4454
-23 5 2 0.7257 0.1713
-23 5 3 0.6491 0.4859
-23 5 4 0.1712 -0.2517
-23 5 5 -0.0211 -0.5400
-23 7 1 -0.3775 0.2332
-23 7 2 0.0625 -0.1114
-23 7 3 0.8930 -0.3145
-23 7 4 1.2606 -0.0410
-23 7 5 0.3142 0.6660
-23 9 1 -0.9629 0.0738
-23 9 2 -0.7819 0.0201
-23 9 3 -0.1243 0.2214
-23 9 4 -0.0198 0.1500
-23 9 5 -0.0268 -0.1477
-23 11 1 0.8981 -0.1086
-23 11 2 0.6124 -0.0968
-23 11 3 0.8992 0.0065
-23 11 4 -0.3589 -0.3643
-23 13 1 1.2317 0.0676
-23 13 2 -0.1564 0.1005
-23 13 3 0.3746 -0.2011
-23 13 4 -0.3422 -0.1459
-23 15 1 1.5399 -0.4420
-23 15 2 -1.7509 -0.1007
-23 15 3 0.8874 0.0665
-22 0 2 0.6961 2.8384
-22 0 4 -0.8059 -2.5623
-22 0 6 0.8314 1.5817
-22 2 1 -0.5658 0.0885
-22 2 2 0.8854 -0.8466
-22 2 3 -0.1176 -0.3631
-22 2 4 0.0584 0.8482
-22 2 5 1.2108 0.2183
-22 2 6 -1.4856 -0.8593
-22 4 1 -1.5881 0.1069
-22 4 2 0.3247 0.3449
-22 4 3 0.1103 0.2032
-22 4 4 -0.6320 -0.1825
-22 4 5 -0.4223 -0.1620
-22 4 6 0.4835 0.1161
-22 6 1 0.9321 -0.2937
-22 6 2 -1.0304 -0.0534
-22 6 3 -0.2324 -0.0557
-22 6 4 -0.5867 0.0021
-22 6 5 0.3294 0.0073
-22 6 6 -0.3360 0.0168
-22 8 1 0.0586 0.2532
-22 8 2 1.0017 0.0691
-22 8 3 0.2170 -0.2240
-22 8 4 -0.8569 -0.0022
-22 8 5 -1.1289 -0.0768
-22 10 1 0.4580 -0.1530
-22 10 2 0.1963 -0.1237
-22 10 3 -0.0632 0.1567
-22 10 4 0.2863 0.0928
-22 10 5 1.1078 -0.1180
-22 12 1 -0.7744 0.0678
-22 12 2 -0.4070 0.1591
-22 12 3 -1.5775 -0.0057
-22 12 4 0.2787 0.0889
-22 14 1 -2.0741 -0.0793
-22 14 2 0.9905 -0.0810
-22 14 3 -0.6547 -0.0312
-22 14 4 0.0545 0.0039
-22 16 1 -0.2765 0.7494
-22 16 2 1.5043 -0.0097
-22 16 3 -0.9531 0.0446
-21 1 1 -0.2002 -0.3753
-21 1 2 -0.3085 0.0777
-21 1 3 -0.0737 0.0961
-21 1 4 0.6042 -0.1624
-21 1 5 -0.6128 -0.0662
-21 1 6 -0.2938 -0.0353
-21 3 1 2.0581 0.3814
-21 3 2 -1.4703 -0.4509
-21 3 3 -0.0581 -0.2332
-21 3 4 0.7698 0.3295
-21 3 5 -0.3149 0.2452
-21 3 6 0.6930 -0.0387
-21 5 1 0.9222 -0.3174
-21 5 2 1.0288 0.2449
-21 5 3 -0.4934 0.5028
-21 5 4 0.3380 -0.1890
-21 5 5 0.0634 -0.3393
-21 5 6 0.1225 0.2002
-21 7 1 0.0336 0.1808
-21 7 2 -0.3184 -0.0216
-21 7 3 -0.2178 -0.3642
-21 7 4 0.7624 -0.0048
-21 7 5 0.8565 0.4380
-21 7 6 0.4740 -0.2145
-21 9 1 -0.7910 0.0098
-21 9 2 -0.8750 0.0417
-21 9 3 -0.8855 0.1385
-21 9 4 -0.0462 0.1644
-21 9 5 0.3307 -0.2682
-21 11 1 0.3899 -0.1424
-21 11 2 -0.0459 -0.1868
-21 11 3 1.4831 0.0364
-21 11 4 -0.1866 -0.0981
-21 11 5 -0.5656 0.0600
-21 13 1 0.6873 0.1206
-21 13 2 -0.0244 0.2196
-21 13 3 1.2390 -0.0622
-21 13 4 0.1818 -0.0829
-21 15 1 1.4394 -0.0774
-21 15 2 -1.2588 -0.0271
-21 15 3 0.9737 0.0468
-21 15 4 -0.0172 0.1384
-21 17 1 -0.7143 -0.2036
-21 17 2 -0.7141 -0.0674
-21 17 3 0.4937 -0.2312
-20 0 2 -0.5726 2.9805
-20 0 4 -1.3415 -2.6292
-20 0 6 2.6282 2.1830
-20 2 1 -0.3831 0.1847
-20 2 2 0.4878 -0.8184
-20 2 3 -0.0705 -0.3674
-20 2 4 -0.4085 0.8053
-20 2 5 0.7751 0.3123
-20 2 6 -1.1999 -0.6226
-20 4 1 -2.7930 0.0871
-20 4 2 0.7653 0.3124
-20 4 3 0.4754 0.1693
-20 4 4 -1.0460 -0.2837
-20 4 5 -0.5693 -0.3159
-20 4 6 0.1676 0.2574
-20 6 1 0.1855 -0.3534
-20 6 2 -1.2486 -0.1475
-20 6 3 0.0832 0.0996
-20 6 4 -0.2681 -0.0084
-20 6 5 0.0838 0.0337
-20 6 6 -1.5221 -0.0244
-20 8 1 -0.4281 0.3709
-20 8 2 0.7881 0.0468
-20 8 3 0.9462 -0.2240
-20 8 4 0.3012 -0.0784
-20 8 5 -1.7947 0.1841
-20 8 6 -0.2479 -0.0631
-20 10 1 0.9711 -0.1761
-20 10 2 1.0152 -0.0748
-20 10 3 0.1006 0.2449
-20 10 4 0.1769 0.1245
-20 10 5 0.3677 -0.1667
-20 12 1 -0.2357 0.0939
-20 12 2 -0.3637 0.1040
-20 12 3 -2.1827 -0.1281
-20 12 4 -0.3531 -0.1804
-20 12 5 -0.4774 0.1358
-20 14 1 -0.9799 -0.1922
-20 14 2 0.1834 -0.0868
-20 14 3 -0.4452 0.0041
-20 14 4 -0.3493 0.0184
-20 16 1 0.1038 0.2063
-20 16 2 1.1346 -0.0714
-20 16 3 -0.7980 -0.0485
-20 16 4 0.0607 -0.0074
-20 18 1 1.1491 -0.3226
-20 18 2 0.2673 -0.0188
-19 1 1 -0.3255 -0.4339
-19 1 2 1.2971 0.0625
-19 1 3 -0.3136 0.0653
-19 1 4 0.8359 -0.0570
-19 1 5 -0.2522 -0.0619
-19 1 6 -1.3267 -0.1860
-19 1 7 -0.0006 0.1923
-19 3 1 1.5859 0.3885
-19 3 2 -1.4449 -0.3808
-19 3 3 0.3170 -0.2742
-19 3 4 1.2050 0.3579
-19 3 5 0.0257 0.2210
-19 3 6 0.7726 -0.2768
-19 3 7 1.3767 0.2053
-19 5 1 1.1614 -0.2760
-19 5 2 1.5060 0.3099
-19 5 3 -0.0040 0.3694
-19 5 4 0.4234 -0.1416
-19 5 5 0.1070 -0.3034
-19 5 6 1.3176 0.2302
-19 7 1 -0.0812 0.1047
-19 7 2 0.0881 -0.0760
-19 7 3 -0.2745 -0.3758
-19 7 4 -0.2874 0.0171
-19 7 5 1.4076 0.2630
-19 7 6 1.3141 -0.1356
-19 9 1 -0.4615 0.0284
-19 9 2 -0.5075 0.0809
-19 9 3 -0.8841 0.1247
-19 9 4 -0.8716 0.0432
-19 9 5 0.9141 -0.2265
-19 9 6 0.4156 0.1015
-19 11 1 -0.4200 -0.1357
-19 11 2 -0.9359 -0.1979
-19 11 3 1.1353 -0.0092
-19 11 4 0.2271 0.0822
-19 11 5 0.4670 0.0607
-19 13 1 -0.1272 0.1026
-19 13 2 0.8572 0.2415
-19 13 3 1.0835 0.0160
-19 13 4 0.9716 -0.0873
-19 13 5 0.2963 0.0500
-19 15 1 0.5138 0.1081
-19 15 2 -0.2958 -0.1171
-19 15 3 0.2750 0.0185
-19 15 4 -0.2026 0.1691
-19 17 1 -0.6730 0.1011
-19 17 2 -0.6930 0.0457
-19 17 3 0.1526 -0.2494
-19 19 1 -0.4545 -0.0380
-19 19 2 -0.0967 -0.0552
-18 0 2 -2.3147 3.0458
-18 0 4 -1.2923 -2.7174
-18 0 6 3.0405 2.3175
-18 2 1 -0.3043 0.1160
-18 2 2 -0.3249 -0.9347
-18 2 3 -0.2046 -0.2948
-18 2 4 -0.6042 0.7769
-18 2 5 0.3568 0.3488
-18 2 6 -0.9327 -0.6537
-18 2 7 -0.6791 -0.2848
-18 4 1 -1.1970 0.0505
-18 4 2 0.2645 0.2742
-18 4 3 -0.5028 0.2487
-18 4 4 -1.2002 -0.2854
-18 4 5 -0.6972 -0.2493
-18 4 6 -0.5546 0.3116
-18 4 7 -0.6510 0.1234
-18 6 1 0.3965 -0.2996
-18 6 2 -1.8948 -0.0872
-18 6 3 -0.4574 0.1321
-18 6 4 -0.0229 0.0469
-18 6 5 -0.1388 0.0206
-18 6 6 -2.4827 -0.0553
-18 8 1 -0.0970 0.3861
-18 8 2 0.0241 0.0793
-18 8 3 0.9256 -0.2904
-18 8 4 1.1976 -0.0605
-18 8 5 -1.8716 0.2217
-18 8 6 -0.4726 -0.0629
-18 10 1 1.0010 -0.2434
-18 10 2 1.2907 -0.1105
-18 10 3 0.0207 0.3075
-18 10 4 0.2590 0.1887
-18 10 5 -0.4817 -0.2166
-18 10 6 -0.1051 0.0600
-18 12 1 0.2527 0.0953
-18 12 2 -0.4464 0.0470
-18 12 3 -1.1659 -0.1798
-18 12 4 -0.9220 -0.2389
-18 12 5 -0.8626 0.0871
-18 14 1 0.1692 -0.0856
-18 14 2 -0.6914 0.0820
-18 14 3 0.1307 0.0887
-18 14 4 -0.2725 0.0742
-18 14 5 0.1020 -0.0513
-18 16 1 -0.3171 -0.0007
-18 16 2 0.5482 -0.1128
-18 16 3 -0.1182 -0.1457
-18 16 4 0.0269 -0.0738
-18 18 1 0.6698 -0.2129
-18 18 2 0.0522 0.0544
-18 18 3 0.1380 0.5912
-18 20 1 -1.4982 0.2338
-18 20 2 -0.3522 0.4125
-17 1 1 -0.2709 -0.3550
-17 1 2 1.8068 0.0878
-17 1 3 -0.2102 0.0292
-17 1 4 0.6779 -0.0272
-17 1 5 0.0351 -0.0941
-17 1 6 -0.9311 -0.0041
-17 1 7 -0.5669 0.1355
-17 3 1 1.2200 0.4675
-17 3 2 -0.7761 -0.3282
-17 3 3 0.7761 -0.3068
-17 3 4 1.0734 0.3153
-17 3 5 0.2752 0.1886
-17 3 6 0.6864 -0.2674
-17 3 7 1.1186 0.0107
-17 5 1 -0.5891 -0.3366
-17 5 2 1.8117 0.3008
-17 5 3 0.8071 0.3721
-17 5 4 0.4068 -0.2186
-17 5 5 0.0701 -0.3182
-17 5 6 2.0659 0.2173
-17 5 7 -0.2974 0.1252
-17 7 1 -0.2268 0.1009
-17 7 2 0.7702 -0.2025
-17 7 3 -0.6781 -0.3086
-17 7 4 -0.3138 0.0049
-17 7 5 1.2738 0.2618
-17 7 6 1.2894 -0.0890
-17 7 7 -0.3237 0.3133
-17 9 1 -0.3130 0.0694
-17 9 2 -0.3839 0.1319
-17 9 3 -0.4856 0.1519
-17 9 4 -0.8568 -0.0319
-17 9 5 0.5578 -0.1154
-17 9 6 0.1763 -0.0065
-17 11 1 -1.0048 -0.1135
-17 11 2 -1.3430 -0.1411
-17 11 3 0.3432 -0.0473
-17 11 4 0.3961 0.1119
-17 11 5 1.1528 -0.0033
-17 11 6 -0.6967 -0.0354
-17 13 1 -0.2950 0.0802
-17 13 2 1.6045 0.2055
-17 13 3 0.2268 0.0399
-17 13 4 0.8840 -0.1811
-17 13 5 0.2081 0.0926
-17 15 1 0.4015 -0.0375
-17 15 2 -0.2317 -0.2702
-17 15 3 -0.3646 -0.0480
-17 15 4 -0.6180 0.1246
-17 15 5 -0.1122 -0.0559
-17 17 1 0.2711 0.0861
-17 17 2 -0.3487 0.1373
-17 17 3 -0.1865 -0.0868
-17 17 4 0.9726 0.1384
-17 19 1 0.4447 -0.1291
-17 19 2 0.4878 -0.1934
-17 19 3 -0.0651 0.0590
-17 21 1 1.8284 -0.0276
-16 0 2 -2.0029 3.1506
-16 0 4 -0.5835 -2.7686
-16 0 6 1.6029 2.3523
-16 2 1 -1.6495 0.0541
-16 2 2 0.3759 -0.9857
-16 2 3 -0.0970 -0.3202
-16 2 4 -0.3590 0.8376
-16 2 5 0.0350 0.3040
-16 2 6 -0.7302 -0.8242
-16 2 7 -0.0733 -0.1404
-16 4 1 0.6065 0.0686
-16 4 2 -0.3634 0.2925
-16 4 3 -1.0347 0.2264
-16 4 4 -0.6996 -0.2287
-16 4 5 -0.5333 -0.1911
-16 4 6 -0.5847 0.2922
-16 4 7 -0.2307 0.2285
-16 6 1 -0.1206 -0.2447
-16 6 2 -1.6674 -0.0214
-16 6 3 0.2952 0.0248
-16 6 4 -0.2177 0.1030
-16 6 5 0.1260 -0.0336
-16 6 6 -2.1059 -0.0341
-16 6 7 0.3038 -0.3812
-16 8 1 0.3303 0.3234
-16 8 2 0.1737 0.0841
-16 8 3 1.4749 -0.2899
-16 8 4 0.3742 -0.0799
-16 8 5 -0.9101 0.1725
-16 8 6 0.0247 -0.0286
-16 8 7 1.1246 -0.1381
-16 10 1 0.8699 -0.2538
-16 10 2 1.6371 -0.1266
-16 10 3 -0.3824 0.3082
-16 10 4 -0.1351 0.1758
-16 10 5 -0.3077 -0.1987
-16 10 6 0.2063 0.0366
-16 12 1 0.6055 0.0713
-16 12 2 -0.4335 0.0014
-16 12 3 0.0961 -0.2283
-16 12 4 -0.5176 -0.1373
-16 12 5 -1.0532 0.0988
-16 12 6 0.9085 0.0314
-16 14 1 0.1154 0.0691
-16 14 2 -0.7962 0.1591
-16 14 3 0.2746 0.1711
-16 14 4 0.2783 0.0852
-16 14 5 0.2076 -0.0073
-16 16 1 -1.3877 0.0217
-16 16 2 0.7383 -0.1377
-16 16 3 0.2944 -0.1871
-16 16 4 -0.2888 0.0172
-16 16 5 0.3472 -0.0699
-16 18 1 0.2287 -0.0167
-16 18 2 -0.1182 0.1367
-16 18 3 -0.0888 0.2354
-16 18 4 -1.0467 0.1173
-16 20 1 -2.0042 0.1166
-16 20 2 -0.8531 0.1692
-16 20 3 -0.1289 -0.4676
-15 1 1 0.3346 -0.3409
-15 1 2 0.1106 0.0614
-15 1 3 0.1078 0.0865
-15 1 4 -0.0186 -0.0764
-15 1 5 0.2231 -0.0945
-15 1 6 -0.1938 0.0988
-15 1 7 -0.6645 -0.0516
-15 3 1 2.6534 0.4365
-15 3 2 -0.8749 -0.3684
-15 3 3 0.0666 -0.2568
-15 3 4 0.2747 0.3005
-15 3 5 0.1641 0.2370
-15 3 6 -0.1340 -0.2411
-15 3 7 0.5829 -0.0809
-15 5 1 -1.9736 -0.4208
-15 5 2 0.9357 0.3154
-15 5 3 0.5487 0.4691
-15 5 4 0.2216 -0.2794
-15 5 5 -0.2572 -0.3340
-15 5 6 1.4022 0.1966
-15 5 7 -0.3362 0.1500
-15 7 1 1.6588 0.1891
-15 7 2 0.6459 -0.2188
-15 7 3 -2.1896 -0.3306
-15 7 4 0.3257 0.0711
-15 7 5 0.2759 0.2788
-15 7 6 0.2833 -0.0427
-15 7 7 -0.4553 0.0684
-15 9 1 -0.9005 0.0665
-15 9 2 -1.5954 0.1143
-15 9 3 -0.4652 0.1642
-15 9 4 0.2739 -0.0034
-15 9 5 -0.2242 -0.0741
-15 9 6 -0.3087 -0.0767
-15 9 7 -1.1296 0.0656
-15 11 1 -1.3397 -0.1444
-15 11 2 -1.5271 -0.1233
-15 11 3 0.2796 -0.0136
-15 11 4 0.3836 0.0721
-15 11 5 1.0324 -0.0708
-15 11 6 -0.5912 0.0573
-15 13 1 -0.0342 0.1106
-15 13 2 1.7487 0.2288
-15 13 3 -0.2094 0.0134
-15 13 4 -0.0840 -0.1916
-15 13 5 0.2821 0.0605
-15 13 6 -0.4944 -0.0042
-15 15 1 1.0297 -0.1480
-15 15 2 -0.9352 -0.2701
-15 15 3 -0.3745 -0.0607
-15 15 4 -0.5145 0.0938
-15 15 5 -0.5223 -0.0641
-15 17 1 0.6809 0.0302
-15 17 2 -0.3400 0.1701
-15 17 3 0.1316 0.0500
-15 17 4 1.4685 -0.0297
-15 17 5 -0.3660 0.3375
-15 19 1 0.3687 -0.1186
-15 19 2 0.4768 -0.0757
-15 19 3 0.7141 0.3111
-15 19 4 -0.0308 -0.5488
-15 21 1 1.3536 0.1706
-15 21 2 0.5817 -0.2058
-14 0 2 -0.7663 3.2540
-14 0 4 0.7780 -2.8522
-14 0 6 0.6579 2.4363
-14 2 1 -3.8275 0.1354
-14 2 2 2.3080 -0.9900
-14 2 3 0.6062 -0.3754
-14 2 4 0.0744 0.8771
-14 2 5 0.0038 0.2260
-14 2 6 -0.0061 -0.8032
-14 2 7 -0.1844 -0.1267
-14 4 1 1.4617 0.1091
-14 4 2 -0.2764 0.3278
-14 4 3 -0.4331 0.2124
-14 4 4 0.0832 -0.2441
-14 4 5 -0.1460 -0.1760
-14 4 6 0.3921 0.2594
-14 4 7 0.1413 0.2078
-14 6 1 -1.4341 -0.2389
-14 6 2 -0.1802 -0.0463
-14 6 3 1.4051 -0.0136
-14 6 4 -0.2953 0.0395
-14 6 5 0.6598 -0.0273
-14 6 6 -0.5394 -0.0309
-14 6 7 -0.1556 -0.1604
-14 8 1 -0.3209 0.2576
-14 8 2 0.5326 0.0374
-14 8 3 2.0544 -0.2119
-14 8 4 -0.5141 -0.0967
-14 8 5 0.0747 0.1737
-14 8 6 0.6293 -0.0115
-14 8 7 0.8292 -0.0169
-14 10 1 1.1893 -0.2081
-14 10 2 2.5023 -0.0506
-14 10 3 -0.7113 0.2665
-14 10 4 -0.7022 0.1253
-14 10 5 -0.1754 -0.1890
-14 10 6 0.3143 -0.0602
-14 10 7 0.4719 0.1857
-14 12 1 0.8959 0.0735
-14 12 2 -0.2703 0.0024
-14 12 3 0.2964 -0.2324
-14 12 4 0.0972 -0.0751
-14 12 5 -0.9003 0.1217
-14 12 6 0.4814 0.1054
-14 14 1 -0.4130 0.0792
-14 14 2 -0.7047 0.0735
-14 14 3 -0.1744 0.1770
-14 14 4 0.5361 -0.0152
-14 14 5 0.4316 0.0282
-14 14 6 0.0504 -0.1309
-14 16 1 -1.7391 -0.0593
-14 16 2 1.1225 -0.1930
-14 16 3 0.2308 -0.1644
-14 16 4 -0.6148 0.1101
-14 16 5 0.6947 -0.0891
-14 18 1 0.8152 0.0847
-14 18 2 0.0689 0.1861
-14 18 3 -0.8790 0.0561
-14 18 4 -0.7528 0.1686
-14 20 1 -1.2389 -0.0671
-14 20 2 -0.7251 -0.2491
-14 20 3 -0.9879 -0.3042
-14 22 1 0.3934 -0.2088
-14 22 2 0.2440 0.5856
-13 1 1 1.3457 -0.4062
-13 1 2 -0.8504 0.0878
-13 1 3 0.3785 0.1015
-13 1 4 -0.7991 -0.0863
-13 1 5 0.1440 -0.0626
-13 1 6 -0.2107 0.0335
-13 1 7 0.0896 -0.0896
-13 3 1 4.1481 0.4027
-13 3 2 -1.5529 -0.4248
-13 3 3 -1.6407 -0.2644
-13 3 4 -0.3495 0.3673
-13 3 5 -0.0520 0.2630
-13 3 6 -1.0729 -0.2851
-13 3 7 0.2037 -0.0307
-13 5 1 -4.2601 -0.4348
-13 5 2 -0.6866 0.3367
-13 5 3 0.3836 0.4616
-13 5 4 0.3018 -0.2552
-13 5 5 -0.1313 -0.3714
-13 5 6 -0.1533 0.2213
-13 5 7 -0.1197 0.1518
-13 7 1 4.2332 0.2405
-13 7 2 0.6415 -0.1459
-13 7 3 -2.3037 -0.4160
-13 7 4 0.1956 0.1361
-13 7 5 -0.6635 0.2701
-13 7 6 -0.8924 -0.0181
-13 7 7 0.2310 -0.2404
-13 9 1 -1.6472 0.0463
-13 9 2 -2.2445 0.0616
-13 9 3 -0.3660 0.1817
-13 9 4 0.6119 -0.0086
-13 9 5 0.0327 -0.0858
-13 9 6 -0.3788 -0.1000
-13 9 7 -0.4433 0.0562
-13 11 1 -1.1060 -0.1935
-13 11 2 -1.6124 -0.1370
-13 11 3 0.6753 0.0140
-13 11 4 0.5444 0.0517
-13 11 5 0.8726 -0.0480
-13 11 6 -0.2722 0.1418
-13 11 7 -0.2729 -0.1154
-13 13 1 -0.1945 0.1684
-13 13 2 1.6688 0.2155
-13 13 3 0.0274 -0.0768
-13 13 4 -0.5266 -0.1076
-13 13 5 0.0405 0.0438
-13 13 6 0.0555 -0.0453
-13 15 1 1.3581 -0.0861
-13 15 2 -0.9620 -0.1745
-13 15 3 0.0523 0.0438
-13 15 4 -0.0726 0.1392
-13 15 5 -0.9734 -0.0284
-13 15 6 0.0207 -0.0054
-13 17 1 0.0731 0.0693
-13 17 2 -0.1281 0.1565
-13 17 3 0.4624 -0.0259
-13 17 4 0.9259 -0.1006
-13 17 5 0.2152 0.1751
-13 19 1 -0.4489 -0.0896
-13 19 2 -0.0248 0.0563
-13 19 3 1.1293 0.1792
-13 19 4 -0.6476 -0.1271
-13 21 1 0.5020 0.2752
-13 21 2 0.4067 -0.1429
-13 21 3 0.6539 -0.1916
-12 0 2 -2.1157 3.2729
-12 0 4 1.9560 -2.9492
-12 0 6 0.4389 2.4837
-12 0 8 0.4396 -1.4185
-12 2 1 -5.4924 0.1708
-12 2 2 3.1192 -1.0194
-12 2 3 1.5143 -0.3411
-12 2 4 0.0359 0.8678
-12 2 5 0.0833 0.2341
-12 2 6 0.2326 -0.7125
-12 2 7 -0.7603 -0.2563
-12 2 8 -0.2105 0.0400
-12 4 1 2.8663 0.0411
-12 4 2 0.0662 0.3632
-12 4 3 0.6069 0.2783
-12 4 4 0.1792 -0.2856
-12 4 5 -0.4335 -0.1639
-12 4 6 1.2974 0.2008
-12 4 7 0.7145 0.2011
-12 6 1 0.3147 -0.2295
-12 6 2 1.7946 -0.0612
-12 6 3 0.6508 0.0260
-12 6 4 -0.5757 -0.0302
-12 6 5 0.4363 -0.0186
-12 6 6 0.9294 -0.0052
-12 6 7 -0.5251 -0.0027
-12 8 1 -1.6182 0.2740
-12 8 2 -0.9713 -0.0346
-12 8 3 0.6506 -0.1956
-12 8 4 -0.0046 -0.0105
-12 8 5 0.3393 0.1917
-12 8 6 0.8304 0.0173
-12 8 7 -0.2122 -0.0207
-12 10 1 1.3376 -0.2002
-12 10 2 2.7881 -0.0073
-12 10 3 -0.7251 0.2563
-12 10 4 -0.4445 0.0894
-12 10 5 -0.8133 -0.2159
-12 10 6 0.0532 -0.1489
-12 10 7 0.1481 0.2450
-12 12 1 0.8954 0.0756
-12 12 2 -0.3605 0.0545
-12 12 3 -0.1199 -0.1790
-12 12 4 -0.1062 -0.0929
-12 12 5 -0.5312 0.1064
-12 12 6 0.0531 0.1893
-12 14 1 -0.4475 0.0218
-12 14 2 -1.1094 0.0348
-12 14 3 -0.7145 0.1213
-12 14 4 0.1091 -0.0517
-12 14 5 0.7785 -0.0231
-12 14 6 -0.4001 -0.1989
-12 16 1 -1.3511 -0.1487
-12 16 2 0.6376 -0.2219
-12 16 3 0.1659 -0.0966
-12 16 4 -0.2152 0.0668
-12 16 5 0.3339 -0.0430
-12 18 1 1.3542 0.0885
-12 18 2 -0.0934 0.2646
-12 18 3 -0.7856 0.1338
-12 18 4 -0.0535 -0.0201
-12 18 5 -1.2234 0.0289
-12 20 1 -0.4484 -0.0722
-12 20 2 -0.1802 -0.3518
-12 20 3 -0.6547 -0.0192
-12 20 4 0.8554 -0.4025
-12 22 1 0.3937 -0.0512
-12 22 2 0.3962 0.5287
-11 1 1 2.9935 -0.4254
-11 1 2 0.8661 0.1351
-11 1 3 0.4715 0.0301
-11 1 4 -1.0956 -0.0710
-11 1 5 -0.0446 -0.0883
-11 1 6 0.2246 -0.0026
-11 1 7 0.9919 0.0360
-11 1 8 0.2451 0.5056
-11 3 1 4.6812 0.4818
-11 3 2 -2.4524 -0.4538
-11 3 3 -3.2906 -0.2892
-11 3 4 -0.1912 0.3957
-11 3 5 0.2284 0.2293
-11 3 6 -0.8752 -0.2893
-11 3 7 -0.1286 -0.0634
-11 3 8 -0.1206 0.1743
-11 5 1 -8.3969 -0.3712
-11 5 2 -1.8341 0.3301
-11 5 3 0.8982 0.4047
-11 5 4 1.2290 -0.2622
-11 5 5 0.9735 -0.3677
-11 5 6 -1.1193 0.2269
-11 5 7 -0.4169 0.2040
-11 7 1 3.7950 0.1743
-11 7 2 0.5057 -0.1095
-11 7 3 -0.1413 -0.4220
-11 7 4 -0.0083 0.1047
-11 7 5 -0.9605 0.3076
-11 7 6 -1.2356 -0.0517
-11 7 7 0.3576 -0.3116
-11 9 1 -1.8643 0.0384
-11 9 2 -0.8146 0.0589
-11 9 3 0.9697 0.1994
-11 9 4 -0.4108 -0.0410
-11 9 5 0.7301 -0.1298
-11 9 6 -0.0578 -0.1031
-11 9 7 0.5674 0.1291
-11 11 1 -0.0435 -0.1883
-11 11 2 -1.2137 -0.1008
-11 11 3 0.7291 0.0203
-11 11 4 0.5016 0.0676
-11 11 5 0.7722 -0.0022
-11 11 6 -0.0170 0.1397
-11 11 7 -0.5030 0.0042
-11 13 1 -0.9794 0.2057
-11 13 2 1.8434 0.1228
-11 13 3 0.3333 -0.1607
-11 13 4 -0.0391 -0.1116
-11 13 5 -0.1729 0.0707
-11 13 6 0.4223 -0.0370
-11 15 1 1.5733 -0.0663
-11 15 2 -0.0675 -0.1372
-11 15 3 0.3980 0.1544
-11 15 4 0.3147 0.1702
-11 15 5 -0.7213 0.0195
-11 15 6 -0.1857 -0.1289
-11 17 1 -0.3099 0.0700
-11 17 2 0.5832 0.0765
-11 17 3 0.0037 -0.1484
-11 17 4 -0.0666 -0.0798
-11 17 5 1.4586 -0.0617
-11 19 1 -0.5999 -0.0756
-11 19 2 -0.2317 0.0440
-11 19 3 0.2639 0.0099
-11 19 4 -0.0377 0.2578
-11 21 1 0.3311 0.1480
-11 21 2 0.1692 -0.2562
-11 21 3 0.0335 -0.2085
-11 23 1 -0.1682 -0.4573
-11 23 2 -0.7760 0.3575
-10 0 2 -5.5158 3.3022
-10 0 4 2.4521 -2.9971
-10 0 6 -0.2605 2.5033
-10 0 8 -0.6430 -2.0036
-10 2 1 -7.2615 0.1404
-10 2 2 3.5470 -1.0212
-10 2 3 1.9859 -0.3163
-10 2 4 -0.3378 0.8976
-10 2 5 -0.0422 0.2884
-10 2 6 -0.7559 -0.7181
-10 2 7 -1.4230 -0.2962
-10 2 8 -0.8427 0.3629
-10 4 1 3.8634 -0.0379
-10 4 2 0.6270 0.3525
-10 4 3 1.4790 0.2874
-10 4 4 -0.3795 -0.2614
-10 4 5 -1.1433 -0.1816
-10 4 6 1.2532 0.1820
-10 4 7 1.0990 0.2549
-10 4 8 1.0813 -0.1345
-10 6 1 5.4252 -0.2323
-10 6 2 3.6007 -0.0299
-10 6 3 -1.0540 0.0283
-10 6 4 -1.6487 -0.0108
-10 6 5 -0.3066 -0.0559
-10 6 6 0.8917 0.0542
-10 6 7 0.1335 -0.0626
-10 8 1 -1.8239 0.3507
-10 8 2 -2.8576 -0.0621
-10 8 3 -2.1141 -0.2494
-10 8 4 0.6603 0.0654
-10 8 5 0.5215 0.2061
-10 8 6 0.5002 0.0122
-10 8 7 -0.5093 -0.1413
-10 10 1 1.2793 -0.2331
-10 10 2 2.2572 -0.0350
-10 10 3 -0.9882 0.2879
-10 10 4 0.6634 0.0551
-10 10 5 -0.9777 -0.2156
-10 10 6 -0.3634 -0.1533
-10 10 7 -0.1200 0.2337
-10 12 1 0.6211 0.0602
-10 12 2 -1.2216 0.0724
-10 12 3 -0.3564 -0.1835
-10 12 4 -0.4169 -0.1147
-10 12 5 -0.3177 0.1088
-10 12 6 0.0282 0.2609
-10 12 7 0.7345 -0.2373
-10 14 1 -0.1890 0.0236
-10 14 2 -1.5507 0.0559
-10 14 3 -0.8116 0.0799
-10 14 4 -0.5855 0.0763
-10 14 5 0.2962 -0.0571
-10 14 6 -0.3609 -0.2373
-10 16 1 -1.3862 -0.0708
-10 16 2 -0.1260 -0.1813
-10 16 3 0.3534 -0.0329
-10 16 4 0.1289 -0.0037
-10 16 5 -0.6203 0.0059
-10 16 6 1.0056 0.3210
-10 18 1 0.9648 0.0295
-10 18 2 -0.6073 0.3283
-10 18 3 0.1496 0.1008
-10 18 4 -0.3017 -0.1008
-10 18 5 -1.8619 0.1892
-10 20 1 -0.3013 0.0230
-10 20 2 0.1706 -0.2362
-10 20 3 0.2545 0.0363
-10 20 4 -0.7014 -0.2636
-10 22 1 -0.0802 0.1289
-10 22 2 0.0586 0.1697
-10 22 3 0.0762 0.0641
-9 1 1 5.6430 -0.4571
-9 1 2 2.9249 0.1024
-9 1 3 0.4649 0.0118
-9 1 4 -1.1620 -0.0664
-9 1 5 -0.1310 -0.1008
-9 1 6 1.0411 0.0213
-9 1 7 1.6000 0.0823
-9 1 8 1.5891 0.2478
-9 3 1 6.0010 0.4880
-9 3 2 -5.3617 -0.4409
-9 3 3 -4.0497 -0.2353
-9 3 4 0.1686 0.3505
-9 3 5 0.4765 0.2232
-9 3 6 0.0335 -0.2867
-9 3 7 0.3640 -0.2049
-9 3 8 -0.0493 0.1305
-9 5 1 -11.5244 -0.3180
-9 5 2 -1.4726 0.3516
-9 5 3 1.5865 0.4094
-9 5 4 2.1292 -0.3024
-9 5 5 1.5275 -0.3455
-9 5 6 -0.7408 0.1884
-9 5 7 -0.7745 0.3329
-9 5 8 -0.7250 -0.2360
-9 7 1 0.5259 0.1164
-9 7 2 -0.5047 -0.1507
-9 7 3 1.4979 -0.3668
-9 7 4 0.5886 0.0650
-9 7 5 -1.0334 0.3423
-9 7 6 -0.3481 -0.0393
-9 7 7 -0.5272 -0.2719
-9 9 1 -2.1604 0.0438
-9 9 2 0.8004 0.0568
-9 9 3 2.9886 0.1848
-9 9 4 -1.3834 -0.0079
-9 9 5 0.4569 -0.1776
-9 9 6 0.3570 -0.0799
-9 9 7 0.9159 0.1962
-9 11 1 0.7517 -0.1736
-9 11 2 -0.4776 -0.0518
-9 11 3 0.3704 0.0527
-9 11 4 -0.1669 0.0717
-9 11 5 0.3550 -0.0098
-9 11 6 0.1319 0.0377
-9 11 7 -0.7837 0.0690
-9 13 1 -1.9305 0.1957
-9 13 2 2.2964 0.1054
-9 13 3 0.4147 -0.1672
-9 13 4 0.3191 -0.1852
-9 13 5 0.3300 0.0759
-9 13 6 0.1752 0.0543
-9 13 7 -0.6150 -0.5357
-9 15 1 2.2577 -0.1263
-9 15 2 0.4035 -0.1262
-9 15 3 0.3610 0.1735
-9 15 4 0.8466 0.1682
-9 15 5 0.3569 -0.0304
-9 15 6 -0.8100 -0.2428
-9 17 1 -0.1500 0.0065
-9 17 2 0.8273 -0.0212
-9 17 3 -0.6394 -0.1149
-9 17 4 -0.2175 -0.1620
-9 17 5 1.8917 -0.0833
-9 19 1 -0.2887 -0.0089
-9 19 2 -0.0578 0.1035
-9 19 3 -0.4198 0.0925
-9 19 4 1.6464 0.2430
-9 19 5 0.0969 -0.1082
-9 21 1 0.3627 0.0363
-9 21 2 0.2951 -0.3062
-9 21 3 -0.1601 -0.1827
-9 21 4 0.3275 -0.4635
-9 23 1 0.1726 -0.3420
-9 23 2 -0.0669 0.9097
-8 0 2 -9.3552 3.3741
-8 0 4 2.5794 -3.0271
-8 0 6 -0.4059 2.5418
-8 0 8 -1.8446 -2.1089
-8 2 1 -11.7009 0.1655
-8 2 2 5.5891 -1.0018
-8 2 3 1.9230 -0.3480
-8 2 4 -0.3369 0.9419
-8 2 5 -0.0774 0.2705
-8 2 6 -1.4153 -0.7601
-8 2 7 -2.1308 -0.2255
-8 2 8 -1.8271 0.6768
-8 4 1 3.4722 0.0506
-8 4 2 2.2261 0.2957
-8 4 3 1.9414 0.2369
-8 4 4 -0.5106 -0.2590
-8 4 5 -0.7441 -0.2045
-8 4 6 0.7285 0.2256
-8 4 7 0.3912 0.2668
-8 4 8 1.1950 -0.1563
-8 6 1 9.5208 -0.3008
-8 6 2 3.1736 -0.0096
-8 6 3 -2.0506 -0.0018
-8 6 4 -2.4316 0.0211
-8 6 5 -0.3354 -0.0449
-8 6 6 -0.3681 0.0419
-8 6 7 0.8716 -0.1241
-8 6 8 -0.8974 -0.0937
-8 8 1 -0.9775 0.3817
-8 8 2 -3.4343 -0.0152
-8 8 3 -3.3218 -0.2752
-8 8 4 0.6332 0.0285
-8 8 5 0.8813 0.2210
-8 8 6 -0.0579 -0.0494
-8 8 7 -0.1706 -0.1723
-8 10 1 1.9295 -0.2486
-8 10 2 2.0404 -0.0355
-8 10 3 -1.2344 0.3260
-8 10 4 1.5512 0.0602
-8 10 5 -0.1204 -0.2213
-8 10 6 -0.7355 -0.1003
-8 10 7 -0.1251 0.2004
-8 12 1 0.5368 0.0711
-8 12 2 -2.4871 0.0335
-8 12 3 -0.2034 -0.2390
-8 12 4 -0.0812 -0.1407
-8 12 5 -0.5564 0.1469
-8 12 6 0.2801 0.2712
-8 12 7 1.0423 -0.0376
-8 14 1 0.0282 0.0447
-8 14 2 -1.1666 0.0224
-8 14 3 -0.5684 0.0737
-8 14 4 -0.9593 0.1617
-8 14 5 -0.6874 -0.0187
-8 14 6 0.0592 -0.2594
-8 16 1 -1.7293 0.0298
-8 16 2 -0.0643 -0.1411
-8 16 3 0.4660 -0.0170
-8 16 4 -0.1181 -0.0073
-8 16 5 -1.0710 0.0159
-8 16 6 1.6562 0.1937
-8 18 1 0.7161 -0.0564
-8 18 2 -0.6867 0.2680
-8 18 3 0.5296 -0.0367
-8 18 4 -0.7947 -0.0337
-8 18 5 -1.0622 0.0123
-8 20 1 -0.1772 0.0516
-8 20 2 0.1747 -0.2109
-8 20 3 0.2387 -0.0898
-8 20 4 -2.1316 0.1824
-8 22 1 0.0345 0.0962
-8 22 2 -0.7224 -0.1380
-8 22 3 -0.2554 0.1692
-8 24 1 -0.4054 -0.4427
-7 1 1 10.1258 -0.5032
-7 1 2 5.8497 0.0711
-7 1 3 0.6232 0.0586
-7 1 4 -1.3898 -0.0388
-7 1 5 -0.2259 -0.0628
-7 1 6 0.6302 0.0463
-7 1 7 1.4633 0.0414
-7 1 8 2.0208 -0.0607
-7 3 1 11.5985 0.4043
-7 3 2 -9.6496 -0.4062
-7 3 3 -4.7122 -0.2107
-7 3 4 0.0691 0.3422
-7 3 5 0.0073 0.2504
-7 3 6 0.3508 -0.2998
-7 3 7 1.3510 -0.2592
-7 3 8 0.5514 0.1780
-7 5 1 -13.3293 -0.3488
-7 5 2 0.1400 0.3739
-7 5 3 2.0790 0.4303
-7 5 4 1.8396 -0.2857
-7 5 5 0.6056 -0.3728
-7 5 6 0.0298 0.2014
-7 5 7 -0.3672 0.4001
-7 5 8 -0.1079 -0.2606
-7 7 1 -1.6305 0.1553
-7 7 2 -0.0220 -0.2016
-7 7 3 1.1368 -0.3495
-7 7 4 1.0444 0.0826
-7 7 5 -0.9121 0.3246
-7 7 6 0.5575 0.0109
-7 7 7 -0.9576 -0.3562
-7 7 8 0.8420 0.4518
-7 9 1 -2.4328 0.0667
-7 9 2 1.4555 0.0423
-7 9 3 3.7276 0.1576
-7 9 4 -1.6128 0.0384
-7 9 5 -0.4137 -0.1623
-7 9 6 0.5921 -0.0637
-7 9 7 0.8412 0.2243
-7 11 1 0.4020 -0.1840
-7 11 2 -0.1912 -0.0700
-7 11 3 -0.7466 0.0556
-7 11 4 -0.7759 0.0298
-7 11 5 0.1049 -0.0333
-7 11 6 0.2075 -0.0355
-7 11 7 -0.8352 0.0493
-7 13 1 -2.6238 0.1558
-7 13 2 2.4343 0.1682
-7 13 3 0.5016 -0.1434
-7 13 4 0.1665 -0.1693
-7 13 5 0.9455 0.0888
-7 13 6 -0.2884 0.2000
-7 13 7 -0.7934 -0.7989
-7 15 1 2.8071 -0.1023
-7 15 2 -0.2085 -0.1078
-7 15 3 0.1520 0.1430
-7 15 4 1.1162 0.2322
-7 15 5 0.7890 -0.1088
-7 15 6 -0.7816 -0.3637
-7 17 1 -0.5112 -0.0271
-7 17 2 0.2845 -0.0387
-7 17 3 -0.6563 -0.0457
-7 17 4 -0.5291 -0.2798
-7 17 5 1.1789 0.0513
-7 17 6 -1.0070 0.6046
-7 19 1 -0.4567 0.0570
-7 19 2 0.0388 0.2540
-7 19 3 -0.2385 0.1494
-7 19 4 1.9067 0.1769
-7 19 5 -0.9949 0.1189
-7 21 1 0.1627 0.0245
-7 21 2 0.4928 -0.3261
-7 21 3 0.2052 -0.1444
-7 21 4 0.7454 -0.8161
-7 23 1 -0.3401 0.0010
-7 23 2 0.6381 0.7933
-7 23 3 0.1464 0.2609
-6 0 2 -16.3970 3.3873
-6 0 4 2.5772 -3.0715
-6 0 6 0.6247 2.5775
-6 0 8 -1.0631 -2.0493
-6 2 1 -23.2744 0.1095
-6 2 2 5.3801 -1.0214
-6 2 3 1.9908 -0.3360
-6 2 4 0.0356 0.9449
-6 2 5 0.1984 0.2415
-6 2 6 -0.8348 -0.7968
-6 2 7 -1.7103 -0.2166
-6 2 8 -1.6374 0.7517
-6 4 1 1.8073 0.1999
-6 4 2 4.1327 0.3012
-6 4 3 3.3892 0.2422
-6 4 4 0.0922 -0.3230
-6 4 5 0.3530 -0.2040
-6 4 6 0.4189 0.2327
-6 4 7 -0.5647 0.2220
-6 4 8 0.4131 -0.1831
-6 6 1 10.6799 -0.3648
-6 6 2 0.5099 -0.0196
-6 6 3 -2.3363 -0.0030
-6 6 4 -2.2213 0.0249
-6 6 5 -0.0851 0.0020
-6 6 6 -0.9415 -0.0178
-6 6 7 0.6067 -0.0316
-6 6 8 -1.5020 -0.2079
-6 8 1 -1.0419 0.3613
-6 8 2 -4.2928 0.0211
-6 8 3 -2.5497 -0.2521
-6 8 4 0.6195 -0.0395
-6 8 5 0.7604 0.2161
-6 8 6 -0.0951 -0.0342
-6 8 7 -0.1300 -0.1250
-6 10 1 2.7036 -0.2592
-6 10 2 2.1088 -0.0304
-6 10 3 -0.3752 0.3395
-6 10 4 1.6466 0.1254
-6 10 5 0.6857 -0.2713
-6 10 6 -0.8363 -0.0912
-6 10 7 -0.0104 0.1509
-6 12 1 0.5687 0.0914
-6 12 2 -3.0284 0.0253
-6 12 3 0.6006 -0.2278
-6 12 4 0.2522 -0.1761
-6 12 5 -1.2391 0.1778
-6 12 6 0.4676 0.2044
-6 12 7 0.8472 0.1076
-6 14 1 0.3671 0.0247
-6 14 2 0.0968 0.0188
-6 14 3 -0.4504 0.0791
-6 14 4 -0.8389 0.1021
-6 14 5 -0.5173 -0.0312
-6 14 6 0.0915 -0.2433
-6 16 1 -1.5608 0.0061
-6 16 2 0.3742 -0.1546
-6 16 3 0.3300 -0.0186
-6 16 4 0.3628 -0.0054
-6 16 5 -0.5848 -0.0089
-6 16 6 0.9769 0.0796
-6 18 1 1.2743 -0.0819
-6 18 2 -0.2810 0.1652
-6 18 3 0.3735 0.0217
-6 18 4 0.4167 -0.0879
-6 18 5 -0.1102 -0.1405
-6 20 1 -0.0453 0.0545
-6 20 2 0.2226 -0.1517
-6 20 3 0.0869 -0.1542
-6 20 4 -1.6487 0.3452
-6 20 5 1.0372 -0.0279
-6 22 1 0.5797 0.0438
-6 22 2 -0.8937 -0.0848
-6 22 3 -0.3482 0.1131
-6 24 1 0.0546 -0.7846
-6 24 2 -0.3088 0.1693
-5 1 1 15.6547 -0.4491
-5 1 2 12.3159 0.0990
-5 1 3 1.5426 0.0789
-5 1 4 -1.4700 -0.0071
-5 1 5 -0.5088 -0.0816
-5 1 6 -0.3927 0.0578
-5 1 7 0.2164 0.0206
-5 1 8 0.4094 -0.1506
-5 3 1 26.3088 0.4657
-5 3 2 -8.9115 -0.3979
-5 3 3 -6.9001 -0.2721
-5 3 4 -0.3105 0.3639
-5 3 5 -0.4505 0.2455
-5 3 6 0.1910 -0.2990
-5 3 7 1.0777 -0.1837
-5 3 8 0.4876 0.3236
-5 5 1 -15.6205 -0.4360
-5 5 2 -0.2223 0.3358
-5 5 3 1.1107 0.4221
-5 5 4 0.9473 -0.2613
-5 5 5 -0.0556 -0.3874
-5 5 6 0.1721 0.2640
-5 5 7 0.2555 0.3575
-5 5 8 0.4030 -0.2862
-5 7 1 -0.5130 0.2031
-5 7 2 2.0895 -0.1954
-5 7 3 0.4555 -0.3878
-5 7 4 1.0366 0.1073
-5 7 5 -0.0786 0.3177
-5 7 6 0.2776 -0.0389
-5 7 7 -0.5051 -0.4350
-5 7 8 0.3555 0.3552
-5 9 1 -1.6914 0.0773
-5 9 2 2.2922 0.0888
-5 9 3 3.1790 0.1703
-5 9 4 -1.6491 0.0358
-5 9 5 -0.8932 -0.1206
-5 9 6 0.4441 -0.0767
-5 9 7 0.4847 0.2234
-5 11 1 -0.1424 -0.1699
-5 11 2 -0.4317 -0.1218
-5 11 3 -2.8823 0.0124
-5 11 4 -0.8359 -0.0124
-5 11 5 0.5864 -0.0463
-5 11 6 0.0625 -0.0032
-5 11 7 -0.5882 0.0561
-5 13 1 -2.7050 0.1259
-5 13 2 1.8739 0.1788
-5 13 3 0.5168 -0.1291
-5 13 4 0.0912 -0.1252
-5 13 5 0.9129 0.1405
-5 13 6 -0.3580 0.2752
-5 13 7 -0.5628 -0.5200
-5 15 1 2.8047 -0.0050
-5 15 2 -1.1424 -0.1478
-5 15 3 -0.0949 0.0992
-5 15 4 0.5067 0.3138
-5 15 5 -0.0807 -0.1058
-5 15 6 0.1390 -0.4504
-5 17 1 -1.2319 -0.0324
-5 17 2 -0.1204 0.0232
-5 17 3 -0.3453 -0.0707
-5 17 4 -2.1435 -0.2830
-5 17 5 0.6479 0.0819
-5 17 6 -0.4369 0.7866
-5 19 1 -0.7386 0.0310
-5 19 2 -0.1499 0.2350
-5 19 3 -0.3630 0.0248
-5 19 4 0.1842 0.2463
-5 19 5 -1.3381 0.1211
-5 21 1 0.2655 0.0148
-5 21 2 0.2630 -0.4116
-5 21 3 -0.0525 -0.0972
-5 21 4 0.3482 -0.5340
-5 23 1 -1.0084 0.1140
-5 23 2 0.2100 0.2489
-5 23 3 -0.1380 0.6245
-4 0 2 -23.3678 3.3774
-4 0 4 2.2971 -3.0984
-4 0 6 1.0169 2.6108
-4 0 8 0.7643 -2.0736
-4 2 1 -39.3531 -0.0513
-4 2 2 -0.6071 -1.0502
-4 2 3 1.9756 -0.2990
-4 2 4 0.0409 0.9505
-4 2 5 0.5725 0.2787
-4 2 6 -0.1379 -0.8032
-4 2 7 0.0674 -0.2651
-4 2 8 0.0287 0.6492
-4 4 1 -3.5269 0.2137
-4 4 2 3.3868 0.3707
-4 4 3 6.6907 0.2693
-4 4 4 0.9274 -0.3411
-4 4 5 0.5058 -0.2120
-4 4 6 0.1717 0.2246
-4 4 7 -0.5145 0.1898
-4 4 8 0.5364 -0.2138
-4 6 1 9.3737 -0.3538
-4 6 2 1.3410 -0.0604
-4 6 3 -1.7597 0.0209
-4 6 4 -2.0263 0.0402
-4 6 5 -0.6256 -0.0037
-4 6 6 -0.4430 -0.0137
-4 6 7 0.0569 0.0198
-4 6 8 -0.8950 -0.1642
-4 8 1 -2.3939 0.3670
-4 8 2 -5.3769 0.0183
-4 8 3 -2.1388 -0.2222
-4 8 4 0.7825 -0.0543
-4 8 5 0.0878 0.2125
-4 8 6 0.2743 0.0485
-4 8 7 -0.0359 -0.1337
-4 8 8 1.4142 0.4958
-4 10 1 2.4111 -0.2676
-4 10 2 1.4809 -0.0808
-4 10 3 0.9815 0.3010
-4 10 4 1.5940 0.1617
-4 10 5 0.8835 -0.3088
-4 10 6 -0.4218 -0.1464
-4 10 7 0.2567 0.1694
-4 12 1 0.0777 0.0855
-4 12 2 -2.6182 0.0578
-4 12 3 2.0698 -0.1940
-4 12 4 0.2641 -0.1866
-4 12 5 -2.0717 0.2031
-4 12 6 0.4193 0.1914
-4 12 7 0.2873 -0.0236
-4 14 1 0.5345 0.0044
-4 14 2 1.4346 0.0930
-4 14 3 -0.3931 0.0833
-4 14 4 -0.6180 0.0802
-4 14 5 0.6528 -0.0905
-4 14 6 -0.2528 -0.1947
-4 14 7 0.2421 -0.4317
-4 16 1 -1.4426 -0.0477
-4 16 2 0.3159 -0.1869
-4 16 3 0.3045 -0.0063
-4 16 4 1.7137 0.0064
-4 16 5 -0.1662 -0.0049
-4 16 6 -0.1123 -0.0173
-4 18 1 1.5598 -0.0266
-4 18 2 0.1253 0.1577
-4 18 3 0.3955 0.1489
-4 18 4 2.2155 -0.2198
-4 18 5 -0.0387 -0.0649
-4 20 1 -0.3273 0.0628
-4 20 2 0.4451 -0.0056
-4 20 3 0.5823 -0.1279
-4 20 4 -0.2247 0.3289
-4 20 5 0.9884 0.1367
-4 22 1 0.5620 0.0558
-4 22 2 -0.3511 0.0121
-4 22 3 0.2463 -0.0165
-4 22 4 -0.1611 -0.3463
-4 24 1 0.3780 -0.5348
-4 24 2 0.4816 0.7172
-3 1 1 12.5337 -0.4201
-3 1 2 15.3045 0.0929
-3 1 3 3.5864 0.0814
-3 1 4 -1.0186 -0.0130
-3 1 5 -0.9742 -0.1117
-3 1 6 -0.4709 0.0436
-3 1 7 -0.9393 0.0150
-3 1 8 -1.0235 -0.1132
-3 3 1 45.6265 0.6030
-3 3 2 0.2264 -0.3989
-3 3 3 -9.1651 -0.2971
-3 3 4 -0.6219 0.3483
-3 3 5 -0.3680 0.2206
-3 3 6 0.1093 -0.3399
-3 3 7 -0.1467 -0.1204
-3 3 8 -0.8187 0.4254
-3 5 1 -16.2727 -0.4901
-3 5 2 -4.9044 0.3069
-3 5 3 -1.3303 0.4275
-3 5 4 0.3374 -0.2924
-3 5 5 0.2285 -0.3640
-3 5 6 0.1308 0.2755
-3 5 7 0.2887 0.3085
-3 5 8 -0.6325 -0.3311
-3 7 1 3.1902 0.2220
-3 7 2 1.3151 -0.1604
-3 7 3 0.4462 -0.4249
-3 7 4 1.2515 0.1032
-3 7 5 0.9364 0.3398
-3 7 6 -0.1637 -0.1148
-3 7 7 -0.2345 -0.3200
-3 7 8 -0.4216 0.0369
-3 9 1 -0.6176 0.0285
-3 9 2 3.2180 0.1415
-3 9 3 3.1274 0.2096
-3 9 4 -1.8598 0.0129
-3 9 5 -0.9168 -0.1400
-3 9 6 0.1946 -0.0589
-3 9 7 -0.0759 0.1256
-3 11 1 0.1456 -0.1445
-3 11 2 -0.6061 -0.1542
-3 11 3 -4.7355 0.0029
-3 11 4 -0.9851 0.0111
-3 11 5 1.1667 -0.0439
-3 11 6 -0.4228 0.0260
-3 11 7 -0.2381 0.0973
-3 13 1 -2.0216 0.1102
-3 13 2 1.1980 0.1845
-3 13 3 0.2281 -0.0831
-3 13 4 0.2378 -0.1571
-3 13 5 0.6271 0.1504
-3 13 6 0.0145 0.1805
-3 13 7 -0.2817 0.0021
-3 15 1 2.9554 0.0270
-3 15 2 -1.6777 -0.2180
-3 15 3 -0.5325 0.0437
-3 15 4 -0.1509 0.2825
-3 15 5 -0.8091 -0.0950
-3 15 6 0.6138 -0.4112
-3 17 1 -1.1472 -0.0465
-3 17 2 0.0262 0.0842
-3 17 3 -0.0936 -0.0557
-3 17 4 -3.2099 -0.2631
-3 17 5 0.8176 -0.0235
-3 17 6 -0.0810 0.8197
-3 19 1 -0.4360 -0.0261
-3 19 2 -0.4278 0.0838
-3 19 3 -0.7520 -0.0076
-3 19 4 -0.9008 0.2252
-3 19 5 -1.2749 0.0543
-3 21 1 0.7799 0.0409
-3 21 2 0.0187 -0.2882
-3 21 3 -0.4253 -0.1556
-3 21 4 -0.1526 -0.0764
-3 23 1 -0.6762 0.0617
-3 23 2 -0.5599 -0.0166
-3 23 3 -0.7700 0.7950
-3 25 1 -0.0814 -0.2819
-2 0 2 -18.7279 3.4279
-2 0 4 2.0333 -3.1027
-2 0 6 0.0911 2.6655
-2 0 8 0.7027 -2.1218
-2 2 1 -41.0102 -0.0036
-2 2 2 -5.4879 -1.0509
-2 2 3 1.0716 -0.3178
-2 2 4 -0.5394 0.9662
-2 2 5 0.8155 0.3031
-2 2 6 0.2632 -0.7868
-2 2 7 1.0338 -0.2800
-2 2 8 1.1474 0.6130
-2 4 1 -11.3471 0.1210
-2 4 2 -1.3319 0.3899
-2 4 3 8.4560 0.2423
-2 4 4 1.7953 -0.3033
-2 4 5 0.2622 -0.2324
-2 4 6 -0.0684 0.2642
-2 4 7 0.0331 0.2177
-2 4 8 1.8219 -0.1824
-2 6 1 5.1828 -0.3208
-2 6 2 8.3409 -0.1205
-2 6 3 -0.3167 0.0223
-2 6 4 -2.2344 0.0540
-2 6 5 -0.8594 -0.0167
-2 6 6 -0.2748 0.0246
-2 6 7 0.0967 -0.0515
-2 6 8 0.3303 -0.0949
-2 8 1 -3.4742 0.3868
-2 8 2 -4.7241 0.0539
-2 8 3 -2.7750 -0.2161
-2 8 4 0.7913 -0.0198
-2 8 5 -0.4748 0.2348
-2 8 6 0.0692 0.0194
-2 8 7 0.0454 -0.1852
-2 8 8 1.0319 0.8573
-2 10 1 1.4870 -0.2499
-2 10 2 0.4628 -0.1203
-2 10 3 1.0359 0.2587
-2 10 4 1.8240 0.1323
-2 10 5 0.9640 -0.3085
-2 10 6 0.2293 -0.1692
-2 10 7 0.2326 0.2834
-2 12 1 -0.9010 0.0917
-2 12 2 -1.9541 0.0713
-2 12 3 3.2495 -0.2106
-2 12 4 0.4744 -0.1933
-2 12 5 -2.2708 0.2259
-2 12 6 0.2216 0.2783
-2 12 7 -0.0052 -0.1771
-2 14 1 0.2917 0.0159
-2 14 2 2.0709 0.0992
-2 14 3 -0.3137 0.0797
-2 14 4 -0.7738 0.1438
-2 14 5 1.2248 -0.0864
-2 14 6 -0.2762 -0.1476
-2 14 7 0.3324 -0.9222
-2 16 1 -1.8571 -0.0414
-2 16 2 -0.1580 -0.1976
-2 16 3 0.4735 -0.0233
-2 16 4 2.0927 0.0682
-2 16 5 -0.4122 0.0269
-2 16 6 -0.1878 -0.1134
-2 18 1 1.0260 0.0128
-2 18 2 0.2779 0.2014
-2 18 3 0.2539 0.0673
-2 18 4 1.9133 -0.2341
-2 18 5 0.0085 0.0530
-2 20 1 -0.8037 0.0332
-2 20 2 0.4527 -0.0252
-2 20 3 0.6011 -0.0726
-2 20 4 0.3434 0.3634
-2 20 5 1.0758 0.1436
-2 22 1 -0.1275 0.0264
-2 22 2 -0.1055 -0.2174
-2 22 3 0.3931 -0.0263
-2 22 4 -0.2429 -1.0990
-2 24 1 -0.1879 -0.1121
-2 24 2 0.9633 0.7686
-1 1 1 -10.3048 -0.5432
-1 1 2 6.9762 0.0563
-1 1 3 5.2823 0.0925
-1 1 4 -0.5833 -0.0312
-1 1 5 -1.2155 -0.0609
-1 1 6 -0.0485 0.0577
-1 1 7 -0.5559 0.0345
-1 1 8 -0.3650 -0.1182
-1 3 1 52.2278 0.5688
-1 3 2 10.4218 -0.3830
-1 3 3 -8.7031 -0.2675
-1 3 4 -0.8725 0.3409
-1 3 5 -0.1555 0.2233
-1 3 6 -0.2755 -0.3785
-1 3 7 -0.6384 -0.1253
-1 3 8 -1.5015 0.3824
-1 5 1 -13.7703 -0.4805
-1 5 2 -10.6112 0.3251
-1 5 3 -2.2895 0.4530
-1 5 4 -0.0022 -0.3071
-1 5 5 -0.3454 -0.3699
-1 5 6 0.2359 0.2594
-1 5 7 -0.1645 0.2480
-1 5 8 -1.7450 -0.3693
-1 7 1 7.4371 0.2635
-1 7 2 -2.4222 -0.1525
-1 7 3 0.2654 -0.4031
-1 7 4 1.5171 0.0903
-1 7 5 0.9262 0.3597
-1 7 6 0.1991 -0.0893
-1 7 7 -0.0667 -0.1675
-1 7 8 -0.2382 0.0362
-1 9 1 -0.6496 -0.0335
-1 9 2 3.4040 0.1182
-1 9 3 3.9573 0.2149
-1 9 4 -1.9415 -0.0055
-1 9 5 -0.6862 -0.2040
-1 9 6 0.3079 -0.0232
-1 9 7 0.2697 0.0046
-1 11 1 0.9848 -0.1364
-1 11 2 -0.8140 -0.1830
-1 11 3 -4.7193 0.0031
-1 11 4 -1.2508 0.0580
-1 11 5 0.7262 -0.0171
-1 11 6 -0.8313 0.0132
-1 11 7 -0.0012 0.1351
-1 13 1 -1.3526 0.0973
-1 13 2 0.9973 0.2599
-1 13 3 0.0700 -0.0392
-1 13 4 0.2402 -0.1772
-1 13 5 0.2943 0.1161
-1 13 6 0.3568 0.0551
-1 13 7 -0.5037 -0.0200
-1 15 1 3.0418 -0.0167
-1 15 2 -1.6800 -0.2363
-1 15 3 -0.8047 0.0225
-1 15 4 0.1188 0.2134
-1 15 5 -0.5116 -0.1019
-1 15 6 -0.0034 -0.3123
-1 17 1 -0.7166 -0.0338
-1 17 2 0.5066 0.1036
-1 17 3 0.2507 0.0382
-1 17 4 -2.2221 -0.2860
-1 17 5 0.6815 -0.0734
-1 17 6 -0.1513 0.7646
-1 19 1 0.1299 -0.0311
-1 19 2 -0.4018 0.0277
-1 19 3 -0.5266 0.1161
-1 19 4 -0.1323 0.1658
-1 19 5 -1.3620 0.0621
-1 21 1 1.1703 0.0840
-1 21 2 0.1960 0.0242
-1 21 3 0.1881 -0.3419
-1 21 4 -0.2620 0.1543
-1 23 1 0.4012 0.0084
-1 23 2 -0.6451 0.0964
-1 23 3 -0.7381 0.8541
-1 25 1 0.1063 -0.9007
0 0 2 -6.1606 3.4556
0 0 4 2.4086 -3.1060
0 0 6 -0.8004 2.7126
0 0 8 -0.6179 -2.1112
0 2 0 -16.9209 0.5192
0 2 1 -17.0925 0.2509
0 2 2 -2.2782 -1.0536
0 2 3 0.4956 -0.3437
0 2 4 -1.0085 0.9560
0 2 5 0.4509 0.2894
0 2 6 0.8339 -0.8390
0 2 7 0.4018 -0.2622
0 2 8 0.2732 0.6666
0 4 0 -4.6088 -0.0023
0 4 1 -14.5593 0.0129
0 4 2 -6.4135 0.3770
0 4 3 6.0954 0.2238
0 4 4 2.3635 -0.3005
0 4 5 0.7430 -0.2465
0 4 6 0.1155 0.2611
0 4 7 0.4848 0.2615
0 4 8 1.8053 -0.1343
0 6 0 -8.6592 -0.0908
0 6 1 0.4489 -0.2761
0 6 2 14.9848 -0.1398
0 6 3 0.8457 0.0032
0 6 4 -2.3424 0.0295
0 6 5 0.4097 0.0017
0 6 6 -0.3451 0.0373
0 6 7 0.4739 -0.0481
0 6 8 0.4814 -0.1662
0 8 0 10.7270 0.0012
0 8 1 -3.0113 0.3645
0 8 2 -3.5780 0.1135
0 8 3 -3.1151 -0.2412
0 8 4 0.7533 0.0085
0 8 5 -0.7158 0.2372
0 8 6 -0.4463 -0.0846
0 8 7 -0.8691 -0.2164
0 8 8 -0.1574 0.5016
0 10 0 -4.9589 0.0644
0 10 1 0.8845 -0.2641
0 10 2 -0.0070 -0.1219
0 10 3 -0.5488 0.2762
0 10 4 1.5228 0.1077
0 10 5 1.2473 -0.2859
0 10 6 0.3532 -0.0965
0 10 7 -0.4010 0.3017
0 12 0 2.0391 0.0179
0 12 1 -1.5610 0.1205
0 12 2 -1.3450 0.0817
0 12 3 3.3118 -0.1970
0 12 4 0.7848 -0.2007
0 12 5 -1.1697 0.2254
0 12 6 -0.0027 0.2547
0 12 7 0.5273 -0.0756
0 14 0 -0.2420 -0.0993
0 14 1 0.5738 0.0204
0 14 2 1.9700 0.0233
0 14 3 -0.6538 0.0808
0 14 4 -1.0727 0.1491
0 14 5 0.9620 -0.0810
0 14 6 0.1900 -0.1354
0 14 7 0.5593 -0.4524
0 16 0 0.8370 0.1424
0 16 1 -1.6000 -0.0123
0 16 2 -0.8028 -0.1831
0 16 3 0.4367 -0.0715
0 16 4 1.2182 0.0795
0 16 5 -0.6314 -0.0154
0 16 6 0.3289 -0.1232
0 18 0 -1.4104 -0.0545
0 18 1 0.6250 -0.0233
0 18 2 -0.0161 0.2159
0 18 3 -0.1714 -0.0283
0 18 4 0.1102 -0.2131
0 18 5 0.6930 0.0781
0 20 0 0.1298 -0.0221
0 20 1 -1.0078 0.0075
0 20 2 0.1221 -0.1261
0 20 3 -0.0188 -0.0065
0 20 4 0.2008 0.3388
0 20 5 0.7513 0.1108
0 22 0 -0.8297 0.1101
0 22 1 -0.6330 0.0472
0 22 2 -0.2135 -0.3785
0 22 3 -0.4302 -0.0452
0 22 4 -0.4266 -1.2231
0 24 0 -0.2068 -0.1788
0 24 1 -0.8531 0.1249
0 24 2 0.6892 0.6308
1 1 0 -124.6830 -0.9788
1 1 1 -40.9569 -0.5555
1 1 2 -2.8258 0.0826
1 1 3 4.9349 0.0972
1 1 4 -0.7320 -0.0462
1 1 5 -0.7756 -0.0344
1 1 6 0.0364 0.1200
1 1 7 0.5284 0.0313
1 1 8 0.7339 -0.0985
1 3 0 38.9729 0.6004
1 3 1 41.4680 0.4579
1 3 2 12.7183 -0.3948
1 3 3 -6.6263 -0.2796
1 3 4 -0.9368 0.3621
1 3 5 0.3291 0.2330
1 3 6 -0.8326 -0.3429
1 3 7 -0.7369 -0.1211
1 3 8 -0.0685 0.3306
1 5 0 6.7741 -0.3123
1 5 1 -11.4312 -0.4577
1 5 2 -12.5926 0.3153
1 5 3 -1.0144 0.4421
1 5 4 0.0212 -0.2686
1 5 5 -1.8872 -0.3949
1 5 6 -0.0523 0.2902
1 5 7 -0.8701 0.1845
1 5 8 -1.0680 -0.3368
1 7 0 -7.7045 0.1032
1 7 1 8.5132 0.2970
1 7 2 -4.2075 -0.1615
1 7 3 -0.3103 -0.3543
1 7 4 1.3751 0.0870
1 7 5 0.2372 0.3937
1 7 6 0.1410 -0.0572
1 7 7 0.3632 -0.1769
1 7 8 0.4116 0.3603
1 9 0 -0.6187 -0.0362
1 9 1 -1.8673 -0.0445
1 9 2 3.4187 0.0830
1 9 3 4.8195 0.1860
1 9 4 -1.5201 0.0109
1 9 5 -0.2562 -0.2387
1 9 6 0.6095 -0.0548
1 9 7 1.3828 0.0249
1 11 0 3.0942 0.0653
1 11 1 1.7334 -0.1026
1 11 2 -1.2813 -0.1926
1 11 3 -3.2110 -0.0237
1 11 4 -0.6325 0.0407
1 11 5 -0.5891 -0.0008
1 11 6 -0.6107 0.0509
1 11 7 -0.2689 0.2064
1 13 0 -3.1318 -0.1343
1 13 1 -1.6126 0.1089
1 13 2 1.0763 0.3026
1 13 3 0.3502 -0.0716
1 13 4 -0.0982 -0.1433
1 13 5 -0.3092 0.1166
1 13 6 0.3123 0.0794
1 13 7 -1.2682 -0.6290
1 15 0 0.5813 0.0950
1 15 1 1.9812 -0.0666
1 15 2 -1.3158 -0.2339
1 15 3 -0.5040 0.0474
1 15 4 0.6666 0.2314
1 15 5 0.1863 -0.0658
1 15 6 -0.7315 -0.2755
1 17 0 0.4024 -0.0120
1 17 1 -1.0964 0.0153
1 17 2 1.1571 0.0980
1 17 3 0.5685 0.0166
1 17 4 -0.7856 -0.2625
1 17 5 -0.1169 0.0097
1 17 6 -0.0483 0.7052
1 19 0 0.6639 -0.0430
1 19 1 0.2772 -0.0081
1 19 2 0.0281 0.0350
1 19 3 -0.2534 0.1696
1 19 4 0.7491 0.2466
1 19 5 -1.2508 0.0573
1 21 0 -0.6034 -0.1011
1 21 1 0.9436 0.0589
1 21 2 0.3768 0.0084
1 21 3 0.9416 -0.4621
1 21 4 -0.1975 -0.0647
1 23 0 1.9574 0.3208
1 23 1 0.8832 -0.0684
1 23 2 -0.3907 0.1001
1 23 3 0.1351 1.0521
1 25 0 -1.1589 -0.4768
1 25 1 -0.0795 -0.9487
2 0 0 186.8792 -2.4719
2 0 2 -3.6125 3.4317
2 0 4 2.9892 -3.0943
2 0 6 -0.9410 2.7128
2 0 8 -0.3271 -2.1232
2 2 0 -27.0107 0.5451
2 2 1 8.8804 0.3367
2 2 2 4.1853 -1.0661
2 2 3 1.0064 -0.3405
2 2 4 -1.0907 0.9391
2 2 5 -0.6054 0.3032
2 2 6 1.1380 -0.8788
2 2 7 0.0471 -0.1974
2 2 8 -1.3060 0.6647
2 4 0 -5.0993 -0.1242
2 4 1 -12.3719 -0.1158
2 4 2 -7.9336 0.3942
2 4 3 3.0809 0.2548
2 4 4 2.0348 -0.3116
2 4 5 0.9967 -0.2437
2 4 6 0.3410 0.2132
2 4 7 1.0679 0.1962
2 4 8 0.0632 -0.1886
2 6 0 -8.0550 -0.0215
2 6 1 0.1580 -0.1710
2 6 2 15.5288 -0.1061
2 6 3 1.1193 0.0205
2 6 4 -2.1499 0.0059
2 6 5 1.6104 0.0103
2 6 6 0.3520 0.0472
2 6 7 1.0636 0.0373
2 6 8 -0.0037 -0.2255
2 8 0 9.8385 0.0052
2 8 1 -0.5659 0.3290
2 8 2 -3.4184 0.1205
2 8 3 -2.8480 -0.2570
2 8 4 0.8871 -0.0100
2 8 5 -1.0085 0.1921
2 8 6 -0.2038 -0.1164
2 8 7 -1.6276 -0.2099
2 10 0 -4.3755 0.0353
2 10 1 0.9144 -0.3239
2 10 2 -0.1075 -0.1458
2 10 3 -2.4795 0.2947
2 10 4 0.0842 0.1041
2 10 5 1.3990 -0.2649
2 10 6 -0.1607 0.0118
2 10 7 -0.4850 0.1829
2 12 0 2.0051 -0.0074
2 12 1 -1.7104 0.1365
2 12 2 -1.0356 0.1132
2 12 3 2.9016 -0.1507
2 12 4 0.7302 -0.1716
2 12 5 0.3219 0.2162
2 12 6 -0.1129 0.0753
2 12 7 1.5263 0.0822
2 14 0 -0.2681 -0.0838
2 14 1 1.6816 -0.0122
2 14 2 1.7329 0.0030
2 14 3 -1.2379 0.0989
2 14 4 -0.9254 0.1019
2 14 5 0.3841 -0.1040
2 14 6 0.5607 -0.1281
2 16 0 0.6699 0.1218
2 16 1 -0.2990 0.0130
2 16 2 -1.2876 -0.1674
2 16 3 0.2041 -0.0924
2 16 4 0.5805 -0.0002
2 16 5 -0.6499 -0.0856
2 16 6 0.3919 -0.0559
2 18 0 -1.0073 -0.0624
2 18 1 0.8015 -0.0703
2 18 2 -0.5693 0.2200
2 18 3 -0.2599 0.1144
2 18 4 -0.8573 -0.1958
2 18 5 1.2991 0.0507
2 20 0 0.2521 -0.0557
2 20 1 -0.6640 0.0122
2 20 2 -0.2101 -0.0639
2 20 3 -0.0478 -0.0567
2 20 4 0.3312 0.3075
2 20 5 0.0680 0.0730
2 22 0 -0.6122 0.1465
2 22 1 -0.1021 0.1136
2 22 2 -0.1473 -0.1019
2 22 3 -1.1407 -0.0959
2 22 4 -0.6633 -0.4591
2 24 0 -0.1731 -0.0610
2 24 1 -0.7202 0.0073
2 24 2 0.1228 0.6013
3 1 0 -65.9162 0.0173
3 1 1 -50.5469 -0.2870
3 1 2 -2.9523 0.1202
3 1 3 4.0256 0.1078
3 1 4 -1.0358 -0.0629
3 1 5 -0.1189 -0.0678
3 1 6 -0.0638 0.1096
3 1 7 0.6810 -0.0422
3 1 8 0.3821 0.0227
3 3 0 37.7569 0.4395
3 3 1 29.9803 0.4248
3 3 2 8.2751 -0.4325
3 3 3 -5.2869 -0.3064
3 3 4 -0.2643 0.3617
3 3 5 1.2637 0.2178
3 3 6 -0.7295 -0.3591
3 3 7 -1.2441 -0.0885
3 3 8 1.5893 0.2947
3 5 0 6.3712 -0.3148
3 5 1 -11.0308 -0.4481
3 5 2 -9.8477 0.3013
3 5 3 -0.2772 0.4102
3 5 4 0.1761 -0.2456
3 5 5 -2.2101 -0.4045
3 5 6 -0.4141 0.3232
3 5 7 -1.4980 0.2336
3 5 8 0.0348 -0.2623
3 7 0 -5.5471 0.1143
3 7 1 4.4984 0.2974
3 7 2 -3.9093 -0.1439
3 7 3 -0.3267 -0.3583
3 7 4 0.8541 0.0677
3 7 5 0.3008 0.4101
3 7 6 -0.8150 -0.0948
3 7 7 -0.0377 -0.2678
3 7 8 0.1331 0.4541
3 9 0 -1.5085 -0.0455
3 9 1 -3.5424 -0.0638
3 9 2 3.5023 0.0694
3 9 3 5.2232 0.1557
3 9 4 -0.8446 0.0598
3 9 5 0.1041 -0.2114
3 9 6 0.6596 -0.0915
3 9 7 1.0333 0.0975
3 11 0 2.9469 0.1071
3 11 1 2.1920 -0.0703
3 11 2 -1.2509 -0.1518
3 11 3 -2.0647 0.0036
3 11 4 0.8755 -0.0054
3 11 5 -1.1851 0.0052
3 11 6 -0.1076 0.0945
3 11 7 -1.0084 0.2657
3 13 0 -3.2248 -0.1272
3 13 1 -2.0411 0.1505
3 13 2 1.1248 0.2582
3 13 3 0.5081 -0.1075
3 13 4 -0.6284 -0.1244
3 13 5 -0.5852 0.1153
3 13 6 0.0134 0.1341
3 13 7 -1.7348 -0.9982
3 15 0 0.8030 0.1092
3 15 1 0.5234 -0.0997
3 15 2 -1.1561 -0.2505
3 15 3 -0.1216 0.0642
3 15 4 0.6511 0.2612
3 15 5 1.0195 -0.0968
3 15 6 -0.5832 -0.2951
3 17 0 0.1884 -0.0044
3 17 1 -1.5989 0.0436
3 17 2 1.4083 0.1017
3 17 3 0.5476 -0.1106
3 17 4 -0.3827 -0.2352
3 17 5 -0.5290 0.1066
3 17 6 0.1254 0.6674
3 19 0 0.2615 -0.0309
3 19 1 -0.0124 -0.0223
3 19 2 0.4695 0.0378
3 19 3 -0.4743 0.1567
3 19 4 0.7511 0.2819
3 19 5 -0.8578 0.0606
3 21 0 -0.7964 -0.0034
3 21 1 -0.0315 0.0664
3 21 2 0.3601 -0.2825
3 21 3 0.7405 -0.4038
3 21 4 -0.3267 -0.6903
3 23 0 1.5610 0.1144
3 23 1 0.2227 0.0045
3 23 2 -0.0783 0.0070
3 23 3 0.7579 1.0629
3 25 0 -1.2538 -0.5299
3 25 1 -0.4693 -0.4084
4 0 0 89.8713 -3.5637
4 0 2 -8.9127 3.4719
4 0 4 3.2839 -3.0646
4 0 6 -0.6338 2.6691
4 0 8 1.3368 -2.2098
4 2 0 -38.0399 0.8735
4 2 1 11.0071 0.2596
4 2 2 7.4320 -1.0630
4 2 3 0.6312 -0.3530
4 2 4 -1.2818 0.9203
4 2 5 -1.2233 0.3098
4 2 6 0.9630 -0.7893
4 2 7 0.6196 -0.0990
4 2 8 -1.5993 0.7030
4 4 0 -6.4198 -0.2661
4 4 1 -9.4480 -0.2168
4 4 2 -7.6192 0.3735
4 4 3 2.8305 0.2551
4 4 4 0.9445 -0.2844
4 4 5 -0.0215 -0.2233
4 4 6 -0.0040 0.2365
4 4 7 1.1865 0.0674
4 4 8 -0.7376 -0.2343
4 6 0 -7.2845 0.0332
4 6 1 3.8658 -0.0728
4 6 2 12.0129 -0.0903
4 6 3 0.3051 0.0586
4 6 4 -1.4345 0.0194
4 6 5 1.1532 0.0201
4 6 6 1.0842 0.0592
4 6 7 1.7523 0.0448
4 6 8 0.1967 -0.0988
4 8 0 7.4829 0.0232
4 8 1 2.4999 0.3104
4 8 2 -2.3899 0.0844
4 8 3 -2.4838 -0.2352
4 8 4 1.1739 -0.0237
4 8 5 -1.2544 0.1693
4 8 6 0.2731 -0.1053
4 8 7 -0.4892 -0.1614
4 10 0 -3.1698 0.0097
4 10 1 1.4526 -0.3233
4 10 2 -0.5251 -0.1662
4 10 3 -3.2704 0.2679
4 10 4 -1.6290 0.1047
4 10 5 0.9607 -0.2832
4 10 6 -0.4615 0.0604
4 10 7 0.6444 0.1549
4 12 0 2.2063 -0.0366
4 12 1 -2.1020 0.1619
4 12 2 -1.4348 0.1387
4 12 3 2.9154 -0.1742
4 12 4 0.5094 -0.1439
4 12 5 0.5674 0.2069
4 12 6 0.0358 0.0004
4 12 7 1.7512 0.0140
4 14 0 -0.1510 -0.0511
4 14 1 2.1030 -0.0587
4 14 2 1.8312 0.0289
4 14 3 -1.4001 0.1050
4 14 4 -0.5112 0.0925
4 14 5 -0.4461 -0.0498
4 14 6 0.3239 -0.0814
4 16 0 0.4028 0.1036
4 16 1 0.4459 0.0314
4 16 2 -1.0271 -0.1781
4 16 3 0.1179 -0.1129
4 16 4 0.6423 -0.0405
4 16 5 -1.0560 -0.0333
4 16 6 -0.0257 0.0377
4 18 0 -0.5114 -0.0818
4 18 1 0.7700 -0.0508
4 18 2 -0.8008 0.2223
4 18 3 -0.0548 0.3061
4 18 4 -0.7878 -0.0530
4 18 5 1.1537 0.0035
4 20 0 0.2613 -0.0870
4 20 1 -0.0992 0.0241
4 20 2 -0.3901 -0.0542
4 20 3 0.4614 -0.3106
4 20 4 0.5695 0.3110
4 20 5 -0.0930 -0.1292
4 22 0 0.0007 0.1703
4 22 1 1.1937 0.0390
4 22 2 -0.0950 0.1138
4 22 3 -0.9301 0.1031
4 24 0 -0.0777 -0.0927
4 24 1 -0.2294 -0.5305
4 24 2 -0.5349 0.4105
5 1 0 -13.4807 0.0688
5 1 1 -33.6473 -0.0269
5 1 2 -1.4010 0.0958
5 1 3 3.9910 0.1103
5 1 4 -1.5097 -0.0625
5 1 5 -0.2289 -0.0644
5 1 6 -0.1826 0.0364
5 1 7 0.1136 0.0043
5 1 8 -0.6017 0.0964
5 3 0 29.3841 0.3100
5 3 1 23.5352 0.3332
5 3 2 4.3671 -0.4359
5 3 3 -4.7408 -0.2943
5 3 4 1.2464 0.3451
5 3 5 2.0627 0.2191
5 3 6 -0.4888 -0.4127
5 3 7 -1.2034 -0.1160
5 3 8 1.2007 0.0690
5 5 0 6.9765 -0.3051
5 5 1 -10.5483 -0.4345
5 5 2 -4.3545 0.3389
5 5 3 -0.3650 0.4289
5 5 4 -0.2455 -0.2488
5 5 5 -0.8788 -0.3917
5 5 6 -0.2391 0.3133
5 5 7 -1.2032 0.3017
5 5 8 0.0427 -0.2156
5 7 0 -2.0739 0.1319
5 7 1 -0.4734 0.3388
5 7 2 -4.8503 -0.0961
5 7 3 0.6796 -0.3785
5 7 4 0.4880 0.0355
5 7 5 0.8579 0.3503
5 7 6 -1.2101 -0.1507
5 7 7 -1.0928 -0.2840
5 9 0 -2.3013 -0.0622
5 9 1 -4.5413 -0.1347
5 9 2 3.2938 0.0325
5 9 3 4.7484 0.1339
5 9 4 -0.3831 0.0560
5 9 5 -0.0383 -0.1716
5 9 6 0.5417 -0.0305
5 9 7 -0.6720 0.0759
5 11 0 2.5135 0.1024
5 11 1 2.5234 -0.0986
5 11 2 -0.3261 -0.1069
5 11 3 -2.1462 0.0636
5 11 4 1.9841 -0.0104
5 11 5 -0.1634 0.0312
5 11 6 -0.0705 0.0392
5 11 7 -1.2025 0.2030
5 13 0 -3.4809 -0.1480
5 13 1 -1.4396 0.1788
5 13 2 1.0616 0.2163
5 13 3 0.5426 -0.0632
5 13 4 -0.9020 -0.1244
5 13 5 -0.2615 0.0806
5 13 6 -0.1888 0.0815
5 13 7 -1.2341 -0.7153
5 15 0 0.8374 0.1014
5 15 1 0.1908 -0.1147
5 15 2 -1.3653 -0.2547
5 15 3 -0.0385 0.0357
5 15 4 0.3857 0.2208
5 15 5 1.8091 -0.2086
5 15 6 0.2509 -0.2844
5 17 0 0.0548 0.0182
5 17 1 -1.1334 0.0484
5 17 2 0.9918 0.1272
5 17 3 0.3108 -0.0885
5 17 4 -0.5930 -0.2522
5 17 5 -0.2095 0.1311
5 17 6 0.0882 0.4713
5 19 0 0.2851 -0.0980
5 19 1 -0.0167 -0.0952
5 19 2 0.5875 0.1020
5 19 3 -0.5506 0.1668
5 19 4 0.5939 0.1953
5 19 5 -0.4676 0.0884
5 21 0 -0.9333 0.1204
5 21 1 -0.8330 0.1302
5 21 2 0.3949 -0.2779
5 21 3 0.0222 -0.2897
5 21 4 -0.4592 -0.9827
5 23 0 0.8393 0.0446
5 23 1 -0.7022 0.2116
5 23 2 0.2478 0.2463
5 23 3 0.4834 0.5921
5 25 0 -1.0002 -0.0766
6 0 0 26.9327 -3.5899
6 0 2 -5.3670 3.5246
6 0 4 4.0565 -3.0482
6 0 6 -0.5711 2.6077
6 0 8 1.9640 -2.1101
6 2 0 -29.2880 1.1988
6 2 1 1.4144 0.3042
6 2 2 7.3148 -1.0574
6 2 3 0.0873 -0.3567
6 2 4 -1.4594 0.8894
6 2 5 -0.6966 0.2719
6 2 6 1.1371 -0.7592
6 2 7 0.7158 -0.0491
6 2 8 -0.6570 0.8597
6 4 0 -7.4100 -0.3801
6 4 1 -4.3128 -0.2228
6 4 2 -8.1119 0.3128
6 4 3 3.9347 0.2176
6 4 4 -0.0091 -0.2452
6 4 5 -1.7467 -0.2304
6 4 6 -0.1841 0.2673
6 4 7 0.1819 0.0685
6 4 8 0.0585 -0.1435
6 6 0 -6.9598 0.0538
6 6 1 5.6877 -0.0517
6 6 2 8.5156 -0.0715
6 6 3 -1.9328 0.0527
6 6 4 -0.8176 0.0149
6 6 5 0.3935 0.0235
6 6 6 1.1906 0.0428
6 6 7 1.4647 0.0034
6 8 0 4.7787 0.0157
6 8 1 3.4027 0.2757
6 8 2 -0.3808 0.0366
6 8 3 -1.6793 -0.2418
6 8 4 1.0194 -0.0080
6 8 5 -0.7167 0.2087
6 8 6 -0.0416 -0.0804
6 8 7 0.6574 -0.1304
6 10 0 -2.2870 0.0338
6 10 1 1.8072 -0.2773
6 10 2 -1.2488 -0.1481
6 10 3 -2.7162 0.2602
6 10 4 -2.4936 0.1306
6 10 5 0.0992 -0.2891
6 10 6 -0.0428 0.0247
6 10 7 1.2926 0.2547
6 12 0 2.6738 -0.0259
6 12 1 -2.7474 0.2077
6 12 2 -2.0657 0.1593
6 12 3 2.7272 -0.2066
6 12 4 0.5704 -0.1440
6 12 5 -0.1676 0.1832
6 12 6 0.2166 0.0902
6 12 7 0.7777 -0.1687
6 14 0 -0.1442 -0.0089
6 14 1 1.3769 -0.0793
6 14 2 1.9464 0.0022
6 14 3 -1.3953 0.0936
6 14 4 -0.5239 0.0973
6 14 5 -0.8536 -0.0171
6 14 6 -0.1783 -0.0859
6 16 0 0.3723 0.0989
6 16 1 0.1425 0.0140
6 16 2 -0.4980 -0.1837
6 16 3 0.1321 -0.1702
6 16 4 0.8333 -0.0205
6 16 5 -1.3015 0.0427
6 16 6 -0.4030 0.1645
6 18 0 -0.4350 -0.0883
6 18 1 0.2026 -0.0085
6 18 2 -0.6653 0.2200
6 18 3 -0.0056 0.3398
6 18 4 -0.4351 0.0704
6 18 5 0.7592 0.0052
6 20 0 0.0344 -0.0165
6 20 1 -0.3090 0.0684
6 20 2 -0.3831 -0.2472
6 20 3 0.6934 -0.5290
6 20 4 0.4493 0.0186
6 22 0 0.5624 0.1153
6 22 1 1.8456 0.0108
6 22 2 0.0005 -0.0178
6 22 3 -0.1890 0.5177
6 24 0 -0.1206 -0.3779
6 24 1 0.0033 -0.9739
6 24 2 -0.8313 -0.1440
7 1 0 2.1551 -0.0742
7 1 1 -13.8159 0.0270
7 1 2 -4.1801 0.0895
7 1 3 2.5330 0.0808
7 1 4 -2.4240 -0.0610
7 1 5 -1.0777 -0.0659
7 1 6 -0.0364 0.0324
7 1 7 -0.0146 0.1899
7 1 8 -0.7494 0.0253
7 3 0 16.7434 0.3210
7 3 1 11.3827 0.1696
7 3 2 3.9947 -0.4163
7 3 3 -5.1642 -0.3004
7 3 4 2.3686 0.3370
7 3 5 2.6526 0.2537
7 3 6 -1.2043 -0.3230
7 3 7 -0.1451 -0.1922
7 3 8 -0.1609 -0.2073
7 5 0 7.2440 -0.3109
7 5 1 -8.4815 -0.4207
7 5 2 -0.1799 0.3276
7 5 3 0.5877 0.4661
7 5 4 -0.8325 -0.2444
7 5 5 0.2392 -0.3416
7 5 6 -0.1999 0.3113
7 5 7 0.0416 0.2349
7 7 0 0.8931 0.1794
7 7 1 -1.6519 0.4100
7 7 2 -6.1492 -0.0747
7 7 3 1.2640 -0.3539
7 7 4 1.4099 0.0528
7 7 5 0.4455 0.2887
7 7 6 -1.0173 -0.1899
7 7 7 -0.6972 -0.1945
7 9 0 -2.5030 -0.0737
7 9 1 -4.0250 -0.1774
7 9 2 3.4179 0.0012
7 9 3 3.6414 0.1438
7 9 4 -0.0977 0.0093
7 9 5 -0.7017 -0.1743
7 9 6 0.3672 0.0640
7 9 7 -0.8227 0.0454
7 11 0 1.9233 0.0707
7 11 1 2.6511 -0.1061
7 11 2 0.5106 -0.0867
7 11 3 -2.3118 0.0372
7 11 4 1.8556 0.0163
7 11 5 1.3241 0.0241
7 11 6 -0.3004 -0.0507
7 11 7 -0.3707 0.0436
7 13 0 -3.1742 -0.1521
7 13 1 -0.7409 0.1697
7 13 2 0.8541 0.2194
7 13 3 1.1941 -0.0136
7 13 4 -0.7083 -0.1381
7 13 5 -0.4097 0.0851
7 13 6 -0.2382 0.0484
7 15 0 0.9364 0.0917
7 15 1 0.4568 -0.1168
7 15 2 -1.1165 -0.2591
7 15 3 -0.0373 -0.0479
7 15 4 0.3964 0.1694
7 15 5 1.6468 -0.1464
7 15 6 0.7651 -0.1566
7 17 0 -0.1578 0.0353
7 17 1 -0.4561 0.0753
7 17 2 0.6901 0.1480
7 17 3 0.0997 0.1111
7 17 4 -0.8426 -0.1613
7 17 5 -0.3527 0.0990
7 19 0 0.4316 -0.1999
7 19 1 0.5521 -0.1327
7 19 2 0.2450 0.1273
7 19 3 -0.2471 0.0513
7 19 4 0.4010 0.1952
7 19 5 -0.1936 -0.0584
7 21 0 -0.8596 0.2126
7 21 1 -0.4642 0.0939
7 21 2 0.3226 -0.0974
7 21 3 -0.5618 -0.2217
7 21 4 -0.2858 -0.3551
7 23 0 0.3010 -0.0752
7 23 1 -0.9300 0.0203
7 23 2 -0.0396 0.4883
8 0 0 5.4919 -3.4980
8 0 2 1.8579 3.4405
8 0 4 4.6307 -3.0392
8 0 6 -1.4929 2.5718
8 0 8 1.0632 -1.4987
8 2 0 -13.6841 1.2005
8 2 1 1.4568 0.3885
8 2 2 3.4459 -1.0611
8 2 3 2.0074 -0.3280
8 2 4 -1.1715 0.8710
8 2 5 -0.0266 0.2696
8 2 6 1.7426 -0.8469
8 2 7 -0.1573 -0.0161
8 4 0 -6.5435 -0.4362
8 4 1 2.8003 -0.2244
8 4 2 -7.0189 0.3025
8 4 3 4.1292 0.2111
8 4 4 0.0443 -0.2216
8 4 5 -3.1104 -0.2507
8 4 6 0.2340 0.2442
8 4 7 -0.7999 0.1113
8 6 0 -6.5425 0.0489
8 6 1 3.4895 -0.0311
8 6 2 6.5400 0.0249
8 6 3 -3.4652 0.0481
8 6 4 -1.7667 -0.0120
8 6 5 0.9884 -0.0100
8 6 6 1.7215 -0.0310
8 6 7 0.0367 -0.0101
8 8 0 3.2368 -0.0083
8 8 1 1.9705 0.2355
8 8 2 -0.1168 -0.0029
8 8 3 -0.0854 -0.2872
8 8 4 0.2239 -0.0267
8 8 5 0.3583 0.2195
8 8 6 -0.3415 -0.0192
8 8 7 -0.3786 -0.1694
8 10 0 -1.8906 0.0594
8 10 1 1.6220 -0.3043
8 10 2 -1.5497 -0.1465
8 10 3 -2.3193 0.2797
8 10 4 -2.3249 0.1321
8 10 5 -0.5392 -0.2263
8 10 6 0.6475 -0.0519
8 10 7 0.4392 0.3015
8 12 0 2.7438 -0.0635
8 12 1 -2.3708 0.2216
8 12 2 -2.1300 0.1914
8 12 3 1.5309 -0.1502
8 12 4 1.0679 -0.1350
8 12 5 -0.3349 0.1681
8 12 6 -0.0285 0.1620
8 14 0 -0.8959 -0.0053
8 14 1 0.9714 -0.0646
8 14 2 1.5682 -0.0720
8 14 3 -1.4035 0.0792
8 14 4 -0.9270 0.0825
8 14 5 -0.2095 -0.1333
8 14 6 -0.0992 -0.2035
8 16 0 0.4172 0.1135
8 16 1 -0.0584 -0.0146
8 16 2 -0.6797 -0.1234
8 16 3 0.2685 -0.1712
8 16 4 0.7202 -0.0112
8 16 5 -0.4822 0.0165
8 16 6 -0.4081 0.1939
8 18 0 -0.3233 -0.1220
8 18 1 -0.0561 -0.0336
8 18 2 -0.2792 0.2468
8 18 3 -0.1970 0.2945
8 18 4 0.0405 -0.0166
8 18 5 0.9863 0.1262
8 20 0 0.0734 0.0665
8 20 1 -1.0603 0.0778
8 20 2 -0.0365 -0.3053
8 20 3 0.6814 -0.4614
8 20 4 0.3445 -0.4565
8 22 0 0.6779 0.1104
8 22 1 1.3364 0.2308
8 22 2 0.4846 0.0757
8 22 3 0.4129 0.7181
8 24 0 -0.2619 -0.1986
8 24 1 0.0671 -0.6261
9 1 0 3.4411 -0.0242
9 1 1 -5.6896 0.0123
9 1 2 -2.2870 0.1177
9 1 3 -0.4649 0.0797
9 1 4 -2.4398 -0.0860
9 1 5 -1.6889 -0.1006
9 1 6 0.6208 0.0225
9 1 7 0.5020 0.1630
9 3 0 8.3125 0.4044
9 3 1 -2.1960 0.1588
9 3 2 4.4528 -0.4085
9 3 3 -5.5721 -0.3233
9 3 4 1.8127 0.3512
9 3 5 3.3769 0.2462
9 3 6 -2.0068 -0.2441
9 3 7 0.6631 -0.1549
9 5 0 5.8703 -0.3330
9 5 1 -4.5508 -0.4196
9 5 2 -0.2827 0.2577
9 5 3 1.6392 0.4659
9 5 4 -0.5594 -0.2536
9 5 5 -0.0716 -0.3290
9 5 6 -0.4665 0.3178
9 5 7 0.7582 0.1424
9 7 0 2.2038 0.2044
9 7 1 -0.3008 0.4183
9 7 2 -5.3734 -0.1020
9 7 3 -0.7426 -0.3658
9 7 4 3.1081 0.0841
9 7 5 -0.4244 0.3048
9 7 6 -1.7482 -0.1661
9 7 7 0.7766 -0.0763
9 9 0 -2.6967 -0.0803
9 9 1 -2.9581 -0.1718
9 9 2 3.7361 -0.0145
9 9 3 3.3272 0.1686
9 9 4 -0.2282 0.0122
9 9 5 -1.1465 -0.1653
9 9 6 -0.0863 0.1076
9 9 7 0.6401 0.0691
9 11 0 1.4191 0.0925
9 11 1 2.0208 -0.0375
9 11 2 0.5207 -0.0555
9 11 3 -1.5767 -0.0233
9 11 4 0.8328 0.0812
9 11 5 1.8740 -0.0236
9 11 6 -0.1242 -0.0785
9 11 7 0.3873 -0.0990
9 13 0 -2.0063 -0.1091
9 13 1 -1.2476 0.1442
9 13 2 0.5959 0.2274
9 13 3 1.9475 -0.0096
9 13 4 -0.5793 -0.1701
9 13 5 -1.2019 0.0981
9 13 6 -0.3219 0.0778
9 15 0 1.4245 0.1051
9 15 1 0.4456 -0.1213
9 15 2 -0.3051 -0.2907
9 15 3 -0.4977 -0.1372
9 15 4 0.6382 0.1371
9 15 5 0.6978 0.0424
9 15 6 0.4469 0.0638
9 17 0 -0.3969 0.0178
9 17 1 -0.5372 0.0790
9 17 2 0.7039 0.1610
9 17 3 0.0114 0.2593
9 17 4 -0.7382 0.0077
9 17 5 -1.3132 -0.0266
9 19 0 0.2948 -0.1976
9 19 1 0.7079 -0.0340
9 19 2 -0.7047 -0.0219
9 19 3 0.1750 -0.1986
9 19 4 -0.0307 0.1175
9 21 0 -0.7520 0.2856
9 21 1 0.0566 0.0729
9 21 2 0.1572 -0.1596
9 21 3 -0.8614 -0.1214
9 23 0 -0.1242 -0.4819
9 23 1 -0.5284 -0.5582
9 23 2 -0.7888 0.1010
10 0 0 -1.5251 -3.4650
10 0 2 -0.6904 3.3147
10 0 4 3.3500 -3.0045
10 0 6 -2.6815 2.5705
10 2 0 -7.3468 1.0868
10 2 1 5.2383 0.3392
10 2 2 -2.3086 -1.0255
10 2 3 3.2129 -0.3241
10 2 4 -0.8094 0.8583
10 2 5 -0.1843 0.3164
10 2 6 1.9779 -0.8085
10 2 7 -1.0540 0.0364
10 4 0 -3.6461 -0.4253
10 4 1 3.5402 -0.2962
10 4 2 -3.0423 0.2896
10 4 3 2.7428 0.2050
10 4 4 0.9473 -0.2334
10 4 5 -3.2127 -0.2067
10 4 6 -0.2152 0.2994
10 4 7 -0.4083 0.0133
10 6 0 -6.2435 0.0687
10 6 1 0.6740 0.0325
10 6 2 5.5191 0.0885
10 6 3 -1.3917 0.0822
10 6 4 -3.6602 0.0118
10 6 5 1.9630 -0.0170
10 6 6 2.7971 -0.1246
10 6 7 -0.7077 0.0395
10 8 0 3.5883 -0.0089
10 8 1 0.6977 0.2262
10 8 2 -1.2781 -0.0021
10 8 3 1.3089 -0.2668
10 8 4 0.5172 -0.0460
10 8 5 0.4200 0.1590
10 8 6 0.2379 0.0293
10 8 7 -1.4663 -0.2013
10 10 0 -1.5809 0.0689
10 10 1 1.6582 -0.3499
10 10 2 -0.8113 -0.1583
10 10 3 -2.8595 0.2709
10 10 4 -1.5764 0.0822
10 10 5 -0.6340 -0.1817
10 10 6 0.9700 -0.1167
10 10 7 -0.2741 0.2469
10 12 0 2.1766 -0.1215
10 12 1 -0.8577 0.2077
10 12 2 -1.8273 0.2239
10 12 3 0.3302 -0.0867
10 12 4 1.8222 -0.1404
10 12 5 -0.0109 0.1662
10 12 6 -0.6355 0.1617
10 14 0 -1.7115 -0.0238
10 14 1 1.0707 -0.0499
10 14 2 1.1379 -0.1440
10 14 3 -0.7012 0.0136
10 14 4 -0.9890 0.0492
10 14 5 0.4397 -0.1923
10 14 6 0.5569 -0.2537
10 16 0 0.3007 0.1418
10 16 1 -0.1051 0.0050
10 16 2 -1.0756 -0.0392
10 16 3 0.8561 -0.0501
10 16 4 0.2400 0.0554
10 16 5 0.4448 0.0973
10 18 0 -0.3310 -0.1787
10 18 1 0.4485 -0.0704
10 18 2 0.6430 0.2645
10 18 3 -0.7515 0.2110
10 18 4 0.1464 -0.0774
10 18 5 1.4515 0.2339
10 20 0 0.2647 0.0735
10 20 1 -0.7563 -0.0266
10 20 2 0.3739 -0.1692
10 20 3 0.5897 -0.2604
10 20 4 0.4736 -0.3721
10 22 0 0.7979 0.1122
10 22 1 0.7277 0.2530
10 22 2 0.7643 0.4379
10 22 3 0.5846 0.5225
11 1 0 4.1254 -0.0145
11 1 1 -3.6332 -0.0204
11 1 2 3.6482 0.0703
11 1 3 -0.6587 0.1301
11 1 4 -1.2706 -0.1097
11 1 5 -1.6117 -0.0711
11 1 6 0.9209 -0.0238
11 1 7 1.0222 -0.0283
11 3 0 4.2501 0.4157
11 3 1 -2.8591 0.2664
11 3 2 2.6578 -0.3990
11 3 3 -3.4847 -0.3173
11 3 4 0.3423 0.3887
11 3 5 3.6340 0.2054
11 3 6 -1.3676 -0.3369
11 3 7 0.4349 0.0159
11 5 0 3.7805 -0.3637
11 5 1 -0.0960 -0.4280
11 5 2 -1.7243 0.2920
11 5 3 1.2389 0.4753
11 5 4 0.6074 -0.2607
11 5 5 -1.2703 -0.3861
11 5 6 0.1342 0.2532
11 5 7 0.1591 0.0254
11 7 0 1.5729 0.1712
11 7 1 0.6008 0.3991
11 7 2 -3.6890 -0.0933
11 7 3 -4.2298 -0.4234
11 7 4 2.7529 0.0591
11 7 5 0.1227 0.3284
11 7 6 -2.9123 -0.1067
11 7 7 0.7158 -0.0653
11 9 0 -3.0371 -0.0847
11 9 1 -2.7647 -0.1960
11 9 2 2.8041 -0.0673
11 9 3 4.2362 0.1574
11 9 4 -1.2084 0.0020
11 9 5 -0.9134 -0.1235
11 9 6 -0.2922 0.0825
11 9 7 0.9331 0.0799
11 11 0 1.2167 0.0966
11 11 1 0.8216 0.0037
11 11 2 0.2288 -0.0092
11 11 3 -1.0648 -0.0005
11 11 4 -0.0370 0.1405
11 11 5 1.6397 -0.0239
11 11 6 0.3595 -0.0420
11 13 0 -1.0909 -0.1197
11 13 1 -1.7615 0.1194
11 13 2 0.2882 0.1998
11 13 3 1.7381 -0.0214
11 13 4 -0.9437 -0.1697
11 13 5 -1.1979 0.0422
11 13 6 -0.3592 0.0553
11 15 0 1.5248 0.1523
11 15 1 0.7278 -0.1018
11 15 2 -0.0453 -0.2953
11 15 3 -1.6527 -0.1221
11 15 4 0.7171 0.1157
11 15 5 0.3340 0.0198
11 17 0 -0.4904 -0.0549
11 17 1 -0.7861 -0.0054
11 17 2 0.4603 0.2220
11 17 3 0.1523 0.2361
11 17 4 -0.2509 0.0047
11 17 5 -1.6028 -0.2647
11 19 0 0.4527 -0.0941
11 19 1 0.0837 0.0623
11 19 2 -1.7701 -0.1755
11 19 3 0.6074 -0.2810
11 19 4 -0.1213 -0.2953
11 21 0 -0.7505 0.3090
11 21 1 -0.4400 0.2340
11 21 2 0.3703 -0.1195
11 21 3 -0.7718 0.0624
11 23 0 -0.8295 -0.7307
11 23 1 -0.0340 -0.6617
12 0 0 -0.0971 -3.3526
12 0 2 -5.0433 3.2661
12 0 4 2.3428 -2.9584
12 0 6 -2.4509 2.5445
12 2 0 -5.1826 1.0706
12 2 1 2.6610 0.3000
12 2 2 -2.3771 -0.9421
12 2 3 0.5940 -0.3250
12 2 4 -0.7476 0.8552
12 2 5 -0.6043 0.3253
12 2 6 1.7670 -0.7525
12 2 7 -1.2154 -0.0505
12 4 0 0.4965 -0.3915
12 4 1 -2.6816 -0.3357
12 4 2 -0.5009 0.2280
12 4 3 0.8170 0.1989
12 4 4 1.2622 -0.2728
12 4 5 -1.7855 -0.1786
12 4 6 -2.0614 0.3879
12 4 7 0.6802 -0.0209
12 6 0 -5.2245 0.1145
12 6 1 -0.2404 0.0668
12 6 2 4.5486 0.0141
12 6 3 2.0708 0.0624
12 6 4 -4.1792 0.0325
12 6 5 1.6576 -0.0015
12 6 6 2.9592 -0.1024
12 6 7 -0.0509 0.2505
12 8 0 4.6697 -0.0162
12 8 1 0.3790 0.2200
12 8 2 -1.1825 0.0002
12 8 3 0.9971 -0.2188
12 8 4 2.7950 -0.0140
12 8 5 -0.7284 0.1392
12 8 6 0.3188 0.0729
12 8 7 -0.4468 -0.1666
12 10 0 -1.5163 0.0953
12 10 1 2.3101 -0.3060
12 10 2 0.3576 -0.1398
12 10 3 -2.7948 0.2363
12 10 4 -1.1800 0.1154
12 10 5 -0.1843 -0.1859
12 10 6 0.5379 -0.1190
12 12 0 1.4168 -0.0823
12 12 1 -0.1690 0.2101
12 12 2 -1.5615 0.2420
12 12 3 0.3374 -0.0797
12 12 4 2.2034 -0.1503
12 12 5 -0.4666 0.1421
12 12 6 -1.0461 0.1013
12 14 0 -1.2278 -0.0196
12 14 1 0.6888 -0.0649
12 14 2 1.3016 -0.1758
12 14 3 0.2751 -0.0874
12 14 4 -0.6142 -0.0053
12 14 5 0.2185 -0.0860
12 14 6 0.8416 -0.1182
12 16 0 0.5554 0.1493
12 16 1 -0.5392 0.0244
12 16 2 -1.0538 -0.0325
12 16 3 1.5721 0.1053
12 16 4 0.0891 0.1685
12 16 5 0.2120 0.3622
12 18 0 -0.4540 -0.2087
12 18 1 0.7439 -0.0129
12 18 2 1.5064 0.1933
12 18 3 -1.4269 0.0341
12 18 4 -0.2240 0.0263
12 20 0 0.1319 0.0972
12 20 1 0.1337 -0.0311
12 20 2 0.2687 -0.2053
12 20 3 0.5061 -0.1619
12 22 0 1.0794 0.0411
12 22 1 0.4325 -0.1926
12 22 2 0.4273 0.2978
13 1 0 -0.0964 -0.0744
13 1 1 -3.2950 -0.1002
13 1 2 2.7675 0.0029
13 1 3 2.0316 0.1502
13 1 4 -1.2093 -0.1040
13 1 5 -1.4518 -0.0320
13 1 6 0.2446 0.0795
13 1 7 0.9539 0.0540
13 3 0 0.3217 0.3964
13 3 1 4.3805 0.2779
13 3 2 -0.7184 -0.4005
13 3 3 -1.4473 -0.3368
13 3 4 -0.1542 0.3702
13 3 5 2.7427 0.2322
13 3 6 0.1014 -0.3200
13 3 7 -0.1724 0.1427
13 5 0 1.1857 -0.3640
13 5 1 1.7569 -0.4375
13 5 2 -0.7081 0.3682
13 5 3 0.6376 0.4768
13 5 4 1.8251 -0.2351
13 5 5 -2.1016 -0.3740
13 5 6 1.3109 0.1460
13 5 7 -0.5128 -0.2486
13 7 0 -0.2458 0.1466
13 7 1 1.1311 0.4186
13 7 2 -3.4692 -0.0268
13 7 3 -5.0979 -0.3887
13 7 4 -0.0100 0.0708
13 7 5 1.6345 0.3143
13 7 6 -2.5649 -0.1081
13 7 7 -0.6473 -0.1758
13 9 0 -2.2420 -0.0582
13 9 1 -3.3168 -0.2471
13 9 2 1.1075 -0.1117
13 9 3 4.7883 0.1524
13 9 4 -1.7562 -0.0679
13 9 5 -0.8136 -0.1273
13 9 6 0.8591 -0.0254
13 11 0 1.2919 0.0485
13 11 1 0.2791 -0.0086
13 11 2 0.1630 0.0431
13 11 3 -1.8707 0.0755
13 11 4 0.1085 0.0772
13 11 5 1.3771 -0.0007
13 11 6 0.5603 0.0180
13 13 0 -1.1614 -0.1968
13 13 1 -1.0126 0.0951
13 13 2 -0.1086 0.1246
13 13 3 1.1938 -0.0946
13 13 4 -1.1919 -0.1561
13 13 5 -0.1557 0.0004
13 13 6 -0.0707 0.0350
13 15 0 0.6229 0.2197
13 15 1 0.9837 -0.0336
13 15 2 -0.3328 -0.2553
13 15 3 -2.2680 0.0033
13 15 4 0.5565 0.1561
13 15 5 0.5206 -0.1140
13 17 0 -1.0774 -0.1387
13 17 1 -0.5685 -0.0789
13 17 2 0.5021 0.3232
13 17 3 0.4356 0.1010
13 17 4 -0.3890 -0.0892
13 19 0 0.6591 0.0123
13 19 1 0.2218 -0.0134
13 19 2 -1.8219 -0.1693
13 19 3 0.5223 -0.0821
13 19 4 0.2018 -0.5973
13 21 0 -0.6809 0.1240
13 21 1 -0.6033 0.2725
13 21 2 0.7096 0.3163
13 23 0 -1.0461 -0.5250
14 0 0 6.8933 -3.2665
14 0 2 -3.1977 3.1799
14 0 4 3.9794 -2.9343
14 0 6 -1.2491 2.5118
14 2 0 -1.4092 1.0448
14 2 1 0.2949 0.3455
14 2 2 3.2178 -0.9071
14 2 3 -0.9243 -0.3017
14 2 4 -1.0077 0.8854
14 2 5 -0.3296 0.2869
14 2 6 1.4081 -0.8874
14 2 7 -0.6645 -0.3226
14 4 0 4.0428 -0.3897
14 4 1 -6.3225 -0.3078
14 4 2 -1.7314 0.2467
14 4 3 0.7087 0.2688
14 4 4 0.5915 -0.2622
14 4 5 -0.1242 -0.2246
14 4 6 -3.1110 0.2944
14 4 7 0.9618 0.1477
14 6 0 -2.7643 0.1121
14 6 1 -0.0374 0.0555
14 6 2 4.3305 -0.0291
14 6 3 2.3414 -0.0037
14 6 4 -2.9362 -0.0010
14 6 5 0.5068 -0.0377
14 6 6 2.0645 0.0093
14 6 7 0.4153 0.4825
14 8 0 3.5584 -0.0654
14 8 1 0.3383 0.2028
14 8 2 0.0499 -0.0444
14 8 3 -0.6070 -0.2513
14 8 4 4.1302 -0.0308
14 8 5 -1.1384 0.1821
14 8 6 -1.2229 0.0847
14 10 0 -1.7969 0.0982
14 10 1 2.8365 -0.2541
14 10 2 0.7802 -0.1158
14 10 3 -1.1944 0.2169
14 10 4 -1.8496 0.2096
14 10 5 0.6808 -0.1878
14 10 6 -0.4352 -0.0354
14 12 0 0.8945 -0.0364
14 12 1 -1.0485 0.2007
14 12 2 -1.1986 0.2180
14 12 3 0.8926 -0.0963
14 12 4 1.7634 -0.1111
14 12 5 -1.5414 0.1199
14 12 6 -0.9836 0.0003
14 14 0 0.0530 -0.0028
14 14 1 0.6606 -0.0683
14 14 2 1.4380 -0.1295
14 14 3 0.1500 -0.0905
14 14 4 -0.7197 -0.0200
14 14 5 0.1746 -0.0454
14 16 0 1.2978 0.1247
14 16 1 -0.5788 -0.0316
14 16 2 -1.3318 -0.0735
14 16 3 1.6042 0.1823
14 16 4 0.7318 0.1294
14 16 5 -0.4249 0.4574
14 18 0 0.2194 -0.2131
14 18 1 0.0769 0.0363
14 18 2 1.0879 0.1106
14 18 3 -1.4402 -0.1687
14 18 4 -0.1949 -0.0150
14 20 0 0.0099 0.2204
14 20 1 -0.5066 0.2058
14 20 2 -0.2703 -0.3613
14 20 3 0.6845 -0.1184
14 22 0 0.8619 0.0837
14 22 1 -0.1342 -0.5024
15 1 0 -4.5916 -0.0611
15 1 1 -5.2063 -0.1145
15 1 2 -0.7261 0.0515
15 1 3 3.0693 0.1213
15 1 4 -2.0637 -0.0531
15 1 5 -1.8088 -0.0662
15 1 6 -0.1569 0.1652
15 1 7 0.2878 0.2604
15 3 0 -2.3419 0.4085
15 3 1 6.4193 0.2351
15 3 2 -2.1496 -0.4213
15 3 3 -3.4866 -0.3285
15 3 4 0.4515 0.2982
15 3 5 1.6026 0.2699
15 3 6 0.7192 -0.1381
15 3 7 -0.3435 0.1710
15 5 0 -1.1698 -0.3235
15 5 1 0.9799 -0.4253
15 5 2 0.7989 0.3050
15 5 3 1.1876 0.3979
15 5 4 1.8435 -0.2562
15 5 5 -1.6971 -0.3298
15 5 6 1.2155 0.1335
15 7 0 -0.2574 0.1674
15 7 1 1.5695 0.4242
15 7 2 -4.5593 -0.0213
15 7 3 -2.8898 -0.3157
15 7 4 -1.7303 0.1287
15 7 5 1.7298 0.2909
15 7 6 -0.9948 -0.0295
15 9 0 0.1578 -0.0115
15 9 1 -3.6825 -0.2507
15 9 2 0.3802 -0.1012
15 9 3 3.7135 0.1589
15 9 4 -0.3784 -0.0370
15 9 5 -1.3686 -0.1158
15 9 6 2.6467 -0.1061
15 11 0 1.0304 0.0671
15 11 1 0.6441 0.0169
15 11 2 0.0922 0.0867
15 11 3 -2.7169 0.1239
15 11 4 0.7878 -0.0004
15 11 5 1.1422 -0.0078
15 11 6 0.1760 0.0178
15 13 0 -1.4298 -0.2062
15 13 1 -0.4223 0.0716
15 13 2 -0.0775 0.0624
15 13 3 1.1304 -0.2122
15 13 4 -0.6923 -0.1683
15 13 5 0.3672 0.0277
15 15 0 -0.0501 0.2417
15 15 1 0.0045 0.0011
15 15 2 -0.1398 -0.2456
15 15 3 -1.5975 0.1295
15 15 4 0.8163 0.2297
15 15 5 0.2075 -0.0498
15 17 0 -1.8966 -0.1797
15 17 1 -0.3734 -0.0254
15 17 2 1.3360 0.3289
15 17 3 0.6174 -0.0342
15 17 4 -1.3030 -0.0291
15 19 0 0.1074 0.0855
15 19 1 1.5457 -0.0789
15 19 2 -0.7250 -0.1618
15 19 3 -0.2158 0.1981
15 21 0 -0.5239 -0.2490
15 21 1 0.5331 -0.0210
15 21 2 0.5691 0.5578
16 0 0 8.2762 -3.2247
16 0 2 -4.1381 3.0518
16 0 4 5.1062 -2.9023
16 0 6 -1.1161 2.5384
16 2 0 0.4673 0.9741
16 2 1 1.8654 0.3529
16 2 2 4.7965 -0.9536
16 2 3 1.1903 -0.3540
16 2 4 -1.8546 0.8743
16 2 5 0.3129 0.2298
16 2 6 0.7835 -0.8165
16 4 0 4.4858 -0.3595
16 4 1 -5.2845 -0.3021
16 4 2 -3.5382 0.3310
16 4 3 1.9807 0.3061
16 4 4 0.5819 -0.2399
16 4 5 -0.1562 -0.1689
16 4 6 -1.9066 0.0969
16 6 0 -1.3710 0.0594
16 6 1 -0.1340 0.0391
16 6 2 5.1892 0.0538
16 6 3 0.1747 0.0002
16 6 4 -1.4073 0.0457
16 6 5 -0.0079 -0.0367
16 6 6 1.3950 -0.0128
16 8 0 -0.5207 -0.0736
16 8 1 0.4693 0.2050
16 8 2 0.7277 -0.0739
16 8 3 -1.0648 -0.2520
16 8 4 2.3332 -0.0881
16 8 5 -0.1221 0.1999
16 8 6 -2.4745 -0.0990
16 10 0 -1.4577 0.0566
16 10 1 2.6248 -0.2847
16 10 2 0.6989 -0.0655
16 10 3 0.3074 0.2775
16 10 4 -2.4632 0.1279
16 10 5 1.3109 -0.2483
16 10 6 -0.8297 0.0496
16 12 0 0.7397 -0.1044
16 12 1 -1.6582 0.1651
16 12 2 -1.0663 0.1439
16 12 3 0.9572 -0.1680
16 12 4 1.0851 -0.1219
16 12 5 -1.8646 0.1342
16 14 0 0.3767 0.0146
16 14 1 1.8326 -0.0167
16 14 2 0.7755 -0.0605
16 14 3 -0.5013 0.0045
16 14 4 -1.6297 0.0493
16 14 5 0.9718 -0.1055
16 16 0 0.9418 0.1078
16 16 1 0.0968 -0.0761
16 16 2 -1.7836 -0.0501
16 16 3 0.9810 0.1396
16 16 4 1.0799 -0.0385
16 18 0 1.0629 -0.1997
16 18 1 -0.5457 -0.0555
16 18 2 -0.1488 0.1856
16 18 3 -0.8731 -0.2879
16 20 0 0.2270 0.3096
16 20 1 -1.9219 0.3448
16 20 2 -0.6384 -0.2771
17 1 0 -3.5074 -0.0357
17 1 1 -5.6854 -0.0476
17 1 2 2.3135 0.1154
17 1 3 2.2950 0.0755
17 1 4 -1.2552 0.0086
17 1 5 -2.2852 -0.0630
17 1 6 0.5598 -0.1311
17 3 0 -1.8515 0.3795
17 3 1 4.3808 0.2335
17 3 2 -0.6107 -0.4070
17 3 3 -5.6948 -0.1719
17 3 4 0.7845 0.3231
17 3 5 1.6666 0.2176
17 3 6 0.2115 -0.1536
17 5 0 -1.3399 -0.3143
17 5 1 1.0632 -0.3982
17 5 2 0.5556 0.2407
17 5 3 2.0977 0.3404
17 5 4 0.4336 -0.3038
17 5 5 -0.2214 -0.3719
17 5 6 -0.0515 0.2099
17 7 0 2.5582 0.1575
17 7 1 1.4060 0.3947
17 7 2 -4.8230 -0.0905
17 7 3 -1.4655 -0.3465
17 7 4 -0.9032 0.0726
17 7 5 0.1787 0.2190
17 7 6 -0.2905 0.2348
17 9 0 1.7562 -0.0318
17 9 1 -3.0917 -0.2060
17 9 2 0.1297 -0.0974
17 9 3 1.7579 0.0981
17 9 4 1.1295 0.1032
17 9 5 -1.3778 -0.0570
17 9 6 2.7533 -0.0308
17 11 0 0.1228 0.1293
17 11 1 0.8074 0.0445
17 11 2 0.0294 0.0554
17 11 3 -2.1457 0.0973
17 11 4 0.6739 0.0541
17 11 5 0.6746 0.0134
17 13 0 -1.1555 -0.1408
17 13 1 -0.9794 0.0710
17 13 2 0.8262 0.1045
17 13 3 0.8133 -0.2162
17 13 4 -0.0675 -0.1200
17 13 5 -0.2196 0.0396
17 15 0 0.8109 0.1873
17 15 1 -1.0474 -0.0722
17 15 2 0.1534 -0.2592
17 15 3 -0.7567 0.1979
17 15 4 1.6499 0.2067
17 17 0 -1.0070 -0.1766
17 17 1 -0.5085 0.0488
17 17 2 1.7047 0.1705
17 17 3 0.6646 -0.0857
17 19 0 -0.4136 0.1316
17 19 1 1.9494 0.0523
17 19 2 0.3265 -0.2849
17 21 0 -0.5004 -0.4437
18 0 0 3.7910 -3.1563
18 0 2 -8.7133 3.0361
18 0 4 3.2779 -2.8068
18 0 6 -1.8844 2.3883
18 2 0 0.2189 0.9414
18 2 1 1.8200 0.3389
18 2 2 0.9940 -0.9839
18 2 3 1.8298 -0.4278
18 2 4 -2.7062 0.8470
18 2 5 0.4333 0.1643
18 2 6 0.2612 -0.2993
18 4 0 2.3162 -0.2643
18 4 1 -4.4937 -0.2899
18 4 2 -3.3822 0.3037
18 4 3 1.6756 0.2208
18 4 4 1.4017 -0.3440
18 4 5 -1.7885 -0.0649
18 4 6 -0.0543 -0.0030
18 6 0 -2.0458 0.0297
18 6 1 -0.8132 0.0142
18 6 2 4.7552 0.0799
18 6 3 -0.6406 0.0113
18 6 4 -0.6071 0.1251
18 6 5 0.2290 -0.0203
18 6 6 1.0965 -0.1136
18 8 0 -3.3554 0.0237
18 8 1 0.1659 0.2273
18 8 2 0.7660 -0.0584
18 8 3 0.1662 -0.1907
18 8 4 0.1466 -0.0364
18 8 5 0.3850 0.2756
18 8 6 -1.4581 -0.3355
18 10 0 -0.0313 0.0547
18 10 1 1.9591 -0.3192
18 10 2 0.9609 0.0080
18 10 3 0.4649 0.3984
18 10 4 -1.3660 -0.0304
18 10 5 1.0628 -0.2951
18 12 0 0.8305 -0.1378
18 12 1 -1.1447 0.1654
18 12 2 -1.7801 0.0879
18 12 3 0.6770 -0.2724
18 12 4 0.8663 -0.1629
18 12 5 -1.1264 0.1351
18 14 0 -0.3513 0.0306
18 14 1 2.2135 0.0086
18 14 2 0.0125 -0.0932
18 14 3 -0.2922 0.0741
18 14 4 -2.0821 0.1078
18 16 0 -1.1733 0.0918
18 16 1 0.1751 -0.0083
18 16 2 -1.2132 0.0036
18 16 3 0.3834 0.0273
18 16 4 0.4255 -0.0914
18 18 0 0.3881 -0.1498
18 18 1 -0.1164 -0.1373
18 18 2 -0.7175 0.3919
18 18 3 -0.5588 -0.2743
18 20 0 0.2513 0.2046
18 20 1 -1.7066 0.1655
19 1 0 -1.1635 -0.0527
19 1 1 -2.6011 -0.0173
19 1 2 5.3720 0.0896
19 1 3 2.0389 0.0080
19 1 4 0.3821 -0.0351
19 1 5 -2.2964 -0.0519
19 1 6 1.0748 -0.5059
19 3 0 -0.7257 0.3452
19 3 1 3.1272 0.2208
19 3 2 0.6425 -0.3591
19 3 3 -3.7413 -0.0933
19 3 4 0.6710 0.3606
19 3 5 2.3330 0.1483
19 3 6 -0.5761 -0.3024
19 5 0 -0.3322 -0.3297
19 5 1 2.4364 -0.4128
19 5 2 0.2739 0.3186
19 5 3 2.0203 0.3742
19 5 4 -0.4956 -0.2105
19 5 5 1.1037 -0.2196
19 5 6 -0.4972 0.2137
19 7 0 4.0762 0.1113
19 7 1 1.3031 0.3846
19 7 2 -3.1226 -0.1181
19 7 3 -1.7205 -0.3546
19 7 4 0.1678 -0.0033
19 7 5 -0.7843 0.1396
19 9 0 0.4895 -0.1093
19 9 1 -1.7565 -0.1802
19 9 2 -0.5817 -0.0596
19 9 3 0.4469 0.1067
19 9 4 0.3798 0.1261
19 9 5 -0.0482 -0.1867
19 11 0 -0.6301 0.0868
19 11 1 0.4596 -0.0223
19 11 2 0.4933 -0.0245
19 11 3 -0.9989 0.0003
19 11 4 -0.1237 -0.0369
19 11 5 0.1091 0.0336
19 13 0 -0.7414 -0.1268
19 13 1 -0.9259 0.1308
19 13 2 1.7656 0.2022
19 13 3 0.0963 -0.1247
19 13 4 -0.1230 -0.0288
19 15 0 1.9232 0.1435
19 15 1 -0.2005 -0.1508
19 15 2 -0.2227 -0.1997
19 15 3 -0.4516 0.1842
19 15 4 1.8239 0.1008
19 17 0 1.3469 -0.1349
19 17 1 -0.5207 0.0157
19 17 2 0.9590 0.0160
19 17 3 0.5965 -0.0749
19 19 0 -0.0192 0.1344
19 19 1 0.7249 0.1457
20 0 0 0.6493 -3.1104
20 0 2 -6.6577 3.0297
20 0 4 1.1019 -2.7067
20 0 6 -1.8601 1.6926
20 2 0 0.6927 0.9253
20 2 1 0.1376 0.3350
20 2 2 -0.6798 -0.9542
20 2 3 0.2464 -0.3125
20 2 4 -2.5578 0.9568
20 2 5 0.4134 0.2062
20 2 6 0.4557 0.1176
20 4 0 0.8582 -0.2598
20 4 1 -3.8458 -0.2199
20 4 2 -1.7886 0.2279
20 4 3 0.4073 0.2292
20 4 4 1.0262 -0.4285
20 4 5 -2.6033 -0.1840
20 6 0 -2.0470 0.0108
20 6 1 -1.3722 -0.0263
20 6 2 2.1491 0.0095
20 6 3 0.0326 -0.0416
20 6 4 -0.4984 0.0215
20 6 5 0.3465 -0.2480
20 8 0 -1.7603 0.0907
20 8 1 -0.7292 0.2607
20 8 2 0.3920 -0.0556
20 8 3 0.6789 -0.2590
20 8 4 0.2455 0.0685
20 8 5 -0.5554 0.4459
20 10 0 1.0717 0.0684
20 10 1 1.5933 -0.2974
20 10 2 1.0844 -0.0665
20 10 3 0.3658 0.3743
20 10 4 0.3664 0.0476
20 10 5 0.3811 -0.1300
20 12 0 0.9653 -0.0233
20 12 1 -1.0244 0.2136
20 12 2 -2.6165 0.1415
20 12 3 0.3143 -0.2665
20 12 4 0.6938 0.0468
20 14 0 -0.6597 0.0114
20 14 1 0.4591 -0.0814
20 14 2 -0.0379 -0.1878
20 14 3 0.1793 0.1174
20 14 4 -1.2006 0.0693
20 16 0 -2.4420 0.0418
20 16 1 -0.5513 0.0705
20 16 2 -0.1901 -0.0409
20 16 3 0.0146 -0.0373
20 18 0 -0.8297 -0.0796
20 18 1 0.5473 -0.0536
20 18 2 -0.5408 0.4856
21 1 0 -0.4319 -0.1060
21 1 1 0.1523 -0.0004
21 1 2 2.2084 0.0719
21 1 3 1.1436 0.0104
21 1 4 0.9625 -0.0759
21 1 5 -1.9702 -0.1764
21 3 0 -0.8712 0.4113
21 3 1 1.1731 0.2295
21 3 2 -0.2984 -0.3547
21 3 3 -1.3304 -0.2937
21 3 4 1.0051 0.1981
21 3 5 1.7502 0.0362
21 5 0 -0.2763 -0.2854
21 5 1 2.4425 -0.4525
21 5 2 0.5934 0.3489
21 5 3 0.8728 0.3688
21 5 4 0.1178 -0.1078
21 5 5 1.1337 0.2317
21 7 0 2.2879 0.1429
21 7 1 1.5275 0.4007
21 7 2 -0.6879 -0.1002
21 7 3 -1.1798 -0.3059
21 7 4 -0.0518 0.0467
21 7 5 -0.3523 0.2151
21 9 0 -1.5678 -0.0997
21 9 1 -1.2712 -0.1862
21 9 2 -0.7074 0.0676
21 9 3 0.1772 0.3026
21 9 4 -1.0107 0.0368
21 9 5 1.0689 -0.4571
21 11 0 -0.5472 0.0402
21 11 1 0.5119 -0.1111
21 11 2 1.0723 -0.0359
21 11 3 -0.6588 -0.0462
21 11 4 -0.2203 -0.4189
21 13 0 -0.5242 -0.1602
21 13 1 0.4875 0.2106
21 13 2 1.6051 0.1542
21 13 3 0.0115 -0.1016
21 13 4 -0.3788 -0.0393
21 15 0 1.1829 0.1543
21 15 1 1.2594 -0.1288
21 15 2 -0.4156 -0.1059
21 15 3 -0.1304 0.0856
21 17 0 1.9788 -0.0771
21 17 1 -0.3540 -0.0170
21 17 2 0.2884 0.0622
22 0 0 -0.7253 -3.0433
22 0 2 -0.4591 2.9056
22 0 4 -0.2485 -2.6811
22 2 0 0.9030 0.9509
22 2 1 0.4457 0.2807
22 2 2 0.5993 -0.8861
22 2 3 0.4133 -0.1354
22 2 4 -2.0057 0.9539
22 2 5 0.7043 0.4155
22 4 0 1.0513 -0.3819
22 4 1 -1.5253 -0.1806
22 4 2 -0.0927 0.2649
22 4 3 0.4020 0.3104
22 4 4 -0.4266 -0.2396
22 4 5 -1.4502 -0.3069
22 6 0 -1.2110 -0.0023
22 6 1 -1.0823 -0.0773
22 6 2 0.0523 -0.0273
22 6 3 0.2855 -0.0079
22 6 4 -0.4306 -0.0637
22 6 5 0.2155 -0.5560
22 8 0 0.9351 0.0064
22 8 1 -0.7201 0.2775
22 8 2 -0.6556 -0.0087
22 8 3 -0.3997 -0.2883
22 8 4 1.0117 0.1317
22 10 0 0.5820 -0.0243
22 10 1 1.6359 -0.2934
22 10 2 0.7670 -0.2799
22 10 3 0.8613 0.1556
22 10 4 0.4816 0.1748
22 12 0 0.8776 0.0480
22 12 1 -1.8221 0.2526
22 12 2 -2.2386 0.3372
22 12 3 -0.1304 -0.1725
22 12 4 0.1123 0.4019
22 14 0 -0.2438 -0.0398
22 14 1 -1.1168 -0.1745
22 14 2 0.0916 -0.1530
22 14 3 0.1022 0.1329
22 16 0 -0.8861 0.0246
22 16 1 -0.5718 0.0480
22 16 2 -0.0668 -0.1420
23 1 0 0.7714 -0.2229
23 1 1 0.3249 0.0010
23 1 2 -0.7118 0.0335
23 1 3 -0.6435 0.1542
23 1 4 1.3261 0.2044
23 1 5 -1.2615 -0.2236
23 3 0 -1.1894 0.4408
23 3 1 -1.2618 0.2765
23 3 2 -1.2850 -0.3809
23 3 3 -0.9895 -0.3902
23 3 4 1.4220 0.0714
23 3 5 0.4943 -0.2266
23 5 0 -0.2364 -0.2813
23 5 1 0.8180 -0.4346
23 5 2 0.4683 0.2528
23 5 3 0.0437 0.3816
23 5 4 0.6854 -0.2590
23 7 0 0.7053 0.2420
23 7 1 1.1715 0.4193
23 7 2 0.6592 -0.0878
23 7 3 0.0116 -0.4648
23 7 4 -0.5424 -0.0232
23 9 0 -1.4546 -0.0499
23 9 1 -2.0292 -0.1580
23 9 2 -0.0127 0.0579
23 9 3 0.4912 0.3374
23 9 4 -0.6073 0.0371
23 11 0 -0.0211 0.1586
23 11 1 1.2271 -0.1025
23 11 2 0.6662 -0.0177
23 11 3 -0.8718 0.0540
23 13 0 -0.0174 -0.1454
23 13 1 1.2196 0.1933
23 13 2 0.7831 -0.1032
23 13 3 0.2571 -0.1024
23 15 0 -0.6554 0.1294
23 15 1 1.0775 -0.0905
23 15 2 0.1360 -0.1171
24 0 0 -2.0720 -2.8996
24 0 2 0.7989 2.8325
24 0 4 -1.2847 -2.4856
24 2 0 -0.1957 1.0403
24 2 1 1.3654 0.2883
24 2 2 0.8372 -0.7793
24 2 3 1.0233 -0.1432
24 2 4 -1.5542 0.4533
24 4 0 1.2988 -0.3911
24 4 1 0.5367 -0.2009
24 4 2 0.3345 0.3170
24 4 3 0.3001 0.0674
24 4 4 -0.7806 0.0170
24 6 0 -1.4328 0.0868
24 6 1 -0.1962 -0.0911
24 6 2 -0.0484 -0.0702
24 6 3 0.1155 0.1166
24 6 4 -0.2465 0.1095
24 8 0 1.0646 -0.0788
24 8 1 0.3368 0.2278
24 8 2 -1.3941 0.1915
24 8 3 -1.3304 0.0431
24 8 4 0.7007 0.2464
24 10 0 -0.5781 -0.0703
24 10 1 1.2939 -0.3265
24 10 2 0.9336 -0.3177
24 10 3 0.9231 0.0185
24 12 0 0.3851 -0.0291
24 12 1 -2.0324 0.2535
24 12 2 -1.1060 0.5583
24 12 3 -0.1818 -0.1502
24 14 0 -0.1323 -0.0626
24 14 1 -0.7050 -0.1268
24 14 2 -0.1411 0.0074
24 16 0 1.0843 0.0889
25 1 0 2.0492 -0.1968
25 1 1 -0.2047 -0.1343
25 1 2 0.0199 -0.0630
25 1 3 -0.7375 0.2085
25 1 4 1.1112 0.5973
25 3 0 -1.0574 0.3157
25 3 1 -1.5924 0.2545
25 3 2 -0.9458 -0.3129
25 3 3 -0.2034 -0.1462
25 3 4 0.8383 0.2502
25 5 0 0.4751 -0.4165
25 5 1 -0.5572 -0.3851
25 5 2 0.3723 0.1784
25 5 3 0.4574 0.5898
25 5 4 0.4140 -0.3971
25 7 0 0.7248 0.2928
25 7 1 0.3529 0.3508
25 7 2 0.2777 -0.0575
25 7 3 0.0590 -0.7189
25 9 0 -0.0356 -0.2340
25 9 1 -2.2064 -0.0913
25 9 2 0.0042 -0.2468
25 9 3 1.1976 0.0154
25 11 0 0.2624 0.2487
25 11 1 1.5964 -0.0405
25 11 2 -0.2723 -0.0365
25 13 0 0.6413 -0.1102
25 13 1 0.4058 0.0860
25 13 2 0.4932 -0.3115
26 0 0 -2.0132 -2.8071
26 0 2 -0.9707 2.6685
26 0 4 -0.3604 -1.7394
26 2 0 -1.0420 0.9361
26 2 1 0.7971 0.3760
26 2 2 0.6580 -0.7592
26 2 3 -0.1946 -0.1174
26 2 4 -0.4285 -0.1322
26 4 0 1.0652 -0.2841
26 4 1 0.8674 -0.2468
26 4 2 -0.5287 0.2564
26 4 3 -0.7033 -0.3769
26 6 0 -1.4772 0.2082
26 6 1 0.4146 0.0773
26 6 2 0.7391 -0.1327
26 6 3 0.0963 0.1010
26 8 0 0.0676 -0.0148
26 8 1 0.8082 0.1721
26 8 2 -0.6392 0.4292
26 8 3 -1.2850 0.3634
26 10 0 -0.7985 0.1883
26 10 1 0.5059 -0.2821
26 10 2 1.3542 -0.1404
26 12 0 -0.0259 -0.0636
26 12 1 -1.0861 0.2058
27 1 0 1.6328 0.1928
27 1 1 -0.0982 -0.2474
27 1 2 0.3994 0.1036
27 1 3 0.5522 -0.0150
27 3 0 -0.7520 0.2712
27 3 1 -0.3618 0.2842
27 3 2 -0.5748 -0.0847
27 3 3 0.5373 -0.0051
27 5 0 0.6027 -0.4397
27 5 1 -0.7161 -0.3643
27 5 2 0.5923 0.1132
27 5 3 1.0598 0.7539
27 7 0 0.3672 0.3178
27 7 1 -0.2561 0.0617
27 7 2 -1.0306 -0.0246
27 9 0 0.4635 -0.6087
27 9 1 -1.1347 -0.0605
27 9 2 -0.4800 -0.5212
27 11 0 0.1167 0.1132
27 11 1 0.9215 -0.0259
28 0 0 -0.2014 -2.6063
28 0 2 -1.1313 1.8980
28 2 0 -0.9391 0.4931
28 2 1 -0.3442 0.2095
28 2 2 1.2730 -0.9156
28 2 3 -0.7921 0.1344
28 4 0 0.5576 -0.3583
28 4 1 0.1840 -0.3847
28 4 2 -1.0417 0.1331
28 6 0 -0.3244 0.1685
28 6 1 0.5209 0.4176
28 6 2 1.2266 -0.0909
28 8 0 -0.3562 0.0604
28 8 1 0.4931 0.1794
28 10 0 -0.1506 0.5025
29 1 0 0.1873 0.5660
29 1 1 0.2816 -0.0610
29 1 2 -0.1015 0.5674
29 3 0 -0.2111 0.4217
29 3 1 0.5768 0.5089
29 3 2 -0.5656 0.1540
29 5 0 0.2625 -0.1961
29 5 1 0.0074 -0.2860
29 7 0 -0.0379 0.3370
29 7 1 -0.8315 -0.2947
30 0 0 1.5186 -1.8435
30 2 0 -0.5876 0.0858
30 2 1 -0.7699 -0.1977
30 4 0 -0.0583 -0.5266
30 4 1 -0.5276 -0.5333
30 6 0 0.3166 0.0824
0 0 0 0.0 0.0
;
_shelx_fab_checksum                33111
_olex2_submission_special_instructions  'No special instructions were received'
