 
data_OAV-660b_a
 
_audit_creation_method            'SHELXL-2019/3'
_shelx_SHELXL_version_number      '2019/3'
_chemical_name_systematic         ?
_chemical_name_common             ?
_chemical_melting_point           ?
_chemical_formula_moiety          ?
_chemical_formula_sum
 'C H Mn N O' 
_chemical_formula_weight          97.97

loop_
 _atom_type_symbol
 _atom_type_description
 _atom_type_scat_dispersion_real
 _atom_type_scat_dispersion_imag
 _atom_type_scat_source
 'C'  'C'   0.0033   0.0016
 'International Tables Vol C Tables 4.2.6.8 and 6.1.1.4'
 'H'  'H'   0.0000   0.0000
 'International Tables Vol C Tables 4.2.6.8 and 6.1.1.4'
 'N'  'N'   0.0061   0.0033
 'International Tables Vol C Tables 4.2.6.8 and 6.1.1.4'
 'O'  'O'   0.0106   0.0060
 'International Tables Vol C Tables 4.2.6.8 and 6.1.1.4'
 'Mn'  'Mn'   0.3368   0.7283
 'International Tables Vol C Tables 4.2.6.8 and 6.1.1.4'
 
_space_group_crystal_system       monoclinic
_space_group_IT_number            14
_space_group_name_H-M_alt         'P 21/n'
_space_group_name_Hall            '-P 2yn'
 
_shelx_space_group_comment
;
The symmetry employed for this shelxl refinement is uniquely defined
by the following loop, which should always be used as a source of
symmetry information in preference to the above space-group names.
They are only intended as comments.
;
 
loop_
 _space_group_symop_operation_xyz
 'x, y, z'
 '-x+1/2, y+1/2, -z+1/2'
 '-x, -y, -z'
 'x-1/2, -y-1/2, z-1/2'
 
_cell_length_a                    4.8603(2)
_cell_length_b                    17.6406(6)
_cell_length_c                    11.5064(4)
_cell_angle_alpha                 90
_cell_angle_beta                  100.9350(10)
_cell_angle_gamma                 90
_cell_volume                      968.63(6)
_cell_formula_units_Z             12
_cell_measurement_temperature     150(2)
_cell_measurement_reflns_used     ?
_cell_measurement_theta_min       ?
_cell_measurement_theta_max       ?
 
_exptl_crystal_description        ?
_exptl_crystal_colour             ?
_exptl_crystal_density_meas       ?
_exptl_crystal_density_method     ?
_exptl_crystal_density_diffrn     2.015          
_exptl_crystal_F_000              564
_exptl_transmission_factor_min    ?
_exptl_transmission_factor_max    ?
_exptl_crystal_size_max           ?
_exptl_crystal_size_mid           ?
_exptl_crystal_size_min           ?
_exptl_absorpt_coefficient_mu     3.821
_shelx_estimated_absorpt_T_min    ?
_shelx_estimated_absorpt_T_max    ?
_exptl_absorpt_correction_type    ?
_exptl_absorpt_correction_T_min   ?
_exptl_absorpt_correction_T_max   ?
_exptl_absorpt_process_details    ?
_exptl_absorpt_special_details    ?
_diffrn_ambient_temperature       150(2)
_diffrn_radiation_wavelength      0.71073
_diffrn_radiation_type            MoK\a
_diffrn_source                    ?
_diffrn_measurement_device_type   ?
_diffrn_measurement_method        ?
_diffrn_detector_area_resol_mean  ?
_diffrn_reflns_number             9622
_diffrn_reflns_av_unetI/netI      0.0927
_diffrn_reflns_av_R_equivalents   0.0772
_diffrn_reflns_limit_h_min        -6
_diffrn_reflns_limit_h_max        6
_diffrn_reflns_limit_k_min        -24
_diffrn_reflns_limit_k_max        24
_diffrn_reflns_limit_l_min        -14
_diffrn_reflns_limit_l_max        15
_diffrn_reflns_theta_min          2.309
_diffrn_reflns_theta_max          29.591
_diffrn_reflns_theta_full         25.242
_diffrn_measured_fraction_theta_max   1.000
_diffrn_measured_fraction_theta_full  0.999
_diffrn_reflns_Laue_measured_fraction_max    1.000
_diffrn_reflns_Laue_measured_fraction_full   0.999
_diffrn_reflns_point_group_measured_fraction_max   1.000
_diffrn_reflns_point_group_measured_fraction_full  0.999
_reflns_number_total              2721
_reflns_number_gt                 1773
_reflns_threshold_expression      'I > 2\s(I)'
_reflns_Friedel_coverage          0.000
_reflns_Friedel_fraction_max      .
_reflns_Friedel_fraction_full     .
 
_reflns_special_details
;
 Reflections were merged by SHELXL according to the crystal
 class for the calculation of statistics and refinement.
 
 _reflns_Friedel_fraction is defined as the number of unique
 Friedel pairs measured divided by the number that would be
 possible theoretically, ignoring centric projections and
 systematic absences.
;
 
_computing_data_collection        ?
_computing_cell_refinement        ?
_computing_data_reduction         ?
_computing_structure_solution     'SHELXT 2018/2 (Sheldrick, 2018)'
_computing_structure_refinement 'SHELXL-2019/2 (Sheldrick, 2019)'
_computing_molecular_graphics     ?
_computing_publication_material   ?
_refine_special_details           ?
_refine_ls_structure_factor_coef  Fsqd
_refine_ls_matrix_type            full
_refine_ls_weighting_scheme       calc
_refine_ls_weighting_details
'w=1/[\s^2^(Fo^2^)+(0.0603P)^2^] where P=(Fo^2^+2Fc^2^)/3'
_atom_sites_solution_primary      ?
_atom_sites_solution_secondary    ?
_atom_sites_solution_hydrogens    geom
_refine_ls_hydrogen_treatment     constr
_refine_ls_extinction_method      none
_refine_ls_extinction_coef        .
_refine_ls_number_reflns          2721
_refine_ls_number_parameters      179
_refine_ls_number_restraints      0
_refine_ls_R_factor_all           0.0926
_refine_ls_R_factor_gt            0.0510
_refine_ls_wR_factor_ref          0.1303
_refine_ls_wR_factor_gt           0.1133
_refine_ls_goodness_of_fit_ref    0.990
_refine_ls_restrained_S_all       0.990
_refine_ls_shift/su_max           0.000
_refine_ls_shift/su_mean          0.000
 
loop_
 _atom_site_label
 _atom_site_type_symbol
 _atom_site_fract_x
 _atom_site_fract_y
 _atom_site_fract_z
 _atom_site_U_iso_or_equiv
 _atom_site_adp_type
 _atom_site_occupancy
 _atom_site_site_symmetry_order  
 _atom_site_calc_flag
 _atom_site_refinement_flags_posn
 _atom_site_refinement_flags_adp
 _atom_site_refinement_flags_occupancy
 _atom_site_disorder_assembly
 _atom_site_disorder_group
O1 O 0.7533(4) 0.48629(10) 0.36089(17) 0.0156(4) Uani 1 1 d . . . . .
N3 N -0.0102(4) 0.17897(12) 0.0404(2) 0.0139(5) Uani 1 1 d . . . . .
Mn01 Mn 1.500000 0.500000 0.500000 0.01188(17) Uani 1 2 d S . P . .
N004 N 0.5625(5) 0.26347(12) 0.2347(2) 0.0134(5) Uani 1 1 d . . . . .
N005 N 0.1474(5) 0.11575(12) 0.0724(2) 0.0139(5) Uani 1 1 d . . . . .
O2 O 1.1830(4) 0.43367(11) 0.39724(18) 0.0186(5) Uani 1 1 d . . . . .
C2 C 0.1164(6) 0.24092(15) 0.0939(2) 0.0156(6) Uani 1 1 d . . . . .
H2 H 0.049058 0.291555 0.085190 0.019 Uiso 1 1 calc R U . . .
N1 N 0.9411(5) 0.29050(12) 0.3557(2) 0.0167(5) Uani 1 1 d . . . . .
N2 N 0.7922(5) 0.23332(13) 0.3053(2) 0.0172(5) Uani 1 1 d . . . . .
C009 C 0.5641(5) 0.33976(14) 0.2424(3) 0.0143(6) Uani 1 1 d . . . . .
H009 H 0.426927 0.374161 0.203185 0.017 Uiso 1 1 calc R U . . .
C00A C 0.9206(6) 0.43171(15) 0.3630(2) 0.0134(6) Uani 1 1 d . . . . .
C00C C 0.8059(5) 0.35647(15) 0.3190(2) 0.0134(6) Uani 1 1 d . . . . .
C00D C 0.3622(5) 0.21665(15) 0.1635(2) 0.0136(6) Uani 1 1 d . . . . .
C00E C 0.3753(6) 0.13905(15) 0.1467(2) 0.0157(6) Uani 1 1 d . . . . .
H00E H 0.524878 0.107222 0.182848 0.019 Uiso 1 1 calc R U . . .
C4 C -0.079(4) 0.5549(7) 0.0717(10) 0.058(6) Uani 0.393(15) 1 d . . P A 1
H4A H -0.196419 0.525505 0.116888 0.070 Uiso 0.393(15) 1 calc R U P A 1
H4B H -0.069154 0.607874 0.100671 0.070 Uiso 0.393(15) 1 calc R U P A 1
C0 C 0.213(4) 0.5213(10) 0.0911(14) 0.054(5) Uani 0.393(15) 1 d . . P A 1
H0A H 0.333529 0.551829 0.048377 0.065 Uiso 0.393(15) 1 calc R U P A 1
H0B H 0.297515 0.522154 0.176453 0.065 Uiso 0.393(15) 1 calc R U P A 1
O4 O 0.198(4) 0.4468(12) 0.0494(18) 0.052(5) Uani 0.393(15) 1 d . . P A 1
C3 C 0.101(2) 0.5053(5) 0.1207(8) 0.038(2) Uani 0.607(15) 1 d . . P A 2
H3A H 0.260817 0.507705 0.188495 0.045 Uiso 0.607(15) 1 calc R U P A 2
H3B H -0.073684 0.510735 0.152053 0.045 Uiso 0.607(15) 1 calc R U P A 2
O3 O 0.102(3) 0.4331(7) 0.0635(13) 0.039(2) Uani 0.607(15) 1 d . . P A 2
C1 C 0.124(2) 0.5699(4) 0.0374(7) 0.044(3) Uani 0.607(15) 1 d . . P A 2
H1A H 0.117164 0.618700 0.079339 0.053 Uiso 0.607(15) 1 calc R U P A 2
H1B H 0.305300 0.566963 0.010591 0.053 Uiso 0.607(15) 1 calc R U P A 2
 
loop_
 _atom_site_aniso_label
 _atom_site_aniso_U_11
 _atom_site_aniso_U_22
 _atom_site_aniso_U_33
 _atom_site_aniso_U_23
 _atom_site_aniso_U_13
 _atom_site_aniso_U_12
O1 0.0155(9) 0.0119(10) 0.0191(11) -0.0006(8) 0.0027(8) -0.0003(7)
N3 0.0138(11) 0.0079(10) 0.0190(13) -0.0031(9) 0.0007(10) -0.0007(9)
Mn01 0.0096(3) 0.0084(3) 0.0160(3) -0.0008(2) -0.0017(2) 0.0003(2)
N004 0.0128(11) 0.0094(10) 0.0167(12) -0.0018(9) -0.0006(9) -0.0004(9)
N005 0.0148(11) 0.0100(11) 0.0159(12) -0.0008(9) 0.0007(9) -0.0019(9)
O2 0.0123(9) 0.0184(10) 0.0230(12) -0.0052(9) -0.0017(8) -0.0022(8)
C2 0.0164(13) 0.0092(12) 0.0202(15) -0.0028(11) 0.0004(11) -0.0018(11)
N1 0.0148(12) 0.0144(11) 0.0195(13) -0.0039(10) -0.0003(10) -0.0012(9)
N2 0.0132(11) 0.0125(11) 0.0234(14) -0.0005(10) -0.0032(10) 0.0014(9)
C009 0.0137(13) 0.0086(12) 0.0188(15) -0.0005(11) -0.0010(11) 0.0009(10)
C00A 0.0145(13) 0.0140(13) 0.0107(14) 0.0001(11) 0.0003(11) -0.0006(11)
C00C 0.0115(13) 0.0129(13) 0.0154(15) -0.0029(11) 0.0014(11) -0.0013(10)
C00D 0.0117(13) 0.0145(13) 0.0139(14) -0.0028(11) 0.0007(11) -0.0031(10)
C00E 0.0150(13) 0.0140(13) 0.0175(15) -0.0005(11) 0.0015(11) -0.0016(11)
C4 0.099(13) 0.041(7) 0.027(6) -0.009(5) -0.007(7) 0.034(8)
C0 0.084(13) 0.055(10) 0.020(8) -0.005(6) -0.001(7) 0.032(9)
O4 0.095(14) 0.043(10) 0.012(5) 0.004(5) -0.004(8) 0.042(9)
C3 0.064(6) 0.032(4) 0.016(4) 0.000(3) 0.006(3) 0.017(4)
O3 0.065(6) 0.024(3) 0.026(5) 0.007(3) 0.001(4) 0.017(4)
C1 0.068(6) 0.030(3) 0.027(4) 0.002(3) -0.007(4) 0.009(4)
 
_geom_special_details
;
 All esds (except the esd in the dihedral angle between two l.s. planes)
 are estimated using the full covariance matrix.  The cell esds are taken
 into account individually in the estimation of esds in distances, angles
 and torsion angles; correlations between esds in cell parameters are only
 used when they are defined by crystal symmetry.  An approximate (isotropic)
 treatment of cell esds is used for estimating esds involving l.s. planes.
;
 
loop_
 _geom_bond_atom_site_label_1
 _geom_bond_atom_site_label_2
 _geom_bond_distance
 _geom_bond_site_symmetry_2
 _geom_bond_publ_flag
O1 C00A 1.258(3) . ?
O1 Mn01 2.2099(19) 1_455 ?
N3 C2 1.344(3) . ?
N3 N005 1.363(3) . ?
Mn01 O2 2.1094(18) . ?
Mn01 O2 2.1094(18) 3_866 ?
Mn01 N005 2.269(2) 2_655 ?
Mn01 N005 2.269(2) 4_766 ?
N004 C009 1.349(3) . ?
N004 N2 1.358(3) . ?
N004 C00D 1.414(3) . ?
N005 C00E 1.329(3) . ?
O2 C00A 1.262(3) . ?
C2 C00D 1.375(4) . ?
N1 N2 1.311(3) . ?
N1 C00C 1.364(3) . ?
C009 C00C 1.361(4) . ?
C00A C00C 1.490(4) . ?
C00D C00E 1.386(4) . ?
C4 O4 1.41(2) 3_565 ?
C4 C0 1.51(3) . ?
C0 O4 1.40(3) . ?
C3 O3 1.435(17) . ?
C3 C1 1.506(14) . ?
O3 C1 1.440(16) 3_565 ?
 
loop_
 _geom_angle_atom_site_label_1
 _geom_angle_atom_site_label_2
 _geom_angle_atom_site_label_3
 _geom_angle
 _geom_angle_site_symmetry_1
 _geom_angle_site_symmetry_3
 _geom_angle_publ_flag
C00A O1 Mn01 121.14(17) . 1_455 ?
C2 N3 N005 110.9(2) . . ?
O2 Mn01 O2 180.0 . 3_866 ?
O2 Mn01 O1 88.93(7) . 1_655 ?
O2 Mn01 O1 91.08(7) 3_866 1_655 ?
O2 Mn01 O1 91.07(7) . 3_766 ?
O2 Mn01 O1 88.92(7) 3_866 3_766 ?
O1 Mn01 O1 180.0 1_655 3_766 ?
O2 Mn01 N005 98.47(8) . 2_655 ?
O2 Mn01 N005 81.53(8) 3_866 2_655 ?
O1 Mn01 N005 90.75(7) 1_655 2_655 ?
O1 Mn01 N005 89.25(7) 3_766 2_655 ?
O2 Mn01 N005 81.53(8) . 4_766 ?
O2 Mn01 N005 98.47(8) 3_866 4_766 ?
O1 Mn01 N005 89.25(7) 1_655 4_766 ?
O1 Mn01 N005 90.75(7) 3_766 4_766 ?
N005 Mn01 N005 180.00(11) 2_655 4_766 ?
C009 N004 N2 111.0(2) . . ?
C009 N004 C00D 128.0(2) . . ?
N2 N004 C00D 121.0(2) . . ?
C00E N005 N3 106.1(2) . . ?
C00E N005 Mn01 132.89(18) . 2_645 ?
N3 N005 Mn01 121.00(16) . 2_645 ?
C00A O2 Mn01 141.06(18) . . ?
N3 C2 C00D 106.6(2) . . ?
N2 N1 C00C 109.0(2) . . ?
N1 N2 N004 106.6(2) . . ?
N004 C009 C00C 104.6(2) . . ?
O1 C00A O2 126.6(3) . . ?
O1 C00A C00C 118.5(2) . . ?
O2 C00A C00C 114.9(2) . . ?
C009 C00C N1 108.8(2) . . ?
C009 C00C C00A 129.4(2) . . ?
N1 C00C C00A 121.8(2) . . ?
C2 C00D C00E 106.5(2) . . ?
C2 C00D N004 125.6(2) . . ?
C00E C00D N004 127.8(2) . . ?
N005 C00E C00D 109.9(2) . . ?
O4 C4 C0 109.7(14) 3_565 . ?
O4 C0 C4 109.3(16) . . ?
C0 O4 C4 110.2(15) . 3_565 ?
O3 C3 C1 111.9(8) . . ?
C3 O3 C1 109.6(10) . 3_565 ?
O3 C1 C3 110.5(8) 3_565 . ?
 
_refine_diff_density_max    0.841
_refine_diff_density_min   -0.392
_refine_diff_density_rms    0.098

_shelx_res_file
;
TITL OAV-660b_a.res in P2(1)/n
    OAV-660b_a.res
    created by SHELXL-2019/3 at 10:15:58 on 25-Apr-2024
REM Old TITL OAV-660b in P2(1)/n
REM SHELXT solution in P2(1)/n: R1 0.154, Rweak 0.008, Alpha 0.030
REM <I/s>   0.235 for   76 systematic absences,  Orientation as input
REM Formula found by SHELXT:  C22 N8 Mn
CELL  0.71073   4.8603  17.6406  11.5064   90.000  100.935   90.000
ZERR   12.000   0.0002   0.0006   0.0004    0.000    0.001    0.000
LATT  1
SYMM 1/2-X, 1/2+Y, 1/2-Z
SFAC C H N O MN
UNIT 12 12 12 12 12
ACTA
LIST 4
TEMP -123.150
L.S. 10
BOND
REM LIST 6
FMAP 2
PLAN 20
WGHT    0.060300
FVAR       0.44772   0.39319
O1    4    0.753292    0.486293    0.360889    11.00000    0.01555    0.01188 =
         0.01914   -0.00058    0.00273   -0.00031
N3    3   -0.010184    0.178970    0.040432    11.00000    0.01381    0.00790 =
         0.01896   -0.00305    0.00066   -0.00071
MN01  5    1.500000    0.500000    0.500000    10.50000    0.00962    0.00839 =
         0.01600   -0.00079   -0.00172    0.00027
N004  3    0.562489    0.263475    0.234742    11.00000    0.01282    0.00935 =
         0.01665   -0.00181   -0.00063   -0.00037
N005  3    0.147363    0.115752    0.072386    11.00000    0.01482    0.01005 =
         0.01585   -0.00082    0.00071   -0.00192
O2    4    1.183032    0.433671    0.397240    11.00000    0.01228    0.01836 =
         0.02302   -0.00523   -0.00175   -0.00216

C2    1    0.116361    0.240917    0.093851    11.00000    0.01641    0.00916 =
         0.02019   -0.00278    0.00044   -0.00180
AFIX  43
H2    2    0.049058    0.291555    0.085190    11.00000   -1.20000
AFIX   0
N1    3    0.941120    0.290500    0.355727    11.00000    0.01476    0.01436 =
         0.01953   -0.00385   -0.00030   -0.00121
N2    3    0.792168    0.233320    0.305314    11.00000    0.01318    0.01254 =
         0.02341   -0.00049   -0.00316    0.00140
C009  1    0.564073    0.339758    0.242449    11.00000    0.01375    0.00864 =
         0.01877   -0.00050   -0.00102    0.00093
AFIX  43
H009  2    0.426927    0.374161    0.203185    11.00000   -1.20000
AFIX   0
C00A  1    0.920610    0.431710    0.362952    11.00000    0.01447    0.01403 =
         0.01072    0.00005    0.00025   -0.00063
C00C  1    0.805904    0.356468    0.319004    11.00000    0.01145    0.01294 =
         0.01540   -0.00290    0.00139   -0.00127
C00D  1    0.362220    0.216654    0.163467    11.00000    0.01171    0.01454 =
         0.01395   -0.00275    0.00066   -0.00310
C00E  1    0.375269    0.139051    0.146662    11.00000    0.01499    0.01395 =
         0.01749   -0.00046    0.00147   -0.00159
AFIX  43
H00E  2    0.524878    0.107222    0.182848    11.00000   -1.20000
AFIX   0
PART 1 21.0

C4    1   -0.078528    0.554909    0.071745    21.00000    0.09945    0.04061 =
         0.02675   -0.00863   -0.00721    0.03369
AFIX  23
H4A   2   -0.196419    0.525505    0.116888    21.00000   -1.20000
H4B   2   -0.069154    0.607874    0.100671    21.00000   -1.20000
AFIX   0
C0    1    0.213420    0.521345    0.091071    21.00000    0.08392    0.05494 =
         0.02024   -0.00463   -0.00091    0.03158
AFIX  23
H0A   2    0.333529    0.551829    0.048377    21.00000   -1.20000
H0B   2    0.297515    0.522154    0.176453    21.00000   -1.20000
AFIX   0
O4    4    0.198207    0.446785    0.049421    21.00000    0.09481    0.04319 =
         0.01190    0.00399   -0.00367    0.04218
PART 0
PART 2 -21.0
C3    1    0.101490    0.505331    0.120745   -21.00000    0.06426    0.03227 =
         0.01586    0.00048    0.00593    0.01734
AFIX  23
H3A   2    0.260817    0.507705    0.188495   -21.00000   -1.20000
H3B   2   -0.073684    0.510735    0.152053   -21.00000   -1.20000
AFIX   0
O3    4    0.102137    0.433072    0.063533   -21.00000    0.06531    0.02425 =
         0.02574    0.00731    0.00087    0.01656
C1    1    0.123744    0.569914    0.037428   -21.00000    0.06837    0.03041 =
         0.02662    0.00210   -0.00699    0.00894
AFIX  23
H1A   2    0.117164    0.618700    0.079339   -21.00000   -1.20000
H1B   2    0.305300    0.566963    0.010591   -21.00000   -1.20000
PART 0
AFIX   0
HKLF 4




REM  OAV-660b_a.res in P2(1)/n
REM wR2 = 0.1303, GooF = S = 0.990, Restrained GooF = 0.990 for all data
REM R1 = 0.0510 for 1773 Fo > 4sig(Fo) and 0.0926 for all 2721 data
REM 179 parameters refined using 0 restraints

END

WGHT      0.0603      0.0000

REM Highest difference peak  0.841,  deepest hole -0.392,  1-sigma level  0.098
Q1    1  -0.1627  0.1705 -0.0151  11.00000  0.05    0.84
Q2    1   0.0370  0.2108  0.0539  11.00000  0.05    0.40
Q3    1   0.6941  0.3586  0.2711  11.00000  0.05    0.39
Q4    1   0.8516  0.1942  0.3038  11.00000  0.05    0.37
Q5    1   1.2139  0.2719  0.4571  11.00000  0.05    0.37
Q6    1   0.2480  0.1185  0.1427  11.00000  0.05    0.35
Q7    1   0.6361  0.3071  0.2109  11.00000  0.05    0.35
Q8    1   0.0866  0.0752  0.0445  11.00000  0.05    0.35
Q9    1   1.2773  0.3072  0.4024  11.00000  0.05    0.34
Q10   1   1.3588  0.3784  0.4240  11.00000  0.05    0.34
Q11   1  -0.1879  0.5905  0.0946  11.00000  0.05    0.33
Q12   1   0.3146  0.5636  0.2392  11.00000  0.05    0.33
Q13   1   0.6405  0.3481  0.3044  11.00000  0.05    0.32
Q14   1   1.2682  0.3901  0.3468  11.00000  0.05    0.32
Q15   1   0.0971  0.0947  0.1164  11.00000  0.05    0.31
Q16   1   0.1890  0.2231  0.1743  11.00000  0.05    0.31
Q17   1   0.4096  0.4899  0.2187  11.00000  0.05    0.31
Q18   1   0.4305  0.1313  0.1789  11.00000  0.05    0.30
Q19   1   1.6775  0.5018  0.4478  11.00000  0.05    0.30
Q20   1  -0.1388  0.6678  0.0970  11.00000  0.05    0.30
;
_shelx_res_checksum   99183

_shelx_hkl_file
;
   1   0   0    0.50    0.80
   1   0   0   -0.10    1.20
  -1   0   0   -0.90    1.20
  -1   0   0   -0.10    1.00
  -2   0   0  172.48   11.70
  -2   0   0  181.38   10.70
   2   0   0  189.48   10.80
   2   0   0  172.28   11.40
   3   0   0   -1.50    2.10
  -3   0   0   -1.30    3.30
   3   0   0   -0.60    2.50
  -3   0   0   -2.70    4.50
   4   0   0   21.90    6.50
   4   0   0   19.40    6.50
   5   0   0    1.00    5.50
   5   0   0   -2.30    4.90
   6   0   0   33.70    9.90
   6   0   0   22.40   11.40
  -1  -1   0   19.50    3.40
  -1  -1   0   26.60    2.90
   1  -1   0   28.60    3.40
   1  -1   0   27.60    3.30
   1   1   0   21.10    3.40
  -1   1   0   22.60    3.10
   1   1   0   26.10    2.80
  -1   1   0   25.50    3.30
   2  -1   0    2.50    2.80
  -2  -1   0    5.00    2.60
  -2  -1   0    2.60    1.80
   2  -1   0    2.70    2.30
  -2   1   0    1.00    2.00
  -2   1   0    1.50    2.00
   2   1   0    3.50    2.30
   2   1   0    1.80    2.10
   3  -1   0  617.54   27.50
  -3  -1   0  632.74   29.50
   3  -1   0  641.74   27.20
  -3  -1   0  616.84   26.10
   3   1   0  607.44   28.90
  -3   1   0  624.54   27.00
   3   1   0  621.74   26.00
   4  -1   0   37.20    9.00
   4  -1   0   15.20    6.10
   4   1   0   30.00    7.70
   4   1   0   20.80    7.20
   5  -1   0   56.49   12.60
   5  -1   0   67.69   12.20
   5   1   0   73.59   13.50
   5   1   0   49.60   10.20
   6  -1   0    1.90    9.40
   6  -1   0   21.50   11.00
   6   1   0   -1.00    9.00
   6   1   0    2.90    7.80
   0  -2   0   92.09    4.00
   1  -2   0  440.66   16.20
  -1  -2   0  454.95   17.10
   1  -2   0  461.35   14.50
  -1  -2   0  440.56   13.90
  -1   2   0  425.56   16.00
   1   2   0  446.86   13.90
   2  -2   0   36.10    5.30
  -2  -2   0   46.80    5.00
   2  -2   0   40.20    5.20
  -2  -2   0   40.30    6.30
  -2   2   0   50.79    6.30
   2   2   0   54.09    6.80
   2   2   0   45.70    5.10
  -2   2   0   47.80    5.90
   3  -2   0  128.09   11.40
   3  -2   0  109.49   10.90
  -3  -2   0  120.99   10.40
   3   2   0  139.29   10.60
  -3   2   0  133.19   13.80
   3   2   0  137.19   12.90
   4  -2   0  138.59   14.40
   4  -2   0  149.49   14.30
   4   2   0  161.68   13.70
   4   2   0  161.28   16.30
   5  -2   0    0.20    4.60
   5  -2   0  -12.20    4.80
   5   2   0    2.40    6.50
   5   2   0    2.10    5.50
   6  -2   0   16.10   10.30
   6  -2   0   23.70   10.80
   6   2   0   14.80    8.80
   6   2   0   23.00   10.50
   0  -3   0   -1.70    0.60
   0   3   0   -0.70    0.80
   0   3   0    0.20    0.80
  -1  -3   0    1.40    1.70
   1  -3   0    0.60    1.60
  -1  -3   0    1.90    1.10
   1  -3   0    0.80    1.20
   1   3   0    2.50    1.10
  -1   3   0    1.70    2.00
   1   3   0   -0.40    1.00
  -2  -3   0   73.19    6.30
  -2  -3   0   77.09    8.60
   2  -3   0   85.49    8.30
   2  -3   0   71.29    6.80
  -2   3   0   82.99    7.30
   2   3   0   64.89    8.00
   2   3   0   82.49    6.40
  -2   3   0   78.69    7.90
   3  -3   0   85.69    9.20
  -3  -3   0   93.49    9.00
   3  -3   0   90.79   10.50
   3   3   0   88.89    8.50
   3   3   0  104.79   11.70
   4  -3   0  121.79   13.60
   4  -3   0  125.99   12.90
   4   3   0  126.59   14.40
   4   3   0   97.89   11.00
   5  -3   0   43.70   10.90
   5   3   0   24.50    8.00
   5   3   0    7.40    8.00
   6  -3   0    2.70    8.70
   6  -3   0    5.50    7.90
   6   3   0   -0.40    6.90
   6   3   0   -0.10   10.30
   0  -4   0 1693.83   44.10
   0  -4   0 1693.83   43.00
   0   4   0 1766.42   44.10
   0   4   0 1731.13   43.10
   1  -4   0  261.37   13.00
  -1  -4   0  253.37   12.90
   1  -4   0  255.27    9.80
  -1  -4   0  259.77    9.80
  -1  -4   0  255.07   10.30
  -1   4   0  232.98   12.30
   1   4   0  254.87   12.80
   2  -4   0   71.29    6.30
  -2  -4   0   57.69    8.20
  -2  -4   0   75.29    6.30
   2  -4   0   65.19    7.30
  -2   4   0   63.99    7.80
   2   4   0   66.39    5.70
  -3  -4   0   70.99   10.10
   3  -4   0   59.29    7.80
   3  -4   0   56.29    9.10
   3   4   0   77.19   10.60
   3   4   0   87.29    8.30
   4  -4   0  209.58   22.50
   4  -4   0  224.98   16.70
   4   4   0  196.58   14.90
   4   4   0  203.38   21.90
   5  -4   0    4.20    6.40
   5  -4   0    8.00    5.90
   5   4   0    5.50    7.10
   5   4   0    2.80    4.70
   6  -4   0   -1.10    8.80
   6  -4   0    8.60    9.10
   6   4   0    5.40    9.30
   0  -5   0    1.60    1.50
   0  -5   0   -1.40    1.00
   0   5   0    1.10    1.50
   0   5   0    1.70    1.60
   1  -5   0  601.24   17.90
  -1  -5   0  609.54   19.30
  -1  -5   0  605.44   23.00
   1  -5   0  575.04   22.70
  -1  -5   0  576.24   18.50
  -1   5   0  592.24   22.80
   1   5   0  613.94   22.90
  -2  -5   0  142.99   12.30
  -2  -5   0  132.19    8.50
   2  -5   0  128.99   11.00
   2  -5   0  120.99    8.30
   2   5   0  148.29    8.60
   2   5   0  132.99   11.60
  -2   5   0  113.09   10.60
   3  -5   0  237.88   14.40
   3  -5   0  216.08   16.50
   3   5   0  235.08   13.70
   3   5   0  224.98   17.80
   4  -5   0   11.90    6.60
   4  -5   0   11.30    5.50
   4   5   0   21.40    7.80
   4   5   0    5.60    4.10
   5  -5   0  131.79   14.50
   5  -5   0  137.69   17.30
   5   5   0  109.69   23.60
   5   5   0   97.99   17.80
   6  -5   0   19.00   10.50
   0  -6   0   17.00    4.00
   0  -6   0   14.00    3.30
   0   6   0   11.00    3.00
   0   6   0   11.20    2.50
  -1  -6   0  120.59    7.50
  -1  -6   0  116.79    7.00
  -1  -6   0  131.09   10.00
   1  -6   0  108.79    5.90
   1  -6   0  118.79    9.80
  -1   6   0  126.99    9.70
   1   6   0  119.39    7.30
   1   6   0  117.39    9.30
  -2  -6   0  201.78   10.60
  -2  -6   0  205.38   15.30
   2  -6   0  197.58   10.30
   2  -6   0  197.38   14.50
  -2  -6   0  203.98   11.20
   2   6   0  214.18   14.90
   2   6   0  181.68   10.20
  -2   6   0  232.28   15.60
   3  -6   0   41.90    6.40
   3  -6   0   41.40    7.90
   3   6   0   43.80    5.90
   3   6   0   49.30    9.30
   4  -6   0  320.57   23.40
   4  -6   0  356.06   20.70
   4   6   0  398.36   27.10
   4   6   0  359.96   19.90
   5  -6   0   57.69   10.90
   5  -6   0   24.50    9.00
   5   6   0   23.30    9.30
   6  -6   0   18.10   11.00
   6  -6   0   41.90   11.50
   6   6   0   39.80   14.50
   0  -7   0   -0.90    1.50
   0  -7   0   -1.20    1.40
   0   7   0    0.40    1.80
   0   7   0    0.30    1.20
  -1  -7   0 1110.69   37.60
   1  -7   0 1140.19   30.20
  -1  -7   0 1142.59   33.30
   1  -7   0 1084.99   37.70
   1   7   0 1111.69   37.20
  -1   7   0 1114.99   30.00
  -1   7   0 1127.09   37.90
   1   7   0 1121.69   33.10
  -2  -7   0   50.49    5.40
   2  -7   0   44.80    7.30
   2  -7   0   43.40    4.90
   2  -7   0   31.80    4.20
   2   7   0   31.00    6.90
   3  -7   0  137.69   11.40
   3  -7   0  142.39   14.40
  -3  -7   0  144.49   13.20
   3   7   0  124.99   13.70
   3   7   0  149.09   10.60
   4  -7   0   11.90    5.00
   4  -7   0   15.90    5.50
   4   7   0   20.90    5.50
   4   7   0   14.50    6.70
   5  -7   0   23.20    7.50
   5  -7   0   11.50    8.10
   5   7   0   23.20   12.10
   6  -7   0  -12.00    9.80
   6   7   0    8.90   10.90
   0  -8   0  399.96   18.40
   0  -8   0  385.36   16.60
   0   8   0  400.56   16.80
   0   8   0  421.76   18.30
   1  -8   0   50.69    7.30
   1  -8   0   53.99    5.00
  -1  -8   0   32.50    5.00
  -1   8   0   59.69    4.80
   1   8   0   44.60    6.90
  -1   8   0   68.49    8.20
   1   8   0   49.10    5.80
   2  -8   0   -1.70    2.10
  -2  -8   0   -1.60    1.70
  -2  -8   0   -1.80    1.90
   2  -8   0    3.20    2.00
   2  -8   0    1.10    2.10
   2   8   0    2.50    2.80
   3  -8   0  131.39    9.00
  -3  -8   0  142.99   11.10
   3  -8   0  148.09   15.40
   3  -8   0  132.69   10.30
   3   8   0  145.59   15.10
   4  -8   0   43.40   10.70
   4  -8   0   49.99    7.80
   4   8   0   40.20    7.60
   4   8   0   60.99   14.00
   5  -8   0    0.40    5.70
   5  -8   0   17.00    8.50
   5   8   0    2.60    8.10
   5   8   0    0.00    4.60
   6  -8   0  -10.10    9.30
   6   8   0    4.10   12.00
   0  -9   0    0.10    2.30
   0  -9   0    0.20    2.20
   0   9   0    0.90    2.10
   0   9   0    3.30    3.00
   1  -9   0  280.27   12.10
  -1  -9   0  269.57   14.10
   1  -9   0  278.17   17.10
  -1  -9   0  263.57   16.60
   1   9   0  268.77   14.00
  -1   9   0  273.27   16.90
   1   9   0  251.87   15.80
  -1   9   0  268.67   11.60
   2  -9   0    5.20    3.80
   2  -9   0    4.40    2.50
  -2  -9   0    7.10    2.90
  -2  -9   0    5.30    2.70
   2  -9   0    4.70    2.70
   2   9   0    0.90    3.20
  -3  -9   0    2.40    2.90
   3  -9   0    4.80    3.40
   3  -9   0    7.70    3.40
   4  -9   0  153.98   12.30
   4  -9   0  121.19   11.60
  -4  -9   0  145.39   13.30
   4  -9   0  149.79   16.60
   4   9   0  120.89   16.70
   5  -9   0   43.30   12.20
  -5  -9   0   83.29   13.10
   5  -9   0   63.89   11.30
   5   9   0   54.89   10.10
   5   9   0   44.90   12.30
   6  -9   0    6.10   10.00
   6   9   0   11.50   12.00
   0 -10   0   -0.70    2.40
   0 -10   0    4.90    3.00
   0  10   0    1.60    2.40
   1 -10   0  411.76   22.20
   1 -10   0  414.96   16.20
  -1 -10   0  377.96   18.40
  -1  10   0  389.26   15.60
   1  10   0  407.36   21.30
   2 -10   0  205.08   10.80
  -2 -10   0  207.18   12.50
   2 -10   0  209.48   17.20
  -2 -10   0  194.88   11.80
   2  10   0  186.48   16.30
   3 -10   0   10.90    3.80
   3 -10   0    6.90    3.80
  -3 -10   0   11.40    5.00
   3 -10   0   10.60    3.80
  -3 -10   0    9.50    4.40
   3  10   0    4.30    5.40
   4 -10   0  159.88   11.70
   4 -10   0  153.48   17.80
  -4 -10   0  143.39   14.50
   4 -10   0  152.38   11.50
   4  10   0  181.08   20.20
   5 -10   0    2.30    5.70
   5 -10   0    3.10    7.10
  -5 -10   0    5.40    6.90
   5  10   0   11.60    9.40
   6 -10   0   21.80   10.80
   6  10   0   49.90   17.90
   0 -11   0    1.30    3.40
   0 -11   0    3.20    2.70
   0  11   0    2.40    3.30
   0  11   0    3.00    1.80
   1 -11   0  294.07   14.20
   1 -11   0  320.67   19.90
  -1 -11   0  334.27   17.30
   1  11   0  289.27   18.40
  -1  11   0  306.27   14.00
  -2 -11   0   82.09    8.20
   2 -11   0   85.89    6.40
   2 -11   0   82.19    7.20
  -2 -11   0   70.49    8.10
   2 -11   0   67.99   10.30
   2  11   0   86.49   11.80
   3 -11   0   87.69   13.40
   3 -11   0   82.79    7.10
   3 -11   0   80.29    7.10
  -3 -11   0   90.99   10.20
   3  11   0   83.79   12.60
  -4 -11   0   14.20    6.80
   4 -11   0   25.30    9.50
   4  11   0   23.00    8.50
   5 -11   0   49.60   14.40
  -5 -11   0   75.89   13.70
   0 -12   0  382.86   22.20
   0 -12   0  362.76   20.80
   0  12   0  377.86   18.90
  -1 -12   0   30.20    6.20
   1 -12   0   43.20    9.00
   1 -12   0   29.90    5.50
   1  12   0   41.10    8.90
  -1  12   0   45.70    5.50
   1  12   0   25.00    5.70
  -2 -12   0  167.78   12.60
   2 -12   0  175.48    9.60
   2 -12   0  175.38   16.90
   2  12   0  177.68   17.10
   3 -12   0  188.78   18.80
  -3 -12   0  167.98   13.10
   3 -12   0  164.58    9.30
   3 -12   0  176.78    9.00
   3  12   0  177.08   18.40
   4 -12   0  127.09    8.80
   4 -12   0  127.29   17.00
  -4 -12   0  155.28   14.10
   4  12   0   92.19   16.30
   5 -12   0   -0.90    7.90
  -5 -12   0   -1.30    7.10
   5  12   0    9.80    9.90
   0 -13   0   -3.80    4.20
   0 -13   0    2.80    3.60
   0  13   0    1.60    2.70
  -1 -13   0   46.40    7.80
   1 -13   0   36.10    8.80
   1 -13   0   56.79    7.40
   1  13   0   42.00    8.90
  -1  13   0   54.79    6.70
   2 -13   0   49.50   11.80
  -2 -13   0   71.89    8.80
   2 -13   0   55.89    6.30
  -2 -13   0   61.89    8.70
  -3 -13   0  212.68   15.10
   3 -13   0  218.88    9.80
  -3 -13   0  196.18   14.70
   3 -13   0  243.68   22.20
   3 -13   0  215.38    9.40
   3  13   0  218.58   21.30
   4 -13   0   41.90   12.10
  -4 -13   0   46.10    9.50
   4  13   0   49.70   13.60
   5 -13   0   19.20   12.20
   5  13   0   26.60   13.10
   0 -14   0  665.23   33.40
   0 -14   0  677.13   32.10
   0  14   0  707.13   29.30
  -1 -14   0   56.99    8.50
   1 -14   0   53.69    9.90
   1  14   0   45.70    9.30
  -1  14   0   39.10    6.60
   2 -14   0   36.00    6.10
   2 -14   0   60.39   11.50
  -2 -14   0   30.30    6.60
   2  14   0   28.50    8.60
   3 -14   0   13.20    7.40
   3 -14   0    7.80    2.50
  -3 -14   0   14.20    5.30
   3  14   0   16.50    8.20
   4 -14   0   12.30    9.00
  -4 -14   0   12.50    6.60
   4  14   0    3.30    6.70
   5 -14   0   16.30   11.50
   5  14   0   -6.90   10.50
   0 -15   0   -5.50    3.50
   0  15   0    4.20    3.40
   1 -15   0  101.09   13.10
  -1 -15   0  120.69   12.50
  -1  15   0  111.59    9.80
   1  15   0   85.09   11.80
   2 -15   0  134.99    9.90
  -2 -15   0  163.78   14.00
   2 -15   0  168.58   18.20
   2  15   0  156.68   17.70
   3 -15   0  183.38   20.90
  -3 -15   0  167.68   14.40
   3  15   0  153.68   19.40
   4 -15   0   -4.10    7.50
  -4 -15   0    6.40    6.90
   4  15   0    8.30   10.10
   5 -15   0   44.60   13.60
   5  15   0   42.00   15.20
   0 -16   0  390.66   24.80
   0  16   0  402.66   22.60
  -1 -16   0   57.99   10.40
   1 -16   0   55.59   10.80
  -1  16   0   72.39    8.50
   1  16   0   71.19   11.20
   2 -16   0   74.19    8.70
   2 -16   0   75.39   13.30
  -2 -16   0   76.79   10.60
   2  16   0   55.89   13.10
  -3 -16   0   37.30    8.50
   3 -16   0   25.40    9.80
   3  16   0   38.40   10.60
  -4 -16   0   23.60    9.20
   4 -16   0   24.90   11.50
   4  16   0   22.70   13.10
   5 -16   0  -16.00   10.60
   5  16   0   -1.10   10.70
   0 -17   0   -1.30    4.80
   0  17   0   -2.20    4.10
   1 -17   0  297.77   18.90
   1 -17   0  278.57   23.30
  -1 -17   0  343.97   22.60
  -1  17   0  294.67   17.10
   1  17   0  272.07   21.00
  -2 -17   0    8.20    5.10
   2 -17   0    1.40    6.80
   2  17   0   -5.40    5.10
   3 -17   0   40.20   12.60
  -3 -17   0   29.40    7.90
   3  17   0    8.90   10.30
  -4 -17   0   12.00    9.80
   4 -17   0   -3.20    8.70
   4  17   0    8.40   10.30
   0 -18   0  212.88   19.10
   0  18   0  194.28   16.40
   1 -18   0   -0.20    6.90
  -1 -18   0    0.50    5.70
  -1  18   0    0.40    3.80
   1  18   0   -8.20    4.40
   2 -18   0   60.79   10.30
   2 -18   0   67.79   15.30
  -2 -18   0   75.59   12.20
   2  18   0   86.49   14.80
   3 -18   0   -3.80    7.90
  -3 -18   0    2.80    7.10
   3  18   0    2.80    7.30
   4 -18   0   30.80   12.60
   4  18   0   26.30   11.10
   0 -19   0    6.30    7.20
   0  19   0   -1.90    4.50
  -1 -19   0    2.60    7.20
   1 -19   0   -3.90    5.80
   1  19   0    3.90    5.90
  -1  19   0   -2.20    4.30
  -2 -19   0    6.50    6.20
   2 -19   0    0.20    7.20
   2  19   0   -2.90    7.70
   3 -19   0   42.60   15.40
  -3 -19   0   30.90    9.50
   3  19   0   20.90   11.80
   4 -19   0   17.30   13.90
  -4 -19   0   16.20   10.70
   4  19   0    9.70   10.80
   0 -20   0    7.70    6.20
  -1 -20   0    1.30    5.80
   1 -20   0    2.60    7.00
   1  20   0   -0.70    7.10
  -1  20   0   13.10    6.10
   2 -20   0   36.30   12.10
  -2 -20   0   26.00   17.70
   2  20   0   29.70   11.80
   3 -20   0    5.00   10.30
   3  20   0   -3.30    8.90
   0 -21   0    2.30    7.20
   0  21   0   10.40    6.80
   1 -21   0  102.79   17.50
  -1 -21   0  159.48   18.40
  -1  21   0  148.39   14.10
   1  21   0  141.79   17.80
   2 -21   0   17.80   12.40
  -2 -21   0   31.30   11.40
   2  21   0    7.30    9.10
   3 -21   0   55.89   17.40
   3  21   0   21.90   11.90
   0 -22   0    2.50    9.50
   0  22   0    2.80    5.90
  -1 -22   0    5.60    8.30
   1 -22   0    2.80    8.90
  -1  22   0   -2.20    6.50
   1  22   0    6.30    8.20
   2 -22   0   21.50   14.30
  -2 -22   0   30.10    9.40
   2  22   0   11.50   10.30
   0 -23   0    8.70    9.80
   1 -23   0   13.30   10.90
  -1 -23   0    6.50    9.00
  -1  23   0   10.00    7.80
   2 -23   0   29.20   13.80
   2  23   0    6.70   10.40
   0 -24   0   -8.40   10.50
   0  24   0   -1.40    7.80
  -1 -24   0   20.50   12.00
   1 -24   0    6.60   11.30
  -1  24   0    6.50    8.80
   6   0  -1   -4.30    8.50
   6   0  -1    5.50    9.30
   5   0  -1   54.49   11.60
   5   0  -1   68.29   12.70
   4   0  -1    3.30    3.90
   4   0  -1   -1.40    3.50
   3   0  -1  404.66   20.20
  -3   0   1  368.56   19.80
   3   0  -1  330.77   18.80
  -2   0   1    1.90    2.00
   2   0  -1   -1.10    1.60
  -2   0   1   -1.20    1.90
   2   0  -1   -1.00    1.10
   1   0  -1  659.53   19.30
  -1   0   1  642.54   19.30
   1   0  -1  644.94   20.00
  -1   0   1  661.53   20.00
   0   0  -1   -0.30    0.30
   1   0   1 1536.65   39.70
  -1   0  -1 1569.74   43.00
  -1   0  -1 1572.44   39.90
   1   0   1 1567.74   43.10
  -2   0  -1    2.40    2.00
   2   0   1   -0.30    1.40
  -2   0  -1   -2.50    2.90
   2   0   1    1.50    2.50
   3   0   1  252.37   15.50
  -3   0  -1  268.57   16.30
   3   0   1  274.97   18.60
  -3   0  -1  228.08   20.50
   4   0   1   -1.80    5.30
   4   0   1   -0.30    3.30
   5   0   1  435.26   30.30
   5   0   1  449.95   27.30
   6   0   1   12.50    7.90
   6   0   1   -4.60   10.30
   6  -1  -1   69.39   15.60
   6  -1  -1   54.39   13.50
   6   1  -1   96.29   18.50
   6   1  -1   41.50   11.00
   5  -1  -1   74.29   14.30
   5  -1  -1   83.19   12.50
   5   1  -1   87.39   13.60
   5   1  -1   66.19   12.30
   4  -1  -1  139.09   14.20
   4  -1  -1  153.08   13.70
   4   1  -1  135.99   13.30
   4   1  -1  140.89   14.40
   3  -1  -1  204.78   14.00
  -3  -1   1  195.28   13.80
  -3  -1   1  214.48   15.90
   3  -1  -1  183.58   13.80
   3   1  -1  217.88   15.20
   3   1  -1  226.88   14.30
   2  -1  -1   30.30    4.40
  -2  -1   1   24.40    5.50
   2  -1  -1   12.90    3.50
  -2  -1   1   31.00    4.50
   2   1  -1   24.20    4.90
   2   1  -1   26.30    4.40
  -2   1   1   20.90    4.40
  -2   1   1   29.30    4.90
   1  -1  -1  563.54   16.30
   1  -1  -1  587.04   18.60
  -1  -1   1  560.64   18.30
  -1  -1   1  558.14   17.70
   1   1  -1  587.54   18.50
  -1   1   1  554.64   18.40
  -1  -1  -1  360.76   11.70
   1  -1   1  353.36   14.50
  -1  -1  -1  370.76   15.50
   1  -1   1  357.96   13.60
  -1   1  -1  366.56   14.80
  -1   1  -1  338.27   13.40
   1   1   1  372.36   15.50
   1   1   1  360.36   11.60
   2  -1   1  215.08   13.60
  -2  -1  -1  208.48   14.10
  -2  -1  -1  216.08   11.40
   2  -1   1  229.78   12.80
   2   1   1  242.58   14.90
  -2   1  -1  199.98   13.50
  -2   1  -1  216.78   12.60
   2   1   1  237.38   11.60
  -3  -1  -1    4.10    3.30
   3  -1   1   -0.60    3.40
   3  -1   1    2.70    2.30
  -3   1  -1    3.80    3.90
   3   1   1    6.20    4.00
   3   1   1    5.90    3.40
  -3   1  -1    1.60    5.00
   4  -1   1  101.09   11.90
   4  -1   1  118.79   14.00
   4   1   1  122.19   12.10
   4   1   1  114.99   14.30
   5  -1   1   20.10    8.30
   5  -1   1   24.50    9.40
   5   1   1   18.70    8.80
   5   1   1   19.10    8.70
   6  -1   1   37.30   14.10
   6  -1   1   38.60   12.30
   6   1   1   38.80   13.00
   6   1   1   45.60   12.50
   6  -2  -1   17.60    9.30
   6  -2  -1   -0.20    8.30
   6   2  -1   18.70    8.70
   6   2  -1   24.80   11.30
   5  -2  -1   87.59   13.00
   5  -2  -1   88.09   14.10
   5   2  -1   82.49   15.10
   5   2  -1  112.99   14.50
   4  -2  -1   10.80    4.50
   4  -2  -1    6.10    5.00
   4   2  -1    9.60    4.70
   4   2  -1    6.60    4.00
  -3  -2   1  211.48   15.90
  -3  -2   1  190.08   13.40
   3  -2  -1  198.88   14.70
   3  -2  -1  221.18   14.00
   3   2  -1  215.78   15.30
   3   2  -1  196.08   13.20
   2  -2  -1    1.00    1.50
  -2  -2   1    5.10    2.90
   2  -2  -1    1.30    1.80
  -2  -2   1    2.30    1.80
  -2   2   1    6.40    2.70
   2   2  -1    3.00    2.40
  -2   2   1   -1.00    1.60
   2   2  -1    0.40    1.20
   1  -2  -1 1137.69   31.80
   1  -2  -1 1119.99   27.10
  -1  -2   1 1115.49   31.80
  -1  -2   1 1107.39   30.40
  -1   2   1 1087.79   27.30
   1   2  -1 1152.28   30.50
  -1   2   1 1039.50   31.10
   1   2  -1 1102.39   31.70
   0  -2  -1  259.57    8.90
   0  -2   1  237.18    8.80
   0  -2   1  245.38    9.40
   0  -2  -1  240.98    7.40
   0   2   1  243.08    7.40
   0   2  -1  254.87    9.00
   0   2  -1  261.17    9.50
   0   2   1  239.88    8.70
  -1  -2  -1  198.48    7.20
   1  -2   1  198.98   10.20
   1  -2   1  200.98   10.30
  -1  -2  -1  189.58   10.80
  -1   2  -1  206.88   10.50
   1   2   1  193.78    7.10
   1   2   1  217.78   11.60
  -2  -2  -1    9.80    4.50
   2  -2   1   11.90    4.20
   2  -2   1    7.90    2.50
  -2  -2  -1    9.80    3.00
  -2   2  -1   16.00    4.20
  -2   2  -1   15.50    4.70
   2   2   1   13.20    4.90
   2   2   1   13.30    2.80
   3  -2   1   23.70    6.30
  -3  -2  -1   38.50    7.20
   3  -2   1   33.90    7.70
   3   2   1   37.20    5.80
   3   2   1   31.60    7.20
   4  -2   1   67.89   10.40
   4  -2   1   74.99   11.80
   4   2   1   75.79    9.70
   4   2   1   77.09   12.20
   5  -2   1    6.60    6.20
   5  -2   1    8.30    7.80
   5   2   1    6.50    5.20
   5   2   1    5.00    6.80
   6  -2   1   15.90   10.10
   6  -2   1    8.90    9.90
   6   2   1    6.10   10.90
   6  -3  -1   15.00    8.80
   6  -3  -1    0.20    7.50
   6   3  -1    4.40   10.00
   6   3  -1    5.20    7.30
   5  -3  -1    0.50    6.20
   5  -3  -1    7.70    6.80
   5   3  -1   12.30    5.90
   5   3  -1    1.50    6.50
   4  -3  -1  339.87   22.40
   4  -3  -1  338.87   19.80
   4   3  -1  324.57   20.60
   4   3  -1  326.57   22.90
   3  -3  -1   40.60    7.10
  -3  -3   1   45.00    7.00
   3  -3  -1   34.40    5.90
  -3   3   1   34.00    7.70
   3   3  -1   32.90    7.70
   3   3  -1   41.40    6.50
  -2  -3   1   52.79    5.70
   2  -3  -1   65.19    5.50
  -2  -3   1   57.59    7.40
   2  -3  -1   64.69    7.10
   2   3  -1   68.89    6.40
  -2   3   1   68.19    7.50
  -2   3   1   54.79    5.50
   2   3  -1   57.29    7.20
   1  -3  -1  113.09    7.60
  -1  -3   1   97.59    7.20
   1  -3  -1  108.39    3.60
  -1  -3   1  108.39    6.60
   1   3  -1  103.59    6.50
   1   3  -1  108.99    7.70
  -1   3   1  109.89    7.30
  -1   3   1  109.69    3.90
   0  -3   1  185.28    8.60
   0  -3  -1  177.58    8.50
   0  -3  -1  181.18    7.00
   0  -3   1  184.58    8.10
   0   3  -1  188.98    8.70
   0   3   1  185.18    7.80
   0   3  -1  189.18    8.10
   0   3   1  194.88    7.20
  -1  -3  -1    9.90    1.50
   1  -3   1   11.20    3.20
  -1  -3  -1    8.80    3.10
   1   3   1    9.90    3.10
  -1   3  -1    9.30    3.30
   1   3   1    8.50    1.50
   2  -3   1    4.90    3.00
  -2  -3  -1    5.50    4.20
   2  -3   1    4.50    3.10
  -2  -3  -1    7.30    2.20
   2   3   1    7.60    2.50
  -2   3  -1   13.00    4.30
   2   3   1   10.00    4.00
   3  -3   1    8.50    4.20
   3  -3   1    2.60    3.50
   3   3   1    2.20    2.50
   3   3   1    2.90    4.50
   4  -3   1   77.49   11.70
   4  -3   1  104.29   12.80
   4   3   1   89.79   10.20
   4   3   1  110.89   15.50
   5  -3   1    3.40    6.50
   5  -3   1    7.80    7.20
   5   3   1   -4.00    6.60
   5   3   1    1.20    5.10
   6  -3   1   22.90   12.20
   6  -3   1   27.20   10.50
   6   3   1    6.20   11.20
   6  -4  -1   -6.30    8.40
   6  -4  -1   13.70   11.00
   6   4  -1   -4.70    6.50
   6   4  -1    6.40   10.00
   5  -4  -1   -1.30    4.90
   5  -4  -1   -0.90    5.80
   5   4  -1    9.50    6.90
   5   4  -1    4.80    5.00
   4  -4  -1   14.30    5.70
   4  -4  -1   20.20    7.30
   4   4  -1   26.80    6.80
   4   4  -1   28.60    8.90
   3  -4  -1  189.38   12.00
   3  -4  -1  200.38   15.30
  -3  -4   1  206.58   13.90
   3   4  -1  198.98   15.90
   3   4  -1  193.78   12.90
  -3   4   1  177.38   12.40
   2  -4  -1   25.10    3.60
   2  -4  -1   29.90    5.30
  -2  -4   1   40.30    9.10
  -2  -4   1   21.50    3.90
  -2   4   1   27.60    5.70
  -2   4   1   23.90    4.00
   2   4  -1   31.80    5.70
   2   4  -1   33.50    4.50
  -1  -4   1   35.10    4.30
  -1  -4   1   35.00    4.70
  -1  -4   1   37.80    4.00
   1  -4  -1   45.80    5.20
   1   4  -1   29.90    4.50
  -1   4   1   30.70    4.50
   0  -4   1   75.39    6.00
   0  -4  -1   72.89    4.80
   0  -4   1   85.59    5.60
   0  -4  -1   79.09    5.30
   0   4   1   67.49    4.70
   0   4   1   77.09    5.10
   0   4  -1   84.09    6.10
   0   4  -1   73.09    5.30
   1  -4   1  789.22   23.70
  -1  -4  -1  792.12   20.80
   1  -4   1  847.12   31.90
  -1  -4  -1  829.22   21.40
  -1  -4  -1  789.42   28.00
  -1   4  -1  814.62   27.80
  -2  -4  -1  295.37   12.40
   2  -4   1  313.97   17.60
  -2  -4  -1  251.97   17.20
   2  -4   1  297.47   16.70
   2   4   1  319.17   18.40
  -2   4  -1  277.17   16.50
   2   4   1  294.27   12.20
   3  -4   1   79.69   10.00
   3  -4   1   87.59   10.00
   3   4   1   96.49   11.80
   3   4   1   86.69    8.20
   4  -4   1    5.90    5.20
   4  -4   1    6.20    6.50
   4   4   1    8.40    4.30
   4   4   1    5.60    5.70
   5  -4   1   75.19   13.80
   5  -4   1   58.99   13.30
   5   4   1   91.39   16.40
   5   4   1   80.59   12.40
   6  -4   1   -5.50    8.50
   6  -4   1    4.90    8.70
   6   4   1   -7.40    8.00
   6   4   1   -6.70   15.00
   6  -5  -1   46.40   21.50
   6  -5  -1   33.60   11.00
   6   5  -1   24.40    9.00
   6   5  -1   22.60   13.10
   5  -5  -1   52.59   12.60
   5  -5  -1   41.20    9.20
   5   5  -1   35.00   10.10
   5   5  -1   24.80    7.00
   4  -5  -1  218.08   14.90
   4  -5  -1  237.58   19.70
   4   5  -1  233.08   16.60
   4   5  -1  251.07   20.90
   3  -5  -1   63.39    9.30
   3   5  -1   92.89   11.10
  -3   5   1   83.39    8.40
   3   5  -1   56.59    7.40
   2  -5  -1  220.08   14.50
   2  -5  -1  217.28    9.00
  -2  -5   1  213.78   14.70
  -2  -5   1  238.48   12.10
   2   5  -1  191.28   11.30
   2   5  -1  208.78   14.30
  -2   5   1  197.28   13.60
  -1  -5   1   68.29    6.70
  -1  -5   1   75.69    5.80
  -1  -5   1   67.99    5.90
   1  -5  -1   71.29    6.70
  -1   5   1   71.19    6.80
   1   5  -1   66.29    6.70
   0  -5  -1  656.43   20.20
   0  -5   1  670.73   22.80
   0  -5   1  660.53   21.30
   0  -5  -1  647.94   20.70
   0   5   1  627.44   20.10
   0   5  -1  651.63   22.30
   0   5  -1  660.73   21.30
   0   5   1  655.53   20.40
  -1  -5  -1  111.29    5.20
   1  -5   1  109.69    6.70
  -1  -5  -1  106.09    5.50
   1  -5   1  121.19    9.30
  -1  -5  -1  105.39    9.10
  -1   5  -1   97.49    8.40
   1   5   1  104.19    8.90
   2  -5   1  819.92   28.70
  -2  -5  -1  809.92   33.50
  -2  -5  -1  799.22   24.40
   2  -5   1  818.82   31.90
   2   5   1  818.42   33.40
   2   5   1  797.52   24.30
  -2   5  -1  761.32   31.40
  -3  -5  -1    3.50    2.80
   3  -5   1   -2.90    2.60
   3  -5   1   -3.40    3.10
   3   5   1    1.30    2.40
   3   5   1    0.50    4.00
   4  -5   1  200.88   16.70
   4  -5   1  163.68   16.90
   4   5   1  212.98   19.90
   4   5   1  210.68   14.30
   5  -5   1    0.30    6.30
   5   5   1   10.60    8.70
   6  -5   1   11.60   16.30
   6  -5   1   40.10   12.10
   6   5   1   15.10   12.90
   6  -6  -1    1.90    9.40
   6  -6  -1    5.40    8.30
   6   6  -1   -4.80   13.20
   5  -6  -1  211.08   21.90
   5  -6  -1  181.88   15.70
   5   6  -1  173.28   16.10
   5   6  -1  154.38   19.90
   4  -6  -1   35.90    7.20
   4  -6  -1   26.40    8.70
   4   6  -1   31.10    9.20
   4   6  -1   26.40    6.50
   3  -6  -1  391.96   23.60
   3  -6  -1  425.06   17.30
   3   6  -1  401.76   19.50
   3   6  -1  485.15   26.40
   2  -6  -1    0.70    2.30
   2  -6  -1    0.80    1.10
  -2  -6   1    0.50    3.50
  -2  -6   1    2.90    2.00
  -2  -6   1   -1.20    1.80
   2   6  -1    6.90    3.70
   2   6  -1   -1.20    1.80
   1  -6  -1  129.49    9.70
  -1  -6   1  129.59    8.20
  -1  -6   1  122.59    8.70
   1  -6  -1  122.49    4.70
  -1  -6   1  106.49    9.20
   1   6  -1  122.29    8.30
   1   6  -1  122.39    9.70
  -1   6   1  128.49    9.60
  -1   6   1  134.09    4.70
   0  -6  -1   95.69    6.80
   0  -6  -1  105.69    7.10
   0  -6   1  107.99    7.50
   0   6  -1  103.99    7.80
   0   6  -1  100.59    7.30
   0   6   1  100.59    6.80
   0   6   1   97.39    6.80
  -1  -6  -1  750.32   21.80
   1  -6   1  723.33   23.00
  -1  -6  -1  746.13   21.10
   1  -6   1  829.02   29.40
  -1  -6  -1  747.93   28.40
   1   6   1  766.72   28.40
  -1   6  -1  708.73   27.90
  -2  -6  -1  156.18    8.40
   2  -6   1  142.99   12.30
   2  -6   1  155.98   10.80
  -2  -6  -1  154.38   15.10
  -2  -6  -1  149.88    8.50
   2   6   1  136.29   13.00
   2   6   1  154.78    8.10
  -2   6  -1  156.98   13.10
   3  -6   1  175.68   13.20
   3  -6   1  158.48   15.00
  -3  -6  -1  142.89   10.50
   3   6   1  172.68   16.20
   3   6   1  140.59    9.90
   4  -6   1   10.40    4.90
   4  -6   1   14.50    7.00
   4   6   1   16.00    5.20
   4   6   1   29.10   10.10
   5  -6   1  132.49   18.50
   5  -6   1   95.09   15.40
   5   6   1  112.29   18.80
   5   6   1  124.69   13.20
   6  -6   1   12.90   10.40
   6  -6   1   45.60   15.30
   6   6   1   19.40   12.20
   6  -7  -1   50.09   15.60
   6   7  -1   45.10   16.00
   6   7  -1   48.70   17.70
   5  -7  -1    9.40    6.20
   5  -7  -1   14.00    8.20
   5   7  -1    5.80    5.50
   5   7  -1   14.20    9.00
   4  -7  -1   -7.50    4.10
   4  -7  -1   -3.60    3.20
   4   7  -1   -2.20    5.30
   4   7  -1    3.30    2.80
   3  -7  -1   78.09    6.60
   3  -7  -1   82.69   10.80
   3   7  -1   94.99   11.80
   3   7  -1   91.99    9.00
   2  -7  -1  114.99    5.20
   2  -7  -1  115.19    4.90
  -2  -7   1   98.79    8.90
  -2  -7   1  113.79    8.70
   2  -7  -1  133.59   11.80
   2   7  -1  115.99   11.50
  -2   7   1  145.59   18.60
  -1  -7   1   88.49    7.60
  -1  -7   1   82.59    8.50
   1  -7  -1   77.99    8.10
   1  -7  -1   88.49    4.60
  -1   7   1   89.89    4.30
   1   7  -1   74.19    7.00
   1   7  -1   73.49    7.80
  -1   7   1   80.79    8.00
   0  -7  -1  415.26   16.50
   0  -7  -1  427.16   16.80
   0  -7   1  424.96   17.20
   0  -7   1  391.16   18.00
   0   7  -1  387.16   16.70
   0   7   1  401.06   16.50
   0   7   1  403.16   16.00
   0   7  -1  405.96   18.10
   1  -7   1   28.30    4.00
  -1  -7  -1   20.40    4.90
   1  -7   1   13.60    4.40
  -1  -7  -1   18.40    3.10
   1   7   1   24.00    3.20
   1   7   1   33.70    7.10
  -1   7  -1   21.70    5.70
  -1   7  -1   18.70    3.30
   2  -7   1   23.80    4.80
  -2  -7  -1   26.20    3.90
   2  -7   1   21.60    4.50
   2  -7   1   16.80    5.50
  -2  -7  -1   25.60    4.00
   2   7   1   26.60    7.40
   3  -7   1    3.80    3.80
  -3  -7  -1    2.80    2.90
   3  -7   1    1.20    3.80
   3   7   1    3.50    4.40
   3   7   1    2.80    2.10
   4  -7   1  444.36   24.70
   4  -7   1  442.16   29.00
   4   7   1  473.75   21.90
   4   7   1  498.55   32.00
   5  -7   1    9.10    8.40
   5  -7   1    9.50    7.50
   5   7   1    0.60    8.30
   5   7   1   21.10    6.00
   6  -7   1   17.50   12.00
   6  -7   1   17.20   10.00
   6   7   1   21.30   12.90
   6  -8  -1  -11.90    9.40
   6   8  -1    5.50   11.60
   5  -8  -1    9.50    5.80
   5  -8  -1    5.90    7.10
   5   8  -1   -7.60    7.10
   4  -8  -1   26.90    5.90
   4  -8  -1   25.50    9.00
   4   8  -1   34.90   10.30
   4   8  -1   22.40    6.40
   3  -8  -1  230.38   18.50
   3  -8  -1  207.48   10.00
  -3  -8   1  209.78   14.60
  -3  -8   1  191.68   13.60
   3  -8  -1  220.58    9.70
   3   8  -1  197.38   17.50
   2  -8  -1  193.48   15.00
   2  -8  -1  229.08    7.20
  -2  -8   1  226.98   13.70
   2  -8  -1  224.98    6.90
  -2  -8   1  218.18   12.80
   2   8  -1  219.58   16.20
   1  -8  -1   33.50    5.80
  -1  -8   1   35.40    6.30
   1  -8  -1   27.10    3.20
  -1  -8   1   17.40    4.20
   1   8  -1   18.80    5.30
  -1   8   1   29.80    3.00
   1   8  -1   28.50    5.00
   0  -8  -1   98.79    7.80
   0  -8  -1   89.39   12.20
   0  -8   1   90.29    8.00
   0  -8   1   96.39    9.00
   0   8   1  111.09    8.00
   0   8  -1   96.69    7.90
   0   8  -1  110.99    9.10
   0   8   1   91.99    7.70
   1  -8   1  491.65   18.50
   1  -8   1  463.95   23.30
  -1  -8  -1  510.95   18.30
  -1  -8  -1  513.85   26.30
   1   8   1  522.95   18.20
  -1   8  -1  507.45   18.50
   1   8   1  522.05   23.10
  -1   8  -1  500.35   23.50
   2  -8   1   69.49    6.70
   2  -8   1   71.59    9.70
  -2  -8  -1   77.09    6.60
   2  -8   1   82.29    8.20
  -2  -8  -1   75.99    6.00
   2   8   1   83.29   10.40
   3  -8   1   46.10    9.90
  -3  -8  -1   40.90    5.80
  -3  -8  -1   33.10    6.10
   3  -8   1   48.70    7.80
   3   8   1   45.40   10.30
  -4  -8  -1    9.10    6.20
   4  -8   1   16.90    8.20
   4  -8   1   16.00    6.10
   4   8   1   19.00    5.30
   4   8   1   14.00    7.40
   5  -8   1   34.00   12.30
   5  -8   1   25.30    9.20
   5   8   1   25.70   10.90
   5   8   1   28.20    7.40
   6  -8   1   -7.00    9.50
   6   8   1    1.20    7.20
   6   8   1   29.50   15.00
   6  -9  -1   21.10   10.20
   6  -9  -1    3.40   11.90
  -6  -9   1   32.60   12.70
   6   9  -1    6.70   13.50
  -5  -9   1   47.10   12.30
   5  -9  -1   40.50    8.00
   5  -9  -1   60.59   13.90
   5   9  -1   53.59   13.80
  -4  -9   1   21.40    6.40
   4  -9  -1   30.60    6.60
   4  -9  -1   25.00    5.30
   4  -9  -1   18.20    7.60
   4   9  -1   28.70   10.60
  -3  -9   1    2.40    3.50
   3  -9  -1    2.60    1.70
   3  -9  -1    1.70    5.00
   3  -9  -1    0.10    2.00
   3   9  -1    1.00    4.30
   2  -9  -1  112.09   12.20
  -2  -9   1   82.69    8.50
  -2  -9   1   81.59    8.50
   2  -9  -1   85.29    3.80
   2   9  -1   82.89   10.60
   1  -9  -1  531.75   17.60
  -1  -9   1  552.14   25.00
  -1  -9   1  581.64   23.80
   1  -9  -1  540.65   24.70
   1   9  -1  560.54   23.50
  -1   9   1  559.14   17.40
  -1   9   1  534.55   24.80
   1   9  -1  573.24   25.40
   0  -9  -1  493.95   21.10
   0  -9   1  545.65   23.80
   0  -9   1  520.65   21.40
   0  -9  -1  496.55   20.80
   0   9  -1  509.95   21.30
   0   9   1  530.55   20.60
   0   9   1  503.05   20.90
  -1  -9  -1   -2.10    3.50
  -1  -9  -1   -0.10    1.60
   1  -9   1   -0.20    2.10
   1  -9   1    0.10    2.10
   1   9   1    0.80    2.50
   1   9   1    1.60    2.00
  -1   9  -1   -1.60    3.50
  -1   9  -1    0.60    1.90
   2  -9   1   57.49    6.20
  -2  -9  -1   69.39    6.30
   2  -9   1   69.09   10.40
   2  -9   1   73.29    8.40
   2   9   1   62.89    9.40
  -3  -9  -1   67.89    7.50
   3  -9   1   96.19   13.10
  -3  -9  -1   74.69    7.80
   3  -9   1   67.09    7.80
   3  -9   1   75.29    8.90
   3   9   1   89.09   12.30
   4  -9   1    9.20    7.50
   4  -9   1    9.40    6.00
   4  -9   1    6.50    5.70
  -4  -9  -1    9.70    4.90
  -4  -9  -1    8.10    6.00
   4   9   1    6.70    6.10
   5  -9   1    7.70    7.50
  -5  -9  -1   10.40    6.60
   5  -9   1    2.70    6.60
   5   9   1    6.80    8.60
   6  -9   1  -11.10    9.10
   6  -9   1   24.50   11.70
  -6  -9  -1   34.50   12.20
   6   9   1   -8.30   11.60
  -6 -10   1   18.30   13.10
   6 -10  -1  -14.00    9.30
   6  10  -1   10.80   13.10
   5 -10  -1  134.99   19.40
  -5 -10   1  177.48   18.90
   5  10  -1  119.29   20.70
   4 -10  -1   84.49    7.10
   4 -10  -1   85.09    6.90
   4 -10  -1  107.79   15.30
  -4 -10   1   82.29   11.80
   4  10  -1   93.89   14.80
   3 -10  -1  105.99   13.50
  -3 -10   1  113.89   11.30
   3 -10  -1  101.69    4.30
   3 -10  -1  102.19    4.20
   3  10  -1  109.69   14.30
  -2 -10   1   28.00    6.50
   2 -10  -1   49.40    9.00
   2  10  -1   48.40    8.80
   1 -10  -1  273.87   11.70
   1 -10  -1  269.37   17.00
  -1 -10   1  265.97   15.50
   1  10  -1  251.37   16.30
  -1  10   1  253.27   16.70
  -1  10   1  261.27   11.10
   1  10  -1  232.48   17.60
   0 -10  -1  118.69    9.90
   0 -10   1  120.49   11.10
   0 -10  -1   98.99    9.20
   0 -10   1  109.89    9.60
   0  10  -1  123.39    9.80
   0  10  -1  114.29   10.70
   0  10   1  123.09    9.90
   0  10   1  131.69    9.60
   1 -10   1  182.38   14.50
   1 -10   1  140.79    9.80
  -1 -10  -1  150.88   12.30
  -1  10  -1  155.18   10.10
   1  10   1  140.29   12.30
   1  10   1  147.69   10.00
  -2 -10  -1    3.00    2.60
   2 -10   1    2.30    2.70
  -2 -10  -1    4.10    2.80
   2 -10   1   -0.20    3.20
   2  10   1    2.30    3.20
  -3 -10  -1   42.50    6.50
   3 -10   1   27.50    6.40
  -3 -10  -1   45.30    6.50
   3 -10   1   29.50    8.90
   3 -10   1   29.40    6.50
   3  10   1   25.70    8.20
   4 -10   1   17.20    9.20
  -4 -10  -1   21.50    6.00
   4 -10   1   15.00    6.20
   4  10   1   33.10   10.70
   5 -10   1  104.29   17.50
  -5 -10  -1   75.59   13.70
   5 -10   1   71.39   13.30
   5  10   1   57.89   15.70
   5 -11  -1    3.10    7.60
  -5 -11   1   -0.10    8.10
   5 -11  -1    3.70    4.20
   5  11  -1    2.30    9.90
   4 -11  -1  215.88    8.50
   4 -11  -1  267.67   24.00
  -4 -11   1  238.48   17.90
   4  11  -1  242.08   23.30
   3 -11  -1  104.19   14.10
  -3 -11   1  106.79   11.50
   3  11  -1  100.89   14.70
   2 -11  -1  253.57    8.20
   2 -11  -1  230.48    8.30
  -2 -11   1  273.37   16.60
  -2 -11   1  291.57   17.20
   2 -11  -1  267.27   20.00
   2  11  -1  270.27   20.00
  -1 -11   1   20.70    5.70
   1 -11  -1    7.60    3.80
   1  11  -1   25.30    6.90
  -1  11   1   18.90    3.70
   0 -11  -1  199.88   13.50
   0 -11   1  207.58   15.80
   0 -11   1  278.07   17.60
   0 -11  -1  204.38   13.40
   0  11   1  216.58   13.40
   0  11   1  228.48   14.70
   0  11  -1  192.38   14.60
   0  11  -1  214.88   13.70
   1 -11   1   80.09   10.60
   1 -11   1   59.49    7.00
  -1 -11  -1   57.99    6.90
   1  11   1   62.49    6.90
   1  11   1   60.39    8.90
  -1  11  -1   55.19    6.20
   2 -11   1   71.39   11.40
  -2 -11  -1   74.19    7.20
   2 -11   1   67.09    7.10
  -2 -11  -1   58.69    6.30
   2  11   1   50.89    9.10
   3 -11   1    9.50    5.80
   3 -11   1   10.10    4.60
   3 -11   1   22.30    5.70
  -3 -11  -1   13.80    4.30
   3  11   1   13.10    6.40
  -4 -11  -1  233.38   15.50
   4 -11   1  228.08   16.00
   4 -11   1  261.57   23.50
   4  11   1  281.27   26.00
  -5 -11  -1    8.20    7.00
   5 -11   1   10.80   15.40
   5  11   1   -3.80    9.90
  -5 -12   1   16.70    8.90
   5 -12  -1    5.80    8.60
   5  12  -1    7.10   10.60
  -4 -12   1   13.50    6.80
   4 -12  -1   -0.20    6.30
   4  12  -1   -1.30    6.80
   3 -12  -1  126.09   15.70
  -3 -12   1  119.59   12.40
   3  12  -1   87.19   14.30
   2 -12  -1    9.70    1.80
   2 -12  -1    8.10    6.10
   2 -12  -1    8.20    1.90
  -2 -12   1   11.50    4.10
   2  12  -1    7.70    4.90
  -1 -12   1  151.48   13.00
   1 -12  -1  178.08   14.60
  -1  12   1  157.78    9.40
   1  12  -1  147.19   13.80
   0 -12   1   38.50    8.70
   0 -12  -1   39.50    6.90
   0  12  -1   42.00    7.00
   0  12   1   43.80    6.80
  -1 -12  -1  605.64   24.50
   1 -12   1  614.34   30.40
   1 -12   1  546.25   23.10
   1  12   1  570.24   27.80
   1  12   1  556.04   23.30
  -1  12  -1  590.84   23.20
  -2 -12  -1  120.49    9.10
  -2 -12  -1  115.29    9.50
   2 -12   1  125.09    9.80
   2 -12   1  123.19   23.80
   2  12   1  126.59   14.20
  -3 -12  -1  155.18   11.50
   3 -12   1  163.08   17.80
   3 -12   1  163.48   11.40
   3 -12   1  149.88   12.60
  -3 -12  -1  153.58   12.80
   3  12   1  156.68   18.10
   4 -12   1    8.80    7.70
   4 -12   1   -1.40    5.00
  -4 -12  -1    0.00    6.20
   4  12   1    3.80    8.10
   5 -12   1   33.00    8.30
   5 -12   1   39.40   13.60
   5  12   1   55.49   16.20
  -5 -13   1    5.30    8.20
   5 -13  -1   12.30   10.90
   5  13  -1   -5.10    9.20
   4 -13  -1   40.40   11.10
  -4 -13   1   55.19   10.90
   4  13  -1   26.20   10.20
  -3 -13   1   20.90    6.00
   3 -13  -1   22.70    8.40
   3  13  -1   31.80   10.30
   2 -13  -1    6.60    2.40
  -2 -13   1    3.70    4.50
   2 -13  -1   11.30    2.50
   1 -13  -1    6.00    4.00
   1 -13  -1   16.40    4.60
  -1 -13   1   16.30    5.90
   1  13  -1    8.20    4.90
  -1  13   1   12.60    5.00
   0 -13  -1   93.09   11.00
   0 -13  -1   83.89   10.10
   0 -13   1   96.59   11.10
   0  13   1  114.19   10.30
   0  13  -1  115.09   10.90
   0  13   1  101.09   11.10
   1 -13   1   30.60    7.90
  -1 -13  -1   33.10    6.90
   1 -13   1   31.20    6.80
   1  13   1   26.80    6.10
   1  13   1   26.60    7.20
  -1  13  -1   43.10    6.10
  -2 -13  -1  196.58   12.30
   2 -13   1  187.38   12.30
   2 -13   1  137.29   16.00
  -2 -13  -1  211.98   13.20
   3 -13   1   64.09   12.40
  -3 -13  -1   50.69    8.30
  -3 -13  -1   60.69    8.20
   3 -13   1   71.09    8.50
   3 -13   1   66.69    9.00
   3  13   1   68.09   15.00
   4 -13   1   79.09   10.00
   4 -13   1   60.69   13.70
   4 -13   1   72.59   10.20
  -4 -13  -1   51.39    9.50
   4  13   1   84.69   15.40
   5 -13   1   13.80    7.20
   5 -13   1   -2.20    9.20
   5  13   1   17.80   11.20
   5 -14  -1    4.70   10.90
   5  14  -1   -1.70    9.20
   4 -14  -1   -1.90    7.40
  -4 -14   1   13.60    6.90
   4  14  -1   -3.00    6.30
  -3 -14   1  178.68   15.60
   3 -14  -1  167.68   19.30
   3  14  -1  218.88   21.50
  -2 -14   1   32.10    7.70
   2 -14  -1   31.90    3.90
   2 -14  -1   21.50    7.80
   2  14  -1   46.70   11.50
   1 -14  -1    5.90    4.30
  -1 -14   1   10.10    4.70
   1 -14  -1    1.40    4.30
  -1  14   1    2.20    3.10
   1  14  -1    5.30    4.20
   0 -14   1    7.80    5.50
   0 -14  -1    5.10    4.30
   0  14   1    1.50    3.00
   0  14  -1    6.90    4.10
   1 -14   1   -0.90    4.30
  -1 -14  -1    0.40    3.70
   1  14   1    0.20    5.20
  -1  14  -1    6.70    3.80
   1  14   1    2.20    4.40
   2 -14   1    1.70    4.20
  -2 -14  -1    2.20    3.60
   2 -14   1    3.50    4.90
   2  14   1   11.60    6.10
  -3 -14  -1   91.59    9.70
   3 -14   1  102.49   14.60
   3 -14   1   96.99    9.50
   3 -14   1  101.39   10.80
   3  14   1  135.09   18.20
   4 -14   1   -7.00    6.50
  -4 -14  -1   -0.20    7.30
   4  14   1    0.10    9.60
   5 -14   1   73.79   17.30
   5  14   1   71.59   17.10
   5 -15  -1  -10.60    9.10
   5  15  -1    9.90   11.00
  -4 -15   1  130.09   15.60
   4 -15  -1  136.99   19.20
   4  15  -1  136.39   20.70
  -3 -15   1   16.00    6.00
   3 -15  -1    4.80    7.30
   3  15  -1   17.30    9.30
  -2 -15   1   42.70    9.40
   2 -15  -1   48.70   10.80
   2  15  -1   20.30    7.80
  -1 -15   1    3.50    4.40
   1 -15  -1    9.30    6.00
   1 -15  -1   12.70    5.40
   1  15  -1   13.10    5.80
  -1  15   1    3.60    3.10
   0 -15   1  166.98   16.20
   0 -15  -1  137.89   13.40
   0  15  -1  148.59   13.40
   0  15   1  149.88   12.70
   1 -15   1    2.50    4.50
  -1 -15  -1    7.10    4.50
  -1  15  -1    8.60    4.20
   1  15   1    5.50    4.90
  -2 -15  -1   10.80    4.70
   2 -15   1    0.30    4.80
   2 -15   1    7.30    7.90
   2  15   1    3.00    5.60
  -3 -15  -1    5.60    6.20
   3 -15   1    8.40    5.60
   3 -15   1    4.90    6.90
   4 -15   1   11.90   12.10
   4 -15   1   14.20    5.30
   4  15   1   22.20   11.20
   5 -15   1   36.10   15.80
   5  15   1   36.20   16.20
  -5 -16   1   20.80   12.30
   5 -16  -1   12.60   11.80
   5  16  -1   40.70   16.50
  -4 -16   1    4.00    7.90
   4 -16  -1   13.40   12.30
   4  16  -1   10.00   12.90
  -3 -16   1   65.39   11.20
   3 -16  -1  112.89   17.70
   3  16  -1   81.79   15.10
  -2 -16   1  125.19   13.80
   2 -16  -1  151.28   17.70
   2  16  -1  167.48   17.80
  -1 -16   1  387.16   23.90
   1 -16  -1  379.86   21.70
   1 -16  -1  363.36   29.80
  -1  16   1  345.67   17.50
   1  16  -1  365.26   27.10
   0 -16   1   75.69   10.80
   0 -16  -1   59.79   10.50
   0  16  -1   58.39    9.30
   0  16   1   54.79    8.80
   1 -16   1  167.38   17.70
  -1 -16  -1  149.49   13.80
   1  16   1  154.98   16.10
  -1  16  -1  154.28   12.80
   2 -16   1    6.30    7.60
   2 -16   1   -5.90    6.10
  -2 -16  -1   -6.10    4.20
  -2 -16  -1   -0.20    5.90
   2  16   1   -2.60    4.70
  -3 -16  -1   33.60    7.30
   3 -16   1   41.10    7.90
   3 -16   1   30.20   10.80
   3 -16   1   32.80    6.40
  -3 -16  -1   49.70    8.70
   3  16   1   21.40    9.10
   4 -16   1   21.90   10.70
   4  16   1   21.80   10.70
  -4 -17   1   40.40   10.80
   4 -17  -1   48.60   14.00
   4  17  -1   25.70   12.70
   3 -17  -1   -6.00    7.10
  -3 -17   1    6.00    6.60
   3  17  -1    5.80    7.50
  -2 -17   1   41.30   10.00
   2 -17  -1   63.59   13.90
   2  17  -1   58.09   13.90
   1 -17  -1    5.40    7.30
  -1 -17   1   13.60    7.30
   1 -17  -1   19.90    6.90
   1  17  -1   16.00    7.50
  -1  17   1   13.60    4.70
   0 -17  -1  115.79   13.80
   0 -17   1  137.79   16.60
   0  17   1  106.09   12.00
   0  17  -1  131.29   13.80
  -1 -17  -1   21.60    7.90
   1 -17   1   17.90    7.90
  -1  17  -1   19.90    6.00
   1  17   1   13.00    5.70
   2 -17   1  118.59   16.90
  -2 -17  -1  117.59   12.30
   2  17   1   94.59   15.00
   3 -17   1    2.10    6.20
  -3 -17  -1   -1.40    7.20
   3 -17   1    1.20    7.70
   3  17   1    8.30    9.20
  -4 -17  -1   27.80    8.00
   4 -17   1   20.10    9.70
   4  17   1   11.50   12.40
   4 -18  -1   13.20    9.60
   4  18  -1   18.00   10.40
   3 -18  -1   12.10    9.00
  -3 -18   1   -1.20    7.00
   3  18  -1   -0.80    8.30
   2 -18  -1   12.20    9.30
  -2 -18   1    9.60    7.50
   2  18  -1   27.40   10.90
  -1 -18   1  149.29   16.00
   1 -18  -1  133.79   16.70
   1  18  -1  145.99   17.00
  -1  18   1  130.59   11.40
   0 -18   1    5.60    6.40
   0 -18  -1    0.30    5.20
   0  18   1   -2.80    4.50
   0  18  -1   -0.20    4.20
   1 -18   1   76.19   14.50
  -1 -18  -1   72.19   11.30
   1  18   1   77.69   12.30
  -1  18  -1   83.39   10.40
  -2 -18  -1   34.90    8.10
   2 -18   1   31.30   10.50
   2 -18   1   39.20    9.10
   2  18   1   27.30   11.00
   3 -18   1   54.09    7.10
   3 -18   1   49.20   13.70
   3 -18   1   62.79   11.00
   3  18   1   74.39   16.90
   4 -18   1    7.50   12.60
   4  18   1   25.20   12.80
   4 -19  -1   39.10   13.80
  -4 -19   1   31.90   11.70
   4  19  -1   22.30   11.80
  -3 -19   1   -0.20    8.30
   3 -19  -1   -5.10   10.00
   3  19  -1    5.50    8.90
  -2 -19   1   60.69   11.70
   2 -19  -1   49.30   14.20
   2  19  -1   20.60    9.30
  -1 -19   1   -5.10    6.00
   1 -19  -1   -1.30    6.00
   1  19  -1   -4.50    6.00
  -1  19   1    3.50    4.30
   0 -19   1   34.60    9.70
   0 -19  -1   28.00    9.30
   0  19   1   29.70    8.90
   1 -19   1    9.30    7.50
  -1 -19  -1    4.90    6.60
  -1  19  -1    9.20    5.70
   1  19   1   13.70    6.40
   2 -19   1   17.00   10.50
  -2 -19  -1   34.80    8.70
   2 -19   1   11.60   10.10
   2  19   1   22.80    9.60
   3 -19   1   -1.90    9.40
   3  19   1  -11.00   15.60
   4 -19   1    6.80   13.20
   4  19   1   10.70   13.10
   3 -20  -1   25.70   12.80
  -3 -20   1   16.70   10.20
   3  20  -1   -5.30    9.50
   2 -20  -1   -8.00    8.50
  -2 -20   1   -6.50    7.20
   2  20  -1   -0.30    6.40
  -1 -20   1   18.70    9.40
   1 -20  -1   27.20    9.30
   1  20  -1    7.60    7.50
  -1  20   1   23.90    6.50
   0 -20  -1   42.70   10.70
   0 -20   1   31.10    9.10
   1 -20   1   28.80    9.50
   1  20   1   61.69   12.70
  -2 -20  -1    0.20    7.20
   2 -20   1    8.60   10.30
   2  20   1    2.70    8.20
   3 -20   1    6.20   10.40
  -3 -20  -1   10.30    9.40
   3  20   1   20.50   11.00
   3 -21  -1   -5.00    9.90
   3  21  -1    8.50   11.00
  -2 -21   1   24.20   13.20
   2 -21  -1   43.60   13.60
   2  21  -1   21.10   11.40
  -1 -21   1   -0.50    7.20
   1 -21  -1   -2.00    8.80
  -1  21   1   -5.30    4.80
   1  21  -1    3.10    7.40
   0 -21   1   17.20    9.90
   0 -21  -1    4.30    6.80
   0  21   1    7.00    6.10
   0  21  -1   21.80    8.90
  -1 -21  -1    6.10    7.40
   1 -21   1   18.10    9.80
  -2 -21  -1   97.29   15.80
   2 -21   1   58.69   17.80
   2  21   1   57.69   14.50
   3 -21   1    8.60   10.80
   3  21   1    4.90    9.50
  -2 -22   1   -8.60    9.00
   2 -22  -1   -3.80    9.20
   2  22  -1   -2.80    9.70
  -1 -22   1   29.40   11.30
   1 -22  -1   12.30   11.10
  -1  22   1   40.20    8.60
   1  22  -1   50.79   13.10
   0 -22  -1   15.30    9.80
   0 -22   1    8.50   10.00
   0  22   1    6.30    8.50
   1 -22   1   66.49   15.80
  -1 -22  -1   78.39   14.50
   1  22   1   54.59   13.80
   2 -22   1    9.10    9.90
   2  22   1    6.10    9.00
   2 -23  -1  120.29   22.00
  -2 -23   1   76.09   16.60
   2  23  -1   31.60   14.10
   1 -23  -1   13.00   11.10
  -1 -23   1   14.10   11.10
   1  23  -1    9.30    8.80
  -1  23   1   11.40    7.70
   0 -23  -1   11.40   11.10
   0 -23   1   35.60   12.80
   1 -23   1   -2.70    9.50
  -1 -23  -1   -4.20    8.40
  -1  23  -1    8.40   13.20
   2 -23   1   75.49   17.60
  -2 -23  -1   72.09   16.40
   2  23   1   68.49   16.30
   1 -24  -1   49.20   20.10
  -1 -24   1   86.89   17.30
   0 -24  -1    5.50   10.60
   0 -24   1    8.30   11.50
   0  24   1    2.90    8.60
   0  24  -1    1.30   10.10
  -1 -24  -1   12.20   11.90
   1 -24   1   15.50   12.90
  -1  24  -1   11.00    9.80
   6   0  -2  208.58   22.20
   6   0  -2  218.88   22.80
   5   0  -2   -6.30    5.10
   5   0  -2    2.80    6.30
   4   0  -2  220.48   17.20
   4   0  -2  199.18   16.70
   3   0  -2    0.90    2.70
   3   0  -2   -1.50    2.40
  -2   0   2 1121.69   35.40
   2   0  -2 1197.98   35.30
  -2   0   2 1143.19   36.50
   2   0  -2 1120.09   36.10
   1   0  -2   -0.60    1.10
  -1   0   2   -1.50    1.10
  -1   0   2    0.00    1.20
   1   0  -2    0.60    1.30
   0   0   2  241.58    8.70
   0   0   2  249.68    9.20
   0   0  -2  243.48    9.00
  -1   0  -2   -4.10    1.60
   1   0   2   -0.40    1.00
  -1   0  -2    2.50    1.40
   1   0   2    1.10    1.70
   2   0   2   -0.30    1.80
  -2   0  -2    5.00    2.20
   2   0   2    2.00    2.80
  -2   0  -2   -0.50    3.50
   3   0   2   -3.00    3.60
   3   0   2    0.40    2.40
   4   0   2   11.80    5.10
   4   0   2   21.20    7.10
   5   0   2   -1.30    5.00
   5   0   2    8.80    7.60
   6   0   2   48.60   14.80
   6  -1  -2   -7.30    7.00
   6  -1  -2   30.60   10.30
   6   1  -2   19.00    9.10
   6   1  -2    9.20    9.90
   5  -1  -2    2.40    6.30
   5  -1  -2   11.40    6.50
   5   1  -2    2.00    5.30
   5   1  -2    6.40    5.60
   4  -1  -2    3.00    3.90
   4  -1  -2    4.80    4.00
   4   1  -2    1.10    4.30
   4   1  -2    0.20    3.90
  -3  -1   2  249.38   17.20
   3  -1  -2  228.58   14.30
   3  -1  -2  250.47   16.30
   3   1  -2  242.88   15.40
   3   1  -2  226.38   15.20
   2  -1  -2    0.00    1.50
  -2  -1   2   -2.30    1.80
  -2  -1   2   -2.90    1.90
   2  -1  -2   -0.90    1.50
   2   1  -2    1.20    1.80
  -2   1   2    1.20    2.20
   2   1  -2   -2.40    1.40
  -2   1   2    0.70    2.00
   1  -1  -2   11.30    2.70
  -1  -1   2    9.70    2.70
   1  -1  -2   11.80    2.20
  -1  -1   2   13.50    3.00
  -1   1   2   15.50    3.30
   1   1  -2   16.70    3.00
   1   1  -2   16.30    3.20
  -1   1   2   14.50    2.30
   0  -1   2   27.00    3.20
   0  -1   2   27.00    3.00
   0  -1  -2   30.00    2.50
   0   1  -2   28.60    3.40
   0   1  -2   29.80    3.10
   0   1   2   29.90    2.40
   1  -1   2  618.24   23.10
   1  -1   2  588.74   20.10
  -1  -1  -2  565.44   22.60
  -1  -1  -2  596.24   17.60
   1   1   2  614.14   23.30
   1   1   2  612.44   17.70
  -1   1  -2  587.84   20.00
   2  -1   2  208.28   14.50
  -2  -1  -2  199.68   16.70
   2  -1   2  214.48   12.60
  -2  -1  -2  215.88   11.40
  -2   1  -2  244.18   15.70
  -2   1  -2  226.48   12.80
   2   1   2  207.28   15.00
   2   1   2  208.58   11.00
   3  -1   2  137.09   13.60
   3  -1   2  130.19   11.50
  -3   1  -2  141.49   13.30
   3   1   2  142.39   10.80
   3   1   2  149.69   14.70
   4  -1   2  258.67   18.80
   4  -1   2  269.37   21.80
   4   1   2  286.17   18.20
   5  -1   2  282.17   22.10
   5  -1   2  246.38   24.50
   5   1   2  279.97   24.90
   5   1   2  283.87   20.80
   6  -1   2   -5.80    9.10
   6  -1   2   -1.90   10.60
   6   1   2   -6.30   10.30
   6  -2  -2    2.30    7.70
   6  -2  -2   -2.80    8.20
   6   2  -2    0.10    9.10
   6   2  -2    0.30    6.10
   5  -2  -2   25.10    7.00
   5  -2  -2   42.00   11.10
   5   2  -2   76.09   12.10
   5   2  -2   38.60   10.40
   4  -2  -2   89.89   12.00
   4  -2  -2   79.59   10.00
   4   2  -2   66.39   10.40
   4   2  -2   91.29   11.50
  -3  -2   2   -4.40    3.20
  -3  -2   2   -2.60    4.00
   3  -2  -2    1.00    2.80
   3  -2  -2    2.80    2.40
   3   2  -2   -1.00    1.80
   3   2  -2    2.00    3.70
  -2  -2   2  104.09    9.00
  -2  -2   2   99.99    8.30
   2  -2  -2   91.59    8.30
   2  -2  -2  113.09    7.20
   2   2  -2  112.29    8.80
  -2   2   2  104.59    7.20
  -2   2   2  106.19    9.00
   2   2  -2  118.59    9.40
   1  -2  -2  692.63   18.70
  -1  -2   2  698.13   22.30
   1  -2  -2  687.73   22.50
  -1  -2   2  694.13   22.80
  -1   2   2  673.13   22.20
   1   2  -2  698.93   22.20
  -1   2   2  682.93   18.60
   1   2  -2  699.23   22.70
   0  -2   2 2627.64   64.39
   0  -2  -2 2630.94   60.39
   0  -2   2 2650.73   63.99
   0   2  -2 2665.63   63.99
   0   2  -2 2534.35   64.09
   0   2   2 2556.74   60.29
   0   2   2 2613.74   64.39
   1  -2   2   45.20    5.10
   1  -2   2   46.50    6.20
  -1  -2  -2   41.90    2.90
  -1  -2  -2   49.80    6.20
   1   2   2   39.20    6.30
   1   2   2   42.30    2.70
  -1   2  -2   52.59    5.20
  -2  -2  -2  200.38   15.30
   2  -2   2  207.48   12.80
   2  -2   2  215.48   14.80
  -2  -2  -2  199.68   10.40
   2   2   2  201.38   15.00
   2   2   2  198.08   10.00
  -2   2  -2  202.38   13.00
   3  -2   2   45.50    7.70
   3  -2   2   46.80    9.20
   3   2   2   51.59    6.60
   3   2   2   61.89   10.20
   4  -2   2   30.80    9.70
   4  -2   2   35.40    8.60
   4   2   2   42.10   11.00
   4   2   2   34.40    7.50
   5  -2   2    2.60    7.60
   5  -2   2    4.70    6.80
   5   2   2    0.50    7.10
   5   2   2    6.60    4.90
   6  -2   2   91.99   17.50
   6  -2   2   56.49   15.50
   6   2   2   95.99   17.00
   6  -3  -2   -0.80    8.30
   6  -3  -2    6.30    8.50
   6   3  -2    7.40    7.20
   6   3  -2   11.30    9.40
   5  -3  -2   32.90    8.90
   5  -3  -2   38.50    8.20
   5   3  -2   34.00    9.40
   5   3  -2   35.50   10.30
   4  -3  -2    5.80    4.40
   4   3  -2   -2.70    3.90
   4   3  -2    2.70    4.30
   3  -3  -2  289.37   14.80
   3  -3  -2  313.07   18.90
  -3  -3   2  281.87   17.00
   3   3  -2  289.87   16.90
  -3   3   2  318.17   16.20
   3   3  -2  305.37   18.70
   2  -3  -2    8.20    3.00
   2  -3  -2    9.90    2.60
  -2  -3   2    7.60    3.60
  -2  -3   2   18.00    3.60
   2   3  -2   10.90    3.40
   2   3  -2   10.50    3.30
  -2   3   2   12.00    2.70
   1  -3  -2  139.19    8.60
  -1  -3   2  153.78    9.50
   1  -3  -2  154.48    5.40
  -1  -3   2  152.08    8.70
  -1   3   2  157.78    5.40
   1   3  -2  152.28    8.60
  -1   3   2  150.28    8.70
   1   3  -2  143.89    9.20
   0  -3   2  284.17   12.00
   0  -3  -2  300.07    9.50
   0  -3   2  286.87   12.70
   0  -3  -2  285.67   12.10
   0   3   2  301.27   12.20
   0   3  -2  287.07   12.80
   0   3   2  289.87    9.50
   0   3  -2  297.87   12.30
   1  -3   2  896.91   30.30
  -1  -3  -2  867.01   30.90
  -1  -3  -2  910.41   21.20
  -1   3  -2  891.81   29.10
   1   3   2  871.51   20.90
   1   3   2  858.91   30.80
  -2  -3  -2  107.99    7.00
   2  -3   2  104.99    9.20
  -2  -3  -2  102.29   11.20
   2  -3   2   95.89   10.00
   2   3   2  108.59    6.70
  -2   3  -2   83.99   11.50
   2   3   2   89.29   10.40
   3  -3   2  201.98   16.20
  -3  -3  -2  187.28   13.60
   3  -3   2  196.78   15.20
   3   3   2  184.58   16.90
   3   3   2  201.38   12.00
   4  -3   2   24.80    7.20
   4  -3   2   17.20    7.20
   4   3   2   22.70    6.20
   4   3   2   19.50    8.30
   5  -3   2   31.20   10.50
   5  -3   2    2.90    6.70
   5   3   2   16.80   10.10
   6  -3   2    8.10   11.30
   6  -3   2    1.50    9.30
   6   3   2   -3.70   10.20
   6  -4  -2   21.40   10.20
   6  -4  -2   32.70    9.70
   6   4  -2   37.30   14.20
   6   4  -2   38.30   10.40
   5  -4  -2   17.00    6.90
   5  -4  -2    0.10    5.00
   5   4  -2   -6.00    5.20
   5   4  -2   10.30    6.70
   4  -4  -2  157.18   12.60
   4  -4  -2  159.78   16.40
   4   4  -2  155.78   15.60
   4   4  -2  149.79   13.80
  -3  -4   2  303.47   17.60
   3  -4  -2  312.57   16.10
   3  -4  -2  314.17   19.80
   3   4  -2  344.77   18.30
  -3   4   2  324.17   16.20
   3   4  -2  354.56   20.60
   2  -4  -2  515.35   22.60
  -2  -4   2  434.16   22.30
  -2  -4   2  503.05   20.30
   2  -4  -2  488.45   15.20
   2   4  -2  478.15   22.10
  -2   4   2  495.05   15.90
   2   4  -2  466.15   20.00
  -2   4   2  461.75   21.50
  -1  -4   2    2.00    1.90
  -1  -4   2    5.30    2.30
  -1  -4   2    2.00    2.20
   1  -4  -2    1.30    1.80
  -1   4   2    2.40    0.80
  -1   4   2    2.70    0.70
   1   4  -2    0.90    1.60
  -1   4   2    0.90    1.70
   0  -4  -2   35.50    4.40
   0  -4   2   33.70    4.60
   0  -4   2   26.10    3.80
   0  -4  -2   31.80    2.90
   0   4   2   27.40    3.90
   0   4  -2   35.10    4.40
   0   4  -2   31.60    4.20
   0   4   2   26.80    2.90
   1  -4   2    6.20    3.10
  -1  -4  -2   15.70    4.70
   1  -4   2    6.70    2.60
  -1   4  -2    6.40    3.20
   1   4   2   10.90    3.50
   2  -4   2   90.39    9.30
  -2  -4  -2   95.09    6.20
   2  -4   2   74.59    8.90
  -2  -4  -2   93.69   11.20
   2   4   2   95.09    5.80
  -2   4  -2   86.79    9.50
   2   4   2  108.89   11.20
   3  -4   2   20.30    6.20
  -3  -4  -2   20.60    5.30
   3  -4   2   17.10    6.00
   3   4   2   21.40    4.50
   3   4   2   23.50    7.20
   4  -4   2   23.80    8.10
   4  -4   2   30.20    8.60
   4   4   2   16.10    7.70
   4   4   2   25.70    5.90
   5  -4   2    0.70    5.70
   5  -4   2    6.10    7.80
   5   4   2   -4.40    7.30
   5   4   2   -2.60    4.70
   6  -4   2   30.20   12.10
   6  -4   2   36.90   12.00
   6   4   2   41.90   16.50
   6  -5  -2   -7.80    7.70
   6  -5  -2    9.50    9.70
   6   5  -2   10.20   10.60
   6   5  -2   11.00    7.50
   5  -5  -2   36.10    8.30
   5  -5  -2   29.70    9.00
   5   5  -2   30.70    7.90
   5   5  -2   43.50   12.10
   4  -5  -2    2.30    3.50
   4  -5  -2    3.60    4.80
   4   5  -2    2.30    5.20
   4   5  -2    5.30    4.10
   3  -5  -2  342.37   14.50
   3  -5  -2  366.66   21.60
  -3  -5   2  340.77   18.60
  -3   5   2  325.47   15.40
   3   5  -2  386.86   19.60
   3   5  -2  300.37   20.30
   2  -5  -2    3.40    3.10
   2  -5  -2    1.10    1.00
  -2  -5   2    0.80    2.00
  -2  -5   2    3.80    3.40
   2   5  -2   -0.40    2.10
   2   5  -2   -0.50    1.70
  -2   5   2    2.50    3.30
  -2   5   2    2.60    1.30
  -1  -5   2   48.00    5.70
  -1  -5   2   51.59    5.60
   1  -5  -2   51.39    5.50
  -1  -5   2   52.69    5.50
  -1   5   2   55.79    5.90
   1   5  -2   46.50    5.70
   0  -5  -2  554.34   19.60
   0  -5   2  565.94   24.60
   0  -5   2  557.14   20.20
   0  -5  -2  560.34   17.20
   0   5   2  571.44   19.50
   0   5  -2  563.44   20.30
   0   5  -2  512.65   20.70
   0   5   2  561.14   17.50
  -1  -5  -2 1036.30   35.90
   1  -5   2 1013.30   31.30
  -1  -5  -2 1056.29   23.90
   1  -5   2 1016.90   35.10
  -1   5  -2 1058.69   35.30
   1   5   2 1017.60   35.60
   2  -5   2   59.69    8.20
  -2  -5  -2   52.19    4.20
  -2  -5  -2   67.59   10.80
   2  -5   2   48.90    7.60
   2   5   2   49.70    4.10
   2   5   2   47.50    8.10
  -2   5  -2   49.30    7.50
   3  -5   2  141.59   13.40
   3  -5   2  137.39   13.50
  -3  -5  -2  116.69    9.00
   3   5   2  130.49   14.90
   3   5   2  123.19    8.80
   4  -5   2    4.20    4.70
   4  -5   2   -1.00    4.40
   4   5   2    5.10    6.00
   4   5   2    2.80    3.80
   5  -5   2  131.39   16.40
   5  -5   2  132.09   17.60
   5   5   2  114.69   19.10
   5   5   2  138.19   13.50
   6  -5   2    7.30    9.90
   6  -5   2   -2.10   11.60
   6   5   2   -8.50   10.70
   6  -6  -2   85.39   18.90
   6   6  -2  109.79   29.80
   6   6  -2   83.49   15.10
   5  -6  -2    8.60    6.20
   5  -6  -2    4.00    5.00
   5   6  -2   14.50    9.30
   5   6  -2    9.20    6.30
   4  -6  -2   66.99    7.80
   4  -6  -2   69.89   11.90
   4   6  -2   71.59   12.30
   4   6  -2   79.69   10.40
   3  -6  -2  129.69    7.60
  -3  -6   2  128.09   14.20
   3  -6  -2  121.29   13.00
   3   6  -2  106.19   12.50
   3   6  -2  131.39   11.00
   2  -6  -2  181.28   13.40
  -2  -6   2  186.28   11.80
  -2  -6   2  141.29   11.10
  -2  -6   2  185.08   16.10
  -2   6   2  176.98   13.10
   2   6  -2  144.59   12.70
  -1  -6   2  215.98   11.70
  -1  -6   2  224.78   12.80
   1  -6  -2  212.38   12.30
  -1  -6   2  209.38   12.90
   1   6  -2  192.18   12.40
  -1   6   2  216.28    6.10
   1   6  -2  204.48   12.10
  -1   6   2  218.38   12.50
   0  -6   2  123.49    8.60
   0  -6  -2  134.19    8.80
   0  -6  -2  126.99    7.30
   0  -6   2  124.19    9.50
   0   6   2  124.19    7.30
   0   6  -2  129.79    9.50
   0   6   2  129.29    8.20
  -1  -6  -2   21.00    6.00
   1  -6   2    5.60    3.00
  -1  -6  -2   20.20    1.90
  -1  -6  -2   16.00    1.90
   1  -6   2   20.90    3.90
   1   6   2   21.80    6.00
  -2  -6  -2  627.34   18.90
   2  -6   2  630.74   26.70
  -2  -6  -2  626.84   18.70
   2  -6   2  635.14   24.00
   2  -6   2  648.44   29.00
   2   6   2  613.74   29.80
   3  -6   2    4.20    5.00
  -3  -6  -2   -1.30    2.60
   3  -6   2   -0.50    3.80
   3   6   2   -0.50    3.80
   3   6   2   -0.80    2.00
   4  -6   2  431.66   28.20
   4  -6   2  427.56   25.60
   4   6   2  398.76   29.80
   4   6   2  412.76   19.90
   5  -6   2    5.40    8.40
   5  -6   2    6.30    7.90
   5   6   2    6.70    8.10
   5   6   2   19.80    6.70
   6  -6   2   31.80   13.30
   6  -6   2   42.00   12.80
   6   6   2   -8.20   11.30
   6   6   2   12.70    7.80
   6  -7  -2    6.70   10.30
   6   7  -2    9.00   11.40
   5  -7  -2  162.38   13.20
   5  -7  -2  141.09   19.20
   5   7  -2  157.18   15.60
   5   7  -2  163.48   20.60
   4  -7  -2    8.60    5.30
   4  -7  -2    7.40    3.40
   4   7  -2   -3.60    4.20
   4   7  -2    7.70    4.40
   3  -7  -2  387.66   13.20
   3  -7  -2  385.26   23.60
   3   7  -2  391.46   24.30
   3   7  -2  412.26   20.50
   2  -7  -2   92.79    9.90
  -2  -7   2   84.59    8.50
  -2  -7   2   75.39    8.50
   2   7  -2   98.89   10.40
   1  -7  -2   28.40    4.80
  -1  -7   2   45.70    6.00
   1  -7  -2   32.50    2.80
  -1   7   2   34.40    2.40
   1   7  -2   32.40    5.50
   1   7  -2   39.20    5.90
  -1   7   2   35.70    5.80
   0  -7   2  316.17   15.10
   0  -7   2  316.37   16.80
   0  -7  -2  320.87   15.00
   0  -7  -2  332.17   13.60
   0   7  -2  312.47   15.20
   0   7   2  332.47   14.70
   0   7  -2  285.17   15.60
   0   7   2  313.27   13.50
  -1  -7  -2 1296.77   32.50
   1  -7   2 1316.57   44.40
   1  -7   2 1313.37   38.70
  -1  -7  -2 1298.97   33.00
  -1   7  -2 1314.67   44.00
   1   7   2 1262.67   42.90
   2  -7   2    0.60    2.90
   2  -7   2    0.20    2.70
   2  -7   2    0.00    2.70
  -2  -7  -2    0.20    1.40
  -2  -7  -2    0.40    1.30
   2   7   2   -3.00    3.30
  -3  -7  -2   71.39    6.80
   3  -7   2   75.69   11.30
   3  -7   2   75.29   10.80
   3   7   2   73.99    6.80
   3   7   2   85.49   12.80
  -4  -7  -2   46.30    8.50
   4  -7   2   47.10   10.30
   4  -7   2   36.60    9.10
   4   7   2   47.70    6.90
   4   7   2   33.30    9.50
   5  -7   2   41.70   14.00
   5  -7   2   85.99   15.00
   5   7   2   58.19   13.80
   5   7   2   62.49    8.90
   6  -7   2    7.20   11.20
   6  -7   2    6.70    9.70
   6   7   2   11.90    7.80
   6   7   2  -29.50   10.80
   6  -8  -2   38.70   12.80
   6   8  -2   34.70   15.00
   5  -8  -2   14.40    8.40
   5  -8  -2   28.00    6.60
   5   8  -2   25.90    7.70
   5   8  -2   15.10    9.50
   4  -8  -2   19.10    4.20
   4  -8  -2   25.20    8.80
   4   8  -2   24.30    8.90
   4   8  -2   12.10    4.90
  -3  -8   2   32.40    7.50
   3  -8  -2   22.40    3.20
   3  -8  -2   18.80    6.10
   3   8  -2   32.60    8.60
  -2  -8   2  295.87   16.50
  -2  -8   2  356.86   18.70
   2  -8  -2  309.27   19.50
   2   8  -2  312.27   19.90
  -1  -8   2   27.90    6.70
  -1  -8   2   23.50    5.30
   1  -8  -2   27.50    5.90
  -1   8   2   22.30    2.50
  -1   8   2   20.10    5.20
   1   8  -2   24.50    5.90
   1   8  -2   20.80    5.00
   0  -8   2   48.00    6.50
   0  -8  -2   73.69    6.30
   0  -8  -2   58.19    6.60
   0  -8   2   63.09    8.00
   0   8   2   52.89    5.70
   0   8   2   63.39    6.00
   0   8  -2   57.19    6.50
   0   8  -2   56.59    7.20
  -1  -8  -2  151.48   13.10
   1  -8   2  127.99   12.30
  -1  -8  -2  153.78    7.60
   1  -8   2  156.08   10.20
  -1   8  -2  163.98   12.90
   1   8   2  144.19    7.30
  -1   8  -2  163.68   10.40
   1   8   2  136.39   11.80
   2  -8   2   37.70    7.60
   2  -8   2   42.40    7.20
  -2  -8  -2   38.00    3.70
  -2  -8  -2   36.20    3.60
   2   8   2   31.30    7.90
   3  -8   2   -2.10    3.90
  -3  -8  -2    1.40    2.40
  -3  -8  -2    1.00    2.80
   3  -8   2    1.20    4.70
   3   8   2    1.00    4.00
   4  -8   2  154.78   18.40
   4  -8   2  155.68   15.80
   4   8   2  188.28   20.40
   4   8   2  167.68   15.60
   5  -8   2    8.00    7.40
   5   8   2   22.20   11.30
   5   8   2   14.80    6.10
   6  -8   2    3.20   10.70
   6   8   2   12.50    8.50
   6   8   2   22.80   13.70
  -6  -9   2    4.40   10.60
   6  -9  -2   -6.10    9.20
   6  -9  -2    1.60    9.20
   6   9  -2   -3.10   11.40
  -5  -9   2    2.60    6.90
   5  -9  -2    6.10    7.90
   5   9  -2  -10.40    7.40
   5   9  -2   -3.90    5.30
   4  -9  -2    9.70    3.20
   4  -9  -2    5.30    6.60
   4  -9  -2    3.70    2.50
  -4  -9   2    3.30    5.60
   4   9  -2   15.00    7.90
   3  -9  -2  112.29   14.20
  -3  -9   2   82.49   10.50
   3   9  -2  116.39   21.70
  -2  -9   2   68.09    8.80
  -2  -9   2   60.49    7.70
   2  -9  -2   59.79    9.20
   2   9  -2   70.89    9.90
   1  -9  -2  397.16   13.90
   1  -9  -2  412.66   20.50
  -1  -9   2  410.26   20.40
  -1  -9   2  392.66   21.20
   1   9  -2  395.56   20.50
  -1   9   2  412.76   13.30
  -1   9   2  395.76   20.10
   1   9  -2  410.96   20.40
   0  -9  -2   15.40    4.00
   0  -9   2    8.90    4.00
   0  -9  -2   15.80    4.10
   0  -9   2   13.10    4.80
   0   9  -2   12.30    4.30
   0   9  -2   26.90    6.10
   0   9   2   19.90    4.60
   0   9   2   15.50    3.70
   1  -9   2  222.88   13.10
   1  -9   2  258.07   17.30
  -1  -9  -2  233.78   17.70
  -1  -9  -2  209.78   10.30
   1   9   2  208.28   10.10
   1   9   2  227.48   15.50
  -1   9  -2  238.78   13.30
   2  -9   2   72.19   10.80
  -2  -9  -2   69.49    5.20
  -2  -9  -2   64.09    4.70
   2  -9   2   65.99    9.30
   2   9   2   70.99   10.30
  -3  -9  -2    0.40    2.40
  -3  -9  -2   -1.30    2.30
   3  -9   2    2.60    4.60
   3  -9   2    5.20    4.50
   3  -9   2    0.80    4.80
   3   9   2    2.90    6.00
   4  -9   2  180.28   19.10
   4  -9   2  141.39   14.70
  -4  -9  -2  166.18   12.20
   4   9   2  163.38   19.40
  -5  -9  -2   43.10    9.70
   5  -9   2   60.49   11.50
   5  -9   2   73.09   15.60
   5   9   2   64.59   16.10
   6 -10  -2   25.50   12.70
  -6 -10   2   34.60   15.20
   6  10  -2   43.30   15.60
   5 -10  -2    0.50    3.20
   5 -10  -2    2.60    4.80
   5 -10  -2    7.00    8.80
  -5 -10   2    2.70    7.40
   5  10  -2   -1.30    8.10
   4 -10  -2   86.49   13.80
  -4 -10   2  111.69   14.00
   4  10  -2  176.48   19.00
  -3 -10   2    2.70    3.90
   3 -10  -2   14.60    6.20
   3  10  -2    5.00    5.80
   2 -10  -2  232.38   17.60
  -2 -10   2  261.47   16.90
   2  10  -2  279.07   19.50
   1 -10  -2   62.79    8.40
   1 -10  -2   51.49    4.80
  -1 -10   2   37.80    7.30
  -1  10   2   36.80    7.00
   1  10  -2   49.70    7.80
  -1  10   2   51.09    4.50
   1  10  -2   50.89    7.70
   0 -10   2  392.96   19.90
   0 -10  -2  377.46   18.60
   0 -10  -2  404.16   18.50
   0 -10   2  375.56   21.20
   0  10   2  450.15   19.10
   0  10  -2  396.66   19.50
   1 -10   2   -0.20    2.90
  -1 -10  -2   -1.40    4.50
  -1 -10  -2    1.00    1.90
   1 -10   2    0.20    2.70
   1  10   2    5.80    2.50
  -1  10  -2    2.60    2.80
   1  10   2    2.60    2.90
   2 -10   2  157.98   15.50
   2 -10   2  147.99   11.20
  -2 -10  -2  148.29    7.80
  -2 -10  -2  163.98    8.40
   2  10   2  152.98   15.30
   3 -10   2   -0.20    4.20
  -3 -10  -2    4.70    2.60
   3 -10   2    1.30    4.50
  -3 -10  -2   -0.90    3.00
   3  10   2   -0.30    4.70
   4 -10   2   55.49   10.50
   4 -10   2   74.79   15.30
   4  10   2   84.09   15.60
   5 -10   2    0.20    8.80
   5 -10   2    4.40    7.70
   5  10   2   12.40   10.70
  -6 -11   2   11.00   12.30
   6 -11  -2    2.80   10.50
   6  11  -2    2.80   13.20
   5 -11  -2  150.78   21.00
  -5 -11   2  102.59   17.30
   5  11  -2  141.59   20.60
  -4 -11   2   75.99   11.70
   4 -11  -2   76.39   12.90
   4  11  -2   84.49   14.90
   3 -11  -2  146.29   16.00
  -3 -11   2  114.79   12.70
   3  11  -2  143.69   16.20
   2 -11  -2   32.50    8.20
  -2 -11   2   26.20    6.70
   2  11  -2   15.60    5.80
   1 -11  -2   63.19    8.50
  -1 -11   2   72.49    9.30
   1  11  -2   68.99    9.10
  -1  11   2   69.39    5.40
   0 -11   2   -0.80    2.30
   0 -11  -2    2.60    3.40
   0 -11  -2    3.00    3.10
   0 -11   2   -3.40    3.40
   0  11   2    3.80    2.40
   0  11  -2    0.20    2.80
   1 -11   2  752.52   35.30
  -1 -11  -2  780.32   26.50
   1  11   2  816.42   26.60
  -1  11  -2  765.32   28.80
   1  11   2  813.32   33.70
  -2 -11  -2   -0.70    2.00
   2 -11   2    1.60    4.00
  -2 -11  -2   -1.30    1.90
   2  11   2    2.80    4.50
   3 -11   2  246.48   15.60
  -3 -11  -2  240.98   11.90
   3 -11   2  284.27   23.30
   3 -11   2  221.48   16.50
  -3 -11  -2  251.47   11.50
   3  11   2  221.98   21.10
   4 -11   2   -4.40    5.20
  -4 -11  -2   -6.30    4.70
   4 -11   2    9.40    7.40
   4  11   2   -8.50    6.80
   5 -11   2   85.29   15.20
   5 -11   2   34.30   13.50
   5  11   2   45.60   12.90
  -5 -12   2    2.70    7.90
   5 -12  -2   -4.90    8.00
   5  12  -2    3.00    9.40
  -4 -12   2   60.19   11.10
   4 -12  -2   92.29   15.30
   4  12  -2   38.20   11.60
  -3 -12   2   48.90    9.40
   3 -12  -2   30.30    9.50
   3  12  -2   22.90    9.00
  -2 -12   2  216.18   16.50
   2 -12  -2  261.97   19.80
   2  12  -2  241.08   19.60
   1 -12  -2   25.40    6.40
  -1 -12   2   17.60    6.00
   1  12  -2   37.90    8.80
  -1  12   2   20.00    3.80
   0 -12   2   85.19   10.70
   0 -12   2   98.29   12.20
   0 -12  -2   99.49    9.60
   0  12   2  102.09    9.60
   0  12  -2   95.49   10.10
  -1 -12  -2   25.50    4.80
   1 -12   2   28.70    6.10
   1 -12   2   27.20    7.70
   1  12   2   18.10    5.80
  -1  12  -2   15.50    4.40
   1  12   2   19.50    3.90
   2 -12   2   70.39   10.90
  -2 -12  -2   67.19    6.40
  -2 -12  -2   58.19    5.90
   2  12   2   62.39   10.90
  -3 -12  -2   11.40    3.70
   3 -12   2   18.60    6.50
  -3 -12  -2   24.60    4.70
   3 -12   2   28.80    7.60
   3 -12   2    6.00    6.20
   3  12   2   34.80   10.40
  -4 -12  -2   30.80    6.60
   4 -12   2   30.50    8.40
   4 -12   2   51.29   13.90
   4  12   2   28.30   10.60
   5 -12   2  -15.60    8.90
  -5 -12  -2    2.90    6.50
   5  12   2   -5.00    8.70
  -5 -13   2    7.90    9.10
   5 -13  -2   24.00   13.30
   5  13  -2   22.50   12.40
   4 -13  -2    4.60    7.30
  -4 -13   2    8.10    6.00
   4  13  -2    6.30    8.80
  -3 -13   2   46.70   10.00
   3 -13  -2   74.39   15.10
   3  13  -2   35.80   10.30
   2 -13  -2  232.88   19.20
  -2 -13   2  228.78   17.20
   2  13  -2  200.18   19.20
  -1 -13   2    6.20    4.40
   1 -13  -2   -0.90    3.70
   1 -13  -2    3.40    3.50
   1  13  -2    6.00    4.50
  -1  13   2    2.80    2.20
   0 -13   2    5.20    4.50
   0 -13  -2    2.70    4.50
   0 -13  -2    4.70    3.30
   0  13  -2    2.60    3.30
   0  13   2    4.90    3.50
   0  13   2   -0.90    4.50
  -1 -13  -2   -1.10    2.40
   1 -13   2    0.90    4.10
   1  13   2    1.70    4.40
   1  13   2    8.10    4.10
  -1  13  -2   -0.10    3.00
  -2 -13  -2    0.50    2.80
   2 -13   2   -3.30    5.20
   2 -13   2    2.70    4.80
  -2 -13  -2    2.30    2.60
   2  13   2   -2.20    4.30
   3 -13   2   63.09   11.30
   3 -13   2   92.89   14.60
   3 -13   2   81.49   11.00
   3  13   2   68.39   12.70
  -4 -13  -2    2.90    5.10
   4 -13   2   -5.20    6.90
   4 -13   2    4.40    6.80
   4  13   2   11.90    8.80
   5 -13   2   35.40   14.10
   5  13   2   36.20   15.00
   5 -14  -2   -5.40    8.90
  -5 -14   2   10.80    9.90
   5  14  -2    0.20    9.50
   4 -14  -2  188.78   22.40
  -4 -14   2  186.38   30.00
   4  14  -2  158.08   21.60
   3 -14  -2   32.20    9.80
  -3 -14   2   38.30    9.00
   3  14  -2   26.90    8.70
  -2 -14   2   58.49   10.00
   2 -14  -2   42.30    9.40
   2  14  -2   32.60    8.30
   1 -14  -2    3.30    4.10
   1 -14  -2    2.90    3.00
  -1 -14   2    8.50    4.30
   1  14  -2    3.40    4.90
  -1  14   2   -2.30    2.90
   0 -14  -2   17.30    5.80
   0 -14   2   23.30    7.30
   0  14  -2   31.30    7.60
   0  14   2   29.20    6.90
  -1 -14  -2    0.40    2.80
   1 -14   2    7.70    5.40
   1  14   2   -0.60    3.70
  -1  14  -2   -0.60    4.00
   2 -14   2  118.49   12.00
  -2 -14  -2  128.59    9.10
   2 -14   2  147.69   17.20
  -2 -14  -2  148.99   10.50
   2  14   2   92.79   13.90
   3 -14   2   15.30    7.90
   3 -14   2   31.30    8.00
   3  14   2   14.80    8.40
  -4 -14  -2    0.20    4.60
   4 -14   2   -1.80    6.40
   4 -14   2   -2.20    6.50
  -4 -14  -2   -4.90    4.60
   4  14   2    7.40   10.50
   5 -14   2    7.60   12.00
   5  14   2   16.70   11.20
   5 -15  -2    1.80   10.90
  -5 -15   2    8.40    9.50
   5  15  -2  -22.60   10.00
   4 -15  -2   22.80   10.90
  -4 -15   2    5.10    7.00
   4  15  -2    5.80    9.80
  -3 -15   2   36.10    9.70
   3 -15  -2   14.80    7.90
   3  15  -2   11.80    8.40
   2 -15  -2    6.90    5.70
  -2 -15   2   11.30    5.90
   2  15  -2   12.20    5.90
   1 -15  -2   47.50   10.00
  -1 -15   2   56.19   10.30
   1 -15  -2   50.59    8.60
  -1  15   2   43.60    6.10
   1  15  -2   36.20    9.90
   0 -15   2  115.69   13.90
   0 -15  -2  129.39   12.90
   0  15  -2  138.69   13.70
   0  15   2  153.08   13.00
   1 -15   2  276.87   22.40
  -1 -15  -2  281.97   16.70
   1  15   2  245.08   19.30
  -1  15  -2  260.07   17.10
  -2 -15  -2    3.90    3.30
   2 -15   2    4.80    5.90
   2 -15   2   -2.60    5.00
  -2 -15  -2    8.90    4.10
   2  15   2    8.00    5.90
  -3 -15  -2  141.39    9.30
   3 -15   2  157.18   14.70
   3 -15   2  130.19   13.30
  -3 -15  -2  133.79    9.50
   3 -15   2  116.59   18.50
   3  15   2  133.39   18.50
   4 -15   2   -1.30    8.70
   4 -15   2   23.40   14.60
  -4 -15  -2   10.90    3.40
   4  15   2   19.20   20.90
   5 -15   2   78.89   18.70
   5  15   2   76.49   18.10
   5 -16  -2  -15.60    9.10
   5  16  -2    4.40   11.30
  -4 -16   2   54.39   12.00
   3 -16  -2   31.30   11.50
  -3 -16   2    9.30    7.20
   3  16  -2   18.10    8.40
   2 -16  -2  203.68   19.20
  -2 -16   2  256.67   20.10
   2  16  -2  193.68   19.80
   1 -16  -2    6.80    4.70
   1 -16  -2    6.30    5.20
  -1 -16   2   -0.30    4.90
  -1  16   2   10.60    3.70
   1  16  -2    7.80    5.70
   0 -16  -2  429.76   23.80
   0 -16   2  378.16   25.90
   0  16  -2  381.46   23.30
   0  16   2  420.16   22.60
   1 -16   2   22.70    9.30
  -1 -16  -2   35.20    7.70
  -1  16  -2   26.00    7.10
   1  16   2   39.30    8.70
  -2 -16  -2   33.90    6.50
   2 -16   2   30.20    9.90
   2  16   2   49.30   11.10
   3 -16   2   15.70    8.40
   3 -16   2    9.70    8.20
  -3 -16  -2    9.80    4.90
   3  16   2   10.70    8.90
   4 -16   2    5.10    7.90
   4 -16   2   26.00   13.10
   4  16   2   18.20   11.90
  -4 -17   2   25.70    9.10
   4 -17  -2   15.60   12.60
   4  17  -2   13.40   12.00
   3 -17  -2   79.49   15.40
  -3 -17   2   77.59   13.70
   3  17  -2   74.59   15.90
  -2 -17   2   14.10    8.00
   2 -17  -2   22.90   10.20
   2  17  -2   20.50    7.80
   1 -17  -2  161.68   17.00
  -1 -17   2  177.38   17.90
   1 -17  -2  152.08   13.90
   1  17  -2  137.29   16.10
  -1  17   2  167.28   11.60
   0 -17  -2   46.10    9.40
   0 -17   2   42.60   10.60
   0  17  -2   28.70    8.20
   0  17   2   38.00    8.00
  -1 -17  -2    3.90    5.00
   1 -17   2    2.70    5.40
   1  17   2    0.70    4.40
  -1  17  -2    8.60    5.40
   2 -17   2   60.89   14.90
  -2 -17  -2   62.99    9.30
   2  17   2   44.10   11.70
   3 -17   2  112.29   18.20
   3 -17   2  109.39   16.90
   3  17   2  151.98   20.60
   4 -17   2   -1.10   10.10
   4  17   2    5.10   10.60
  -4 -18   2   51.69   12.80
   4 -18  -2   46.20   15.70
   4  18  -2   38.70   15.20
   3 -18  -2   -2.40    8.10
  -3 -18   2    3.80    7.00
   3  18  -2   -4.60    7.10
  -2 -18   2   51.59   11.30
   2 -18  -2   53.49   12.00
   2  18  -2   63.59   14.60
  -1 -18   2   15.60    7.00
   1 -18  -2   12.30    7.00
   1  18  -2    4.30    6.00
  -1  18   2   -5.50    3.70
   0 -18  -2   93.29   12.60
   0 -18   2  101.79   15.20
   0  18  -2   91.19   14.00
   0  18   2  100.19   11.70
   1 -18   2   43.90   11.90
  -1 -18  -2   34.90    8.30
  -1  18  -2   54.19    9.40
   1  18   2   45.50   10.70
   2 -18   2   23.80   10.50
  -2 -18  -2   28.00    7.00
  -2 -18  -2   16.80    8.00
   2  18   2   10.70    8.10
   3 -18   2    8.40    9.30
   3  18   2    4.40    9.80
   4 -18   2   14.10   11.20
   4  18   2   24.80   13.60
   4 -19  -2   13.40   11.70
   4  19  -2   -4.00   10.40
   3 -19  -2    0.70    8.60
  -3 -19   2    9.60    9.00
   3  19  -2  -11.10    6.90
  -2 -19   2  -12.30    6.10
   2 -19  -2   -1.10    7.90
   2  19  -2   -7.40    6.50
  -1 -19   2   10.70    7.60
   1 -19  -2   20.50    9.80
   1 -19  -2   24.40    9.50
   1  19  -2   20.80    8.00
  -1  19   2   13.70    5.40
   0 -19   2   17.10    9.50
   0  19  -2   16.00    6.40
   0  19   2    7.40    5.10
  -1 -19  -2   84.69   12.00
   1 -19   2   82.29   16.00
   1  19   2   85.19   14.00
  -1  19  -2  111.69   13.10
  -2 -19  -2   -1.70    6.10
   2 -19   2    6.50    9.30
   2  19   2   22.80    9.60
   3 -19   2   24.00   10.80
   3 -19   2   36.40   10.00
   3  19   2   38.80   15.10
  -3 -20   2    9.10    8.50
   3 -20  -2    7.80    9.30
   3  20  -2    6.60   10.80
   2 -20  -2   42.40   13.40
  -2 -20   2   36.80   10.20
   2  20  -2   64.19   15.70
   1 -20  -2   12.20    7.40
  -1 -20   2   38.80   10.50
  -1  20   2   13.10    5.60
   1  20  -2   21.80    9.00
   0 -20   2   16.00    9.60
   0 -20  -2   15.60    6.70
   0  20  -2   23.10    8.50
   0  20   2   17.10    7.00
   1 -20   2   -1.30    8.20
  -1 -20  -2    3.90    6.30
  -1  20  -2    1.50    5.10
   1  20   2    5.30    7.40
   2 -20   2  -17.00    8.40
   2  20   2    8.20    8.90
   3 -20   2    0.00    9.70
   3  20   2    7.70    9.80
   3 -21  -2   98.79   19.60
  -3 -21   2  106.29   20.30
   3  21  -2  112.59   21.30
   2 -21  -2    1.50   10.00
  -2 -21   2   -0.20    7.80
   2  21  -2    5.40    8.80
   1 -21  -2   47.50   12.20
  -1 -21   2   53.59   14.90
   1  21  -2   35.70   11.60
  -1  21   2   52.29    9.90
   0 -21  -2   37.70   10.90
   0 -21   2   31.40   11.50
   0  21   2   48.60   11.20
  -1 -21  -2   29.90    9.60
   1 -21   2   18.60   10.90
   2 -21   2    2.00   10.00
  -2 -21  -2    2.40    7.80
   2  21   2    8.80    8.20
   3 -21   2  -11.60   10.20
   3  21   2  -10.50   10.00
  -2 -22   2   30.50   11.50
   2 -22  -2   34.00   17.70
   1 -22  -2    1.70    8.80
  -1 -22   2    2.20    9.40
  -1  22   2   -3.10    5.90
   1  22  -2    0.70    7.80
   0 -22   2   32.50   11.50
   0 -22  -2   29.80    9.20
  -1 -22  -2    1.20    8.20
   1 -22   2  -12.60   13.30
   1  22   2    4.00    8.40
   2 -22   2  243.88   30.10
   2  22   2  226.38   28.50
   2 -23  -2   10.40   12.40
  -2 -23   2   34.40   14.50
   2  23  -2   26.60   13.90
   1 -23  -2  156.98   21.80
  -1 -23   2   98.99   19.50
   1  23  -2  115.09   18.90
  -1  23   2  108.59   13.00
   0 -23   2    9.60   10.70
   0 -23  -2    8.60    9.00
   1 -23   2  147.99   23.20
  -1  23  -2  119.69   16.90
  -1 -24   2   17.70   11.70
   1 -24  -2    5.30   11.00
   0 -24   2   40.90   15.20
   0 -24  -2   37.70   12.40
   0  24  -2   49.30   12.80
   0  24   2   47.50   11.40
   6   0  -3   -5.00    8.10
   6   0  -3   -1.10    7.30
   5   0  -3   28.90   10.10
   4   0  -3    4.20    3.60
   4   0  -3   -3.40    3.20
   3   0  -3  194.48   14.40
   3   0  -3  192.88   13.50
  -2   0   3    0.90    2.20
   2   0  -3    0.50    1.80
  -2   0   3   -0.30    2.30
   2   0  -3    1.20    2.20
  -1   0   3 9711.73  222.68
   1   0  -3 9427.96  221.28
  -1   0   3 9999.00  221.68
   1   0  -3 9799.02  222.88
   0   0   3    0.40    1.40
   0   0   3   -1.10    0.90
   0   0   3    0.70    1.10
   1   0   3  456.55   21.20
  -1   0  -3  447.36   16.40
   1   0   3  471.15   16.70
  -2   0  -3   -4.60    4.10
   2   0   3   -0.20    2.00
   2   0   3    0.40    3.20
  -2   0  -3    1.50    2.10
   3   0   3   42.50    6.90
   3   0   3   55.29   10.00
   4   0   3   -2.90    3.30
   4   0   3   -1.10    5.20
   5   0   3  211.48   18.30
   5   0   3  184.28   22.70
   6  -1  -3   67.49   16.80
   6  -1  -3   48.10   13.30
   6   1  -3   50.79   12.00
   6   1  -3   97.89   17.40
   5  -1  -3   22.60    7.30
   5  -1  -3   22.90    7.50
   5   1  -3   11.20    6.10
   5   1  -3   27.40    9.40
   4  -1  -3  236.08   16.60
   4  -1  -3  235.18   18.60
   4   1  -3  226.18   17.00
   4   1  -3  232.98   18.20
   3  -1  -3   52.19    7.70
   3  -1  -3   48.50    7.00
   3   1  -3   42.50    6.90
   3   1  -3   52.69    7.80
  -2  -1   3  431.26   19.70
  -2  -1   3  428.66   19.10
   2  -1  -3  465.45   20.40
   2  -1  -3  442.96   17.30
  -2   1   3  443.26   17.60
   2   1  -3  470.75   19.50
   2   1  -3  438.46   19.80
   1  -1  -3 3430.86   83.49
   1  -1  -3 3396.66   80.89
  -1  -1   3 3323.57   82.59
  -1  -1   3 3351.66   83.19
   1   1  -3 3371.06   83.39
  -1   1   3 3344.57   80.59
   1   1  -3 3376.16   82.99
  -1   1   3 3311.77   82.79
   0  -1   3  156.38    9.10
   0  -1   3  167.48    8.90
   0   1   3  159.18    7.30
   0   1  -3  162.38    8.70
   0   1   3  154.98    7.60
   1  -1   3   44.90    6.80
  -1  -1  -3   63.19    7.80
   1  -1   3   50.49    5.30
  -1  -1  -3   59.09    4.50
  -1   1  -3   65.79    5.80
   1   1   3   53.49    4.50
   1   1   3   58.09    7.30
   2  -1   3  781.32   33.20
   2  -1   3  770.72   28.00
  -2  -1  -3  794.52   26.50
  -2  -1  -3  749.33   33.10
   2   1   3  810.82   34.10
   2   1   3  763.72   25.70
  -2   1  -3  809.52   28.70
   3  -1   3    3.00    2.30
   3  -1   3   -2.70    3.50
   3   1   3   -5.70    3.10
   3   1   3   -2.10    2.60
   4  -1   3   28.50    8.90
   4  -1   3   30.80    6.90
   4   1   3   24.40    6.60
   4   1   3   12.40    8.30
   5  -1   3    5.40    7.80
   5  -1   3   13.00    6.90
   5   1   3    3.20    7.90
   6  -1   3   90.39   19.70
   6   1   3  102.39   20.80
   6  -2  -3    2.40    9.10
   6  -2  -3    5.10    8.50
   6   2  -3    3.20    9.70
   6   2  -3   10.40    8.20
   5  -2  -3   -1.10    5.60
   5  -2  -3    4.40    6.30
   5   2  -3    9.70    6.00
   5   2  -3    4.10    5.40
   4  -2  -3   13.00    5.20
   4  -2  -3    3.10    5.30
   4   2  -3   15.60    6.70
   4   2  -3   15.10    5.90
   3  -2  -3   92.99   10.40
  -3  -2   3   79.79   10.60
   3  -2  -3   78.89    8.10
   3   2  -3   88.89    9.90
  -3   2   3   80.59   10.00
   3   2  -3   98.09   10.30
  -2  -2   3   19.40    5.00
  -2  -2   3   16.00    4.40
   2  -2  -3   32.90    5.30
   2  -2  -3   22.10    3.30
  -2   2   3   28.10    5.50
  -2   2   3   33.60    4.30
   2   2  -3   22.00    5.20
   2   2  -3   27.10    4.50
  -1  -2   3    3.80    2.10
   1  -2  -3    5.10    1.60
   1  -2  -3    0.30    1.60
  -1  -2   3    3.40    2.10
  -1   2   3   -0.10    1.20
   1   2  -3    1.60    1.50
  -1   2   3   -0.60    1.50
   0  -2   3  185.78   10.00
   0  -2  -3  167.38    7.20
   0  -2   3  174.78    9.80
   0   2  -3  173.38    9.70
   0   2   3  184.68    7.60
   0   2  -3  178.98    9.90
   0   2   3  172.68   10.60
   1  -2   3   52.99    5.60
  -1  -2  -3   48.70    7.00
  -1  -2  -3   55.09    4.00
  -1   2  -3   54.09    5.90
   1   2   3   68.39    8.10
   1   2   3   53.89    3.70
  -2  -2  -3  317.37   20.30
  -2  -2  -3  357.46   14.70
   2  -2   3  340.57   20.30
   2  -2   3  334.17   17.50
   2   2   3  364.66   14.20
  -2   2  -3  346.97   18.10
   2   2   3  339.97   21.30
   3  -2   3  221.18   16.10
   3  -2   3  220.08   18.10
  -3  -2  -3  208.88   13.60
   3   2   3  237.78   20.00
   3   2   3  225.08   13.20
   4  -2   3    4.90    5.50
   4   2   3    3.00    6.20
   4   2   3   -1.60    3.20
   5  -2   3   79.09   13.60
   5  -2   3   63.59   14.10
   5   2   3   99.39   18.20
   6  -2   3    1.70   11.50
   6   2   3   12.60   12.40
   6  -3  -3   41.10   11.50
   6  -3  -3   42.60   10.60
   6   3  -3   39.00   13.10
   6   3  -3   18.50    9.20
   5  -3  -3   39.70    8.80
   5  -3  -3   40.20   10.70
   5   3  -3   28.10   10.60
   5   3  -3   37.30    9.10
   4  -3  -3   -0.30    3.90
   4  -3  -3    8.80    4.60
   4   3  -3    9.50    4.90
   4   3  -3    2.30    3.30
   3  -3  -3   91.39    7.80
   3  -3  -3  100.79   10.60
   3   3  -3   82.69    9.90
   3   3  -3   88.59    9.40
  -3   3   3   82.59    8.30
   2  -3  -3   42.10    4.30
  -2  -3   3   41.80    7.10
   2  -3  -3   33.90    5.90
   2   3  -3   36.90    6.10
   2   3  -3   29.20    5.40
  -2   3   3   48.00    6.30
  -2   3   3   41.50    4.30
   1  -3  -3  150.28    9.20
  -1  -3   3  140.69    9.40
  -1  -3   3  162.48   10.30
  -1  -3   3  147.49    9.60
  -1   3   3  144.99    6.80
   1   3  -3  133.19    9.40
  -1   3   3  146.09    9.00
   0  -3  -3  297.27   10.40
   0  -3   3  312.87   14.10
   0  -3   3  283.27   13.40
   0   3  -3  303.47   14.20
   0   3   3  298.27   10.40
   0   3   3  316.67   14.50
   1  -3   3   18.20    4.10
  -1  -3  -3   36.00    7.30
  -1  -3  -3   25.80    1.90
   1   3   3   22.10    1.80
   1   3   3   15.60    4.50
  -1   3  -3   25.40    5.10
   2  -3   3  804.82   30.90
   2  -3   3  741.63   32.70
  -2  -3  -3  795.52   38.00
  -2  -3  -3  759.42   23.90
   2   3   3  792.62   23.30
   2   3   3  803.72   34.40
  -2   3  -3  786.12   30.60
   3  -3   3  123.29   13.30
   3  -3   3  127.29   12.50
  -3  -3  -3  111.89    9.90
   3   3   3  125.79    9.20
   3   3   3  114.69   14.50
   4  -3   3   10.20    5.50
   4  -3   3    2.80    6.80
   4   3   3    1.60    5.50
   4   3   3    8.00    4.50
   5  -3   3   25.30    9.30
   5  -3   3   -4.30    6.20
   5   3   3    6.90    7.40
   5   3   3    2.80    5.20
   6  -3   3   63.89   17.80
   6  -3   3   36.30   16.60
   6   3   3   62.09   20.40
   6  -4  -3   -5.40    7.20
   6   4  -3    3.80    7.40
   6   4  -3  -12.60    8.20
   5  -4  -3   87.89   12.10
   5  -4  -3  113.59   16.00
   5   4  -3   92.29   13.60
   5   4  -3  108.59   15.80
   4  -4  -3    6.60    3.90
   4  -4  -3   12.60    5.50
   4   4  -3    8.50    5.20
   4   4  -3    0.50    4.30
   3  -4  -3  300.17   14.00
   3  -4  -3  338.37   20.60
   3   4  -3  316.97   18.60
  -3   4   3  307.07   15.10
   3   4  -3  324.37   20.10
  -2  -4   3   24.10    5.60
   2  -4  -3   39.40    6.30
   2  -4  -3   29.10    3.10
  -2  -4   3   27.20    5.10
   2   4  -3   43.50    6.90
  -2   4   3   33.20    5.60
   2   4  -3   28.70    4.90
  -2   4   3   30.80    3.50
  -1  -4   3   71.39    7.30
  -1  -4   3   95.79    8.10
  -1  -4   3   73.19    6.70
   1  -4  -3   72.39    7.90
  -1   4   3   76.09    4.50
  -1   4   3   77.99    6.60
   1   4  -3   89.79    7.80
   0  -4  -3  676.93   24.20
   0  -4   3  712.83   25.30
   0  -4  -3  703.93   19.60
   0  -4   3  677.63   24.00
   0   4   3  651.23   23.80
   0   4  -3  662.83   24.00
   0   4   3  681.23   19.50
   0   4  -3  697.13   24.90
   1  -4   3  241.68   13.10
  -1  -4  -3  242.88   15.50
   1  -4   3  214.08   13.50
  -1   4  -3  205.18   12.90
   1   4   3  224.38   14.90
  -2  -4  -3   84.39    5.40
   2  -4   3   77.39   10.10
   2  -4   3   84.89    9.60
  -2   4  -3   74.39    9.10
   2   4   3   85.19   10.70
   2   4   3   91.49    5.20
   3  -4   3  100.79   12.00
  -3  -4  -3  115.29    8.90
   3  -4   3  113.69   13.20
   3   4   3   83.89   12.90
   3   4   3   98.89    7.80
   4  -4   3    1.50    4.60
   4  -4   3    2.20    5.50
  -4  -4  -3   -4.60    5.40
   4   4   3   -1.20    3.10
   4   4   3   -2.80    5.70
   5  -4   3   56.59   13.00
   5  -4   3   44.50   12.50
   5   4   3   48.40    9.50
   5   4   3   44.10   14.00
   6  -4   3  -12.00   11.70
   6   4   3    2.60   11.70
   6  -5  -3  103.09   18.60
   6  -5  -3  118.69   15.40
   6   5  -3   87.39   15.30
   6   5  -3   83.69   18.00
   5  -5  -3   -7.20    5.50
   5  -5  -3   -3.10    4.90
   5   5  -3    3.00    5.10
   5   5  -3   -0.90    5.10
   4  -5  -3   95.39   12.30
   4  -5  -3  115.39    9.60
   4   5  -3   94.29   15.30
   4   5  -3  105.89   12.50
   3  -5  -3   32.20    4.30
   3  -5  -3   37.10    7.20
  -3   5   3   42.60    5.70
   3   5  -3   35.70    6.70
   3   5  -3   35.20    7.80
  -2  -5   3  493.95   24.00
  -2  -5   3  499.15   22.10
   2  -5  -3  508.55   14.10
   2  -5  -3  491.55   23.00
  -2   5   3  520.05   23.50
   2   5  -3  520.65   22.10
   2   5  -3  474.95   23.30
  -2   5   3  514.15   14.70
  -1  -5   3   65.69    6.80
  -1  -5   3   64.49    7.20
   1  -5  -3   79.69    7.00
  -1  -5   3   65.69    7.00
  -1   5   3   68.49    4.60
  -1   5   3   67.39    6.60
   1   5  -3   69.19    7.30
   0  -5  -3  408.16   17.60
   0  -5   3  406.26   17.50
   0  -5  -3  403.76   13.50
   0  -5   3  410.86   18.80
   0   5   3  392.16   13.60
   0   5  -3  384.96   18.20
   0   5  -3  405.96   17.70
   0   5   3  403.66   17.10
   1  -5   3   42.60    5.60
  -1  -5  -3   60.09    8.10
   1  -5   3   42.50    6.30
   1   5   3   53.49    7.70
  -1   5  -3   53.29    7.80
   2  -5   3  205.58   15.70
   2  -5   3  193.28   14.90
  -2   5  -3  221.28   15.80
   2   5   3  196.68    7.30
   2   5   3  174.88   15.40
  -3  -5  -3   29.20    4.80
   3  -5   3   33.30    8.80
   3  -5   3   27.40    7.70
   3   5   3   28.80    8.80
   3   5   3   28.00    4.50
  -4  -5  -3   76.59   11.10
   4  -5   3   72.89   12.00
   4  -5   3   66.29   13.30
   4   5   3   59.59    7.60
   4   5   3   76.89   14.10
   5  -5   3   34.70    9.90
   5  -5   3   15.40    9.60
   5   5   3   22.80   12.00
   5   5   3   33.60    7.50
   6  -5   3   13.50   10.50
   6  -5   3   29.70   14.50
   6   5   3   14.40    8.50
   6   5   3   17.90   14.20
   6  -6  -3    7.30    9.80
   6   6  -3    6.70    7.80
   6   6  -3   16.00   12.70
   5  -6  -3  108.89   16.90
   5  -6  -3  114.79   12.00
   5   6  -3  121.69   14.20
   5   6  -3   83.69   15.40
  -5   6   3  114.29   17.70
   4  -6  -3   28.90    9.10
   4  -6  -3   25.70    5.00
   4   6  -3   22.80    7.60
   4   6  -3   34.80    7.60
   3  -6  -3  279.27   10.90
   3  -6  -3  264.97   19.10
   3   6  -3  281.07   19.90
   3   6  -3  269.77   17.30
  -3   6   3  270.67   11.90
   2  -6  -3   70.39    8.60
  -2  -6   3  100.49    9.90
  -2  -6   3   71.39   10.60
  -2  -6   3   76.39    8.50
  -2   6   3   86.39    9.30
   2   6  -3   98.59   10.00
   1  -6  -3   45.60    5.70
  -1  -6   3   44.30    6.10
  -1  -6   3   57.39    7.10
   1   6  -3   47.40    6.40
  -1   6   3   48.90    5.90
   1   6  -3   44.20    6.10
  -1   6   3   46.50    3.70
   0  -6   3  384.16   17.80
   0  -6  -3  396.56   14.10
   0  -6  -3  408.46   18.00
   0  -6   3  384.46   18.90
   0   6   3  409.76   14.50
   0   6  -3  406.06   19.40
   0   6   3  402.46   17.30
   1  -6   3  694.23   29.20
   1  -6   3  708.23   26.20
  -1  -6  -3  680.83   32.80
   1   6   3  719.13   29.60
  -1   6  -3  737.23   29.10
   2  -6   3   42.60    8.60
  -2  -6  -3   52.09    2.50
   2  -6   3   47.50    8.00
  -2  -6  -3   52.69    2.50
   2  -6   3   59.29    7.40
   2   6   3   43.00    8.20
  -3  -6  -3  172.78    9.80
   3  -6   3  170.68   15.80
   3  -6   3  143.79   15.20
   3   6   3  184.98   20.70
   3   6   3  168.28    9.00
   4  -6   3  113.29   15.20
   4  -6   3  113.69   14.60
  -4  -6  -3   77.39   15.90
   4   6   3   88.19    8.50
   4   6   3   78.09   17.30
   5  -6   3   92.69   14.50
   5  -6   3   58.29   13.50
   5   6   3   65.09   15.60
   5   6   3   40.90    8.10
   6  -6   3   10.60   10.50
   6  -6   3   -0.70   12.10
   6   6   3   -5.00   11.60
   6   6   3   -2.50    7.20
   6  -7  -3   41.40   14.00
   6   7  -3   54.09   15.50
   6   7  -3   33.00    9.70
   5  -7  -3   47.60    8.20
   5  -7  -3   60.09   14.80
   5   7  -3   91.89   17.00
   5   7  -3   49.60   11.40
   4  -7  -3    6.50    3.40
   4  -7  -3    8.10    5.60
   4   7  -3   -1.70    3.70
   4   7  -3    3.90    5.70
   3  -7  -3   38.60    2.50
   3  -7  -3   21.30    6.30
   3   7  -3   27.40    7.30
   3   7  -3   44.50    7.30
   2  -7  -3  799.12   32.00
  -2  -7   3  716.43   28.70
  -2  -7   3  744.63   31.00
   2   7  -3  724.33   31.60
   1  -7  -3   16.60    4.20
  -1  -7   3   18.40    5.10
  -1  -7   3   28.10    6.90
  -1   7   3   13.20    2.40
  -1   7   3   13.30    4.10
   1   7  -3   15.20    4.00
   1   7  -3    2.20    2.80
   0  -7  -3  579.74   19.20
   0  -7   3  535.95   24.30
   0  -7   3  584.84   23.50
   0  -7  -3  584.34   23.00
   0   7   3  574.24   19.70
   0   7  -3  585.24   23.60
   0   7  -3  589.44   25.40
  -1  -7  -3   -0.80    3.30
   1  -7   3   -1.80    2.30
   1  -7   3    2.50    3.10
   1   7   3    1.00    2.70
  -1   7  -3    6.60    3.90
   2  -7   3  513.35   26.80
   2  -7   3  472.65   25.40
   2  -7   3  571.14   24.00
   2   7   3  534.85   28.30
  -3  -7  -3   12.70    3.30
  -3  -7  -3   10.90    3.20
   3  -7   3    9.10    5.20
   3  -7   3    6.40    5.00
   3   7   3    1.30    5.00
   4  -7   3   59.99   11.60
  -4  -7  -3   57.29    9.10
   4  -7   3   66.89   15.00
   4   7   3   60.09   15.30
   5  -7   3    9.30    7.90
   5  -7   3   12.10    8.80
   5   7   3    5.50    4.50
   5   7   3    6.10    8.70
   6  -8  -3   17.30    7.30
   6  -8  -3    2.00    8.80
   6   8  -3   -3.40   11.60
   6   8  -3   -4.40    9.10
   5  -8  -3   70.39    8.40
   5  -8  -3   70.99   13.50
   5   8  -3   64.59   15.70
   5   8  -3   74.89   12.70
   4  -8  -3   50.39    4.50
   4  -8  -3   65.89   11.80
   4   8  -3   57.59   12.50
   4   8  -3   50.19    9.20
  -3  -8   3  243.88   17.90
   3  -8  -3  267.27   19.70
   3   8  -3  232.28   19.20
  -2  -8   3   44.70    7.60
   2  -8  -3   41.20    7.50
  -2  -8   3   64.29    8.50
   2   8  -3   34.20    7.50
   1  -8  -3   30.30    5.40
  -1  -8   3   35.90    7.80
  -1  -8   3   19.00    5.40
   1   8  -3   51.49    7.40
  -1   8   3   36.20    3.30
  -1   8   3   30.10    5.70
   1   8  -3   46.50    7.30
   0  -8   3   41.30    6.80
   0  -8  -3   53.89    7.00
   0  -8  -3   38.60    4.70
   0   8  -3   47.60    7.40
   0   8   3   38.10    4.90
   0   8  -3   49.30    6.40
   0   8   3   51.19    6.40
  -1  -8  -3    5.30    5.10
  -1  -8  -3   11.30    1.60
   1  -8   3   10.70    5.10
   1  -8   3   16.20    4.70
  -1  -8  -3   10.50    1.40
   1   8   3    5.10    3.90
   2  -8   3    3.20    3.50
   2   8   3   -0.60    3.20
  -3  -8  -3    4.10    1.90
   3  -8   3   12.30    6.00
  -3  -8  -3    8.20    2.60
   3  -8   3    4.00    5.20
   3   8   3    8.10    5.20
  -4  -8  -3   14.80    5.80
   4  -8   3   12.90    8.00
   4  -8   3   -2.00    6.40
   4   8   3    4.60    7.20
   5  -8   3   62.19   13.80
   5  -8   3   74.19   16.00
   5   8   3   74.19   19.60
   5   8   3   72.39    9.50
  -6  -9   3   24.40   13.60
   6  -9  -3   58.09   17.80
   6   9  -3   48.90   14.70
  -5  -9   3   51.49   12.70
   5  -9  -3   50.39   12.80
   5  -9  -3   38.10    5.80
   5  -9  -3   32.50    5.90
   5   9  -3   52.89   15.70
   5   9  -3   33.50    8.90
  -4  -9   3   -0.60    4.60
   4  -9  -3    4.60    5.70
   4   9  -3    2.20    6.60
   3  -9  -3   40.00   14.00
  -3  -9   3   44.90    8.50
  -2  -9   3  360.06   20.40
   2  -9  -3  304.67   19.60
   2   9  -3  349.77   21.40
   1  -9  -3   54.39    5.30
   1  -9  -3   51.49    6.90
  -1  -9   3   38.10    7.20
  -1   9   3   56.79    7.90
   1   9  -3   46.60    8.10
   1   9  -3   61.79    8.40
  -1   9   3   60.59    4.50
   0  -9   3  230.98   16.30
   0  -9  -3  214.48   13.80
   0  -9  -3  257.47   12.50
   0   9   3  253.57   12.70
   0   9   3  224.38   13.50
   0   9  -3  240.78   16.20
   0   9  -3  214.08   14.30
  -1  -9  -3  106.29    5.40
   1  -9   3  132.89   12.60
   1  -9   3  124.89   10.50
   1   9   3  109.09   11.30
  -1   9  -3  126.69   10.30
   1   9   3  109.19    5.60
   2  -9   3    7.50    4.40
   2  -9   3    3.20    4.30
   2   9   3    0.50    4.10
   3  -9   3   83.29   11.90
  -3  -9  -3   76.29    4.30
   3  -9   3   89.99   13.20
   3   9   3   57.89   13.00
   4  -9   3  118.09   16.50
   4  -9   3  113.99   16.20
   4   9   3  143.69   19.40
   5  -9   3    6.90    9.30
   5  -9   3    3.40    9.10
   5   9   3   19.10   10.30
  -6 -10   3   -4.80   11.20
   6 -10  -3    2.00   11.20
   6  10  -3   -1.80   11.60
   5 -10  -3    7.00    7.60
  -5 -10   3    1.00    7.20
   5  10  -3   -4.50    8.60
  -4 -10   3   76.39   16.10
   4 -10  -3   66.79   12.10
   4  10  -3   34.60   10.10
  -3 -10   3  167.68   15.20
   3 -10  -3  152.38   16.20
   3  10  -3  175.18   17.70
   2 -10  -3   61.99    8.90
  -2 -10   3   58.99    8.90
   2  10  -3   53.89    8.80
   1 -10  -3    1.50    2.40
  -1 -10   3   -2.40    2.10
   1 -10  -3    2.10    2.70
  -1  10   3   -0.20    1.50
   1  10  -3    0.20    3.30
   0 -10  -3  100.99    8.20
   0 -10   3  108.59   11.30
   0 -10  -3  108.69   10.30
   0 -10   3  113.99   10.90
   0  10   3  113.19    9.60
   0  10  -3   86.49    9.30
   0  10   3  124.09    9.30
   1 -10   3  476.45   26.00
  -1 -10  -3  470.85   15.50
   1 -10   3  455.85   22.30
  -1  10  -3  450.45   21.70
   1  10   3  462.35   24.80
   1  10   3  451.55   15.60
   2 -10   3    6.80    4.90
   2 -10   3    4.10    3.80
   2  10   3    4.90    5.30
   3 -10   3  273.37   22.40
   3 -10   3  280.87   20.10
   3  10   3  302.17   24.70
  -4 -10  -3   60.69    6.20
   4 -10   3   72.39   14.70
   4 -10   3   73.79   13.70
   4  10   3   42.20   11.40
   5 -10   3   59.09   13.30
   5  10   3   41.70   14.10
   6 -11  -3   54.99   16.50
  -6 -11   3   48.10   15.60
   6  11  -3   59.89   17.70
  -5 -11   3   19.60    9.00
   5 -11  -3   16.90   10.20
   5  11  -3   -3.50    9.40
  -4 -11   3    3.40    4.90
   4 -11  -3    7.10    5.80
   4  11  -3   -2.40    5.80
   3 -11  -3   -5.60    3.50
  -3 -11   3    5.50    5.00
   3  11  -3   -3.80    4.70
  -2 -11   3  100.19   11.70
   2 -11  -3  101.69   12.10
   2  11  -3  107.19   12.80
   1 -11  -3   43.80    7.30
  -1 -11   3   38.90    8.80
   1  11  -3   45.70    8.40
  -1  11   3   35.40    4.60
   0 -11   3  483.05   26.10
   0 -11  -3  481.55   20.70
   0  11   3  462.75   20.70
   0  11   3  499.15   21.90
   0  11  -3  499.75   23.90
   1 -11   3  144.09   14.40
  -1 -11  -3  123.39    7.40
  -1  11  -3   90.19   10.10
   1  11   3  129.19    7.90
   1  11   3  133.59   13.20
   2 -11   3  341.67   23.90
   2  11   3  379.36   25.00
   3 -11   3    1.00    4.70
   3 -11   3   -6.90    5.40
   3  11   3   -4.50    5.00
   4 -11   3   42.90   11.00
   4 -11   3   38.40   12.20
   4  11   3   43.90   12.20
   5 -11   3   -9.90    9.20
   5 -11   3    3.30    9.00
   5  11   3    3.40   10.30
   5 -12  -3  101.89   18.80
  -5 -12   3  164.88   20.10
   5  12  -3  122.69   23.40
  -4 -12   3   11.60    6.10
   4 -12  -3    7.20    6.40
   4  12  -3    9.10    7.50
  -3 -12   3  344.37   23.30
   3 -12  -3  367.26   26.40
   3  12  -3  378.16   26.10
   2 -12  -3    7.10    5.40
  -2 -12   3    4.80    3.90
   2  12  -3   -0.60    4.20
   1 -12  -3   81.49    8.10
   1 -12  -3  114.59   11.60
  -1 -12   3   93.49   11.40
  -1  12   3  101.09    7.00
   1  12  -3  120.69   12.60
   0 -12   3   23.90    6.60
   0 -12  -3    9.90    5.60
   0 -12  -3   23.30    5.50
   0  12   3   23.90    6.10
   0  12  -3   31.60    7.30
   0  12   3   29.30    7.30
   1 -12   3   36.20   10.60
  -1 -12  -3   37.20    5.00
   1 -12   3   49.99    9.30
   1  12   3   35.40    5.10
   1  12   3   44.80    9.80
  -1  12  -3   30.20    6.60
  -2 -12  -3   69.99    3.30
   2 -12   3   73.49   11.90
   2 -12   3   92.49   13.40
  -2 -12  -3   65.99    3.40
   2  12   3   70.29   13.40
   3 -12   3   30.30    9.70
   3 -12   3   38.70    9.60
   3  12   3   39.50   11.10
   4 -12   3   23.60   10.30
   4 -12   3   -0.20    7.50
   4  12   3    2.30    7.00
   5 -12   3   25.00   12.80
   5  12   3   44.00   16.50
  -5 -13   3  -11.30    8.00
   5 -13  -3  -20.40    9.40
   5  13  -3  -11.30    9.10
  -4 -13   3  231.78   20.50
   4 -13  -3  232.58   23.90
   4  13  -3  249.48   25.10
  -3 -13   3   22.40    8.30
   3 -13  -3   21.70    7.60
   3  13  -3   14.90    8.50
   2 -13  -3   85.09   11.70
  -2 -13   3   70.99   10.80
   2  13  -3   94.79   12.70
   1 -13  -3    1.90    3.60
  -1 -13   3   -0.60    4.10
   1 -13  -3    0.60    3.30
   1  13  -3   -1.50    3.10
  -1  13   3    1.60    2.30
   0 -13  -3   21.90    5.00
   0 -13  -3   19.30    6.50
   0 -13   3   12.90    6.40
   0  13   3   25.40    5.90
   0  13  -3   16.80    5.60
   0  13   3   16.70    5.10
   1 -13   3   27.10   13.20
   1  13   3   18.90    6.50
  -1  13  -3   21.30    5.60
   2 -13   3  136.89   17.00
  -2 -13  -3  105.09    5.50
   2  13   3  124.89   15.20
   3 -13   3  126.69   15.90
   3 -13   3  139.69   17.90
   3  13   3  113.69   17.40
   4 -13   3   -2.60    7.40
   4 -13   3   17.20    9.10
   4  13   3   -6.60    7.70
   5 -13   3   15.10   11.60
   5  13   3   -1.50   10.10
   5 -14  -3    3.80    9.70
  -5 -14   3    4.20    9.70
   5  14  -3    2.80   11.50
  -4 -14   3    3.90    8.10
   4 -14  -3   -3.90    8.10
   4  14  -3   20.70   10.10
  -3 -14   3   -0.90    4.80
   3 -14  -3    5.80    6.50
   3  14  -3    6.20    6.20
   2 -14  -3   32.70    8.40
  -2 -14   3   58.09   10.60
   2  14  -3   49.90   10.10
   1 -14  -3  337.07   21.20
  -1 -14   3  334.87   22.90
   1 -14  -3  325.37   16.60
   1  14  -3  358.36   23.60
   0 -14  -3   41.40    7.80
   0 -14   3   53.39   11.90
   0  14  -3   50.69    9.20
   0  14   3   41.60    7.70
  -1 -14  -3  278.87   14.40
   1 -14   3  214.78   20.10
   1  14   3  295.17   20.50
  -1  14  -3  272.17   17.90
  -2 -14  -3   13.60    2.80
  -2 -14  -3   12.80    2.80
   2 -14   3   13.70    6.50
   2  14   3    9.70    6.40
   3 -14   3   21.50    8.50
   3 -14   3   14.60    7.50
   3  14   3    5.70    7.10
   4 -14   3    6.00    8.30
   4 -14   3   14.80   14.90
   5 -14   3   31.30   13.30
   5  14   3    9.80   11.50
   5 -15  -3   14.90   12.70
  -5 -15   3    7.40   10.40
   5  15  -3   13.10   10.10
   4 -15  -3   46.90   16.00
  -4 -15   3   85.39   14.30
   4  15  -3   59.89   14.60
  -3 -15   3    6.30    6.90
   3 -15  -3   13.70    6.70
   3  15  -3   21.70    8.90
  -2 -15   3    4.80    5.20
   2 -15  -3   -8.00    4.20
   2  15  -3   -4.10    4.30
   1 -15  -3   23.00    6.80
   1 -15  -3   28.80    6.80
  -1 -15   3   26.40    7.80
  -1  15   3   33.40    5.70
   0 -15   3   26.30    8.30
   0 -15  -3   32.70    6.80
   0  15   3   34.00    7.80
   0  15  -3   42.50    9.50
  -1 -15  -3  176.98   11.80
   1 -15   3  174.28   19.20
   1  15   3  150.08   15.50
  -1  15  -3  177.68   14.70
  -2 -15  -3  368.46   13.60
   2 -15   3  371.96   28.70
   2  15   3  387.06   27.80
   3 -15   3   17.90    8.40
   3 -15   3   25.40    9.80
   3  15   3   13.50    7.70
   4 -15   3   27.50   10.20
   4  15   3   29.10   11.20
  -5 -16   3    2.80   10.90
   5 -16  -3   20.70   12.20
   5  16  -3    3.10   11.90
  -4 -16   3   -6.70    6.90
   4 -16  -3   13.00   12.90
   4  16  -3   24.30   11.20
   3 -16  -3  107.69   17.30
  -3 -16   3  124.69   15.40
   3  16  -3   69.79   14.40
   2 -16  -3   99.99   15.10
  -2 -16   3  103.99   14.30
   2  16  -3  136.29   16.90
  -1 -16   3  197.08   18.90
   1 -16  -3  234.48   15.60
   1 -16  -3  230.18   18.70
  -1  16   3  226.58   12.90
   1  16  -3  236.48   20.00
   0 -16  -3   91.29   11.00
   0 -16   3  100.09   14.00
   0  16   3  117.69   12.20
   0  16  -3  113.69   13.10
  -1 -16  -3   36.90    7.00
   1 -16   3   32.30   10.40
  -1  16  -3   26.80    7.20
   1  16   3   35.70    9.50
   2 -16   3    5.00    7.50
   2  16   3   -5.10    5.10
   3 -16   3   52.79   14.40
   3 -16   3   65.79   12.30
   3  16   3   35.30   12.30
   4 -16   3   -2.70   10.00
   4  16   3   -3.70    9.60
  -4 -17   3   58.29   14.40
   4 -17  -3   65.59   17.10
   4  17  -3   52.79   13.90
   3 -17  -3    4.30    7.90
  -3 -17   3    5.00    7.10
   3  17  -3    1.00    7.50
   2 -17  -3  156.78   17.90
  -2 -17   3  159.88   17.50
   2  17  -3  128.89   17.50
   1 -17  -3   21.20    7.50
  -1 -17   3   -3.20    6.30
   1 -17  -3   13.40    9.60
   1  17  -3   11.20    5.40
  -1  17   3    4.80    3.90
   0 -17   3  292.87   24.40
   0 -17  -3  297.37   19.80
   0  17   3  300.27   19.30
   1 -17   3   14.50    8.50
  -1 -17  -3    1.50    3.90
  -1  17  -3   16.30    6.60
   1  17   3    5.50    6.10
   1  17   3   -0.60    6.00
  -2 -17  -3   19.30    5.10
   2 -17   3   10.00    9.00
   2  17   3   19.90    9.40
   3 -17   3    9.20    9.40
   3 -17   3   -8.30    7.90
   3  17   3    1.10    7.90
   4 -17   3   35.10   15.10
   4 -17   3   41.80   12.90
   4  17   3   17.50   12.40
   4 -18  -3  -11.40   10.30
  -4 -18   3    0.90    8.10
   4  18  -3   23.80   11.60
   3 -18  -3   72.29   16.40
  -3 -18   3   65.49   12.00
   3  18  -3   49.60   13.00
  -2 -18   3   96.59   14.90
   2 -18  -3   85.99   15.10
   2  18  -3   83.29   16.00
   1 -18  -3  111.69   14.70
  -1 -18   3   96.19   14.80
   1  18  -3  115.99   15.60
  -1  18   3  112.29    9.50
   0 -18   3    6.40    6.90
   0 -18  -3    0.10    5.20
   0  18  -3    2.80    4.80
   0  18   3    0.60    4.30
  -1 -18  -3   44.20    8.10
   1 -18   3   85.49   17.30
  -1  18  -3   56.09   15.10
   1  18   3   39.90   10.80
   2 -18   3    4.60    9.00
   2  18   3    8.30    7.70
   3 -18   3   37.40   15.30
   3  18   3   54.79   14.50
   4 -18   3  -15.20    9.50
   4  18   3   -7.30   10.80
   4 -19  -3   10.60   11.00
  -4 -19   3   13.70   11.00
   4  19  -3   38.60   13.50
  -3 -19   3    7.40    9.30
   3 -19  -3    1.00    8.30
   2 -19  -3   27.30   10.40
  -2 -19   3   16.20    9.70
   2  19  -3   34.50   10.10
   1 -19  -3   29.60    9.00
  -1 -19   3    7.70    7.90
  -1  19   3   24.00    5.30
   1  19  -3   29.50    9.30
   0 -19   3   15.00    7.70
   0 -19  -3   13.90    6.10
   0  19   3   10.00    5.80
   0  19  -3    6.40    6.30
   1 -19   3   18.80    7.70
  -1 -19  -3    9.10    5.20
   1  19   3   12.80    7.70
   2 -19   3   37.10   12.90
   2  19   3   48.40   13.20
   3 -19   3  -14.00    8.90
   3  19   3    5.00    9.90
  -3 -20   3   51.19   13.00
   3 -20  -3   57.09   16.10
   3  20  -3   24.00   11.50
  -2 -20   3   -8.70    7.30
   2 -20  -3    8.80    9.20
   2  20  -3    8.50    8.60
   1 -20  -3   13.40    7.00
   1 -20  -3  -11.20   14.00
  -1 -20   3    5.00    8.70
  -1  20   3    4.50    5.00
   1  20  -3   10.90    7.70
   0 -20   3   18.80    8.40
   0 -20  -3   40.20   13.40
   0  20   3   35.00    8.50
   0  20  -3   20.20    8.40
  -1 -20  -3   20.70    8.00
   1 -20   3    8.50    9.30
  -1  20  -3   17.00    7.10
   2 -20   3   -1.90    9.30
   2  20   3   11.60    8.30
   3 -20   3   19.00   16.90
   3 -20   3    4.00   10.40
   3  20   3   12.20   10.00
  -3 -21   3    6.30   10.50
   3 -21  -3   26.80   13.20
   3  21  -3   41.80   15.10
  -2 -21   3   51.79   14.20
   2 -21  -3   77.99   15.70
   2  21  -3   59.59   15.70
  -1 -21   3   11.30    8.50
   1 -21  -3    9.20    7.90
   1  21  -3    2.30    7.70
  -1  21   3    3.10    5.80
   0 -21   3  129.59   20.00
   0 -21  -3  140.09   16.90
   1 -21   3    1.40    9.10
  -1 -21  -3   16.80    7.80
  -1  21  -3    4.70    7.70
  -2 -21  -3   60.39   10.40
   2 -21   3   39.80   15.40
   2  21   3   85.09   16.20
  -2 -22   3   43.10   13.20
   2 -22  -3   44.10   15.00
   2  22  -3   19.10   11.40
  -1 -22   3   -2.30    9.40
   1 -22  -3   -5.70    8.20
   1  22  -3   18.00    9.50
  -1  22   3   21.70    6.90
   0 -22  -3    3.00    7.90
   0 -22   3   -3.30    9.10
   1 -22   3   66.49   16.30
   2 -22   3   -1.10   10.80
  -2 -23   3   20.00   12.40
   2 -23  -3   -7.10   11.10
   2  23  -3   26.70   11.50
   1 -23  -3  -11.30    9.40
  -1 -23   3   12.00   11.40
   0 -23  -3   44.80   12.60
   0 -23   3   51.09   13.90
   0  23   3   38.00   14.60
   1 -23   3   50.89   16.70
   0 -24  -3    2.00   10.40
   0 -24   3   13.00   12.90
   0  24  -3    3.40   17.50
   0  24   3   12.00    8.80
   6   0  -4   17.80   10.10
   6   0  -4    6.10    9.00
   5   0  -4    1.90    5.00
   4   0  -4  264.07   18.30
   4   0  -4  268.17   20.40
   3   0  -4    2.30    2.60
   3   0  -4    2.90    3.20
   2   0  -4 1378.46   41.50
   2   0  -4 1369.66   43.90
  -2   0   4 1345.07   43.50
  -2   0   4 1358.06   41.30
   1   0  -4   -1.20    1.70
  -1   0   4    0.00    1.30
   1   0  -4   -1.90    1.40
  -1   0   4   -1.00    1.30
   0   0   4  265.97   13.50
   0   0   4  277.97   12.10
   0   0   4  272.27   12.50
  -1   0  -4    0.40    1.60
   1   0   4   -1.10    1.20
   1   0   4    2.70    3.10
  -2   0  -4  344.27   16.80
   2   0   4  373.76   17.30
   2   0   4  373.76   23.20
   3   0   4    0.10    2.50
   3   0   4    0.80    4.40
  -3   0  -4   -6.80    3.90
   4   0   4  138.79   18.30
   4   0   4  158.38   14.30
   5   0   4   -0.10    7.40
   5   0   4   -2.70    6.20
   6   0   4  255.07   30.20
   6   0   4  292.07   25.90
   6  -1  -4   -2.00    8.40
   6  -1  -4   12.40    9.10
   6   1  -4    3.10    8.20
   6   1  -4    3.10    8.60
   5  -1  -4   61.79   13.10
   5  -1  -4   50.29   11.20
   5   1  -4   69.59   12.30
   5   1  -4   29.00    8.70
   4  -1  -4   13.00    6.80
   4  -1  -4   42.60    7.70
   4   1  -4   11.80    9.10
   4   1  -4   33.50    8.10
   3  -1  -4   19.80    5.70
   3  -1  -4   19.80    5.40
   3   1  -4   27.80    7.10
   3   1  -4   14.10    5.20
   2  -1  -4  179.68   12.10
  -2  -1   4  178.98   12.00
  -2  -1   4  175.48   12.30
   2  -1  -4  177.38   12.60
   2   1  -4  192.28   12.50
  -2   1   4  183.28   12.50
   2   1  -4  194.58   13.00
  -2   1   4  177.78   10.80
  -1  -1   4 1893.41   52.09
  -1  -1   4 1851.51   51.49
   1  -1  -4 1847.92   51.29
   1  -1  -4 1912.81   50.39
  -1   1   4 1892.51   50.09
   1   1  -4 1847.62   51.89
   1   1  -4 1878.21   52.09
  -1   1   4 1873.41   51.29
   0  -1   4  386.96   17.30
   0  -1   4  428.86   17.20
   0   1  -4  422.16   16.90
   0   1   4  416.16   15.80
   0   1   4  410.16   15.00
  -1  -1  -4  895.21   26.70
   1  -1   4  897.91   35.20
   1  -1   4  884.01   30.10
   1   1   4  909.21   27.00
  -1   1  -4  879.81   28.90
   1   1   4  898.31   35.00
  -2  -1  -4   52.29    5.80
   2  -1   4   51.89    9.30
   2  -1   4   31.90    5.90
   2   1   4   56.89    9.90
  -2   1  -4   38.00    6.30
   3  -1   4  108.29   10.70
   3  -1   4  110.49   14.70
  -3  -1  -4  108.69   11.10
   3   1   4  115.59   10.10
  -3   1  -4  125.69   12.40
   3   1   4   98.99   14.20
   4  -1   4  159.28   19.00
   4  -1   4  168.38   15.50
   4   1   4  133.49   13.00
   4   1   4  160.98   19.40
   5  -1   4   48.90   15.30
   5  -1   4   53.59   11.30
   5   1   4   71.69   13.20
   5   1   4   46.70   14.80
   6  -1   4   -8.20   12.30
   6   1   4   30.00   13.30
   6   1   4    6.90   11.90
   6  -2  -4  150.58   18.00
   6  -2  -4  230.48   24.70
   6   2  -4  176.98   20.80
   6   2  -4  156.88   22.30
   5  -2  -4  -12.00    4.80
   5  -2  -4   -0.90    4.50
   5   2  -4    2.20    5.40
   5   2  -4   -5.70    4.90
   4  -2  -4   13.10    6.10
   4  -2  -4   13.80    5.20
   4   2  -4   10.40    5.30
   3  -2  -4   -1.60    2.30
   3  -2  -4    1.70    2.30
  -3   2   4    0.30    3.60
   3   2  -4    1.00    2.70
   3   2  -4    0.30    2.40
  -2  -2   4  457.75   21.10
   2  -2  -4  455.55   17.90
  -2  -2   4  470.75   23.10
   2  -2  -4  481.85   21.70
   2   2  -4  484.05   21.50
   2   2  -4  437.76   20.80
  -2   2   4  484.85   18.30
  -2   2   4  458.85   21.50
  -1  -2   4  160.38   10.40
   1  -2  -4  155.78    9.90
   1  -2  -4  171.28    9.30
  -1  -2   4  153.38   10.30
   1   2  -4  170.38   10.70
   1   2  -4  177.18   11.20
  -1   2   4  174.48   10.30
  -1   2   4  188.68    9.50
   0  -2   4   37.40    5.20
   0  -2  -4   25.30    3.20
   0  -2   4   32.60    5.00
   0   2  -4   23.80    4.50
   0   2   4   32.80    3.60
   1  -2   4   11.10    3.50
  -1  -2  -4   14.70    2.50
  -1   2  -4    9.80    3.70
   1   2   4   14.80    4.10
   1   2   4   13.00    2.70
   2  -2   4  243.88   15.10
   2  -2   4  230.98   18.20
  -2  -2  -4  253.77   11.90
   2   2   4  240.68   18.50
  -2   2  -4  222.08   15.10
   2   2   4  237.98   11.50
   3  -2   4   33.30    7.20
   3  -2   4   33.80    9.30
   3   2   4   26.90    5.30
   3   2   4   21.10    8.00
   4  -2   4    5.30    7.60
   4  -2   4   17.60    6.20
   4   2   4   16.00    8.90
   4   2   4   11.60    5.10
   5  -2   4   -1.90    7.90
   5  -2   4   12.20    7.30
   5   2   4    4.90   10.60
   5   2   4   -2.40    5.40
   6  -2   4   15.70   12.60
   6   2   4   12.30   13.40
   6  -3  -4   12.40    9.20
   6   3  -4    4.50    9.20
   6   3  -4   10.70    8.60
   5  -3  -4   93.89   12.00
   5  -3  -4   81.99   15.00
   5   3  -4  105.29   14.30
   5   3  -4   91.69   13.30
   4  -3  -4   22.10    5.80
   4  -3  -4   22.10    6.80
   4   3  -4   29.30   11.90
   4   3  -4   12.30    5.90
   3  -3  -4   50.79    7.80
   3  -3  -4   50.59    6.10
   3   3  -4   52.79    8.40
  -3   3   4   44.60    6.80
   3   3  -4   54.99    8.30
  -2  -3   4   25.30    5.60
  -2  -3   4   32.00    5.40
   2  -3  -4   25.30    4.10
   2  -3  -4   35.80    6.00
  -2   3   4   26.20    4.00
  -2   3   4   24.60    5.00
   2   3  -4   27.10    5.00
   1  -3  -4    1.20    1.70
  -1  -3   4    1.80    2.10
  -1  -3   4    3.60    2.50
  -1  -3   4    0.00    1.90
  -1   3   4   -3.40    1.30
  -1   3   4    2.20    1.80
   1   3  -4    0.70    1.70
   0  -3   4    7.30    2.60
   0  -3   4   11.90    3.40
   0  -3  -4   11.20    2.30
   0   3   4   10.70    3.90
   0   3  -4   10.30    3.30
   0   3  -4    8.80    3.20
   0   3   4    6.70    1.90
   1  -3   4   23.20    5.50
  -1  -3  -4   19.60    6.30
   1   3   4   14.00    4.80
   1   3   4   18.10    2.30
  -1   3  -4   24.70    5.30
   2  -3   4    9.20    3.70
   2  -3   4    8.10    5.10
  -2  -3  -4    8.50    2.80
   2   3   4   21.40    3.20
   2   3   4   10.60    5.80
  -2   3  -4   13.20    5.30
   3  -3   4   53.29   11.40
   3  -3   4   60.19    9.40
  -3  -3  -4   50.79    7.00
   3   3   4   88.69   12.80
   3   3   4   56.39    6.50
   4  -3   4   -0.70    5.90
  -4  -3  -4    6.30    6.20
   4   3   4   11.00    6.50
   4   3   4    7.40    4.40
   5  -3   4   50.49   13.50
   5  -3   4   55.79   12.90
   5   3   4   64.69   14.10
   5   3   4   20.50   11.70
   6  -3   4  -14.20   12.70
   6   3   4    0.50    8.20
   6   3   4   15.60   13.30
   6  -4  -4   50.29   13.70
   6   4  -4   34.20   12.10
   6   4  -4   62.29   14.70
   5  -4  -4   32.40    9.70
   5  -4  -4   36.80    8.60
   5   4  -4   27.40    9.10
   5   4  -4   20.90    8.80
   4  -4  -4   37.30    6.70
   4  -4  -4   40.80   10.00
   4   4  -4   20.80    7.10
   3  -4  -4    3.40    3.70
   3  -4  -4    5.00    2.60
  -3   4   4   -1.40    2.60
   3   4  -4    5.90    3.40
   3   4  -4    0.40    2.80
  -2  -4   4  202.48   14.30
   2  -4  -4  184.28    9.00
  -2  -4   4  198.18   13.90
   2  -4  -4  189.48   13.50
   2   4  -4  211.58   13.90
   2   4  -4  198.88   14.00
  -2   4   4  188.98    9.20
  -2   4   4  173.68   12.80
  -1  -4   4   99.39    9.10
  -1  -4   4   91.09    8.50
  -1  -4   4   93.99    8.70
   1  -4  -4  113.99    8.30
  -1   4   4  105.59    6.60
   1   4  -4   90.89    8.70
  -1   4   4   87.09    7.40
   0  -4   4   21.10    4.40
   0  -4  -4   20.60    2.90
   0  -4   4   21.90    4.80
   0   4   4   19.40    4.70
   0   4  -4   20.00    4.80
   0   4   4   19.20    2.90
   0   4  -4   27.40    5.00
  -1  -4  -4    4.40    4.50
   1  -4   4    2.40    2.80
   1  -4   4    3.50    3.00
   1   4   4    3.90    0.80
   1   4   4    4.60    3.90
   1   4   4    1.70    0.80
   2  -4   4  383.66   23.70
  -2  -4  -4  392.96   12.90
   2  -4   4  410.06   21.30
  -2   4  -4  386.26   21.20
   2   4   4  390.76   24.60
   2   4   4  353.16   12.20
  -3  -4  -4    8.30    3.40
   3  -4   4   14.30    5.20
   3  -4   4    7.30    5.40
   4  -4   4   34.00    9.20
   4  -4   4   41.20   10.60
  -4  -4  -4   49.90    9.40
   4   4   4   18.60    8.50
   4   4   4   42.90    7.10
   5  -4   4   26.70   10.40
   5  -4   4   21.40    9.30
   5   4   4   26.40   12.30
   5   4   4   24.60    6.70
   6   4   4   95.59   14.80
   6   4   4   20.30   15.10
   6  -5  -4   28.50   12.50
   6   5  -4   35.80   12.20
   6   5  -4   27.80   13.20
   5  -5  -4   97.99   10.80
   5  -5  -4  124.09   16.10
   5   5  -4  112.19   16.30
   5   5  -4   68.19   12.60
   4  -5  -4   35.20    9.20
   4  -5  -4   41.80    6.40
   4   5  -4   40.50   10.00
   4   5  -4   31.20   14.20
   3  -5  -4  209.58   16.20
   3  -5  -4  183.78    9.70
   3   5  -4  188.38   15.60
  -3   5   4  173.98   10.10
   3   5  -4  172.88   14.00
  -2  -5   4    7.10    3.40
  -2  -5   4    9.30    4.00
  -2  -5   4    7.00    4.30
   2  -5  -4   10.70    3.80
  -2   5   4   10.20    2.40
   2   5  -4   10.60    4.00
  -2   5   4   17.70    4.70
   2   5  -4   12.30    4.90
  -1  -5   4  400.46   19.70
   1  -5  -4  391.06   17.30
  -1  -5   4  396.76   19.10
  -1  -5   4  393.36   18.80
   1   5  -4  407.56   19.70
  -1   5   4  381.86   15.50
  -1   5   4  392.46   14.30
  -1   5   4  384.66   17.20
   0  -5  -4    1.20    1.30
   0  -5   4    0.90    2.10
   0  -5   4    3.00    2.30
   0   5   4    2.70    2.80
   0   5   4   -1.20    1.20
   0   5  -4   -0.10    2.80
   0   5  -4    2.90    2.40
  -1  -5  -4 1179.58   43.30
   1  -5   4 1234.08   41.90
   1  -5   4 1158.38   39.20
  -1   5  -4 1186.28   40.70
   1   5   4 1182.28   43.40
   2  -5   4   27.00    7.60
   2  -5   4   25.80    6.80
   2   5   4   29.50    1.90
   2   5   4   35.20    9.60
   3  -5   4  183.48   17.20
   3  -5   4  170.08   15.90
  -3  -5  -4  159.18    9.50
   3   5   4  164.38    9.10
   3   5   4  192.68   19.70
   4  -5   4    3.90    6.50
   4  -5   4    4.20    5.70
   4   5   4    5.90    6.30
   5  -5   4   22.00    9.20
   5  -5   4    6.70    9.30
   5   5   4    5.20   10.40
   6  -6  -4  110.49   21.40
   6   6  -4  115.59   20.60
   6   6  -4   94.79   16.20
   5  -6  -4   81.39   14.90
   5  -6  -4   78.89    9.70
  -5   6   4  121.99   15.30
   5   6  -4   78.19   12.80
   5   6  -4   90.79   15.40
   4  -6  -4   15.90    6.20
   4   6  -4   25.60    8.20
   4   6  -4   26.40    7.30
   3  -6  -4    4.10    1.90
   3  -6  -4    7.60    4.50
   3   6  -4    3.80    3.30
  -3   6   4    0.10    2.20
   3   6  -4    3.40    4.00
   2  -6  -4  278.57   17.00
  -2  -6   4  309.37   18.80
   2   6  -4  263.07   17.50
  -2   6   4  274.57    9.10
   1  -6  -4    0.10    1.80
  -1  -6   4    2.30    2.40
  -1  -6   4    1.50    3.30
  -1  -6   4    1.10    3.10
   1   6  -4    2.70    2.70
  -1   6   4    1.30    1.80
  -1   6   4    3.10    2.30
  -1   6   4    0.80    2.30
   0  -6  -4  262.17   15.50
   0  -6   4  284.47   16.80
   0  -6  -4  279.57   11.20
   0  -6   4  279.27   15.70
   0   6   4  259.47   15.10
   0   6   4  296.97   11.70
   0   6  -4  259.87   15.90
   0   6  -4  271.77   15.70
   1  -6   4   16.80    5.10
  -1  -6  -4   16.80    5.10
   1   6   4   19.00    6.10
  -1   6  -4   23.80    5.60
   2  -6   4  542.05   27.90
   2  -6   4  456.55   25.40
   2   6   4  493.45   28.30
  -3  -6  -4    5.30    2.70
   3  -6   4   13.90    6.80
   3  -6   4   13.10    6.10
   3   6   4    4.00    5.20
   3   6   4    7.70    2.30
   4  -6   4   44.00   11.50
   4  -6   4   43.40   11.50
   4   6   4   50.09    6.60
   4   6   4   46.00   13.30
   5  -6   4    5.70    9.30
   5  -6   4    2.50    8.90
   5   6   4   -3.30    8.50
   5   6   4   -0.40    4.80
   6  -7  -4   -1.10    9.70
   6  -7  -4   -3.10    6.90
   6   7  -4   -3.30    8.20
   6   7  -4   -0.90   10.70
   5  -7  -4   10.60    8.00
   5  -7  -4   16.90    5.10
   5   7  -4   11.60    7.80
   5   7  -4    5.70    9.20
   4  -7  -4   34.00    5.00
   4  -7  -4   37.70    8.70
   4   7  -4   48.40   11.30
   4   7  -4   44.60    9.80
  -3  -7   4   31.40    7.70
   3  -7  -4   37.80    9.00
   3   7  -4   38.40    8.70
   3   7  -4   41.30    7.70
   2  -7  -4   34.30    7.10
  -2  -7   4   43.30    7.00
   2   7  -4   27.30    6.90
  -1  -7   4  405.66   20.20
  -1  -7   4  398.46   21.30
   1  -7  -4  412.06   18.60
  -1  -7   4  372.96   20.30
  -1   7   4  387.26   18.20
   1   7  -4  406.26   20.80
   1   7  -4  403.76   20.90
  -1   7   4  421.76   15.70
   0  -7   4    5.60    3.40
   0  -7  -4    6.00    3.70
   0  -7  -4    2.90    1.80
   0  -7   4    3.50    2.90
   0   7   4    1.00    2.30
   0   7  -4    9.60    3.70
   0   7   4    2.40    1.90
   0   7  -4    1.20    3.50
   1  -7   4   11.80    4.70
   1  -7   4    8.10    4.20
   1   7   4   13.30    4.70
   2  -7   4   87.09   10.60
   2  -7   4   79.09   11.70
   2   7   4   90.89   12.60
   3  -7   4  159.88   20.00
  -3  -7  -4  134.89    6.20
  -3  -7  -4  134.29    5.00
   3  -7   4  181.48   17.50
   3   7   4  175.88   18.60
   4  -7   4   20.60    9.80
   4  -7   4   45.50   11.40
   4   7   4   28.90   11.20
   5  -7   4   46.30   13.80
   5  -7   4   53.59   13.40
   5   7   4   67.29    8.60
   6  -8  -4    7.90   11.30
   6   8  -4   -0.80    8.10
   6   8  -4   13.90   10.80
   5  -8  -4   11.70    6.80
   5   8  -4    7.00    8.60
   5   8  -4   16.70    7.50
   4  -8  -4   70.89   12.60
  -4  -8   4   88.59   13.70
   4   8  -4   85.99   11.80
   4   8  -4   71.89   13.00
  -3  -8   4    1.70    4.00
   3  -8  -4    0.70    3.00
   3   8  -4    2.90    3.60
  -2  -8   4  439.06   23.60
   2  -8  -4  441.66   23.10
   2   8  -4  404.26   23.50
  -1  -8   4    2.30    3.40
   1  -8  -4    4.40    2.60
  -1   8   4    1.60    2.70
  -1   8   4    2.90    2.30
   1   8  -4    3.40    2.80
   0  -8   4   82.19    9.60
   0  -8  -4   84.89    6.20
   0  -8  -4   80.99    9.30
   0   8   4   83.59    6.80
   0   8  -4   77.29    8.90
   0   8   4   79.49    8.60
   1  -8   4   19.50    5.40
   1  -8   4   11.90    4.00
   1   8   4    5.50    2.70
   2  -8   4  117.79   13.50
   2   8   4  109.29   14.00
   3  -8   4  234.78   20.30
   3  -8   4  188.88   18.40
   3   8   4  205.98   21.00
  -4  -8  -4   34.10    5.10
   4  -8   4   35.00   10.80
   4  -8   4   31.20   11.40
   4   8   4   20.70   10.70
   5  -8   4   -5.80    7.20
   5  -8   4    5.30   10.10
   5   8   4   -4.00    9.50
   6  -9  -4   12.60   10.30
  -6  -9   4    8.40   11.70
   6   9  -4   19.70   12.90
   5  -9  -4   25.90    8.10
  -5  -9   4   46.70   11.10
   5   9  -4   28.10   10.40
  -4  -9   4    2.60    5.30
   4  -9  -4   -0.50    6.20
   4   9  -4   15.80    7.90
   3  -9  -4  185.48   17.80
  -3  -9   4  185.48   17.10
   3   9  -4  203.78   18.00
   2  -9  -4  215.88   16.20
  -2  -9   4  212.18   16.40
   2   9  -4  252.27   18.50
   1  -9  -4  155.78   11.80
  -1  -9   4  148.09   13.30
  -1   9   4  164.78    9.00
  -1   9   4  152.18   12.40
   1   9  -4  180.58   14.40
   0  -9   4   16.00    4.80
   0  -9  -4   24.90    6.10
   0  -9  -4   14.90    3.30
   0   9   4   18.50    4.90
   0   9   4   22.40    4.20
   0   9  -4   15.50    4.70
   1  -9   4  116.99   11.50
   1  -9   4  116.09   12.80
   1   9   4  106.59   11.70
   2  -9   4   77.39   11.40
   2   9   4   79.99   12.30
   3  -9   4   78.49   13.00
   3  -9   4   46.80   10.70
   3   9   4   98.59   15.00
   4  -9   4    5.20    8.70
   4  -9   4   11.80    6.00
   4   9   4    7.00    7.70
   5  -9   4   17.20   12.90
   5  -9   4   25.20   11.00
   5   9   4   20.80   11.50
   6 -10  -4  130.09   22.30
  -6 -10   4  197.88   27.10
   6  10  -4   86.29   22.00
   5 -10  -4   33.20   12.50
  -5 -10   4   22.10    9.70
   5  10  -4   45.40   14.40
   4 -10  -4    5.20    5.80
  -4 -10   4    2.80    5.70
   4  10  -4    6.70    6.80
  -3 -10   4  136.89   14.50
   3 -10  -4  105.49   13.90
   3  10  -4  126.89   14.60
  -2 -10   4  130.79   13.60
   2 -10  -4  132.69   13.50
   2  10  -4  127.99   13.70
   1 -10  -4  221.28   14.50
  -1 -10   4  209.28   16.60
   1  10  -4  205.68   15.90
  -1  10   4  212.38   10.50
   0 -10  -4   18.30    7.60
   0 -10  -4   21.50    6.10
   0 -10   4    6.90    4.60
   0  10  -4   18.30    5.80
   0  10   4   13.10    4.10
   0  10   4   18.00    4.60
  -1 -10  -4  130.59    4.50
   1 -10   4  142.59   14.80
  -1 -10  -4  127.29    4.50
   1  10   4  146.89   14.20
   2 -10   4   19.90    7.40
   2  10   4   34.80    8.60
   3 -10   4   15.40    7.90
   3 -10   4   33.20   10.20
   3  10   4   16.80    7.50
   4 -10   4   66.99   14.90
   4  10   4   78.19   17.50
   5 -10   4    8.20    9.00
   5 -10   4    3.80   10.10
   5  10   4    7.40   12.30
  -6 -11   4   -9.50   11.70
   6 -11  -4   13.80   12.70
   6  11  -4    7.80   12.40
   5 -11  -4   67.69   29.10
  -5 -11   4   67.19   13.90
   5  11  -4   57.69   15.60
  -4 -11   4   46.70   11.00
   4 -11  -4   52.19   12.60
   4  11  -4   32.80   11.60
   3 -11  -4   88.19   12.30
  -3 -11   4   84.49   12.10
   3  11  -4   68.89   12.70
   2 -11  -4    4.60    4.30
  -2 -11   4    5.70    5.60
   2  11  -4   -5.90    3.10
  -1 -11   4  152.88   14.50
   1 -11  -4  174.58   13.30
  -1  11   4  160.68    9.10
   1  11  -4  181.58   15.30
  -1  11   4  144.89   13.10
   0 -11   4   -3.60    3.40
   0 -11  -4   -2.80    2.20
   0  11   4   -0.50    2.60
   0  11  -4   -1.70    3.40
   0  11   4    0.30    2.70
  -1 -11  -4   16.90    2.50
   1 -11   4   10.40    5.90
   1  11   4   16.10    6.20
   1  11   4   16.50    2.60
   2 -11   4    0.50    4.60
   2  11   4    3.70    6.60
   3 -11   4  143.59   17.40
   3 -11   4  195.08   18.30
   3  11   4  144.09   19.50
   4 -11   4    0.50    9.00
   4  11   4   31.70   12.80
   5 -11   4   61.79   14.70
   5 -11   4   54.89   15.40
   5  11   4   49.60   15.30
  -5 -12   4   36.90   11.80
   5 -12  -4   17.00   10.40
   5  12  -4   10.50    9.50
  -4 -12   4   82.39   14.70
   4 -12  -4   87.59   14.10
   4  12  -4   90.39   14.40
   3 -12  -4    1.50    4.90
   3  12  -4   -1.60    3.60
   2 -12  -4  161.88   15.50
  -2 -12   4  175.08   16.10
   2  12  -4  196.98   18.30
   1 -12  -4   86.59    9.90
  -1 -12   4   59.29   10.10
   1  12  -4   80.59   11.00
  -1  12   4   81.99    7.10
   0 -12   4  282.87   21.10
   0 -12  -4  307.47   15.50
   0 -12  -4  309.87   19.40
   0  12   4  295.27   16.00
   0  12  -4  235.08   17.80
   0  12   4  294.37   17.50
  -1 -12  -4   -0.10    1.70
   1  12   4    1.20    3.60
  -1  12  -4    0.20    3.20
   1  12   4    8.60    5.40
   2 -12   4  409.16   27.50
   2  12   4  356.86   26.20
   3 -12   4   34.60   10.90
   3 -12   4   39.80   11.50
   3  12   4   34.50   10.60
   4 -12   4   10.90    7.10
   4  12   4   13.00   10.00
   5 -12   4    3.50   11.30
   5  12   4   17.70   13.00
  -5 -13   4   28.10   11.80
   5 -13  -4   38.00   13.60
   5  13  -4   35.70   14.20
   4 -13  -4   -5.10    6.40
  -4 -13   4    8.00    7.30
   4  13  -4   10.20    9.00
   3 -13  -4    5.70    6.20
  -3 -13   4    8.80    6.20
   3  13  -4    7.50    5.80
  -2 -13   4   21.40    8.60
   2 -13  -4   20.10    7.70
   2  13  -4   16.10    7.40
   1 -13  -4  238.08   16.70
  -1 -13   4  226.48   18.50
   1 -13  -4  177.58   12.40
   1  13  -4  203.08   17.40
  -1  13   4  227.28   11.90
   0 -13   4   16.20    6.20
   0 -13  -4   22.00    5.40
   0  13   4   18.80    5.10
   0  13  -4   30.70    7.50
   1 -13   4  456.95   29.00
  -1 -13  -4  446.16   15.70
   1  13   4  434.96   16.30
   1  13   4  431.56   25.50
  -1  13  -4  408.56   23.30
   2 -13   4   13.40    6.60
   2  13   4    0.00    5.50
   3 -13   4   77.29   14.50
   3 -13   4   71.39   14.60
   3  13   4   59.19   13.70
   4 -13   4    7.60    9.50
   5 -13   4   47.80   14.90
   5  13   4   12.80   13.10
  -5 -14   4    6.30   10.00
   5 -14  -4    3.90   11.20
   5  14  -4   -4.40   10.00
  -4 -14   4   92.49   15.90
   4 -14  -4   84.59   15.80
   4  14  -4   62.19   13.70
  -3 -14   4   96.99   13.80
   3 -14  -4  122.69   15.80
   3  14  -4  101.29   15.40
   2 -14  -4   22.90    7.60
  -2 -14   4   35.10   10.10
   2  14  -4   11.50    5.90
   1 -14  -4   18.60    5.40
  -1 -14   4   13.80   10.30
   1 -14  -4    9.00    5.00
  -1  14   4   13.10    6.00
   0 -14   4    7.30    4.30
   0 -14  -4   15.20    4.60
   0  14   4   20.60    5.90
   0  14  -4   20.90    6.30
   1 -14   4   18.90    8.20
  -1 -14  -4   11.30    3.30
   1  14   4   23.60    7.80
  -1  14  -4   22.30    6.80
   1  14   4   22.70    4.30
   2 -14   4   31.50    9.80
   2  14   4   32.40    9.60
   3 -14   4   29.20   10.70
   3 -14   4   33.90   10.60
   3  14   4   39.70   13.20
   4 -14   4   11.60   10.20
   4  14   4   13.90   11.60
   5 -15  -4   68.09   18.60
  -5 -15   4   60.29   18.10
   5  15  -4   60.29   17.20
  -4 -15   4   11.10    8.40
   4 -15  -4    2.50    8.40
   4  15  -4   12.00    8.50
  -3 -15   4   -0.90    6.90
   3 -15  -4    4.50    6.30
   3  15  -4   -1.20    5.90
  -2 -15   4   66.29   11.70
   2 -15  -4   78.69   12.70
   2  15  -4   61.19   13.00
   1 -15  -4  219.28   17.20
   1 -15  -4  240.28   15.40
  -1 -15   4  230.48   20.40
   1  15  -4  242.28   20.50
  -1  15   4  242.58   12.70
   0 -15  -4   32.20    6.40
   0 -15   4   35.00    9.40
   0  15   4   23.90    7.00
   0  15  -4   46.90   10.80
   1 -15   4   64.49   13.90
  -1  15  -4   65.19   10.40
   1  15   4   53.29    6.90
   1  15   4   55.69   10.20
   2 -15   4   27.30    9.40
   2  15   4   25.90    9.00
   3 -15   4   31.40    9.90
   3 -15   4   45.20   11.60
   3  15   4   23.20   11.80
   4 -15   4   19.20   13.00
   4  15   4   17.20   11.50
  -5 -16   4   -1.10   10.90
   5 -16  -4  -10.10    9.30
   5  16  -4  -16.40   10.40
  -4 -16   4   50.09   13.40
   4  16  -4   70.49   16.80
   3 -16  -4   12.20    7.90
  -3 -16   4   31.10   11.00
   3  16  -4   26.90   11.40
  -2 -16   4  120.69   15.50
   2 -16  -4  103.79   14.50
   2  16  -4  143.29   17.90
   1 -16  -4    9.60    6.70
   1 -16  -4   -3.20    4.10
  -1 -16   4   -2.00    4.70
  -1  16   4   -2.10    2.80
   1  16  -4    4.40    4.90
   0 -16   4   28.30    9.50
   0 -16  -4   17.80    6.00
   0  16  -4   12.40    7.30
   0  16   4   29.10    7.80
   1 -16   4   88.99   14.30
  -1 -16  -4   78.39    8.00
   1  16   4   73.69   11.50
  -1  16  -4   88.49   12.00
   2 -16   4   32.30   10.30
   2  16   4   53.69   12.70
   3 -16   4   -0.60    6.90
   3 -16   4    0.70    8.80
   3  16   4    4.40    7.70
   4 -16   4   52.99   18.70
   4  16   4   93.69   20.50
  -4 -17   4   -8.40    9.00
   4 -17  -4   -1.90    8.70
   4  17  -4    7.00    9.40
   3 -17  -4  127.49   18.60
  -3 -17   4  102.19   16.50
   3  17  -4  110.09   17.90
   2 -17  -4    1.00    7.40
  -2 -17   4   14.00    6.60
   2  17  -4    3.10    6.90
   1 -17  -4   83.19   11.80
  -1 -17   4   67.99   13.20
  -1  17   4   63.79    8.00
   1  17  -4   71.89   12.60
   0 -17   4   10.30    6.90
   0 -17  -4    4.40    3.90
   0  17  -4    9.50    5.80
   0  17   4   15.00    5.40
   1 -17   4   76.89   15.90
   1  17   4  113.69   10.70
   1  17   4  105.79   14.40
   2 -17   4   -2.90    8.30
   2  17   4   -1.40    7.00
   3 -17   4   49.60   14.80
   3 -17   4   54.79   14.60
   3  17   4   44.30   15.10
   4 -17   4   -8.80    9.20
   4  17   4    3.00   10.80
  -4 -18   4    8.30    9.30
   4 -18  -4   -8.60    8.80
   4  18  -4   24.20   13.00
  -3 -18   4   10.90    8.20
   3 -18  -4   11.20    8.70
   3  18  -4   14.40   11.10
  -2 -18   4  118.09   17.10
   2 -18  -4  113.89   15.90
   2  18  -4   96.89   16.60
  -1 -18   4   14.70    9.00
   1 -18  -4   22.30    7.60
   1  18  -4   39.60   10.80
  -1  18   4   48.10    7.30
   0 -18   4   94.49   15.60
   0 -18  -4   87.79   11.50
   0  18   4   97.09   12.50
   0  18  -4   66.99   12.50
  -1 -18  -4    0.50    7.20
   1 -18   4    0.10    7.10
   1  18   4   -3.10    5.70
  -1  18  -4    3.50    5.70
   1  18   4    7.00    9.80
   2 -18   4   36.80   13.50
   2  18   4   33.00   11.00
   3 -18   4   12.90   10.50
   3  18   4   -1.30    8.60
   4 -19  -4   -5.60   11.40
  -4 -19   4   -3.10   10.50
   4  19  -4   12.50   11.70
  -3 -19   4   28.80   10.30
   3 -19  -4   26.80   11.50
   3  19  -4   17.70   10.80
  -2 -19   4   -1.80    6.90
   2 -19  -4   11.40    7.20
   2  19  -4    1.10    8.60
  -1 -19   4   99.59   17.40
   1 -19  -4  106.69   14.90
  -1  19   4   69.29    8.60
   1  19  -4  101.09   16.10
   0 -19  -4    8.60    5.20
   0 -19   4    7.70    8.50
   0  19  -4   -4.50    5.70
   0  19   4    7.60    5.70
   1 -19   4   61.19   15.40
   1  19   4   54.79   12.60
  -1  19  -4   65.69   12.90
   2 -19   4    3.40   10.10
   2  19   4    5.20    9.00
   3 -19   4   20.30   12.20
   3  19   4   41.10   14.00
   3 -20  -4   14.40   10.10
  -3 -20   4    6.70   10.90
   3  20  -4   13.00   10.20
  -2 -20   4   17.90    8.70
   2 -20  -4   10.60    8.50
   2  20  -4   17.50    9.60
   1 -20  -4    7.30    7.50
  -1 -20   4    1.10    7.80
   1  20  -4    3.30    7.10
  -1  20   4   -2.30    4.60
   0 -20   4   56.59   14.50
   0 -20  -4   40.90    9.70
   0  20   4   63.89   11.20
   0  20  -4   38.30   10.90
   1 -20   4    5.10    7.20
   2 -20   4   42.70   16.10
   2  20   4   16.10   11.00
   3 -20   4   -3.70   11.20
   3  20   4    6.20   10.40
   3 -21  -4   70.59   17.00
  -3 -21   4   27.00   13.00
   3  21  -4   46.70   15.90
  -2 -21   4    4.40   10.00
   2 -21  -4    3.10    9.50
  -1 -21   4   16.40   10.00
   1 -21  -4    1.70    7.80
  -1  21   4   18.70    6.50
   1  21  -4   16.20    8.80
   0 -21  -4    4.40    7.90
   0 -21   4   -2.30    9.50
  -1 -21  -4   31.20   12.90
   1 -21   4   20.90   12.10
   2 -21   4   -1.60   10.60
   2  21   4    7.00    9.70
   2 -22  -4   19.30   11.00
  -2 -22   4   14.40   11.90
   2  22  -4    7.00   10.20
   1 -22  -4   -1.50    9.10
  -1 -22   4    5.00    9.40
   1  22  -4    0.30    7.90
  -1  22   4    5.00    7.10
   0 -22  -4  114.19   16.60
   0 -22   4   49.30   15.70
   0  22  -4   99.89   17.30
   1 -22   4    9.60   11.90
   2 -22   4  116.99   23.50
   2  22   4   54.09   16.20
   1 -23  -4   -0.70    9.40
  -1 -23   4   29.00   12.70
   0 -23   4    8.20    9.90
   0  23   4    2.20    9.00
   1 -23   4   42.20   16.00
   6   0  -5   -8.00    6.90
   6   0  -5    3.50    8.90
   5   0  -5   92.09   14.50
   4   0  -5   -3.20    3.50
   4   0  -5   -3.60    3.80
   3   0  -5  113.39   11.70
  -3   0   5   87.49   14.80
   3   0  -5   97.49   10.00
   2   0  -5   -0.90    2.10
  -2   0   5   -2.90    2.60
  -2   0   5   -0.20    2.70
   2   0  -5    2.00    2.30
  -1   0   5  338.97   16.20
   1   0  -5  336.87   16.30
  -1   0   5  336.77   16.40
   1   0  -5  317.57   16.00
   0   0   5    2.70    2.80
   0   0   5   -0.70    1.60
   0   0   5    0.60    1.30
   1   0   5  152.68   11.60
  -1   0  -5  140.79    9.50
   1   0   5  150.38   14.00
   2   0   5    3.80    3.90
   2   0   5    0.50    1.90
   3   0   5  449.76   38.80
   3   0   5  468.35   22.50
  -3   0  -5  441.56   30.40
   4   0   5   -5.10    6.10
   4   0   5    5.70    5.00
   5   0   5   33.60   12.90
   5   0   5   43.60   10.30
   6  -1  -5   -0.80    8.20
   6   1  -5   -5.00    8.30
   6   1  -5   11.80    7.90
   5  -1  -5    5.60    5.50
   5  -1  -5   -0.40    5.10
   5   1  -5    4.80    5.90
   5   1  -5   -1.20    5.10
   4  -1  -5   32.50    6.60
   4  -1  -5   21.10    7.10
   4   1  -5   32.90    7.20
   4   1  -5   22.80    7.50
  -3  -1   5   29.50    7.60
   3  -1  -5   39.80    6.80
   3  -1  -5   22.60    7.40
   3   1  -5   29.20    6.50
   3   1  -5   30.30    7.60
   2  -1  -5  229.08   13.10
  -2  -1   5  218.88   14.80
   2  -1  -5  187.78   13.70
   2   1  -5  254.77   15.70
  -2   1   5  221.18   12.90
   2   1  -5  236.28   14.50
  -2   1   5  216.58   14.30
  -1  -1   5   43.00    5.90
  -1  -1   5   46.00    6.30
   1  -1  -5   41.80    5.80
   1  -1  -5   49.60    6.00
   1   1  -5   59.09    7.10
  -1   1   5   40.80    5.60
  -1   1   5   49.20    6.00
   1   1  -5   54.39    6.40
   0  -1   5   53.09    5.80
   0  -1   5   54.39    6.30
   0  -1   5   53.59    7.20
   0   1   5   56.69    5.60
   0   1   5   59.39    6.00
   1  -1   5    0.90    2.90
  -1  -1  -5    4.30    2.20
   1  -1   5    2.70    2.00
  -1   1  -5    0.20    2.20
   1   1   5    1.40    3.70
   1   1   5    1.10    1.60
  -2  -1  -5  453.05   19.10
   2  -1   5  449.86   27.30
   2  -1   5  498.15   21.90
   2   1   5  445.96   27.30
   2   1   5  461.05   19.40
   3  -1   5  183.78   14.30
   3  -1   5  215.48   20.60
   3   1   5  141.69   21.20
   3   1   5  200.78   13.60
   4  -1   5  185.28   21.10
   4  -1   5  132.09   14.30
   4   1   5  162.68   21.20
   4   1   5  181.88   14.70
   5  -1   5    5.10   10.10
   5  -1   5   -2.00    6.60
   5   1   5   -5.20    9.80
   5   1   5    8.90    7.30
   6  -2  -5   22.20    8.60
   6  -2  -5   -0.10    8.40
   6   2  -5    1.20    8.40
   6   2  -5   29.70   11.00
   5  -2  -5  113.29   13.60
   5  -2  -5  108.69   16.40
   5   2  -5  101.79   14.40
   5   2  -5  117.19   15.60
   4  -2  -5    2.00    4.10
   4  -2  -5    2.80    4.40
   4   2  -5    5.20    4.90
   4   2  -5   13.80    6.30
   3  -2  -5   17.70    6.00
   3  -2  -5   16.40    4.60
  -3   2   5   24.90    6.00
   3   2  -5   20.40    6.00
   3   2  -5   16.70    5.60
  -2  -2   5   86.79    9.10
  -2  -2   5   63.39    8.00
   2  -2  -5   75.69    8.50
   2  -2  -5   72.19    7.00
   2   2  -5   70.09    8.30
   2   2  -5   72.09    8.30
  -2   2   5   72.29    7.00
  -2   2   5   62.39    8.10
   1  -2  -5 1516.75   44.10
  -1  -2   5 1489.75   45.30
  -1  -2   5 1438.36   46.50
  -1   2   5 1487.85   43.70
  -1   2   5 1471.15   42.70
   1   2  -5 1444.76   45.50
   0  -2   5   45.10    6.00
   0   2   5   47.20    4.80
   0   2   5   46.80    4.80
   0   2  -5   47.20    5.60
   1  -2   5   45.80    6.00
  -1  -2  -5   37.80    4.50
   1   2   5   52.19    8.50
  -1   2  -5   50.49    6.80
   1   2   5   39.00    4.40
   2  -2   5   30.10    5.80
   2  -2   5   35.60    9.40
  -2   2  -5   29.80    7.30
   2   2   5   28.50    4.50
   2   2   5   33.90    7.70
  -3  -2  -5   -1.30    3.50
   3  -2   5    9.30    5.50
   3  -2   5   10.80    6.40
   3   2   5    6.00    3.20
   3   2   5    0.00    5.40
   4  -2   5   65.09   14.70
   4  -2   5   66.49   11.20
   4   2   5   53.19   13.80
   4   2   5   72.99    9.10
   5  -2   5   37.30   13.40
   5  -2   5   24.10    9.40
   5   2   5   29.10   13.60
   6  -3  -5  119.19   17.10
   6  -3  -5   80.99   17.30
   6   3  -5  107.19   17.90
   6   3  -5  103.89   19.90
   5  -3  -5    6.70    5.30
   5  -3  -5   -7.70    5.30
   5   3  -5   -3.10    6.50
   5   3  -5   -5.50    5.00
   4  -3  -5  137.99   14.70
   4  -3  -5  123.69   11.40
   4   3  -5  127.99   14.40
   4   3  -5  114.19   12.70
   3  -3  -5    4.30    3.40
   3  -3  -5    2.60    2.30
   3   3  -5   -0.60    3.10
   3   3  -5    1.70    3.20
  -3   3   5    1.90    3.30
   2  -3  -5  231.38   13.30
  -2  -3   5  221.08   15.30
   2  -3  -5  227.48   15.00
  -2   3   5  253.47   12.50
   2   3  -5  251.67   15.90
  -2   3   5  215.88   14.40
   2   3  -5  244.48   15.80
  -1  -3   5   20.20    5.00
   1  -3  -5   21.90    4.10
  -1  -3   5   27.90    6.00
  -1  -3   5   17.80    4.20
   1   3  -5   35.30    6.30
  -1   3   5   35.00    5.30
  -1   3   5   35.40    5.00
   0  -3   5  225.28   14.20
   0  -3  -5  213.28   10.10
   0  -3   5  221.28   13.70
   0   3   5  208.38   14.40
   0   3   5  197.98    9.80
   0   3  -5  185.08   12.50
   1  -3   5   34.80    7.60
   1  -3   5   28.20    5.20
   1   3   5   29.60    6.90
  -1   3  -5   20.30    4.70
   1   3   5   24.40    3.20
   1   3   5   30.10    3.20
   2  -3   5  277.57   18.00
   2  -3   5  327.07   22.80
   2   3   5  301.17   12.50
   2   3   5  335.27   23.40
  -2   3  -5  299.77   18.70
  -3  -3  -5    2.10    3.60
   3  -3   5   -2.50    4.80
   3  -3   5   12.90    5.60
   3   3   5    1.70    5.90
   3   3   5    3.70    2.60
   4  -3   5    2.70    6.00
   4  -3   5   -6.70    6.60
   4   3   5   12.40    8.10
   4   3   5   -2.30    3.60
   5  -3   5    6.90   11.80
   5   3   5    4.60   10.20
   5   3   5   -2.70    5.20
   6  -4  -5   -0.50    8.00
   6  -4  -5    5.10    8.70
   6   4  -5   -4.10    7.70
   6   4  -5  -10.90    7.90
   5  -4  -5  165.78   14.80
   5  -4  -5  198.98   20.00
   5   4  -5  225.68   20.50
   5   4  -5  162.28   18.40
   4  -4  -5  138.79   15.30
   4  -4  -5  119.39   10.70
   4   4  -5  119.69   13.80
   3  -4  -5   52.19    8.40
   3  -4  -5   55.69    6.10
  -3   4   5   46.50    6.50
   3   4  -5   61.19    9.10
   3   4  -5   65.89    9.10
   2  -4  -5   25.60    4.20
   2  -4  -5   32.40    6.00
   2   4  -5   32.90    6.80
   2   4  -5   19.30    5.00
  -2   4   5   24.80    4.40
   1  -4  -5  110.39    9.10
  -1  -4   5  130.19   10.90
  -1  -4   5  115.89   10.70
  -1  -4   5  121.09   10.20
  -1   4   5  119.99    8.50
   1   4  -5  130.19   11.00
  -1   4   5  138.09    9.70
   0  -4   5   16.80    4.40
   0  -4  -5   21.30    3.30
   0  -4   5   22.40    5.10
   0   4  -5   21.20    5.50
   0   4  -5   24.00    5.80
   0   4   5   26.30    5.90
   0   4   5   18.00    3.30
   1  -4   5   42.50    7.60
   1  -4   5   36.60    6.80
  -1   4  -5   41.80    7.10
   1   4   5   44.80    8.50
   1   4   5   53.99    5.20
   1   4   5   46.80    3.50
   2  -4   5    3.10    4.60
   2  -4   5    6.40    4.60
  -2  -4  -5    9.30    2.40
   2   4   5   11.70    5.80
   2   4   5   10.60    2.30
  -3  -4  -5  230.38   12.30
   3  -4   5  249.18   18.70
   3  -4   5  258.57   22.40
   3   4   5  252.27   22.90
   3   4   5  236.88   11.70
   4  -4   5   -9.20    6.90
   4  -4   5   -7.80    4.90
   4   4   5   -5.40    6.80
   5  -4   5    6.70    8.40
   5  -4   5   13.70   10.50
   5   4   5   19.30   13.30
   6  -5  -5   29.20   13.30
   6   5  -5   47.60   14.10
   6   5  -5   31.60   10.70
   5  -5  -5   30.50   10.10
   5  -5  -5    2.40    5.10
  -5   5   5   37.50   14.80
   5   5  -5   12.10    7.30
   5   5  -5   13.50    6.90
   4  -5  -5    1.90    5.00
   4  -5  -5    6.00    3.10
   4   5  -5   -4.00    4.10
   4   5  -5    1.10    4.00
   3  -5  -5   16.10    6.00
   3  -5  -5   14.70    3.40
   3   5  -5    6.30    4.40
   3   5  -5    6.30    4.30
  -3   5   5   15.10    4.30
   2  -5  -5  133.89   11.80
  -2  -5   5  126.09   12.60
   2   5  -5  168.08   13.90
  -2   5   5  140.99    8.20
  -1  -5   5  134.59   11.50
   1  -5  -5  143.49   10.00
  -1  -5   5  126.59   11.10
  -1  -5   5  143.89   11.40
  -1   5   5  135.59   10.40
  -1   5   5  138.19    9.90
  -1   5   5  123.69    8.50
   1   5  -5  124.69   11.30
   0  -5  -5  323.07   13.10
   0  -5   5  339.97   18.90
   0  -5   5  354.46   18.70
   0   5   5  358.26   19.30
   0   5  -5  317.67   18.20
   0   5   5  337.37   13.30
   0   5  -5  334.17   18.30
   1  -5   5   31.80    6.80
   1   5   5   33.40    1.80
   1   5   5   52.49    9.50
   1   5   5   34.10    1.80
  -1   5  -5   28.90    6.70
   2  -5   5  156.58   15.80
   2  -5   5  161.78   14.60
   2   5   5  220.08   18.90
   3  -5   5   53.39   11.40
  -3  -5  -5   71.69    6.00
   3  -5   5   62.29   11.00
   3   5   5   67.79    5.40
   3   5   5   56.89   13.50
   4  -5   5   63.29   12.20
   4  -5   5   62.19   14.60
   4   5   5   59.89    7.70
   4   5   5   64.29   16.30
   5  -5   5   -2.90    7.00
   5  -5   5    6.20   10.10
   5   5   5   -2.90    9.90
   5   5   5   -0.90    4.80
   6  -6  -5   24.90    9.60
   6  -6  -5   38.40   12.90
   6   6  -5   23.80   10.30
   6   6  -5   30.40   12.70
   5  -6  -5   26.20    9.20
   5  -6  -5   40.40    7.50
   5   6  -5   33.60   10.80
  -5   6   5   43.90   12.50
   5   6  -5   25.00    9.30
   4  -6  -5   18.30    7.90
   4   6  -5   10.80    5.90
   4   6  -5   28.50    8.60
  -4   6   5   39.60    7.20
   3  -6  -5    5.60    2.60
   3  -6  -5    6.20    3.60
  -3   6   5   -2.00    2.50
   3   6  -5    2.40    4.00
   3   6  -5   14.40    6.70
  -2  -6   5   36.30    8.00
   2  -6  -5   30.70    6.50
  -2   6   5   36.80    4.00
   2   6  -5   38.50    7.30
   1  -6  -5  218.08   13.10
  -1  -6   5  252.47   16.60
  -1  -6   5  231.18   23.90
  -1   6   5  213.38   11.30
  -1   6   5  215.38   12.70
  -1   6   5  225.18   13.30
   1   6  -5  245.18   16.10
   0  -6   5    2.40    3.70
   0  -6  -5   13.30    3.00
   0  -6   5   11.60    4.60
   0   6   5   10.70    2.70
   0   6  -5   10.20    3.30
   0   6   5   11.80    4.40
   0   6  -5    4.10    3.30
   1  -6   5  316.77   19.70
   1   6   5  298.77   20.60
   2  -6   5   44.80   10.10
   2  -6   5   58.99    9.70
   2   6   5   59.59   10.80
   3  -6   5  394.26   27.60
   3  -6   5  440.26   37.50
   3   6   5  381.46   10.50
   3   6   5  406.96   29.70
   4  -6   5    6.90    7.50
   4  -6   5   -5.80    5.20
   4   6   5   -1.10    7.10
   5  -6   5   23.30   12.10
   5  -6   5    7.00    9.90
   5   6   5    1.90    8.80
   5   6   5   26.40    5.90
   6  -7  -5   39.00    8.60
   6  -7  -5   51.09   15.20
   6   7  -5   26.30   11.40
   6   7  -5   31.00   12.30
   5  -7  -5   27.20    6.50
   5  -7  -5   53.69   12.70
  -5   7   5   29.50    8.40
   5   7  -5   28.20   10.10
   5   7  -5   31.20   10.90
   4  -7  -5  197.08   19.10
   4  -7  -5  216.48    9.80
   4   7  -5  217.98   18.40
   4   7  -5  211.88   20.40
  -4   7   5  217.08   11.40
   3  -7  -5   -0.90    4.10
  -3  -7   5    9.00    5.80
   3   7  -5    1.00    4.30
  -2  -7   5  235.98   17.80
   2  -7  -5  251.67   16.90
  -2   7   5  249.58    9.40
   2   7  -5  237.08   17.70
  -2   7   5  240.78   10.30
   1  -7  -5    1.20    2.40
  -1  -7   5    1.90    2.60
  -1   7   5    4.40    3.10
  -1   7   5   -1.30    2.00
   1   7  -5    1.80    2.80
   0  -7   5  683.33   31.00
   0  -7  -5  720.43   22.80
   0   7  -5  734.33   30.50
   0   7   5  749.73   29.90
   0   7   5  691.53   22.70
   1  -7   5    6.70    4.50
   1   7   5    4.50    3.50
   2  -7   5   15.20    6.80
   2  -7   5    0.40    3.80
   2   7   5    6.10    5.30
   3  -7   5   89.89   13.30
   3  -7   5   74.49   13.70
   3   7   5   76.59   17.10
   4  -7   5    1.80    7.70
   4  -7   5    0.50    6.40
   4   7   5    5.70    7.80
   5  -7   5   -6.00    8.60
   5  -7   5    5.70   11.00
   5   7   5   -1.00   10.40
   6  -8  -5   22.10   12.00
   6   8  -5   33.90   12.90
   6   8  -5   11.30   10.90
   5  -8  -5   15.10    7.70
   5  -8  -5   12.20    2.90
   5   8  -5    0.30    6.10
   5   8  -5    6.40    7.50
   4  -8  -5   10.10    6.40
  -4  -8   5   10.50    7.30
   4   8  -5    5.30    5.20
  -3  -8   5   60.99   10.90
   3   8  -5   64.79   11.40
  -2  -8   5   33.50    8.20
   2  -8  -5   36.30    8.10
   2   8  -5   27.00    7.20
  -2   8   5   38.90    3.10
  -2   8   5   37.30    2.90
  -1  -8   5    0.20    2.50
   1  -8  -5    0.90    2.50
  -1   8   5   -0.10    3.00
   1   8  -5    1.30    3.10
  -1   8   5   -0.20    1.90
   0  -8  -5   -0.90    1.60
   0  -8   5    3.50    3.10
   0   8   5   -1.90    2.10
   0   8  -5   -4.00    2.40
   0   8   5    3.10    3.30
   1  -8   5   -0.20    3.00
   1   8   5    0.10    3.50
   2  -8   5   19.70    7.40
   2   8   5   21.90    8.60
   3  -8   5  673.03   37.50
   3  -8   5  710.13   37.70
   3   8   5  743.93   41.60
   4  -8   5   11.30    7.40
   4  -8   5   33.80   10.40
   4   8   5    0.40    8.80
   5  -8   5   11.60   12.70
   5  -8   5   18.30   12.10
   5   8   5   45.60   16.80
  -6  -9   5   13.20   14.80
   6  -9  -5    8.10   10.50
   6   9  -5   21.40   11.60
  -5  -9   5   33.20   11.30
   5  -9  -5   26.80   11.90
   5   9  -5   27.30   11.30
   4  -9  -5   24.20    9.60
  -4  -9   5   35.50   10.10
   4   9  -5   23.80    8.20
  -3  -9   5   -1.90    3.50
   3  -9  -5   -2.40    3.50
   3   9  -5    1.70    4.80
   2  -9  -5  480.65   25.00
  -2  -9   5  479.95   27.00
   2   9  -5  494.55   27.60
   1  -9  -5   -1.50    2.40
  -1  -9   5   -0.30    3.00
   1   9  -5   -3.00    2.70
  -1   9   5    1.20    2.30
   0  -9  -5   42.00    5.00
   0  -9  -5   52.29    9.50
   0  -9   5   55.49    9.40
   0   9   5   63.19    6.40
   0   9   5   56.99    8.10
   0   9  -5   50.49    8.30
   1  -9   5    8.40    4.90
   1   9   5    0.30    3.30
   2  -9   5    6.70    6.10
   3  -9   5   11.70    6.40
   3  -9   5   21.00    7.50
   3   9   5   35.60   11.30
   4  -9   5   46.40   13.60
   4  -9   5   38.50   11.60
   4   9   5   30.50   10.80
   5  -9   5   14.50   10.40
   5  -9   5    8.10   12.90
   5   9   5   20.00   12.90
  -6 -10   5  -17.40   25.20
   6 -10  -5   20.50   12.40
   6  10  -5   42.50   15.40
  -5 -10   5  152.68   20.10
   5 -10  -5  138.29   21.10
   5  10  -5  113.59   20.70
  -4 -10   5   25.60    9.40
   4 -10  -5   32.20    9.10
   4  10  -5   10.30    7.00
   3 -10  -5  199.48   18.00
  -3 -10   5  167.58   18.10
   3  10  -5  156.88   17.10
  -2 -10   5   30.80    9.40
   2 -10  -5    5.60    4.20
   2  10  -5   16.40    4.90
  -1 -10   5  251.27   18.90
   1 -10  -5  276.67   16.20
  -1  10   5  263.37   16.30
   1  10  -5  269.07   19.00
  -1  10   5  267.97   13.70
   0 -10  -5   -1.60    5.50
   0 -10  -5    9.90    2.90
   0 -10   5   13.50    5.80
   0  10   5   11.60    3.60
   0  10   5    3.00    3.70
   0  10  -5   10.80    4.90
   1 -10   5   93.99   12.30
   1  10   5   95.89   12.70
   2 -10   5   84.49   13.20
   2  10   5   83.19   13.60
   3 -10   5   30.00   10.30
   3 -10   5   26.90   10.90
   3  10   5   40.30   13.00
   4 -10   5    9.00    9.00
   4 -10   5    4.40    9.00
   4  10   5    6.10    8.50
   5 -10   5    8.80   10.40
   5 -10   5    6.70   11.60
   5  10   5    1.60   10.90
  -5 -11   5   26.50   12.20
   5 -11  -5    9.20    9.30
   5  11  -5   26.80   18.60
   4 -11  -5   79.99   15.00
  -4 -11   5   73.59   13.70
   4  11  -5   63.39   15.30
   3 -11  -5   87.89   12.30
  -3 -11   5   98.89   13.30
   3  11  -5   96.89   14.70
   2 -11  -5   99.79   11.80
  -2 -11   5   77.79   11.70
   2  11  -5  105.19   13.40
  -1 -11   5   85.99   12.00
   1 -11  -5   88.59    9.40
   1  11  -5  100.59   12.30
   0 -11  -5  311.37   14.40
   0 -11  -5  263.17   19.10
   0 -11   5  334.37   22.90
   0  11   5  275.17   14.50
   0  11  -5  292.17   19.80
   0  11   5  271.17   17.60
   1 -11   5    1.60    4.80
   1  11   5    5.90    4.60
   2 -11   5  180.88   18.90
   2  11   5  201.18   20.20
   3 -11   5   18.40    7.90
   3 -11   5   19.40    9.00
   3  11   5   25.00   11.40
   4 -11   5   31.30   11.20
   4 -11   5   34.70   10.70
   4  11   5   12.40    9.70
   5 -11   5   -6.70   11.30
   5 -11   5   -4.60   10.30
   5  11   5   -1.00   11.10
  -5 -12   5   19.40   11.70
   5 -12  -5   35.50   11.40
   5  12  -5    8.30   12.10
   4 -12  -5    2.30    6.00
  -4 -12   5   13.40    7.10
   4  12  -5   12.30    7.40
   3 -12  -5   18.80    7.90
  -3 -12   5   16.10    7.00
   3  12  -5   12.30    7.30
   2 -12  -5    2.40    4.10
   2  12  -5   -3.70    4.10
  -1 -12   5  111.59   13.50
   1 -12  -5   88.49    9.90
  -1  12   5  110.49    8.90
   1  12  -5  111.29   13.50
   0 -12  -5  140.99    9.90
   0 -12   5  143.99   19.70
   0  12   5  155.68   13.50
   0  12   5  139.49   11.10
   0  12  -5  153.38   14.60
   1 -12   5   83.19   12.10
   1  12   5   65.19   11.40
   2 -12   5    4.20    6.20
   2  12   5    1.10    5.30
   3 -12   5  119.79   18.20
   3  12   5   96.29   17.50
   4 -12   5   -2.90    8.00
   4 -12   5   -8.90    8.70
   4  12   5    9.60   12.60
   5 -13  -5   -9.70    7.70
  -5 -13   5    8.80   10.80
   5  13  -5   -6.80    9.70
  -4 -13   5   10.00    7.60
   4 -13  -5    7.90    8.50
   4  13  -5   14.20   10.30
  -3 -13   5   37.00   10.40
   3 -13  -5   23.90    9.40
   3  13  -5   18.50    8.70
   2 -13  -5   16.50    5.70
  -2 -13   5    8.30    5.70
   2  13  -5    5.20    5.40
   1 -13  -5   49.50    8.40
  -1 -13   5   44.10    9.40
   1  13  -5   35.80    9.10
  -1  13   5   51.99    6.30
   0 -13  -5   12.30    4.40
   0 -13   5    9.20    5.80
   0  13  -5   20.80    6.80
   0  13   5   14.10    5.90
  -1 -13  -5    8.50    1.70
   1 -13   5    0.00    4.60
  -1 -13  -5    9.20    1.80
   1  13   5    1.70    5.00
   2 -13   5  212.28   21.30
   2  13   5  245.68   23.00
   3 -13   5   28.60   11.80
   3 -13   5   35.10   12.40
   3  13   5   47.90   12.00
   4 -13   5   32.80   11.80
   4 -13   5   73.59   15.80
   4  13   5   57.49   13.90
  -5 -14   5  144.09   23.60
   5 -14  -5  117.89   21.80
   5  14  -5  105.39   22.40
  -4 -14   5   52.99   13.70
   4 -14  -5   39.80   12.80
   4  14  -5   57.99   13.40
   3 -14  -5   36.10    9.10
  -3 -14   5   41.40   11.00
   3  14  -5   45.60   11.80
   2 -14  -5   36.50    8.30
  -2 -14   5   18.10    7.50
   2  14  -5   42.20   11.70
   1 -14  -5  165.48   14.10
  -1 -14   5  136.99   16.30
   1  14  -5  155.88   16.10
  -1  14   5  148.89   10.50
   0 -14  -5   20.80    5.30
   0 -14   5   11.30    6.60
   0  14  -5   31.90    9.80
   0  14   5   17.30    6.00
  -1 -14  -5   97.79    5.10
   1 -14   5   76.09   13.60
   1  14   5  127.69   14.50
   2 -14   5   60.29   13.50
   2  14   5   86.59   15.00
   3 -14   5   22.70   10.70
   3 -14   5    2.90    7.80
   3  14   5   15.40   10.60
   4 -14   5    6.70   11.00
   4 -14   5    5.30   11.70
   4  14   5    7.70    9.90
   5 -15  -5  -25.90   10.00
  -5 -15   5   -3.10   12.70
   5  15  -5    3.00   13.20
   4 -15  -5   57.09   12.50
  -4 -15   5   54.89   15.10
   3 -15  -5   -1.80    5.80
  -3 -15   5   16.00    8.10
   3  15  -5   15.30    8.90
  -2 -15   5   67.59   14.90
   2 -15  -5   56.29   12.30
   2  15  -5   57.19   13.20
  -1 -15   5   70.19   13.40
   1 -15  -5   74.49   10.50
   1  15  -5   65.69   12.00
  -1  15   5   55.69    7.70
   0 -15   5  125.19   16.70
   0 -15  -5  143.49   11.30
   0  15   5  126.19   13.40
   0  15  -5  143.29   15.50
   1 -15   5    2.70    6.20
   1  15   5    1.50    5.30
   2 -15   5   92.79   15.60
   2  15   5   70.69   15.00
   3 -15   5    6.60    9.60
   3 -15   5    6.60    8.70
   3  15   5   -7.70    8.30
   4 -15   5   17.00   11.90
   4 -15   5   20.40   10.60
   4  15   5   12.80   12.10
  -4 -16   5    3.70    8.90
   4 -16  -5    4.70   11.30
   4  16  -5   -1.20    8.30
   3 -16  -5   79.39   15.50
  -3 -16   5  100.19   16.30
   3  16  -5   48.50   13.20
  -2 -16   5   -1.00    8.10
   2 -16  -5   13.40    6.10
   2  16  -5   13.50    7.70
  -1 -16   5  175.58   19.20
   1 -16  -5  149.29   14.30
   1  16  -5  137.99   16.80
  -1  16   5  159.38   11.10
   0 -16   5   21.50    8.30
   0 -16  -5    5.70    4.70
   0  16   5   20.60    6.30
   0  16  -5   10.10    6.70
   1 -16   5   12.30    7.60
   1  16   5   16.90    6.90
   1  16   5   24.30    4.60
   2 -16   5    1.80    6.50
   2  16   5    9.50    7.80
   3 -16   5   -2.00    9.30
   3 -16   5    3.90    9.70
   3  16   5   -2.80    9.70
   4 -16   5   69.49   17.20
   4  16   5   61.69   16.00
  -4 -17   5   16.80   12.60
   4 -17  -5    7.10   10.30
   4  17  -5   31.30   14.70
  -3 -17   5   14.40    9.10
   3 -17  -5   18.40   10.20
   3  17  -5   21.00   10.30
  -2 -17   5  143.89   18.20
   2 -17  -5  127.69   17.00
   2  17  -5  131.79   18.20
  -1 -17   5    7.30    6.30
   1 -17  -5   10.30    5.10
   1  17  -5    7.90    5.70
  -1  17   5    6.70    4.30
   0 -17  -5    8.10    4.90
   0 -17   5   -1.20    7.50
   0  17   5    4.20    5.00
   0  17  -5    6.10    5.30
   1 -17   5    8.30    8.30
  -1 -17  -5    4.40    3.50
   1  17   5    5.90    4.20
   1  17   5    2.40    6.70
   2 -17   5  175.48   20.20
   2  17   5  168.88   21.00
   3 -17   5    0.30   10.50
   3 -17   5    6.90   11.00
   3  17   5  -11.30    9.00
   4 -18  -5    8.60   10.60
  -4 -18   5   -5.40   11.70
   4  18  -5   10.30   11.80
  -3 -18   5   42.30   12.00
   3 -18  -5   34.70   11.40
  -2 -18   5    7.50    8.70
   2 -18  -5    1.80    7.00
   2  18  -5   -3.20    6.80
   1 -18  -5   52.29   10.80
  -1 -18   5   42.40   12.60
   1  18  -5   50.49   12.20
  -1  18   5   46.30    7.60
   0 -18  -5   35.70    8.00
   0 -18   5   22.20    9.60
   0  18   5   21.20    6.90
   0  18  -5   32.30    9.70
  -1 -18  -5   40.50    6.30
   1 -18   5   28.30   12.10
   1  18   5   42.00   11.10
   2  18   5    6.10    7.70
   3 -18   5   15.80   13.40
   3 -18   5   22.70   14.90
   3  18   5   49.99   15.90
  -4 -19   5  -10.10   10.80
   4 -19  -5    6.90   12.80
   4  19  -5   -9.60   10.90
  -3 -19   5   -8.00    8.80
   3 -19  -5    5.20   10.30
   3  19  -5   -9.60    8.50
   2 -19  -5   34.40   11.50
  -2 -19   5   36.60   10.40
   2  19  -5   19.60    9.40
   1 -19  -5   -3.60    6.10
  -1 -19   5   -2.70    8.00
   1  19  -5    1.10    6.70
  -1  19   5   -2.10    4.30
   0 -19   5  148.09   21.20
   0 -19  -5  124.79   13.50
   0  19  -5  127.89   17.00
   0  19   5  141.89   15.40
   1 -19   5    2.80    8.90
   2 -19   5   15.40   11.20
   2  19   5   30.40   11.80
   3 -19   5    4.00   10.00
   3  19   5   -1.10    9.40
  -3 -20   5   28.00   13.10
   3 -20  -5   21.50   12.40
   3  20  -5   30.10   13.80
  -2 -20   5  -16.70    8.60
   2 -20  -5   -9.90    8.10
   2  20  -5    7.00    8.50
  -1 -20   5   25.60   11.70
   1 -20  -5    0.50    7.30
   1  20  -5    9.50    9.00
  -1  20   5    9.40    6.00
   0 -20  -5   34.30    9.10
   0 -20   5   31.50   13.60
   0  20  -5   40.50   12.50
   1 -20   5   28.90   11.70
   1  20   5   39.20   14.70
   2 -20   5   11.50   11.50
   2  20   5    9.60    9.80
   3 -21  -5   -3.40   10.80
   3  21  -5    7.20   13.00
   2 -21  -5   39.40   12.90
  -2 -21   5   27.60   12.10
   2  21  -5   26.70   11.60
   1 -21  -5    5.90    8.60
  -1 -21   5    9.60   10.30
  -1  21   5    0.90    5.60
   1  21  -5   10.70    9.00
   0 -21  -5   55.29   10.70
   0 -21   5  107.79   24.60
   0  21  -5   72.49   14.00
  -1 -21  -5   60.79    9.60
   1 -21   5   40.60   14.70
   2 -21   5   16.60   13.60
   2  21   5   23.20   13.20
  -2 -22   5   13.40   10.30
   2 -22  -5   -0.80   10.20
   2  22  -5    6.40   11.50
  -1 -22   5    3.20   11.30
   1 -22  -5   10.50    9.00
   1  22  -5    3.30   11.30
   0 -22   5  -18.20    9.80
   0  22   5    6.30    8.00
   0  22  -5   -4.00    8.70
   1 -22   5   81.49   19.80
  -1 -23   5   29.90   12.70
   1 -23  -5  -12.40   10.10
   1  23  -5    0.30    9.30
   0 -23   5  152.38   25.60
   0 -23  -5  180.18   23.20
   0  23   5  169.38   19.30
   6   0  -6   35.40   11.00
   6   0  -6   29.10   10.60
   5   0  -6    1.40    6.00
   5   0  -6    1.10    5.10
   4   0  -6   17.80    6.90
   4   0  -6    6.70    4.70
   3   0  -6    2.10    3.00
  -3   0   6    2.20    4.50
   3   0  -6   -1.40    2.50
   2   0  -6  184.78   13.20
  -2   0   6  162.18   15.70
   2   0  -6  208.68   14.60
  -1   0   6    4.00    3.00
  -1   0   6   -0.40    2.60
   1   0  -6   -1.80    1.70
   1   0  -6   -1.50    2.00
   0   0   6   68.09    6.90
   0   0   6   67.49    6.90
   0   0   6   49.40    7.40
   1   0   6    2.10    3.30
  -1   0  -6    8.40    3.50
   1   0   6   -0.80    1.90
   2   0   6    9.30    6.50
   2   0   6    3.50    2.80
  -2   0  -6    0.80    4.00
   3   0   6   -0.20    5.50
   3   0   6   -3.60    3.30
   4   0   6  342.97   21.10
   4   0   6  318.37   29.60
   5   0   6   13.40   10.80
   6  -1  -6    3.30    8.70
   6  -1  -6   -9.20    7.90
   6   1  -6   -7.70    7.40
   6   1  -6   -0.20    9.30
   5  -1  -6  188.98   17.50
   5  -1  -6  227.38   22.00
   5   1  -6  185.08   18.50
   5   1  -6  172.18   18.80
   4  -1  -6   27.10    8.20
   4  -1  -6   23.20    7.00
   4   1  -6   28.10    8.40
   4   1  -6   13.60    5.40
   3  -1  -6  147.89   12.30
   3  -1  -6  114.19   12.40
   3   1  -6  111.19   12.10
   3   1  -6   88.69   10.40
  -3   1   6  122.99   11.50
   2  -1  -6 1569.14   48.10
   2  -1  -6 1559.64   50.99
  -2  -1   6 1548.65   49.20
   2   1  -6 1604.44   50.39
   2   1  -6 1514.65   50.79
   1  -1  -6   71.39    7.70
  -1  -1   6   73.49    8.10
  -1  -1   6   77.99    8.90
  -1  -1   6   53.99    7.10
  -1   1   6   76.59    9.20
  -1   1   6   78.09    8.10
   1   1  -6   87.99    9.00
   0  -1   6   91.39    9.00
   0  -1   6   76.59    8.90
   0  -1   6   78.39    7.90
   0   1   6   86.49    7.70
   0   1   6   91.69    9.60
   0   1   6   78.39    7.10
   1  -1   6   87.99   12.20
   1  -1   6  117.39    9.90
  -1  -1  -6   94.89    8.10
  -1   1  -6  104.69    9.30
   1   1   6   88.99    7.80
   1   1   6   88.39   12.10
  -2  -1  -6  113.89    9.90
   2  -1   6  142.19   16.30
   2  -1   6  124.69   11.10
   2   1   6  122.19    9.70
   2   1   6  111.69   14.60
  -2   1  -6  111.49   10.90
   3  -1   6   76.49   10.30
   3  -1   6  104.19   16.00
   3   1   6   94.99   15.70
   3   1   6   94.59    9.80
   4  -1   6    4.00    7.40
   4  -1   6    4.60    5.70
   4   1   6    4.60    5.10
   4   1   6    0.80    7.10
   5  -1   6    4.30   11.00
   5  -1   6   19.20    8.40
   6  -2  -6   11.50    8.00
   6  -2  -6   11.90    9.10
   6   2  -6   -5.80    8.90
   6   2  -6   -9.10    6.70
   5  -2  -6    6.70    6.60
   5  -2  -6    3.50    5.80
   5   2  -6   14.80    7.10
   5   2  -6    3.40    6.30
   4  -2  -6  104.39   13.90
   4  -2  -6  103.49   11.40
   4   2  -6   91.79   12.70
   4   2  -6   89.79   12.50
   3  -2  -6    3.00    3.40
   3  -2  -6    7.10    4.30
   3   2  -6    5.50    4.10
   3   2  -6    9.60    4.40
  -3   2   6    5.30    4.50
  -2  -2   6  289.47   17.50
   2  -2  -6  292.17   17.80
   2  -2  -6  302.17   16.10
   2   2  -6  289.47   17.70
   2   2  -6  347.07   19.60
  -1  -2   6   20.10    5.20
  -1  -2   6   17.80    5.40
   1  -2  -6   22.80    5.30
  -1  -2   6   17.70    5.10
  -1   2   6   21.10    5.10
   1   2  -6   12.90    4.00
   0  -2   6   67.79    8.40
   0  -2   6   70.09    8.00
   0  -2   6   76.19    7.50
   0   2   6   80.99    7.40
   0   2   6   70.69    6.50
   0   2  -6   94.59    9.00
   1  -2   6   99.09    9.70
  -1   2  -6  115.59   10.50
   1   2   6   90.89    7.30
   1   2   6   94.69    6.80
   1   2   6  105.59   13.00
   2  -2   6  310.27   24.10
   2  -2   6  287.47   18.20
  -2  -2  -6  276.07   14.00
   2   2   6  295.77   14.50
   2   2   6  300.27   23.50
   3  -2   6   -0.80    3.50
   3  -2   6    9.50    7.60
  -3  -2  -6    5.40    4.80
   3   2   6   -5.40    5.20
   3   2   6    2.80    3.10
   4  -2   6  105.89   19.50
   4   2   6   94.29   10.40
   4   2   6   64.59   16.10
   5  -2   6   10.50   11.30
   5   2   6   -0.50   11.30
   6  -3  -6  -12.80    7.80
   6  -3  -6    1.10    8.30
   6   3  -6    4.80    7.60
   6   3  -6   -3.90    9.90
   5  -3  -6   27.80    8.60
   5  -3  -6   50.49    9.60
   5   3  -6   31.90    9.80
   5   3  -6   42.30   10.30
   4  -3  -6   42.40   10.30
   4  -3  -6   43.20    8.00
   4   3  -6   51.29   10.60
   4   3  -6   26.40    8.10
   3  -3  -6    0.40    3.30
   3  -3  -6    0.00    3.00
  -3   3   6    1.80    3.50
   3   3  -6    4.20    3.80
   3   3  -6   -0.70    3.00
   2  -3  -6   65.89    7.10
   2  -3  -6   70.19    8.60
   2   3  -6   66.19    8.70
   2   3  -6   73.29    8.70
  -2   3   6   71.89    8.40
   1  -3  -6 1056.59   35.60
  -1  -3   6 1019.20   37.50
  -1  -3   6 1070.79   39.80
  -1  -3   6 1099.69   38.20
   1   3  -6 1100.09   39.00
  -1   3   6 1048.70   34.90
  -1   3   6 1054.29   39.30
   0  -3   6  132.79   11.10
   0  -3   6  133.09   13.10
   0   3   6  148.29   15.10
   0   3   6  126.69    8.50
   0   3  -6  123.89   10.90
   0   3   6  134.89   12.60
   1  -3   6  556.34   25.10
   1   3   6  541.05   18.90
   1   3   6  547.45   29.30
   1   3   6  527.55   18.00
  -1   3  -6  491.45   23.90
   2  -3   6  112.69   14.30
   2  -3   6  100.49   11.30
  -2  -3  -6  110.39    7.60
   2   3   6   77.49   13.50
   2   3   6  112.29    7.70
   3  -3   6   41.70   12.50
   3  -3   6   41.30    9.60
  -3  -3  -6   46.30    7.50
   3   3   6   36.40    5.80
   3   3   6   52.89   14.10
   4  -3   6    6.90    9.30
   4  -3   6   16.50    8.30
   4   3   6   12.10    4.70
   4   3   6   21.50    8.80
   5  -3   6   35.10   13.00
   5   3   6   19.40    7.80
   5   3   6   18.10   12.60
   6  -4  -6   44.90   14.30
   6   4  -6   90.79   17.50
   6   4  -6   98.19   18.50
   5  -4  -6   19.00    6.30
   5  -4  -6   31.60   10.40
   5   4  -6    8.60    6.00
   5   4  -6   11.80    7.30
   4  -4  -6  119.19   15.10
   4  -4  -6   89.39    9.90
   4   4  -6  125.69   14.30
   4   4  -6   85.89   12.90
   3  -4  -6    2.70    3.00
   3  -4  -6    2.20    4.00
   3   4  -6   -1.20    3.50
   3   4  -6    2.70    4.00
  -3   4   6   -1.00    5.20
  -2  -4   6    5.50    4.20
   2  -4  -6    4.20    3.40
   2   4  -6    1.60    2.30
   2   4  -6    0.80    3.30
  -2   4   6    3.20    3.10
   1  -4  -6  266.97   14.80
  -1  -4   6  240.38   16.60
   1   4  -6  264.07   17.10
  -1   4   6  276.37   17.30
   0  -4   6  234.98   15.40
   0   4  -6  198.78   14.80
   0   4   6  180.28   15.00
   0   4   6  228.48   11.80
   0   4   6  221.58   11.00
   1  -4   6   27.90    6.60
  -1   4  -6    7.60    4.80
   1   4   6   21.30    7.50
   1   4   6   14.60    2.80
   1   4   6   13.60    2.80
   2  -4   6  157.68   16.60
   2  -4   6  159.38   14.50
   2   4   6  170.98    8.00
   2   4   6  179.68   18.70
   3  -4   6    6.90    7.10
  -3  -4  -6    1.60    3.30
   3  -4   6   -4.30    3.90
   3   4   6    8.00    8.20
   3   4   6    2.50    2.40
   4  -4   6   68.79   14.80
   4  -4   6   97.09   14.00
  -4  -4  -6   80.79   10.90
   4   4   6   75.89   18.50
   5  -4   6    5.00   11.60
   5  -4   6   14.20    8.80
   5   4   6   -3.50   10.50
   5   4   6    4.50    5.90
   6  -5  -6    2.40    8.60
   6   5  -6    5.80    9.80
   6   5  -6    5.60    8.90
   5  -5  -6  105.99   16.00
   5  -5  -6  135.19   12.50
   5   5  -6  133.09   18.10
   5   5  -6   80.29   13.80
   4  -5  -6   -7.50    3.60
   4  -5  -6   -0.40    3.30
   4   5  -6    3.80    4.90
   4   5  -6   -2.50    4.30
   3  -5  -6   30.20    7.70
   3  -5  -6   42.50    6.00
   3   5  -6   31.80    8.30
   3   5  -6   48.60    8.10
  -3   5   6   31.10    5.90
   2  -5  -6    6.60    3.10
  -2  -5   6    8.50    4.20
  -2   5   6   11.60    3.80
   2   5  -6    9.00    3.50
   1  -5  -6  389.56   18.50
  -1  -5   6  362.06   21.30
  -1   5   6  405.36   20.20
   1   5  -6  393.46   21.80
   0  -5  -6   85.89    6.50
   0  -5   6   80.79    9.70
   0   5  -6   88.79    9.80
   0   5   6   94.19    6.80
   0   5   6   91.39   11.10
   1  -5   6    6.50    3.80
   1   5   6    7.50    5.30
   1   5   6    7.60    1.70
   1   5   6   11.80    2.40
   2  -5   6   78.09   11.00
   2  -5   6   61.59   12.30
   2   5   6   61.49   11.70
  -3  -5  -6   77.99    5.50
   3  -5   6   81.09   14.20
   3  -5   6   63.49   11.70
   3   5   6   99.09   16.20
   4  -5   6    2.60    6.80
   4  -5   6    4.90   10.50
  -4  -5  -6   14.20    5.50
   4   5   6   13.00   10.10
   5  -5   6   30.80   14.80
   5  -5   6   14.40    9.40
   5   5   6    5.40   12.60
   5   5   6   27.50    7.30
   6  -6  -6    8.00    7.70
   6  -6  -6    6.20   11.00
   6   6  -6   13.50    8.80
   5  -6  -6   -9.40    6.30
   5  -6  -6   -5.80    4.40
   5   6  -6    1.30    7.30
   5   6  -6   -6.60    7.40
   4  -6  -6   89.19    9.00
   4  -6  -6   75.09   12.90
   4   6  -6   76.89   12.20
  -4   6   6   91.39    9.20
   4   6  -6   98.39   13.30
   3  -6  -6   15.10    6.50
  -3  -6   6   26.90    8.60
   3   6  -6   18.00    6.40
   3   6  -6   13.50    5.80
  -2  -6   6    3.10    4.30
   2  -6  -6    7.70    4.10
   2   6  -6    7.20    4.70
  -2   6   6    7.80    3.00
  -1  -6   6  212.28   16.20
   1  -6  -6  196.68   12.80
  -1   6   6  222.48   14.30
  -1   6   6  202.58   12.20
   1   6  -6  213.38   15.70
  -1   6   6  211.58   13.70
   0  -6  -6  634.34   21.00
   0  -6   6  630.54   29.30
   0   6   6  605.14   21.10
   0   6  -6  622.64   29.00
   0   6   6  600.54   30.70
   1  -6   6    4.40    3.50
   1   6   6    6.20    4.60
   2  -6   6  115.69   15.20
   2  -6   6  115.19   13.10
   2   6   6  102.69   16.30
   3  -6   6  119.99   17.00
   3  -6   6   94.19   13.50
   3   6   6   96.29   16.20
   4  -6   6   13.20    6.50
   4  -6   6   14.70    9.30
   4   6   6    3.10    2.00
   4   6   6   10.10   11.30
   5  -6   6   -3.10   12.30
   5  -6   6   -2.00   10.40
   5   6   6  -13.20   10.30
   6  -7  -6   -7.80   10.60
   6   7  -6    6.80   10.70
   6   7  -6  -14.70    8.50
   5  -7  -6  -11.80    5.30
   5   7  -6  -10.70    6.70
  -5   7   6   -1.50    7.50
   5   7  -6    0.90    5.90
  -4  -7   6   29.20   10.10
   4  -7  -6    7.70    5.80
  -4   7   6   30.60    5.60
   4   7  -6   28.90    8.50
   4   7  -6   47.20   12.40
  -3  -7   6  121.89   22.80
   3  -7  -6  117.69   17.00
  -3   7   6  102.89    7.90
   3   7  -6  107.29   14.50
  -2  -7   6   72.79   11.00
   2  -7  -6   54.89    8.70
  -2   7   6   50.99    5.30
   2   7  -6   60.29    9.60
  -2   7   6   69.49    7.00
  -1  -7   6  196.58   16.00
   1  -7  -6  222.38   13.70
  -1   7   6  200.38   12.40
  -1   7   6  203.08   13.50
   1   7  -6  213.08   16.40
   0  -7   6  153.18   13.80
   0  -7  -6  169.88    9.20
   0   7   6  189.28   10.00
   0   7   6  171.18   14.30
   0   7  -6  151.08   13.80
   1  -7   6   43.70    7.90
   1   7   6   50.39   11.20
   2  -7   6    7.10    5.30
   2  -7   6    4.50    6.40
   2   7   6    5.10    6.50
   3  -7   6  301.27   25.90
   3  -7   6  320.37   24.60
   3   7   6  287.97   26.70
   4  -7   6    0.70    6.80
   4  -7   6   11.50    8.90
   4   7   6   13.60    9.80
   5  -7   6    9.90   10.50
   5  -7   6    0.70   12.20
   5   7   6   22.80   14.90
   6  -8  -6   51.19   15.90
  -6  -8   6   46.30   16.90
   6   8  -6   69.99   14.00
   6   8  -6   42.60   15.70
   5  -8  -6   -8.30    7.40
  -5  -8   6    4.90    7.60
   5   8  -6    1.90    8.40
   5   8  -6    8.60    7.60
   4  -8  -6  193.68   20.60
  -4  -8   6  237.58   21.80
   4   8  -6  240.88   22.20
  -3  -8   6   29.10    9.00
   3  -8  -6   33.10    8.90
   3   8  -6   22.70    7.40
  -2  -8   6   21.20    7.30
   2  -8  -6    3.90    3.40
  -2   8   6    8.80    3.70
   2   8  -6   23.00    7.10
  -2   8   6   21.40    3.80
   1  -8  -6    7.80    3.50
  -1  -8   6   20.20    6.10
   1   8  -6    2.40    3.40
  -1   8   6   13.10    4.00
   0  -8  -6  178.28    9.70
   0  -8   6  194.88   16.10
   0   8   6  170.38    9.80
   0   8   6  169.98   14.60
   0   8  -6  176.58   14.90
   1  -8   6  105.89   13.10
   1   8   6   89.19   12.50
   2  -8   6    1.80    4.40
   2   8   6    0.70    4.80
   3  -8   6   21.50    8.90
   3  -8   6   26.70   10.40
   3   8   6    5.30    7.00
   4  -8   6   63.79   12.30
   4  -8   6   64.69   15.10
   4   8   6   52.89   15.10
   5  -8   6   14.60   10.10
   5  -8   6   16.40   13.60
   5   8   6    9.40   12.00
   6  -9  -6  -19.00   10.00
  -6  -9   6   -3.10   11.50
   6   9  -6   -4.50   10.90
   5  -9  -6   62.19   14.30
  -5  -9   6   66.49   16.80
   5   9  -6   85.49   17.60
   4  -9  -6    1.80    5.90
  -4  -9   6   -0.70    6.20
   4   9  -6    0.10    4.60
  -3  -9   6  137.09   16.30
   3  -9  -6  164.38   16.80
   3   9  -6  158.68   17.30
  -2  -9   6    0.20    5.50
   2  -9  -6    4.30    4.20
   2   9  -6   -1.10    4.10
  -2   9   6   -1.00    1.90
  -1  -9   6  245.28   18.60
   1  -9  -6  266.67   15.50
   1   9  -6  270.27   19.50
  -1   9   6  221.78   15.10
  -1   9   6  236.48   14.50
   0  -9  -6   61.19    5.90
   0  -9   6   76.19   11.10
   0   9   6   63.99    6.40
   0   9   6   69.69    9.10
   0   9  -6   56.59    9.60
   1  -9   6   55.39   10.10
   1   9   6   60.09   10.50
   2  -9   6   45.30   11.50
   2   9   6   27.80    8.70
   3  -9   6  227.08   23.00
   3  -9   6  250.67   22.90
   3   9   6  242.58   25.30
   4  -9   6   10.30    9.90
   4  -9   6   -0.10    8.40
   4   9   6    5.60    8.70
   5  -9   6   44.40   14.10
   5  -9   6   34.30   14.60
   5   9   6   38.20   16.80
  -6 -10   6   -6.50   13.00
  -5 -10   6   11.10   11.70
   5  10  -6   13.70   10.80
   4 -10  -6   53.09   12.70
  -4 -10   6   90.79   14.40
   4  10  -6   57.29   13.90
  -3 -10   6    3.20    5.80
   3 -10  -6    7.80    6.10
   3  10  -6   16.10    6.80
  -2 -10   6   40.30   13.70
   2 -10  -6   53.89    9.10
   2  10  -6   67.79   11.10
  -2  10   6   55.69    4.30
  -1 -10   6   12.20    5.80
   1 -10  -6   22.10    6.00
   1  10  -6   11.10    5.40
  -1  10   6   14.70    4.90
   0 -10   6  340.47   23.10
   0 -10  -6  322.67   16.30
   0  10   6  338.07   15.70
   0  10  -6  338.57   22.30
   0  10   6  377.86   21.70
   1 -10   6   18.10    7.30
   1  10   6   10.70    5.80
   2 -10   6  371.46   26.80
   2  10   6  312.97   26.40
   3 -10   6   16.60    9.80
   3 -10   6   28.90   10.10
   3  10   6   16.60    8.20
   4 -10   6   25.30   12.40
   4 -10   6   34.20   13.60
   5 -10   6   21.90   12.80
   5 -10   6   10.40   12.60
   5  10   6    7.10   11.20
  -5 -11   6   -8.40    8.90
   5 -11  -6   -9.90    7.70
   5  11  -6    1.90    8.20
  -4 -11   6   -0.80    5.50
   4 -11  -6   -9.50    5.40
   4  11  -6    1.30    8.30
   3 -11  -6   17.20    7.20
  -3 -11   6    5.70    7.50
   3  11  -6   11.10    7.10
   2 -11  -6   96.69   12.00
  -2 -11   6   80.99   12.30
   2  11  -6   92.49   13.20
   1 -11  -6  401.46   20.50
   1  11  -6  346.17   27.40
  -1  11   6  402.86   18.90
  -1  11   6  362.56   23.20
   0 -11  -6    3.70    2.80
   0 -11   6    4.90    4.80
   0  11   6    1.90    4.10
   0  11  -6    0.30    3.60
   0  11   6    5.40    3.40
   1 -11   6  148.79   16.40
   1  11   6  139.69   16.00
   2 -11   6   10.70    7.80
   2  11   6   12.20    8.40
   3 -11   6   24.90    9.20
   3 -11   6   36.70   11.50
   3  11   6   38.60   10.90
   4 -11   6    5.00    8.70
   4 -11   6    9.40   11.30
   4  11   6    6.90   10.80
   5 -12  -6    5.80   10.00
  -5 -12   6    8.00   10.50
   5  12  -6   10.00   11.80
  -4 -12   6   93.69   18.10
   4 -12  -6  116.49   16.70
   4  12  -6  133.99   20.40
  -3 -12   6    3.20    7.00
   3 -12  -6    0.30    4.90
   3  12  -6    7.80    5.50
  -2 -12   6   12.10    6.80
   2 -12  -6   16.70    6.80
   2  12  -6   15.60    6.20
  -1 -12   6   72.09   11.90
   1 -12  -6   82.19    9.50
  -1  12   6   95.09    9.20
   1  12  -6   80.09   12.20
   0 -12   6    6.20    5.00
   0 -12  -6    5.00    3.10
   0  12  -6    6.80    5.30
   0  12   6    8.80    5.00
   1 -12   6    7.20    6.20
   1  12   6    6.60    5.90
   2 -12   6   16.60    8.50
   2  12   6    6.80    6.70
   3 -12   6   -5.90    8.50
   3 -12   6   -2.20    7.90
   3  12   6    1.10    6.60
   4 -12   6   55.89   15.30
   4 -12   6   46.60   13.30
   4  12   6   54.29   16.90
  -5 -13   6  220.98   26.30
   5 -13  -6  216.28   25.50
   5  13  -6  204.08   26.00
   4 -13  -6   19.20   10.10
  -4 -13   6   34.30   12.20
   4  13  -6   32.40   11.50
   3 -13  -6    8.30    6.90
  -3 -13   6   26.60   10.00
   3  13  -6   13.40    7.80
  -2 -13   6   68.09   12.40
   2 -13  -6   43.00    9.40
   2  13  -6   52.79   11.20
   1 -13  -6   25.60    7.20
  -1 -13   6   31.60   10.00
   1  13  -6   39.20    9.50
  -1  13   6   32.00    6.30
   0 -13   6    4.80    5.70
   0 -13  -6    4.80    2.80
   0  13  -6   15.10    7.40
   0  13   6    2.60    5.00
   1 -13   6   16.80    8.60
   2 -13   6    7.00    8.50
   2  13   6   23.90    8.50
   3 -13   6   24.50    9.80
   3 -13   6   41.20   13.20
   3  13   6    5.80    9.70
   4 -13   6    4.20   11.00
   4 -13   6   -6.20    9.60
   4  13   6    2.60   10.00
  -5 -14   6   -4.20   11.30
   5 -14  -6   -7.00    9.10
   5  14  -6   23.20   13.00
  -4 -14   6    9.70    9.90
   4 -14  -6   10.20    9.40
   4  14  -6    2.90    8.90
  -3 -14   6   81.69   15.10
   3 -14  -6   81.39   14.70
   3  14  -6   91.49   15.00
  -2 -14   6   71.89   13.00
   2 -14  -6  105.29   13.60
   2  14  -6   89.79   14.50
  -1 -14   6   19.10    8.30
   1 -14  -6   37.40    8.20
  -1  14   6   28.20    5.70
   1  14  -6   17.10    7.00
   0 -14  -6  366.66   17.60
   0 -14   6  342.97   27.00
   0  14   6  365.96   22.40
   0  14  -6  354.86   25.00
   1 -14   6   -3.50    5.20
   1  14   6    2.30    5.30
   2 -14   6   58.59   12.40
   2  14   6   25.90    9.50
   3 -14   6   19.30   11.20
   3 -14   6    1.40    9.50
   3  14   6    7.70    9.40
   4 -14   6   28.70   14.30
   4 -14   6   43.60   13.90
   4  14   6   42.90   17.90
  -5 -15   6   41.20   17.10
   5 -15  -6   50.49   15.30
   5  15  -6   35.20   18.10
  -4 -15   6   10.90    9.90
   4 -15  -6  -12.40    7.30
   4  15  -6    7.40    9.20
  -3 -15   6   63.59   16.00
   3 -15  -6   88.89   15.90
   3  15  -6  114.39   17.20
  -2 -15   6    2.10    6.30
   2 -15  -6    3.80    5.20
   2  15  -6   -2.60    5.40
   1 -15  -6   44.30    9.50
  -1 -15   6   48.70   12.30
  -1  15   6   48.10    7.20
   1  15  -6   58.09   13.10
   0 -15   6   10.60    7.30
   0 -15  -6    1.60    3.50
   0  15   6    2.20    4.70
   0  15  -6   -4.60    4.70
   1 -15   6  238.58   23.10
   1  15   6  248.98   21.80
   2 -15   6  -10.00    5.60
   2  15   6    3.60    6.50
   3 -15   6   13.10   12.40
   3 -15   6   12.50   10.20
   3  15   6   15.80   10.30
   4 -15   6    8.30   10.50
   4 -15   6    3.80   13.60
   4  15   6   -2.00   11.20
   4 -16  -6   49.10   14.80
  -4 -16   6   79.99   17.10
   4  16  -6   42.50   14.80
  -3 -16   6   52.69   14.90
   3 -16  -6  100.39   16.60
   3  16  -6   70.19   16.20
  -2 -16   6  111.99   17.20
   2 -16  -6  127.29   15.30
   2  16  -6  135.59   17.80
  -1 -16   6  213.78   21.80
   1 -16  -6  214.58   16.80
  -1  16   6  195.68   13.00
   1  16  -6  216.18   20.90
   0 -16   6    4.70    6.90
   0 -16  -6    1.50    3.70
   0  16   6    0.10    5.20
   0  16  -6   -4.40    5.10
   0  16   6   -5.40    7.60
   1 -16   6   55.19   13.80
   1  16   6   59.59   12.10
   2 -16   6   78.19   18.70
   2  16   6   95.99   17.10
   3 -16   6   -3.50   11.20
   3 -16   6   -7.90    8.90
   3  16   6    2.60    9.50
  -4 -17   6   -4.00    9.90
   4 -17  -6   -3.10    9.90
   4  17  -6    5.80   10.20
  -3 -17   6   12.20    9.70
   3 -17  -6   14.80    9.10
   3  17  -6    9.50   12.40
  -2 -17   6    0.30    7.30
   2 -17  -6   -0.70    6.00
   2  17  -6   11.00    8.40
  -1 -17   6   96.89   16.30
   1 -17  -6   99.69   12.90
  -1  17   6  118.89   10.30
   1  17  -6  108.19   17.30
   0 -17   6   14.00    8.00
   0  17  -6    4.50    7.70
   0  17   6   14.90    7.00
   1 -17   6   17.20   10.20
   1  17   6   29.20   10.10
   2 -17   6   12.90   14.90
   2  17   6    9.60    8.20
   3 -17   6   20.40   13.70
   3 -17   6   30.50   14.30
   3  17   6   16.10   13.30
   4 -18  -6   53.49   17.30
   4  18  -6    3.30   11.70
   3 -18  -6   67.39   15.50
  -3 -18   6   68.39   15.90
   3  18  -6   58.69   17.40
  -2 -18   6   22.00   10.80
   2 -18  -6   34.40    9.80
   2  18  -6   19.80   10.50
  -1 -18   6    5.30    7.90
  -1  18   6    7.40    5.00
   1  18  -6    8.30    7.50
   0 -18  -6   15.30    6.50
   0 -18   6   -8.90    7.40
   0  18   6   18.80    8.20
   0  18  -6    2.60    6.80
   1 -18   6   -2.90    9.00
   2 -18   6   34.80   15.10
   2  18   6   37.70   12.60
   3 -18   6   11.50   12.40
   3 -18   6   23.80   14.70
   3  18   6    0.40   11.00
   3 -19  -6   94.89   18.00
  -3 -19   6   38.70   13.50
   3  19  -6   92.69   19.70
   2 -19  -6  -11.40    7.10
  -2 -19   6   11.60    9.40
   2  19  -6   15.30    9.60
  -1 -19   6   62.59   16.30
   1 -19  -6   32.00    7.80
   1  19  -6   41.20   12.50
  -1  19   6   35.80    7.50
   0 -19   6  111.49   20.50
   0 -19  -6   88.49   11.90
   0  19  -6   93.79   16.40
   1 -19   6   54.69   16.50
   2 -19   6    2.40    9.10
   2  19   6   -7.30    8.70
  -3 -20   6   -3.70   10.70
   3 -20  -6   14.30   11.30
   3  20  -6    0.20   11.20
  -2 -20   6   24.20   12.00
   2 -20  -6   -0.40    8.90
   2  20  -6   12.00    9.90
   1 -20  -6   60.49   12.20
  -1 -20   6   53.49   14.60
  -1  20   6   46.20    8.40
   1  20  -6   57.99   14.50
   0 -20   6   42.80   16.60
   0 -20  -6   40.00    8.90
   0  20  -6   44.80   13.00
   1 -20   6   -3.30   10.80
   2 -20   6   50.99   17.80
  -2 -21   6  -14.80   11.40
   2 -21  -6   -7.20    9.70
   2  21  -6    9.40    9.20
  -1 -21   6   23.50   13.40
   1 -21  -6   30.00   10.30
   1  21  -6   22.10   14.30
   0 -21   6   22.30   12.20
   0  21  -6   17.90   10.90
   1 -21   6   46.20   16.60
   2 -22  -6   13.50   12.70
  -2 -22   6   17.50   11.80
  -1 -22   6  -17.90    9.90
   1 -22  -6    0.20    9.30
   1  22  -6    2.30    9.60
   0 -22   6  184.68   26.70
   0 -22  -6  135.39   22.50
   0  22   6  110.09   17.00
   1 -22   6   13.90   13.30
   6   0  -7   10.70    9.10
   6   0  -7  -11.20    7.20
   5   0  -7  215.98   22.00
   5   0  -7  256.97   20.50
   4   0  -7   -2.20    4.10
   4   0  -7   -0.60    3.70
   3   0  -7  511.45   28.10
   3   0  -7  534.15   26.10
   2   0  -7   -0.20    2.90
  -2   0   7    1.30    3.80
   2   0  -7   -0.60    2.70
  -1   0   7   95.99   10.00
  -1   0   7   78.79    8.50
  -1   0   7   71.79    9.20
   0   0   7    0.00    2.50
   0   0   7    2.10    2.80
   1   0   7   -0.10    3.60
   1   0   7    3.00    2.80
   2   0   7   -3.90    3.20
   3   0   7   40.40   13.30
   3   0   7   34.90    7.30
   4   0   7    1.10    5.70
   4   0   7    1.80    8.30
   5   0   7   78.49   21.10
   6  -1  -7   14.60    9.50
   6  -1  -7    9.60    9.20
   6   1  -7    5.50    9.20
   6   1  -7    6.90    9.50
   5  -1  -7    1.50    5.50
   5  -1  -7    2.90    6.60
   5   1  -7   -6.80    5.80
   5   1  -7    0.80    5.90
   4  -1  -7   56.59   10.80
   4  -1  -7   46.30    9.20
   4   1  -7   71.39   10.70
   4   1  -7   39.30    9.80
   3  -1  -7   -4.90    3.20
   3  -1  -7    5.20    3.60
   3   1  -7    1.80    3.40
   3   1  -7    1.20    4.00
   2  -1  -7  166.18   13.90
   2  -1  -7  154.88   12.70
   2   1  -7  182.48   14.30
   2   1  -7  174.68   14.00
   1  -1  -7   37.60    6.00
  -1  -1   7   38.10    7.30
   1   1  -7   29.10    7.20
  -1   1   7   39.20    6.80
  -1   1   7   30.40    6.30
   0  -1   7  756.52   29.30
   0  -1   7  740.43   30.40
   0   1   7  782.12   28.20
   0   1   7  802.22   29.60
   1  -1   7   36.70    6.40
   1  -1   7   40.30   10.50
   1   1   7   50.59   12.00
  -1   1  -7   50.09   10.30
   1   1   7   34.30    5.50
   1   1   7   30.40    5.60
   2  -1   7   48.30    9.30
   2   1   7   50.69    7.00
  -3  -1  -7  127.39   13.60
   3  -1   7  149.88   14.20
   3  -1   7  116.39   17.90
   3   1   7  125.79   11.40
   3   1   7  122.09   18.60
   4  -1   7  125.49   21.90
   4  -1   7  112.49   16.80
   4   1   7  126.89   20.30
   4   1   7  114.59   12.30
   5  -1   7   63.99   20.10
   5   1   7   86.39   14.30
   5   1   7   52.69   17.10
   6  -2  -7   -4.20    7.80
   6  -2  -7    2.40    9.50
   6   2  -7    1.90    9.00
   6   2  -7   15.00    9.70
   5  -2  -7   36.10   11.60
   5  -2  -7   31.00    8.70
   5   2  -7   22.70    8.30
   5   2  -7   35.20   10.60
   4  -2  -7    1.40    4.10
   4  -2  -7   -4.00    3.80
   4   2  -7   11.70    7.50
   4   2  -7   -2.10    3.90
   3  -2  -7   30.60    7.50
   3  -2  -7   46.00    7.70
   3   2  -7   42.30    7.80
   3   2  -7   35.20    9.30
   2  -2  -7  231.88   15.30
   2  -2  -7  240.98   16.70
   2   2  -7  257.87   17.70
   2   2  -7  265.17   17.50
   1  -2  -7  180.28   12.70
  -1  -2   7  166.68   14.40
   1   2  -7  168.98   14.20
  -1   2   7  167.08   12.50
  -1   2   7  173.88   13.30
   0  -2   7   99.79    9.50
   0  -2   7   94.79   10.00
   0   2   7   84.29    8.40
   0   2   7  106.99    8.40
   1  -2   7  120.89   11.20
   1   2   7   96.19    8.20
   1   2   7  101.99    7.90
   1   2   7  108.39   14.30
   2  -2   7    2.60    4.30
  -2  -2  -7    9.50    4.30
   2   2   7    7.00    3.50
   2   2   7    1.90    5.30
   3  -2   7  177.08   15.90
   3  -2   7  194.58   21.90
  -3  -2  -7  216.88   21.20
   3   2   7  151.38   11.60
   3   2   7  164.88   21.90
   4  -2   7    3.30    9.80
   4   2   7   -3.30    4.50
   4   2   7   -1.30    8.30
   5  -2   7   23.90   14.70
   5   2   7   17.10   13.40
   5   2   7   13.30    7.70
   6  -3  -7  -10.20    8.20
   6  -3  -7    8.30    7.70
   6   3  -7   -0.40    9.30
   6   3  -7   15.50   10.20
   5  -3  -7   30.30    9.10
   5  -3  -7   13.30    6.60
   5   3  -7    4.00    8.00
   5   3  -7   14.20    8.00
   4  -3  -7  106.99   14.80
   4  -3  -7  126.89   12.10
   4   3  -7  116.69   14.20
   4   3  -7  119.19   14.50
   3  -3  -7   25.50    5.70
   3  -3  -7   19.50    7.20
   3   3  -7   10.70    5.00
   3   3  -7   13.40    9.90
  -2  -3   7    8.80    5.10
   2  -3  -7    9.00    4.30
   2   3  -7   15.70    5.30
   2   3  -7   19.50    6.10
   1  -3  -7   11.30    3.80
  -1  -3   7   14.80    4.90
   1   3  -7   14.10    5.30
   0  -3   7  184.88   14.10
   0   3   7  142.69   14.60
   0   3   7  150.98   11.00
   0   3   7  176.68   11.10
   1  -3   7    5.80    3.50
   1   3   7   10.90    3.10
   1   3   7   14.00    3.40
   1   3   7   21.90    7.80
  -2  -3  -7   19.80    4.20
   2  -3   7   18.70    5.10
   2   3   7   10.00    3.50
   2   3   7   24.00    8.90
  -3  -3  -7   18.20    5.80
   3  -3   7   11.60    8.30
   3  -3   7   37.90    9.60
   3   3   7   13.30    8.50
   3   3   7   19.80    4.70
   4  -3   7  170.88   18.00
   4  -3   7  172.68   25.20
   4   3   7  162.18   12.30
   4   3   7  196.68   25.90
   5  -3   7    8.50   13.50
   5   3   7   11.50   11.80
   5   3   7   12.50    6.90
   6  -4  -7    6.30    9.90
   6   4  -7   -9.50    9.60
   6   4  -7   -3.10    8.90
   5  -4  -7   16.90    8.20
   5  -4  -7   20.90    7.20
   5   4  -7   52.09   12.80
   5   4  -7   26.90    8.60
   4  -4  -7    5.80    3.40
   4  -4  -7    3.40    4.50
   4   4  -7    7.20    5.20
   4   4  -7    2.80    4.60
   3  -4  -7   11.90    4.40
   3   4  -7    7.60    4.20
   3   4  -7   18.80    7.10
  -2  -4   7  106.39   12.40
   2  -4  -7  110.99   11.30
   2   4  -7  113.69   12.50
  -2   4   7  113.89   10.00
  -1  -4   7  254.57   18.00
   1  -4  -7  261.37   15.60
   1   4  -7  254.67   18.10
   0  -4   7   20.10    5.90
   0   4   7   14.40    6.30
   0   4   7   13.60    3.30
   0   4   7   16.40    4.20
   1  -4   7  200.28   16.30
   1   4   7  229.78   20.00
   1   4   7  236.48   10.70
   1   4   7  234.08   11.30
   2  -4   7   16.00    6.10
   2   4   7   14.00    2.70
   2   4   7   14.40    3.20
   2   4   7   14.70    8.20
   3  -4   7   75.59   11.40
  -3  -4  -7   55.39    7.00
   3  -4   7   79.59   18.10
   3   4   7   55.29    5.90
   3   4   7   76.79   16.30
   4  -4   7   16.50    7.40
   4  -4   7   13.70   11.60
   4   4   7    8.50    4.40
   4   4   7    1.30    9.10
   5  -4   7   19.00   15.00
   5   4   7   42.80   15.70
   6  -5  -7   26.30   13.50
   6   5  -7   20.70   10.90
   6   5  -7   13.90   11.60
   5  -5  -7   12.10    7.30
   5  -5  -7   23.00    7.00
   5   5  -7   13.60    9.00
   5   5  -7   25.30    9.30
   4  -5  -7  202.38   13.80
   4  -5  -7  221.78   20.90
   4   5  -7  206.98   19.40
   4   5  -7  189.38   18.90
   3  -5  -7    9.20    4.50
  -3  -5   7   16.90    7.90
   3   5  -7    9.70    5.00
   3   5  -7   21.80    7.10
   2  -5  -7   18.10    5.60
  -2  -5   7   18.50    6.70
  -2   5   7   25.90    5.60
   2   5  -7    7.40    5.20
   1  -5  -7   43.80    6.70
  -1  -5   7   68.09    9.00
  -1   5   7   70.09    9.60
   1   5  -7   63.29    9.40
   0  -5   7  525.95   27.20
   0   5   7  576.64   22.00
   0   5   7  544.15   20.70
   0   5   7  561.84   29.40
   1  -5   7   44.40    9.60
   1   5   7   43.80   10.70
   1   5   7   45.60    4.40
   1   5   7   43.70    4.30
   2  -5   7   25.40    9.50
   2  -5   7   24.20    7.90
   2   5   7   22.50    1.90
   2   5   7   13.70    8.00
   3  -5   7   12.80    6.30
   3  -5   7   17.50   10.20
   3   5   7    5.40    1.60
   3   5   7    3.40    6.60
   4  -5   7    8.60   10.10
  -4  -5  -7    6.70    4.80
   4  -5   7   16.40    9.40
   4   5   7   15.40    3.30
   4   5   7    3.20    9.80
   5  -5   7   18.70   12.90
   5   5   7    3.20   11.20
   6  -6  -7   50.09   14.70
   6   6  -7   26.70   13.50
   6   6  -7   27.20   12.60
   5  -6  -7    6.80    5.10
   5  -6  -7   -9.40    6.70
   5   6  -7    3.60    7.00
   5   6  -7    9.80    8.50
   4  -6  -7    7.50    4.00
   4  -6  -7   17.00    8.80
   4   6  -7    8.80    6.50
   4   6  -7    9.20    6.10
  -4   6   7    5.10    5.40
   3  -6  -7   15.80    6.40
  -3  -6   7   32.50    9.90
   3   6  -7   35.40    8.40
  -2  -6   7    7.70    5.60
   2  -6  -7   17.90    6.40
  -2   6   7   13.80    4.10
   2   6  -7   20.00    7.00
   1  -6  -7  365.16   18.50
  -1  -6   7  330.77   22.10
  -1   6   7  350.76   20.50
   1   6  -7  335.57   21.30
   0  -6  -7  119.49    8.40
   0  -6   7  102.59   11.80
   0   6   7   98.19    7.90
   0   6   7  130.39   13.70
   1  -6   7  188.48   16.30
   1   6   7  153.88   17.20
   1   6   7  160.08    7.10
   2  -6   7   -0.50    4.50
   2  -6   7    2.10    5.60
   2   6   7    5.20    5.60
   3  -6   7   85.19   14.40
   3  -6   7   76.79   15.30
   3   6   7   88.79   16.00
   4  -6   7  -16.60    8.40
   4  -6   7   -7.00    6.50
   4   6   7   -8.10    9.30
   5  -6   7   17.00   13.00
   5  -6   7   17.00   14.40
   5   6   7   21.60   12.80
   6  -7  -7   27.10   13.90
   6   7  -7   31.00   14.80
   6   7  -7   20.10   10.70
   5  -7  -7   -1.00    7.30
   5   7  -7   -3.50    7.20
   5   7  -7   -3.10    6.20
   4  -7  -7   92.99   14.80
  -4  -7   7   90.39   15.40
  -4   7   7   98.49    9.10
   4   7  -7  103.39   14.70
   3  -7  -7   27.20    8.40
  -3  -7   7   26.50    9.30
   3   7  -7   19.50    6.40
  -2  -7   7   72.19   10.80
   2  -7  -7   85.99   10.50
  -2   7   7   89.59    9.10
   2   7  -7   91.19   12.10
  -2   7   7   76.49    7.30
  -1  -7   7    1.30    4.50
   1  -7  -7    3.30    3.10
  -1   7   7    7.80    4.20
  -1   7   7    4.50    4.40
  -1   7   7   20.70    6.20
   1   7  -7    4.40    3.80
   0  -7   7    4.60    4.20
   0   7   7    4.20    2.70
   0   7  -7    4.00    4.10
   0   7   7   12.90    5.90
   1  -7   7  124.79   13.70
   1   7   7  117.49   15.40
   2  -7   7   -3.80    7.40
   2  -7   7   11.00    6.00
   2   7   7   26.50    9.30
   3  -7   7    2.40    6.10
   3  -7   7   -2.50    7.80
   3   7   7    7.80    7.40
   4  -7   7  133.09   18.50
   4  -7   7   84.09   19.00
   4   7   7  111.69   24.10
   5  -7   7  -18.00   12.10
   5   7   7  -10.40   12.70
  -6  -8   7    4.60   13.70
   6  -8  -7   -2.80    9.90
   6   8  -7   24.60   13.90
   5  -8  -7   43.00   12.40
  -5  -8   7   49.20   15.70
   5   8  -7   33.70   10.90
   4  -8  -7   -4.00    5.20
  -4  -8   7    6.20    7.90
   4   8  -7    2.30    5.40
   3  -8  -7  124.69   14.60
  -3  -8   7  168.18   18.10
  -3   8   7  147.09    9.10
   3   8  -7  152.18   16.50
  -2  -8   7    1.80    8.40
   2  -8  -7    2.00    3.70
  -2   8   7    2.50    3.00
   2   8  -7   -2.00    5.00
  -2   8   7    3.90    3.20
  -1  -8   7  158.58   16.00
   1  -8  -7  154.28   12.10
  -1   8   7  156.18   13.60
  -1   8   7  150.18   13.30
   1   8  -7  174.78   16.20
   0  -8  -7   28.70    6.50
   0  -8   7   24.50    7.80
   0   8   7   29.50    5.30
   0   8  -7   22.70    7.20
   0   8   7   29.50    8.30
   1  -8   7  333.77   24.00
   1   8   7  340.77   25.30
   2  -8   7  142.29   16.40
   2   8   7  130.09   17.40
   3  -8   7  184.78   20.00
   3  -8   7  215.48   23.70
   3   8   7  144.49   20.40
   4  -8   7   -1.70    7.80
   4  -8   7    6.20   10.20
   4   8   7   -2.60   12.90
  -6  -9   7    9.60   15.40
   5  -9  -7   10.10   16.30
  -5  -9   7   -6.90    9.10
   5   9  -7    8.00   10.60
  -4  -9   7  312.17   27.80
   4  -9  -7  299.47   25.70
   4   9  -7  327.37   27.20
   3  -9  -7    3.40    4.10
  -3  -9   7   21.00    8.80
   3   9  -7    3.40    5.80
   2  -9  -7    7.80    5.10
  -2  -9   7    8.10    5.80
  -2   9   7    5.70    3.60
   2   9  -7    5.90    6.10
  -1  -9   7    1.20    4.10
   1  -9  -7    2.60    2.80
  -1   9   7    3.80    4.40
   1   9  -7    2.70    3.70
  -1   9   7    3.20    4.10
   0  -9   7  119.49   14.40
   0   9   7  123.59    9.10
   0   9   7  128.89   14.10
   0   9  -7  131.89   14.70
   1  -9   7   -1.10    3.70
   1   9   7    3.30    4.60
   2  -9   7   82.89   13.60
   2   9   7   65.09   14.20
   3  -9   7   58.79   14.50
   3  -9   7   39.70   12.60
   3   9   7   72.99   16.40
   4  -9   7   53.89   16.00
   4  -9   7   47.80   13.80
   4   9   7   89.09   21.40
  -5 -10   7   -5.90   10.50
   5 -10  -7   -1.70    7.50
   4 -10  -7   20.70    9.00
  -4 -10   7   18.50    9.50
   4  10  -7    1.70    5.80
  -3 -10   7   -9.90    5.00
   3 -10  -7    0.20    5.60
   3  10  -7    2.80    5.90
  -2 -10   7   18.50    8.40
   2 -10  -7   14.90    6.10
   2  10  -7   32.50    8.60
  -2  10   7   18.90    6.40
  -2  10   7   15.20    4.20
   1 -10  -7  141.39   12.00
  -1 -10   7  126.39   14.90
  -1  10   7  143.39   12.50
   1  10  -7  159.58   16.10
   0 -10   7   20.80    6.50
   0  10   7   44.50   10.20
   1 -10   7    7.90    6.50
   1  10   7   34.60    9.50
   2 -10   7   67.39   13.00
   2  10   7   57.19   13.50
   3 -10   7  125.59   20.80
   3 -10   7  121.09   18.00
   3  10   7  118.89   22.30
   4 -10   7    5.30   10.00
   4 -10   7    2.00   11.40
   4  10   7   -9.50    9.70
   5 -11  -7   -9.30    9.20
  -5 -11   7    6.30    9.60
   5  11  -7    2.60    9.60
   4 -11  -7   45.60   12.00
  -4 -11   7   45.50   13.50
   4  11  -7   31.40   12.60
   3 -11  -7    8.30    5.70
  -3 -11   7    1.30    5.90
   3  11  -7    1.40    4.50
   2 -11  -7   40.70    8.80
  -2 -11   7   47.60   12.60
  -2  11   7   59.29    5.80
   2  11  -7   60.89   13.00
   1 -11  -7   27.00    6.40
  -1 -11   7   17.30    7.00
  -1  11   7   21.80    6.20
   1  11  -7   15.00    7.00
   0 -11  -7    3.20    2.90
   0 -11   7   15.80    6.90
   0  11   7    2.90    4.80
   0  11  -7   -1.70    4.10
   1 -11   7   -1.40    4.00
   1  11   7    4.30   11.10
   2 -11   7   13.60    6.70
   2  11   7   22.00   10.40
   3 -11   7   43.10   13.60
   3 -11   7   27.30   11.50
   3  11   7   46.20   13.40
   4 -11   7  106.99   20.80
   4 -11   7   77.79   19.30
   4  11   7   77.49   20.40
   5 -12  -7   45.00   12.40
  -5 -12   7  131.59   27.40
   5  12  -7   35.40   13.30
   4 -12  -7    4.80    8.30
  -4 -12   7   13.70   10.50
   4  12  -7   -0.30    7.80
   3 -12  -7   34.70    9.80
  -3 -12   7   32.30   10.80
   3  12  -7   39.70   11.30
  -2 -12   7    2.10    4.70
   2 -12  -7   -2.20    3.70
  -2  12   7   -4.60    2.10
   2  12  -7   -1.50    4.80
  -2  12   7    0.40    2.30
   1 -12  -7  161.88   13.20
  -1 -12   7  171.48   18.10
   1  12  -7  156.58   17.60
  -1  12   7  164.18   13.10
   0 -12   7   10.90    7.10
   0 -12  -7   14.10    3.90
   0  12  -7   34.00    9.30
   0  12   7   31.40    8.60
   0  12   7   23.80    6.90
   1 -12   7  279.97   23.90
   1  12   7  238.58   21.00
   2 -12   7   35.80   11.20
   2  12   7   12.60    7.20
   3 -12   7   13.60   11.70
   3 -12   7   -0.10    9.80
   3  12   7    8.50   10.90
   4 -12   7   -2.10    9.30
   4 -12   7   -5.10   11.40
   4  12   7    5.70   11.40
   5 -13  -7    3.50   10.30
  -5 -13   7    3.70   12.20
   5  13  -7    8.20    9.60
   4 -13  -7   57.89   14.80
  -4 -13   7   41.70   13.00
   4  13  -7   25.90   10.70
  -3 -13   7   74.49   16.30
   3  13  -7   96.09   16.30
  -2 -13   7   81.39   14.20
   2 -13  -7  107.09   14.10
   2  13  -7   52.89   12.20
  -2  13   7   67.59    3.00
  -2  13   7   90.09    3.90
   1 -13  -7   38.10    8.30
  -1 -13   7   34.20   10.40
  -1  13   7   43.70    7.70
   1  13  -7   36.00   10.80
   0 -13  -7  320.97   15.30
   0 -13   7  294.17   24.90
   0  13  -7  335.87   24.60
   0  13   7  330.77   22.50
   1 -13   7   28.10    9.30
   1  13   7   43.40   12.00
   2 -13   7   23.80    9.80
   2  13   7   56.99   15.00
   3 -13   7   20.60   11.60
   3 -13   7   61.39   15.70
   3  13   7    9.60   10.00
   4 -13   7  -15.40   10.10
   4 -13   7    2.30   14.70
   4  13   7   25.40   14.50
   5 -14  -7   92.79   18.60
  -5 -14   7    5.10   14.60
   5  14  -7   46.30   14.60
   4 -14  -7   15.20    9.00
  -4 -14   7  -11.50    8.30
   4  14  -7    1.00    8.50
   3 -14  -7  105.89   15.80
  -3 -14   7  104.79   16.40
   3  14  -7   91.79   15.90
  -2 -14   7   -5.80    5.90
   2 -14  -7    7.80    6.00
   2  14  -7    3.80    6.90
  -1 -14   7   10.30    6.20
   1 -14  -7    0.10    4.20
   1  14  -7    1.80    5.90
  -1  14   7    7.40    4.90
   0 -14   7    6.10    6.60
   0 -14  -7   16.10    4.60
   0  14  -7    1.10    5.30
   0  14   7    7.00    6.40
   1 -14   7   19.00    8.80
   1  14   7   11.80    6.00
   2 -14   7   25.00    8.60
   2  14   7    7.10    7.30
   3 -14   7   20.60   12.80
   3 -14   7    4.20    9.50
   4 -14   7   20.00   13.70
   4 -14   7   43.70   16.20
   4  14   7   32.50   15.20
  -4 -15   7   13.60   11.30
   4  15  -7   11.50   10.20
   3 -15  -7    7.60    7.80
  -3 -15   7   23.40    9.80
   3  15  -7    8.00    8.60
  -2 -15   7  122.19   17.30
   2 -15  -7  112.39   14.90
   2  15  -7  131.29   18.00
  -1 -15   7  142.59   17.20
   1 -15  -7  103.19   11.60
  -1  15   7  108.39   10.40
   1  15  -7   77.99   15.00
   0 -15   7  151.88   19.30
   0  15   7  108.19   11.00
   0  15   7  125.19   14.70
   0  15  -7  117.19   16.00
   1 -15   7   54.79   14.00
   1  15   7   45.10   12.90
   2 -15   7   55.19   16.00
   2  15   7   88.79   18.60
   3 -15   7   -5.80    8.60
   3 -15   7    0.90   12.20
   3  15   7    5.20    9.80
   4 -16  -7    1.90   10.40
  -4 -16   7   -3.40   10.20
   4  16  -7   -4.00    7.60
   3 -16  -7   22.10    9.90
  -3 -16   7   12.50   10.20
   3  16  -7   18.20    9.90
   2 -16  -7    6.30    6.70
  -2 -16   7   -4.80    7.60
   2  16  -7    0.50    7.60
   1 -16  -7   -0.50    5.00
  -1 -16   7    9.90    8.80
   1  16  -7   -2.80    5.50
  -1  16   7    0.20    4.30
   0 -16   7   10.80    8.10
   0  16  -7   13.30    7.10
   1 -16   7   90.89   17.20
   1  16   7   60.69   13.50
   2  16   7   13.60   10.30
   3 -16   7   80.69   18.50
   3 -16   7   69.39   18.60
   3  16   7   85.39   18.70
  -4 -17   7  108.59   20.90
   4 -17  -7  147.29   23.10
   4  17  -7   99.49   21.80
  -3 -17   7   17.20   11.60
   3 -17  -7   12.30    9.00
   3  17  -7   -3.10    7.80
   2 -17  -7   19.50    7.90
  -2 -17   7    7.10    8.90
   2  17  -7   28.30    8.60
  -1 -17   7   12.70    8.20
   1 -17  -7   20.10    7.00
  -1  17   7   18.70    6.40
   1  17  -7   22.20    9.20
   0 -17   7   29.60   12.00
   0  17   7   20.10    7.90
   0  17  -7   20.90    9.10
   1 -17   7   14.00    9.20
   1  17   7    5.00    7.50
   2 -17   7   36.80   13.30
   2  17   7   63.99   15.80
   3 -17   7   20.40   14.50
   3 -17   7    2.60   11.20
   3  17   7   18.50   11.30
  -4 -18   7  -13.80   12.70
  -3 -18   7   53.49   17.80
   3 -18  -7   57.79   13.60
   3  18  -7   53.19   15.90
  -2 -18   7   -7.90    9.50
   2 -18  -7   -5.70    6.80
   2  18  -7   -7.90    6.80
  -1 -18   7   63.99   14.90
   1 -18  -7   72.59   13.20
  -1  18   7   64.29    9.90
   1  18  -7   51.59   11.50
   0 -18   7   36.90   13.30
   0  18  -7   32.10   10.80
   0  18   7   27.70    9.30
   1 -18   7   17.70    9.60
   2 -18   7   -6.60    8.00
   2  18   7    5.00   10.20
   3 -19  -7   35.20   13.40
  -3 -19   7   14.10   13.40
   3  19  -7   68.69   17.60
   2 -19  -7   91.29   16.90
  -2 -19   7   82.69   28.90
   2  19  -7   58.79   13.70
   1 -19  -7   -2.20    6.80
  -1 -19   7    0.00   10.00
   1  19  -7    7.60    8.10
  -1  19   7  -12.70    5.10
   0 -19   7   40.40   14.00
   0  19  -7   25.20   10.10
   1 -19   7   -7.60    9.10
   1  19   7   16.90   10.00
   2 -19   7   22.30   11.70
   2  19   7    8.30   13.50
   3 -20  -7   10.00   11.40
  -3 -20   7    8.80   12.00
   3  20  -7    8.80   14.20
  -2 -20   7  -12.40   10.30
   2 -20  -7    1.20    8.90
   2  20  -7   -2.30    8.80
  -1 -20   7   38.20   14.50
   1 -20  -7   33.00   10.30
  -1  20   7   48.90    8.90
   0 -20   7    2.10   10.40
   0  20  -7   18.90   11.20
   1 -20   7   86.49   18.10
   2 -21  -7    9.00   10.60
  -2 -21   7   46.70   18.70
   2  21  -7    3.90   11.80
  -1 -21   7   12.20   11.90
   1  21  -7   12.70    9.20
   0 -21   7   19.60   15.10
   0  21   7   22.40    9.90
   1 -21   7   -6.60   11.00
   6   0  -8   16.20   10.70
   6   0  -8   12.60    8.70
   5   0  -8   -4.90    5.60
   5   0  -8   -4.80    6.00
   4   0  -8   68.19   13.40
   4   0  -8   55.99   10.60
   3   0  -8   -1.50    3.30
   3   0  -8    3.70    4.00
   2   0  -8  139.59   12.90
   2   0  -8  126.99   12.40
  -1   0   8   -0.90    2.90
   0   0   8  138.19   12.60
   1   0   8    0.60    2.50
   1   0   8   -4.00    5.40
   2   0   8  345.57   20.20
   2   0   8  352.96   28.30
   3   0   8   -0.70    7.60
   3   0   8   -0.30    4.10
   4   0   8   73.29   20.30
   5   0   8   -1.10    8.50
   5   0   8   -9.60   14.30
   6  -1  -8   -5.90    9.20
   6  -1  -8    7.10    9.60
   6   1  -8   -2.40    7.70
   6   1  -8   -0.30   10.10
   5  -1  -8    5.10    8.90
   5  -1  -8   19.50    8.40
   5   1  -8   37.40   12.60
   5   1  -8   28.40    9.40
   4  -1  -8    6.80    5.40
   4  -1  -8    2.40    5.00
   4   1  -8   10.10    7.70
   4   1  -8   11.40    4.30
   3  -1  -8  130.89   12.70
   3  -1  -8  126.89   13.90
   3   1  -8  115.79   12.90
   3   1  -8  135.29   14.30
   2  -1  -8   28.70    7.20
   2  -1  -8   39.40    7.60
   2   1  -8   16.40    5.60
   2   1  -8   37.90    8.50
  -1  -1   8    2.50    3.80
  -1   1   8    2.10    3.10
   0  -1   8    4.00    3.20
   0   1   8   12.00    4.60
   0   1   8    0.20    5.00
   1  -1   8  271.07   17.70
   1  -1   8  314.57   24.80
   1   1   8  310.27   24.90
   1   1   8  274.07   15.50
  -1   1  -8  282.57   18.20
   1   1   8  301.17   17.00
  -2  -1  -8    4.60    4.70
   2  -1   8    9.50    7.00
   2  -1   8   11.90    5.50
   2   1   8    3.30    6.80
   2   1   8   -3.70    3.20
   3  -1   8  111.69   18.60
   3  -1   8   79.89   11.10
   3   1   8  102.59   19.30
   3   1   8   76.09    9.80
   4  -1   8    5.20   10.80
   4  -1   8   -3.40    6.90
   4   1   8    0.00    9.90
   4   1   8   -8.20    4.80
   5  -1   8   39.40   19.40
   5  -1   8   38.40   13.70
   5   1   8   57.19   12.20
   5   1   8   93.49   22.60
   6  -2  -8   24.80   11.70
   6  -2  -8   32.70    9.60
   6   2  -8   26.50   11.40
   6   2  -8    8.10    9.80
   5  -2  -8   21.50    7.50
   5  -2  -8   11.80    6.10
   5   2  -8   21.20    9.30
   5   2  -8    9.10    7.00
   4  -2  -8   99.09   13.90
   4  -2  -8   89.09   11.50
   4   2  -8   89.29   13.40
   4   2  -8   79.79   13.00
   3  -2  -8   -0.20    4.30
   3  -2  -8   -1.20    4.00
   3   2  -8   -3.80    4.00
   3   2  -8    2.30    4.00
  -2  -2   8  157.08   15.40
   2  -2  -8  117.89   12.20
   2   2  -8  130.69   13.50
   2   2  -8  123.09   12.80
   1  -2  -8    3.60    2.50
  -1  -2   8   -1.50    2.30
   0  -2   8  238.98   16.70
   0   2   8  221.08   13.70
   0   2   8  219.38   14.50
   1  -2   8    2.40    3.70
   1   2   8   -1.70    2.70
   1   2   8    0.50    2.80
   1   2   8    0.50    5.60
   2  -2   8   63.59   10.00
  -2  -2  -8   43.40    8.30
   2  -2   8   38.20   10.60
   2   2   8   42.10   13.10
   2   2   8   42.20    6.80
   3  -2   8  139.09   20.40
   3  -2   8  140.89   14.50
   3   2   8  166.88   22.80
   4  -2   8   88.39   20.70
   4  -2   8   95.79   13.40
   4   2   8   75.19   10.30
   4   2   8   72.69   17.90
   5  -2   8   93.49   22.40
   5   2   8   29.60   17.80
   6  -3  -8   -0.70    9.00
   6   3  -8  -10.70   10.00
   6   3  -8    4.20    9.30
   5  -3  -8   54.89   13.00
   5  -3  -8   61.79   11.00
   5   3  -8   70.19   14.00
   5   3  -8   69.59   13.00
   4  -3  -8   -1.80    4.00
   4  -3  -8   -2.90    4.80
   4   3  -8    7.80    5.80
   4   3  -8   -5.40    4.40
   3  -3  -8  149.19   15.30
   3  -3  -8  168.18   14.00
   3   3  -8  167.68   16.00
  -2  -3   8   97.39   12.80
   2  -3  -8  111.09   12.00
  -2   3   8  112.59   11.10
   2   3  -8   98.39   11.80
   1  -3  -8   39.70    6.70
  -1  -3   8   50.59    8.30
   1   3  -8   54.39    9.00
   0  -3   8   27.30    7.10
   0   3   8   29.80    5.80
   0   3   8   21.10    7.60
   1  -3   8  165.18   14.80
   1   3   8  170.78   10.50
   1   3   8  138.39   17.40
   1   3   8  171.08   11.30
   2  -3   8   43.50    9.90
   2  -3   8   44.70   13.20
   2   3   8   40.60    6.00
   2   3   8   13.60    8.50
   2   3   8   35.40    5.50
   3  -3   8   51.29   15.10
   3  -3   8   39.90   10.50
   3   3   8   71.49   15.40
   3   3   8   36.50    6.30
   4  -3   8    4.40   11.30
   4  -3   8   -1.30    6.70
   4   3   8    3.00   11.10
   4   3   8    5.50    4.70
   5  -3   8   -2.40   12.70
   5  -3   8    8.30   10.70
   5   3   8    1.90   14.70
   6  -4  -8    3.40   10.30
   6  -4  -8   24.40   16.20
   6   4  -8    8.10   10.60
   6   4  -8    0.60    9.20
   5  -4  -8   33.10    8.80
   5  -4  -8   19.40   10.50
   5   4  -8   33.40   10.10
   5   4  -8   16.70    9.50
   4  -4  -8   69.49   12.90
   4  -4  -8   70.79   10.00
   4   4  -8   75.69   13.10
   4   4  -8   87.19   13.50
   3  -4  -8    2.30    4.40
   3   4  -8    0.60    4.20
   2  -4  -8   42.50    8.10
  -2  -4   8   44.40   10.50
   2   4  -8   32.60    7.80
   1  -4  -8   15.60    4.90
  -1  -4   8   27.10    7.40
  -1   4   8   12.50    4.60
   1   4  -8   12.90    6.00
   0  -4   8  356.86   21.90
   0   4   8  345.97   18.80
   0   4   8  330.47   23.80
   0   4   8  367.96   18.10
   1  -4   8    0.30    4.20
   1   4   8   -1.40    2.30
   1   4   8    2.20    5.20
   1   4   8    4.80    4.40
   2  -4   8  163.88   19.70
   2  -4   8  142.49   14.80
   2   4   8  142.69    8.30
   2   4   8  134.19    8.40
   2   4   8  138.99   19.10
   3  -4   8   10.50    6.40
   3  -4   8    6.20    8.10
   3   4   8    2.70    8.80
   3   4   8    1.80    3.00
   3   4   8    3.90    4.30
   4  -4   8   24.60   12.30
   4  -4   8   29.20   10.60
   6  -5  -8   44.80   13.90
   6   5  -8   23.00   12.50
   6   5  -8   29.50   16.00
   5  -5  -8   16.10    7.70
   5  -5  -8    4.20    6.50
   5   5  -8    7.40    8.20
   5   5  -8   -0.80    6.90
   4  -5  -8   25.00    9.50
   4  -5  -8   23.90    6.60
   4   5  -8   25.50    9.00
   4   5  -8   15.90    7.90
  -4   5   8   12.20    9.20
   3  -5  -8   39.50    9.80
  -3  -5   8   48.00   12.30
   3   5  -8   32.10    9.50
  -2  -5   8   28.70    9.10
   2  -5  -8   42.30    7.50
  -2   5   8   32.10    6.50
   2   5  -8   29.40    8.00
   1  -5  -8  127.19   11.00
  -1  -5   8  120.49   13.60
  -1   5   8   89.99   10.10
   1   5  -8  112.39   13.00
  -1   5   8  143.49   14.50
   0  -5   8   12.20    5.10
   0   5   8    6.20    6.40
   0   5   8   16.40    3.90
   0   5   8   15.90    4.90
   1  -5   8   64.29   10.40
   1   5   8   61.69    6.20
   1   5   8   56.79   12.90
   2  -5   8   67.59   11.10
   2  -5   8   50.89   11.50
   2   5   8   63.19    4.10
   2   5   8   63.99   14.50
   3  -5   8   41.10   12.50
   3  -5   8   16.00    8.50
   3   5   8   31.00   11.40
   4  -5   8   -2.00   11.90
   4  -5   8    6.60    8.90
   4   5   8    7.60   11.50
   6  -6  -8    4.80   10.80
   6   6  -8   -2.90   10.70
   6   6  -8   -4.10   10.10
   5  -6  -8   20.30    8.80
   5   6  -8   11.40    8.20
   5   6  -8   12.10    9.90
  -4  -6   8   52.49   13.50
   4  -6  -8   53.19   13.10
   4   6  -8   57.79   12.80
   4   6  -8   33.80    8.90
  -3  -6   8   11.40    6.10
   3  -6  -8   11.20    6.20
   3   6  -8    8.70    5.40
   2  -6  -8   12.40    5.30
  -2  -6   8   23.60    7.80
   1  -6  -8   25.30    6.00
  -1  -6   8   27.00    8.50
  -1   6   8   31.80    8.00
  -1   6   8   19.60    7.00
   1   6  -8   31.90    8.10
   0  -6   8  259.27   20.00
   0   6   8  302.77   22.30
   0   6   8  247.08   13.50
   0   6   8  268.97   14.80
   1  -6   8  127.29   14.40
   1   6   8  135.19    7.60
   1   6   8  138.19    7.20
   1   6   8  184.68   22.00
   2  -6   8   30.90    8.90
   2  -6   8   33.50   13.00
   2   6   8   40.00   12.90
   3  -6   8    6.20    9.20
   3  -6   8    3.30    6.90
   3   6   8   16.60    9.20
   4  -6   8   20.60   13.70
   4  -6   8   54.99   13.50
   4   6   8   31.90   15.00
   6  -7  -8   10.10   10.10
  -6  -7   8   10.50   15.30
   6   7  -8   25.30   12.10
   6   7  -8    4.00   10.60
   5  -7  -8   91.79   25.70
  -5  -7   8  103.19   18.90
   5   7  -8   98.19   17.10
   5   7  -8   91.89   18.20
  -4  -7   8   -1.20    7.20
   4  -7  -8    0.30    6.10
   4   7  -8    3.20    6.90
  -4   7   8   -7.20    4.90
  -3  -7   8  211.58   21.70
   3  -7  -8  172.38   17.70
   3   7  -8  218.48   20.70
   2  -7  -8   11.50    6.10
  -2  -7   8   21.20    7.70
   2   7  -8   12.90    5.70
  -2   7   8   17.80    6.20
  -1  -7   8  186.28   17.80
   1  -7  -8  210.48   14.60
  -1   7   8  219.78   17.20
   0  -7   8   20.80    8.40
   0   7   8   37.90   10.20
   0   7   8   28.70    5.60
   0   7   8   38.20    6.10
   1  -7   8   13.90    8.30
   1   7   8   16.00    2.30
   2  -7   8    8.50    7.00
   2  -7   8    9.90    8.10
   2   7   8   13.00    7.60
   3  -7   8    0.80    9.10
   3  -7   8   -1.50    6.70
   3   7   8    6.40    8.90
   4  -7   8  -11.70   11.10
   4  -7   8    2.70    9.20
   4   7   8  -12.10   11.00
  -5  -8   8    0.50   10.10
   5  -8  -8   11.00    9.80
   5   8  -8    6.50    8.70
   4  -8  -8   44.80   11.40
  -4  -8   8   59.89   14.00
   4   8  -8   69.59   14.60
  -4   8   8   68.39    7.30
  -3  -8   8    4.30    6.30
   3  -8  -8   10.70    6.90
   3   8  -8    7.80    5.80
  -3   8   8    4.90    3.80
   2  -8  -8    3.00    4.10
  -2  -8   8   -5.10    4.10
   2   8  -8   -1.70    5.00
  -2   8   8    0.50    3.90
  -1  -8   8   -0.10    4.30
   1  -8  -8    1.10    3.20
  -1   8   8    9.50    5.20
   1   8  -8    2.10    3.90
  -1   8   8    2.50    4.10
   0  -8   8  111.19   14.50
   0   8   8  135.69   15.60
   0   8   8   93.99    8.50
   1  -8   8    3.60    4.90
   1   8   8   -1.90    5.40
   2  -8   8  494.75   34.90
   2  -8   8  484.95   31.60
   2   8   8  505.85   35.40
   3  -8   8   -5.50    9.70
   3  -8   8   -6.80    7.00
   3   8   8    4.90    9.50
   4  -8   8   93.79   20.70
   4  -8   8   65.39   15.10
   4   8   8   60.39   16.20
  -5  -9   8   -9.10   11.00
   5  -9  -8   15.40   11.50
   5   9  -8   -7.00   10.90
  -4  -9   8    8.60    9.10
   4  -9  -8    6.80    6.60
   4   9  -8   14.00    7.40
   3  -9  -8  140.49   15.40
  -3  -9   8  126.29   17.30
   3   9  -8  138.79   18.00
  -3   9   8  136.89    9.20
  -3   9   8  136.39   11.40
   2  -9  -8    0.50    3.30
  -2  -9   8   -0.60    4.90
   2   9  -8   11.70    6.50
  -2   9   8    8.80    4.80
  -1  -9   8   56.29   12.20
   1  -9  -8   47.30    7.80
   1   9  -8   22.60    7.70
  -1   9   8   48.20   10.10
   0  -9  -8   16.90    4.20
   0  -9   8   22.10    7.00
   0   9   8   15.80    6.20
   1  -9   8   23.20    8.50
   1   9   8   27.80   10.20
   2  -9   8   16.50    7.60
   2   9   8   18.90    9.20
   3  -9   8  100.89   16.10
   3  -9   8   69.99   16.30
   3   9   8   49.30   14.40
   4  -9   8  -27.20    8.30
   4  -9   8   14.20   13.20
   4   9   8    2.80   11.10
   5 -10  -8   -2.80   11.10
  -5 -10   8   -1.10   14.00
   5  10  -8    0.50    9.30
   4 -10  -8  147.49   18.80
  -4 -10   8  169.88   21.50
   4  10  -8  208.08   22.80
  -3 -10   8   20.20    9.40
   3 -10  -8   16.00    6.90
   3  10  -8   32.30   10.40
  -2 -10   8   43.60   11.60
   2 -10  -8   19.90    6.60
   2  10  -8   30.00    8.20
  -2  10   8   13.80    5.40
  -2  10   8   24.20    6.50
   1 -10  -8   73.89    9.30
  -1 -10   8   73.99   13.00
   1  10  -8   66.99   13.10
  -1  10   8   61.89   10.60
   0 -10  -8  126.29    8.80
   0 -10   8  139.09   16.30
   0  10   8  133.09   16.00
   0  10  -8  107.09   14.20
   0  10   8  104.79    8.90
   1 -10   8   20.50    9.20
   1  10   8   24.50    9.00
   2 -10   8   -4.80    5.70
   2  10   8   -6.20    6.10
   3 -10   8   23.00   11.50
   3 -10   8   31.30   11.90
   3  10   8   34.60   14.10
   4 -10   8   -4.20   12.10
   4 -10   8   35.50   12.70
   4  10   8   20.50   14.20
  -5 -11   8   13.20   12.40
   5 -11  -8   32.80   12.50
   5  11  -8   27.40   13.30
  -4 -11   8   21.30   10.90
   4 -11  -8   15.20    8.80
   4  11  -8   10.40    7.70
   3 -11  -8   61.49   13.10
  -3 -11   8   33.00   11.10
   3  11  -8   29.70    9.50
   2 -11  -8   58.79    9.90
  -2 -11   8   48.10   12.40
  -2  11   8   63.79    7.90
   2  11  -8   49.99   11.90
  -2  11   8   55.29    7.60
  -1 -11   8   26.60    9.50
   1 -11  -8   14.50    5.60
   1  11  -8   32.20    9.80
  -1  11   8   31.40    8.30
   0 -11  -8    1.40    2.80
   0 -11   8   -0.60    5.20
   0  11   8   -0.40    4.60
   0  11  -8    7.10    5.40
   1 -11   8   63.59   15.00
   1  11   8   31.30   11.20
   2 -11   8  -11.90    5.80
   2  11   8    0.10    7.90
   3 -11   8   22.30   12.90
   3 -11   8   26.00   10.40
   3  11   8   30.60   12.60
   4 -11   8    4.80   10.20
   4 -11   8   11.40   11.20
   4  11   8   -8.90   10.30
   5 -12  -8   10.60   10.20
  -5 -12   8    8.90   14.00
   5  12  -8   -7.50    9.10
   4 -12  -8    9.70    8.30
  -4 -12   8   12.30    9.30
   4  12  -8    1.20    8.10
  -3 -12   8   42.50   13.40
   3 -12  -8   66.79   12.20
   3  12  -8   37.50   11.20
   2 -12  -8   42.90   12.30
  -2 -12   8   52.49   12.10
  -2  12   8   34.60    6.40
   2  12  -8   42.90   12.40
   1 -12  -8   48.20    8.50
  -1 -12   8   54.79   12.40
   1  12  -8   53.59   12.70
  -1  12   8   49.99    9.20
   0 -12   8  167.38   19.00
   0 -12  -8  188.48   10.70
   0  12   8  151.08   16.40
   0  12  -8  188.88   19.40
   1 -12   8   15.60    8.50
   1  12   8    8.10    7.70
   2 -12   8   22.10   10.80
   2  12   8   30.40   10.90
   3 -12   8    4.90    8.90
   3 -12   8   22.10   13.50
   4 -12   8   42.30   15.60
   4 -12   8   47.90   18.20
   4  12   8   50.49   17.80
  -5 -13   8   20.30   14.60
   5 -13  -8  -11.40    9.50
   5  13  -8  -14.80   11.10
  -4 -13   8   25.30   11.50
   4 -13  -8    0.30    8.40
   4  13  -8   -1.00    8.10
   3 -13  -8   43.00   10.40
  -3 -13   8   62.49   13.50
   3  13  -8   20.50    9.50
   2 -13  -8    7.00    5.10
  -2 -13   8   11.50    8.30
  -2  13   8    7.60    3.50
  -2  13   8    5.90    3.90
   2  13  -8    5.60    8.10
   1 -13  -8   61.89    9.60
  -1 -13   8   82.59   13.50
   1  13  -8   38.50   10.10
  -1  13   8   70.49    9.70
   0 -13  -8   13.70    6.20
   0 -13   8    5.20    7.90
   0  13   8   17.90    7.60
   0  13  -8    4.30    5.60
   1 -13   8  183.18   21.20
   1  13   8  226.68   21.80
   2 -13   8   74.19   15.70
   2  13   8   66.09   14.40
   3 -13   8   43.00   17.10
   3 -13   8   37.20   13.80
   3  13   8   54.59   15.00
  -4 -14   8   31.70   14.90
   4 -14  -8   19.50   12.20
   4  14  -8   32.70   11.50
  -3 -14   8    1.10    9.00
   3 -14  -8    7.30    6.90
   3  14  -8   -5.70    7.70
  -2 -14   8  174.58   20.70
   2 -14  -8  163.28   16.60
   2  14  -8  151.78   19.90
  -2  14   8  138.09    7.80
  -2  14   8  157.28    7.90
   1 -14  -8   77.19   10.60
  -1 -14   8   73.09   15.40
  -1  14   8  132.59   12.70
   1  14  -8   75.09   13.90
   0 -14   8  111.89   18.20
   0  14   8  120.39   10.40
   0  14  -8  133.79   18.30
   0  14   8  157.28   16.60
   1 -14   8   12.90    8.60
   1  14   8    4.40    7.70
   2 -14   8   19.90   10.50
   2  14   8   28.10   11.80
   3 -14   8  -17.90   10.60
   3 -14   8    6.90   14.00
   3  14   8   -1.00   11.20
   4 -15  -8   14.30   11.10
  -4 -15   8   13.20   12.50
   4  15  -8    9.30   10.50
  -3 -15   8   29.60   12.10
   3 -15  -8   41.90   13.30
   3  15  -8   53.59   13.30
  -2 -15   8   20.50    8.50
   2 -15  -8   13.50    7.50
   2  15  -8    5.50    8.60
  -1 -15   8    4.80    7.80
   1 -15  -8    2.20    4.90
  -1  15   8    2.00    5.00
   1  15  -8   18.50    8.90
   0 -15  -8   -1.40    3.70
   0 -15   8   -1.50    7.30
   0  15  -8  -10.80    6.00
   0  15   8    4.10    4.80
   1 -15   8   10.40    7.70
   1  15   8    5.60    8.50
   2 -15   8   -1.60   12.30
   2  15   8    1.10    8.70
   3 -15   8  -22.50    9.40
   3 -15   8   -6.00   13.50
   3  15   8   13.20   11.90
   4 -16  -8   28.30   13.90
  -4 -16   8   24.00   12.40
   4  16  -8   19.70   10.10
  -3 -16   8    7.20   10.10
   3 -16  -8   -0.40    8.30
   3  16  -8   12.20   10.70
  -2 -16   8   25.40   11.50
   2 -16  -8   34.40    9.10
   2  16  -8   14.40    8.40
   1 -16  -8    8.80    6.10
  -1 -16   8   -1.30    7.90
  -1  16   8    6.70    5.20
   1  16  -8    3.20    7.30
   0 -16   8   17.00    8.30
   0  16  -8   45.50   13.10
   1 -16   8   -6.00    6.90
   1  16   8   -3.90    7.70
   2 -16   8    2.40    9.30
   2  16   8    1.40    9.30
   3 -16   8   16.40   12.40
   3 -16   8   13.40   14.40
   3  16   8    3.30   12.40
  -4 -17   8   20.80   12.10
   4 -17  -8    0.10   11.10
   4  17  -8   16.10   12.40
   3 -17  -8   36.50   14.00
  -3 -17   8   65.49   17.90
   3  17  -8   47.60   14.50
  -2 -17   8   17.80   11.00
   2 -17  -8    2.30    8.00
   2  17  -8   14.50    9.80
  -1 -17   8   -2.20    8.10
   1 -17  -8  -12.50    5.10
  -1  17   8   -4.10    4.90
   1  17  -8   -3.20    7.70
   0 -17   8   -3.40    7.50
   0  17   8    4.30    6.50
   0  17  -8    4.10    9.20
   1 -17   8   89.99   19.50
   2 -17   8   -8.20   10.50
   2  17   8   -2.60    9.30
   3 -18  -8   23.50   12.90
  -3 -18   8    5.90   10.70
   3  18  -8   -2.40    9.30
  -2 -18   8   66.39   17.30
   2  18  -8   52.09   14.90
   1 -18  -8   26.10    9.20
   1  18  -8   19.10   10.40
  -1  18   8   21.80    7.10
   0 -18   8   12.00   10.70
   0  18  -8   28.20   10.10
   0  18   8   20.50    8.60
   1 -18   8    2.30    9.60
   1  18   8    7.40    9.50
   2 -18   8   23.80   11.90
   2  18   8   28.60   13.90
   3 -19  -8   15.10   24.70
  -3 -19   8   23.20   11.60
   3  19  -8   18.70   12.30
  -2 -19   8   18.10   11.90
   2 -19  -8   19.70   10.10
   2  19  -8   13.50    9.60
   1 -19  -8   53.99   13.10
  -1 -19   8   64.09   16.00
  -1  19   8   56.79    9.70
   1  19  -8   42.30   14.10
   0 -19   8   -5.40    9.20
   0 -19  -8    5.10    5.40
   0  19  -8   -2.70    9.40
   1 -19   8   21.60   14.10
   2 -20  -8   36.40   12.90
  -2 -20   8   44.60   16.20
   2  20  -8   67.79   17.50
  -1 -20   8    6.20   13.40
  -1  20   8   -1.40    7.30
   1  20  -8    5.70   10.60
   0 -20   8   57.29   18.80
   0  20  -8   49.10   14.00
   1 -20   8  -21.30   10.40
  -1 -21   8   27.90   15.60
   1 -21  -8   67.09   16.00
   1  21  -8   69.99   16.10
   0 -21   8   34.60   15.90
   0  21   8   48.00   11.50
   0  21  -8   45.50   13.70
   6   0  -9   -1.30    8.30
   6   0  -9   -6.50    9.50
   5   0  -9    9.70    7.50
   5   0  -9   -0.80    6.30
   4   0  -9    1.00    7.10
   4   0  -9   -3.60    4.00
   3   0  -9   13.40    5.40
   3   0  -9   28.00    7.90
   2   0  -9    0.60    4.20
   2   0  -9    4.70    4.70
  -1   0   9    5.10    4.10
   0   0   9   -0.70    4.20
   1   0   9  122.89   12.10
   2   0   9    0.30    3.90
   2   0   9    4.20    6.50
   3   0   9  172.68   24.40
   3   0   9  180.38   15.20
   4   0   9   -4.30   11.00
   6  -1  -9   29.00   11.60
   6  -1  -9   66.79   15.70
   6   1  -9   44.10   13.50
   6   1  -9   18.20   10.30
   5  -1  -9   -4.80    5.70
   5  -1  -9    3.30    7.10
   5   1  -9   -5.50    5.40
   5   1  -9   -0.50    6.80
   4  -1  -9   59.79   10.90
   4  -1  -9   62.59   12.20
   4   1  -9   73.49   13.00
   4   1  -9   51.49   10.50
   3  -1  -9  171.38   15.40
   3  -1  -9  177.98   17.40
   3   1  -9  177.98   17.40
   3   1  -9  129.69   15.20
  -2  -1   9   24.30    8.20
   2  -1  -9   20.10    7.00
   2   1  -9   23.00    7.30
   2   1  -9   16.20    4.90
  -1  -1   9    8.00    4.60
  -1   1   9   13.70    4.50
   0  -1   9  109.89   12.10
   0   1   9  109.59   11.90
   1  -1   9  144.59   13.50
   1  -1   9  127.99   18.10
   1   1   9  136.39   17.80
   1   1   9  133.09   12.30
   2  -1   9   66.09   15.70
   2  -1   9   66.69   10.50
   2   1   9   71.89    9.70
   2   1   9   90.09   16.30
   3  -1   9   27.80   11.40
   3  -1   9   25.50    7.70
   3   1   9   25.20    7.10
   3   1   9   28.70   14.10
   4  -1   9   43.00   16.60
   4   1   9   24.20   12.80
   4   1   9   26.50    7.70
   6  -2  -9    7.70    9.70
   6   2  -9   15.90   10.10
   6   2  -9   21.40   12.00
   5  -2  -9   23.60    9.00
   5  -2  -9   37.80   11.30
   5   2  -9   46.50   13.40
   5   2  -9   37.80   10.70
   4  -2  -9   15.90    6.50
   4  -2  -9   17.50    6.10
   4   2  -9   14.50    6.60
   4   2  -9    6.60    6.00
   3  -2  -9  655.23   34.20
   3  -2  -9  684.73   31.60
   3   2  -9  615.94   33.70
   2  -2  -9   32.00    7.70
  -2  -2   9   21.40   14.00
   2   2  -9   37.80    8.90
  -1  -2   9    9.60    6.00
  -1   2   9   -0.70    3.90
   0  -2   9    3.60    4.30
   0   2   9    6.90    7.80
   0   2   9    8.20    4.60
   1  -2   9  153.48   14.80
   1  -2   9  201.58   21.50
   1   2   9  183.18   13.70
   1   2   9  203.58   21.10
   2  -2   9   11.70    5.80
   2  -2   9   12.20    8.30
   2   2   9   -1.20    8.10
   2   2   9    6.70    3.90
  -3  -2  -9   22.70    8.00
   3  -2   9   30.80   14.80
   3   2   9   27.60    6.70
   3   2   9   17.90   11.00
   4  -2   9   10.20   11.70
   4  -2   9    4.80    7.90
   4   2   9    3.50    5.70
   4   2   9   10.30   11.10
   6  -3  -9   12.50   12.60
   6   3  -9   56.29   16.00
   6   3  -9   42.20   12.70
   5  -3  -9   21.60   10.70
   5  -3  -9   15.40    6.60
   5   3  -9   19.30    8.80
   5   3  -9    1.30    6.80
   4  -3  -9   18.90    9.20
   4  -3  -9   19.00    7.00
   4   3  -9   41.00   10.00
   4   3  -9   14.70    8.00
   3  -3  -9   11.70    5.70
   3   3  -9    1.50    4.70
   3   3  -9   11.20    5.30
   2  -3  -9  220.98   17.20
  -2  -3   9  216.88   20.00
   2   3  -9  317.57   22.10
  -1  -3   9   49.00    9.50
  -1   3   9   43.20    9.10
   0  -3   9  457.95   25.90
   0   3   9  433.06   29.50
   0   3   9  464.05   21.90
   0   3   9  468.25   22.90
   1  -3   9   24.60    6.20
   1   3   9   24.30    5.50
   1   3   9    8.80    7.50
   2  -3   9   27.00   12.90
   2  -3   9   18.60    7.60
   2   3   9   19.00    5.30
   2   3   9    5.90    7.80
   3  -3   9   10.20    6.80
   3  -3   9   10.40   10.50
   3   3   9   31.10   15.50
   3   3   9    3.20    4.80
   4  -3   9   31.70   10.40
   4  -3   9   42.40   16.70
   4   3   9   25.50   14.00
   4   3   9   36.10    6.90
   6  -4  -9    4.60    9.00
   6   4  -9    1.80   10.30
   5  -4  -9    1.70    6.90
   5  -4  -9   -3.50    7.10
   5   4  -9    1.70    7.10
   5   4  -9   -0.30    7.50
   4  -4  -9    6.00    6.50
   4  -4  -9   -0.30    4.60
   4   4  -9   -3.10    4.40
   4   4  -9   -1.30    5.20
  -3  -4   9   32.80    9.70
   3  -4  -9   34.10    8.40
   3   4  -9   25.80    8.00
  -2  -4   9   -0.20    4.10
   2  -4  -9    0.70    3.60
   2   4  -9   -2.00    4.70
  -1  -4   9   59.69   11.00
   1  -4  -9   55.19    8.30
   1   4  -9   65.79   16.40
   0  -4   9    0.20    4.40
   0   4   9    2.00    3.80
   0   4   9   11.50    6.80
   0   4   9   -0.60    2.50
   1  -4   9  242.58   19.10
   1   4   9  223.38   22.30
   1   4   9  218.78   13.10
   2  -4   9   -1.80    7.60
   2  -4   9    5.70    7.50
   2   4   9   -2.90    7.10
   2   4   9    4.70    4.80
   3  -4   9   29.40    9.30
   3  -4   9   57.09   14.80
   3   4   9   33.30    5.10
   3   4   9   31.50    5.10
   3   4   9   34.20   12.60
   4  -4   9   10.50   14.60
   4   4   9   -8.20    9.40
   6  -5  -9   27.20   13.30
   6   5  -9   13.60   11.60
   6   5  -9    1.40   11.00
   5  -5  -9    5.60    6.40
   5  -5  -9    5.00   12.50
   5   5  -9   16.30   10.30
   5   5  -9   -4.90    9.80
  -4  -5   9   21.90   10.80
   4  -5  -9   22.00    8.50
   4   5  -9   13.00    6.70
   4   5  -9   10.60    6.20
   3  -5  -9    2.80    5.70
  -3  -5   9    3.30    5.60
   3   5  -9    6.60    4.90
  -2  -5   9   54.89   10.70
   2  -5  -9   53.09    9.30
   2   5  -9   68.99   11.50
   1  -5  -9   15.10    4.90
   1   5  -9   26.80    8.20
  -1   5   9   17.60    7.20
   0  -5   9    8.90    5.00
   0   5   9   -1.50    6.10
   0   5   9   -0.90    3.00
   1  -5   9    2.00    4.50
   1   5   9    4.10    2.70
   1   5   9   -8.80    5.50
   1   5   9    1.00    2.80
   2  -5   9   18.70   11.10
   2  -5   9    8.90    6.30
   2   5   9   16.70    8.80
   2   5   9   18.20    3.10
   3  -5   9    6.10    9.30
   3  -5   9   -5.20    6.50
   3   5   9    2.70    8.80
   4  -5   9   78.09   22.80
   4   5   9   89.39   20.80
   5  -6  -9    5.60    8.40
   5   6  -9    6.20    8.90
   5   6  -9    8.50   10.20
  -4  -6   9   -4.80    7.20
   4  -6  -9    4.10    6.60
   4   6  -9    2.50    7.00
  -4   6   9   -7.60    6.80
   3  -6  -9  120.49   14.70
  -3  -6   9  109.49   15.40
   3   6  -9  125.79   16.00
  -2  -6   9   17.30    6.20
   2  -6  -9   23.30    6.50
   2   6  -9   17.30    6.90
   1  -6  -9  154.88   12.60
  -1  -6   9  141.29   16.40
   1   6  -9  133.39   15.80
  -1   6   9  128.79   15.20
   0  -6   9   61.29   10.90
   0   6   9   70.09    8.40
   0   6   9   64.99   14.40
   1  -6   9  171.38   17.30
   1   6   9  147.79    9.60
   1   6   9  141.29    8.40
   1   6   9  136.79   18.80
   2  -6   9   40.40   10.80
   2  -6   9   22.90   12.00
   2   6   9   11.90    9.90
   3  -6   9   10.80   11.10
   3  -6   9    5.60    9.00
   3   6   9    7.10   10.60
   4  -6   9    2.90   13.90
   4  -6   9    8.50   10.50
   4   6   9    8.10   14.70
  -5  -7   9   -1.90   10.20
   5  -7  -9    6.00    8.60
   5   7  -9   -0.90    9.20
   4  -7  -9   62.39   13.60
  -4  -7   9   65.19   15.70
   4   7  -9    2.90    7.70
  -4   7   9   31.60    9.90
   3  -7  -9   12.80    5.70
  -3  -7   9    5.90    6.40
   3   7  -9   14.50    7.80
   2  -7  -9   -2.90    3.80
  -2  -7   9    3.60    5.40
   2   7  -9   -1.90    4.90
  -2   7   9    6.80    5.30
   1  -7  -9   60.09    8.50
  -1  -7   9   70.69   11.80
   1   7  -9   36.10    9.60
  -1   7   9   65.39   11.60
   0  -7   9   -2.20    3.90
   0   7   9   -3.30    3.10
   0   7   9   -2.40    4.80
   1  -7   9   13.50    8.30
   1   7   9    7.80    6.80
   1   7   9   23.00    3.60
   2  -7   9  294.77   28.70
   2  -7   9  348.47   25.80
   2   7   9  303.67   30.10
   3  -7   9    3.10    8.80
   3  -7   9   -6.20   10.70
   3   7   9    6.30    9.10
   4  -7   9   47.40   13.90
   4  -7   9   72.89   19.70
   4   7   9   55.79   17.90
   5  -8  -9   67.09   16.90
  -5  -8   9   95.29   20.90
   4  -8  -9    3.70    7.70
  -4  -8   9    6.70    9.30
   4   8  -9    5.40    6.60
  -4   8   9   -4.70    5.30
   3  -8  -9   32.50    9.60
  -3  -8   9   32.90   11.00
  -3   8   9   27.10    6.10
  -3   8   9   41.90    8.00
   3   8  -9   46.80   10.20
   2  -8  -9   12.30    6.40
  -2  -8   9    9.30    5.90
  -2   8   9   11.20    6.10
   2   8  -9    6.50    5.40
  -1  -8   9  221.18   19.70
   1  -8  -9  174.08   13.70
   1   8  -9  181.28   18.30
  -1   8   9  168.98   16.60
   0  -8   9   23.40    8.00
   0   8   9   24.80    9.60
   0   8   9   29.40    5.90
   1  -8   9  201.08   19.70
   1   8   9  169.78   20.90
   2  -8   9   -4.60    5.20
   2  -8   9    1.10    8.80
   2   8   9    6.00    6.60
   3  -8   9    5.90    8.20
   3  -8   9   -4.70   10.60
   3   8   9   20.60   10.00
   4  -8   9   -4.10   10.50
   4  -8   9  -14.30   13.50
   4   8   9   18.20   14.20
   5  -9  -9    6.40   10.30
  -5  -9   9   -4.30   10.50
   5   9  -9   -1.20   11.00
   4  -9  -9  127.69   19.10
  -4  -9   9  129.89   21.20
   4   9  -9  130.69   19.20
  -3  -9   9   -6.70    6.20
   3  -9  -9   -1.50    4.50
  -3   9   9   -3.80    4.30
  -3   9   9   -2.00    4.50
   3   9  -9   -4.70    5.50
  -2  -9   9   51.39   12.30
   2  -9  -9   72.79   10.50
   2   9  -9   78.69   13.80
  -2   9   9   56.09    9.60
   1  -9  -9   59.49    8.40
  -1  -9   9   60.49   12.80
   1   9  -9   61.49   11.70
  -1   9   9   88.89   12.80
   0  -9   9    8.20    6.10
   0   9   9    2.80    2.90
   0   9   9    4.90    6.40
   1  -9   9  103.69   15.10
   1   9   9   62.59   14.90
   2  -9   9  109.39   20.60
   2  -9   9  126.19   18.40
   2   9   9  123.29   19.90
   3  -9   9  -10.60    7.30
   3  -9   9   -4.10   10.40
   4  -9   9   56.19   15.30
   4  -9   9   63.89   19.10
   4   9   9   59.49   19.20
   5 -10  -9   17.60   11.70
  -5 -10   9   16.50   14.70
   5  10  -9   27.90   11.80
  -4 -10   9   15.40    8.90
   4 -10  -9   14.40    8.50
   4  10  -9    1.30    8.00
   3 -10  -9  170.98   18.10
  -3 -10   9  163.38   20.40
  -3  10   9  136.39    9.30
  -3  10   9  130.09    9.50
   3  10  -9  109.19   17.20
   2 -10  -9    9.80    9.70
  -2 -10   9    9.70    7.00
  -2  10   9   15.10    5.60
   2  10  -9   10.00    6.40
  -1 -10   9   54.69   12.70
   1 -10  -9   32.20    7.50
  -1  10   9   56.79   11.60
   1  10  -9   46.80   11.70
   0 -10   9   87.09   14.90
   0  10   9   63.19    7.50
   0  10   9   59.49   13.40
   1 -10   9  247.88   23.50
   1  10   9  262.07   24.30
   2 -10   9   20.30    8.60
   2  10   9    4.90    8.50
   3 -10   9   18.80    9.20
   3 -10   9    6.90   12.10
   3  10   9   20.90   11.20
   4 -10   9   -6.30   14.30
   4 -10   9    5.30   12.40
   4  10   9    7.50   14.00
  -5 -11   9    2.60   11.90
   5 -11  -9    6.70   10.80
   5  11  -9   -2.70   11.30
   4 -11  -9   -0.50    8.30
  -4 -11   9   34.80   11.40
   4  11  -9    6.50    9.10
  -3 -11   9    5.80    7.70
   3 -11  -9    2.00    5.90
   3  11  -9    9.30    6.60
  -3  11   9   -1.40    1.90
  -2 -11   9   90.39   15.30
   2 -11  -9  105.99   12.90
  -2  11   9   76.09   10.10
   2  11  -9   64.39   12.60
  -1 -11   9   22.10    7.70
   1 -11  -9   13.50    5.40
   1  11  -9   12.40    6.90
  -1  11   9   11.50    6.60
   0 -11   9   94.19   15.10
   0  11   9   92.99    8.70
   1 -11   9   22.70    8.50
   1  11   9   25.80    9.60
   2 -11   9   13.00    9.10
   2  11   9    6.90    9.30
   3 -11   9  -11.70    9.20
   3 -11   9    0.40   11.50
   3  11   9  -20.60   10.90
  -5 -12   9   14.20   15.10
   5 -12  -9   16.00   13.90
   5  12  -9    1.80   12.60
  -4 -12   9   27.20   14.10
   4 -12  -9    5.70    9.10
   4  12  -9   13.30    9.00
  -3 -12   9   -5.80    8.20
   3 -12  -9   17.60    8.20
   3  12  -9   25.90    9.90
   2 -12  -9  184.58   17.20
  -2 -12   9  129.69   18.80
   2  12  -9  101.79   16.40
  -2  12   9  137.19   11.80
  -2  12   9  128.09   11.30
   1 -12  -9    1.30    4.30
  -1 -12   9   10.30    7.30
  -1  12   9    2.10    5.20
   1  12  -9   -1.30    5.20
   0 -12   9   -2.80    5.60
   0  12   9   -7.40    5.90
   0  12   9   -0.20    3.10
   0  12   9   -0.20    4.40
   1 -12   9   31.10   12.00
   1  12   9   37.00   11.10
   2 -12   9   -3.00    8.80
   2  12   9    7.90   10.60
   3 -12   9   18.10   12.30
   3 -12   9   27.20   16.00
   3  12   9   35.00   15.50
  -4 -13   9   14.60   12.30
   4 -13  -9    1.90   11.10
   4  13  -9    9.70   11.10
   3 -13  -9   12.80    8.10
  -3 -13   9   15.80   10.40
   3  13  -9    3.00    7.50
   2 -13  -9   51.69   10.80
  -2 -13   9   31.40   11.50
   2  13  -9   19.40    9.70
  -2  13   9   30.90    6.50
  -2  13   9   45.10    7.60
  -1 -13   9   36.50   12.10
   1 -13  -9   48.20    9.00
  -1  13   9   60.79   11.20
   1  13  -9   68.79   15.70
   0 -13   9   40.80   11.60
   0  13   9   45.70    7.90
   0  13   9   58.39   12.90
   1 -13   9    7.80    8.10
   1  13   9   16.70    9.60
   2 -13   9   34.80   14.10
   2  13   9   39.00   11.70
   3 -13   9    7.90   13.20
   3 -13   9   18.70   12.10
   3  13   9   -9.50   10.20
  -4 -14   9    3.40   12.70
   4 -14  -9   12.10   11.10
   4  14  -9    8.20    9.80
  -3 -14   9   12.30    9.50
   3 -14  -9   34.20   11.50
  -2 -14   9    9.40    8.90
   2 -14  -9   21.10    8.40
   2  14  -9   18.70    8.50
  -2  14   9   12.60    5.30
   1 -14  -9  121.09   12.40
  -1 -14   9   97.19   17.80
   1  14  -9  104.89   17.70
  -1  14   9  121.89   14.00
   0 -14   9   35.40   10.70
   0  14   9   38.90    6.80
   0  14   9   41.80   11.40
   1 -14   9   47.70   13.80
   1  14   9   53.79   13.90
   2 -14   9   12.90   10.90
   2  14   9    8.50   10.30
   3 -14   9   17.70   13.40
   3  14   9   22.10   13.20
  -4 -15   9  145.39   24.00
   4 -15  -9  100.69   19.90
   4  15  -9  141.79   23.70
  -3 -15   9  -11.90   14.90
   3 -15  -9    0.30    8.00
   3  15  -9   -1.00    9.90
  -2 -15   9   63.19   15.90
   2 -15  -9  104.79   15.20
   2  15  -9   77.49   16.60
  -2  15   9   83.39    7.60
  -1 -15   9    4.30    7.90
   1 -15  -9   -2.30    5.00
  -1  15   9   -3.10    6.20
   1  15  -9   -0.70    6.90
   0 -15   9   86.89   19.30
   0  15   9  111.89   18.40
   1 -15   9    0.90    8.90
   1  15   9   15.40   10.60
   2 -15   9   18.20   10.30
   2  15   9   15.00   10.50
   4 -16  -9   27.50   13.40
  -4 -16   9   25.60   14.10
   4  16  -9    8.80   11.00
   3 -16  -9   79.29   16.30
  -3 -16   9   60.99   16.90
   3  16  -9   69.29   17.50
   2 -16  -9   45.30   12.80
  -2 -16   9   27.60   15.70
  -1 -16   9    5.40    7.90
   1 -16  -9   -0.80    5.50
  -1  16   9    5.90    6.00
   1  16  -9   -6.50    7.20
   0 -16   9   34.40   14.20
   1 -16   9   22.30   12.00
   1  16   9   28.20   12.20
   2 -16   9   -6.00   10.60
   2  16   9    3.60   10.50
  -3 -17   9   -5.60   10.50
   3 -17  -9    5.10    9.50
   3  17  -9    0.10   10.40
   2 -17  -9   13.70    8.40
  -2 -17   9  -12.10    9.10
   2  17  -9    4.80    9.40
   1 -17  -9    2.00    6.60
  -1 -17   9    1.80    9.70
  -1  17   9    6.70    6.80
   1  17  -9   -0.10    7.90
   0 -17  -9   54.89    7.30
   0 -17   9   73.49   19.30
   0  17   9   54.89   12.80
   1 -17   9    0.20    9.80
   1  17   9    4.00    9.40
   2 -17   9   10.20   13.20
   2  17   9   17.30   11.70
  -3 -18   9   12.60   13.10
   3 -18  -9   22.70   11.20
   3  18  -9   24.50   14.30
  -2 -18   9   10.20   10.00
   2 -18  -9   35.40   10.70
   2  18  -9    4.30    9.30
  -1 -18   9   -2.10   11.20
  -1  18   9   -7.90    6.60
   1  18  -9    2.50    9.20
   0 -18   9    5.10   11.50
   1 -18   9   44.80   15.80
   1  18   9    2.90   10.20
  -2 -19   9   30.70   14.60
   2 -19  -9   34.60   11.80
   2  19  -9   65.99   19.00
  -1 -19   9    4.80   11.70
   1  19  -9    4.00   10.60
  -1  19   9   14.70    8.20
   0 -19   9   23.90   12.30
   1 -19   9   -4.10   12.00
   1 -20  -9   79.09   14.20
  -1 -20   9   85.69   21.40
   1  20  -9   74.29   19.70
   0 -20   9   24.40   12.90
   0  20   9    7.70   10.10
   5   0 -10    6.20    7.90
   5   0 -10    2.50    8.00
   4   0 -10  154.58   18.90
   4   0 -10  192.48   18.00
   3   0 -10   -2.60    5.40
   3   0 -10    0.90    4.50
  -2   0  10    3.20    5.60
  -1   0  10    0.40    4.20
   0   0  10   12.40    5.40
   1   0  10    9.30    7.40
   1   0  10    0.70    3.40
   2   0  10    9.90    5.20
   2   0  10    0.50    8.00
   3   0  10    9.30   10.40
   3   0  10    1.20    8.20
   4   0  10   -8.20   13.50
   5  -1 -10  -10.00    6.40
   5  -1 -10    9.00    7.60
   5   1 -10    2.20    7.80
   5   1 -10    1.60    8.70
   4  -1 -10    5.20    7.60
   4  -1 -10   16.50    7.50
   4   1 -10   19.90    8.60
   4   1 -10    6.90    6.40
   3  -1 -10   23.10    6.60
   3  -1 -10   17.00    6.30
   3   1 -10   36.50    9.80
   3   1 -10   29.40    8.80
  -2  -1  10    6.90    5.90
   2  -1 -10   15.60    5.00
  -1  -1  10   25.50    8.20
  -1   1  10   37.50    9.60
   0  -1  10   -1.40    3.60
   0   1  10    2.50    3.90
   1  -1  10  149.59   19.70
   1  -1  10  142.69   14.30
   1   1  10  164.88   21.00
   1   1  10  135.89   13.10
   2  -1  10   23.60    9.30
   2  -1  10   24.40    7.80
   2   1  10   29.40    9.20
   2   1  10   26.90    7.10
   3  -1  10   69.79   12.60
   3  -1  10   33.20   16.00
   3   1  10   70.39   11.10
   3   1  10   66.89   18.20
   4  -1  10   32.90   10.30
   4  -1  10   12.00   14.30
   4   1  10   41.80    9.50
   4   1  10   17.20   14.50
   5  -2 -10    3.40    8.60
   5  -2 -10   15.90   10.00
   5   2 -10   -5.40    8.10
   5   2 -10   -8.70    7.10
   4  -2 -10    5.60    6.30
   4  -2 -10   20.40    8.00
   4   2 -10   17.50   10.00
   4   2 -10   28.80    9.20
  -3  -2  10   64.09   14.70
   3  -2 -10   69.19   12.10
   3   2 -10   85.09   13.40
   3   2 -10   77.59   12.30
  -2  -2  10  214.88   20.50
   2  -2 -10  243.08   18.70
   2   2 -10  202.98   18.40
  -1  -2  10   92.09   13.80
  -1   2  10   96.59   11.90
   0  -2  10   78.19   11.70
   0   2  10   59.49    9.80
   0   2  10   74.59   15.50
   1  -2  10   -0.20    3.90
   1  -2  10    7.90    8.50
   1   2  10   13.40    5.00
   1   2  10   18.70   10.10
   2  -2  10  192.78   17.70
   2  -2  10  228.58   26.50
   2   2  10  183.78   14.30
   2   2  10  214.08   25.60
   3  -2  10    1.60    6.80
   3  -2  10    1.90   10.80
   3   2  10   -3.50    4.70
   3   2  10    1.80   10.70
   4  -2  10   42.00   17.30
   4   2  10   46.30   16.00
   4   2  10   59.19   11.10
   5  -3 -10    6.20    7.80
   5  -3 -10   23.80   11.00
   5   3 -10    3.40    9.20
   5   3 -10   13.50   10.10
   4  -3 -10    6.50    6.70
   4  -3 -10    2.20    5.60
   4   3 -10   -0.20    5.90
   4   3 -10    4.10    6.50
  -3  -3  10  159.38   19.70
   3  -3 -10  154.28   17.20
   3   3 -10  155.78   17.20
  -2  -3  10   -3.40    4.80
   2  -3 -10    8.00    5.10
   2   3 -10   18.50    7.10
  -1  -3  10   39.60   10.10
  -1   3  10   46.20    8.90
   0  -3  10   26.00    7.40
   0   3  10   26.00    7.20
   0   3  10   28.40   11.00
   1  -3  10  133.99   14.50
   1   3  10  141.09   12.10
   1   3  10  176.38   22.10
   2  -3  10   15.10    9.80
   2  -3  10   -4.00    5.30
   2   3  10   -3.00    3.60
   2   3  10    3.50    8.60
   3  -3  10   78.39   19.60
   3  -3  10   89.69   15.20
   3   3  10  119.79   10.10
   3   3  10  159.38   23.90
   4  -3  10   28.30   14.70
   4   3  10    3.10   12.90
   5  -4 -10    1.50    7.70
   5  -4 -10    0.10    8.20
   5   4 -10   12.80    8.00
   5   4 -10    7.50    9.60
  -4  -4  10   -9.00    6.80
   4  -4 -10    4.00    6.60
   4   4 -10    5.20    6.90
   4   4 -10    2.00    6.90
  -3  -4  10   22.10    9.30
   3  -4 -10   22.60    8.10
   3   4 -10   15.70    7.00
   2  -4 -10  257.37   22.50
  -2  -4  10  243.88   21.70
   2   4 -10  216.18   20.20
  -1  -4  10    4.20    5.10
  -1   4  10    2.50    4.60
   0  -4  10  124.79   15.30
   0   4  10   94.89   17.10
   0   4  10  125.59   12.20
   0   4  10  125.69   15.00
   1  -4  10   -3.80    4.60
   1   4  10   -1.80    3.30
   1   4  10   -1.80    6.40
   2  -4  10    5.20    6.90
   2  -4  10   18.00   11.30
   2   4  10    7.00    4.10
   2   4  10   -2.50    7.80
   2   4  10   11.40    4.00
   3  -4  10    0.40    7.10
   3  -4  10   -4.00   11.10
   3   4  10    0.60    3.00
   3   4  10  -11.00   10.70
   4  -4  10   10.60   15.70
   4   4  10   18.70   16.40
   5  -5 -10   34.20   11.10
  -5  -5  10   24.60   14.60
   5   5 -10    0.70    8.00
   5   5 -10   18.00   12.00
   4  -5 -10   -5.30    6.30
  -4  -5  10    7.70    8.80
   4   5 -10   -3.90    6.20
  -3  -5  10   22.40   10.20
   3  -5 -10   21.30    7.40
   3   5 -10   28.90    8.50
  -2  -5  10   -0.60    5.30
   2  -5 -10    3.50    5.60
   2   5 -10    4.50    6.00
  -1  -5  10   28.00    8.40
  -1   5  10   20.90    8.40
  -1   5  10   34.00    7.20
   0  -5  10   30.40    8.90
   0   5  10   46.70   12.60
   0   5  10   38.30    7.40
   1  -5  10   92.89   13.40
   1   5  10   92.89   18.80
   1   5  10   61.59    8.80
   2  -5  10   27.60   13.50
   2  -5  10   11.00    8.30
   2   5  10   18.30   10.30
   2   5  10    7.10    3.10
   2   5  10   12.30    3.00
   3  -5  10   -4.90    9.40
   4  -5  10   -6.40   14.30
   4   5  10   -9.30   11.80
  -5  -6  10   -6.90   12.10
   5  -6 -10    4.00   10.20
   5   6 -10   -3.00    8.70
  -4  -6  10   -5.00    8.30
   4  -6 -10    4.60    7.00
   4   6 -10   11.90    9.30
   3  -6 -10   25.70    9.10
  -3  -6  10   17.30    8.70
   3   6 -10   28.10    9.90
   2  -6 -10   91.09   14.90
  -2  -6  10  144.39   17.90
   2   6 -10   90.79   14.70
  -1  -6  10  105.99   15.20
   1  -6 -10  112.49   11.60
  -1   6  10  147.99   17.20
   0  -6  10   -0.20    5.10
   0   6  10    0.70    5.60
   0   6  10   11.30    4.90
   1  -6  10    1.50    7.00
   1   6  10   25.10   11.10
   2  -6  10  104.19   15.80
   2  -6  10  114.79   23.20
   2   6  10   92.99   18.30
   3  -6  10   10.50   12.40
   3  -6  10    3.20    8.20
   3   6  10   12.40   11.90
   4  -6  10   36.40   16.50
   4   6  10    3.80   14.20
   5  -7 -10    3.80    9.10
  -5  -7  10   18.30   14.60
   5   7 -10   32.50   16.40
  -4  -7  10  -11.00    9.00
   4  -7 -10    8.90    8.60
   4   7 -10   -2.00    6.80
   3  -7 -10   73.89   13.30
  -3  -7  10   71.59   16.10
   3   7 -10   90.89   15.50
   2  -7 -10    7.80    5.70
  -2  -7  10    3.50    7.50
   2   7 -10   -3.30    5.00
  -2   7  10   -7.50    5.40
  -1  -7  10   25.80    8.60
   1  -7 -10   16.20    5.00
  -1   7  10   20.30    7.10
   1   7 -10   14.00    7.70
   0  -7  10    5.60    5.90
   0   7  10   -1.20    3.70
   0   7  10   -0.30    6.30
   1  -7  10  -10.00    4.90
   1   7  10   17.70   11.30
   1   7  10    1.50    2.60
   1   7  10    5.90    3.20
   2  -7  10   -8.90    9.10
   2  -7  10   -7.90    6.50
   2   7  10   -6.70    8.30
   3  -7  10   35.40   16.10
   3  -7  10   25.30   11.90
   3   7  10   21.30   12.80
   4  -7  10   15.60   13.50
   4   7  10   25.30   16.80
  -5  -8  10   -3.30   11.00
   5  -8 -10    3.20    7.40
   5   8 -10    4.40   11.00
  -4  -8  10   58.29   17.10
   4  -8 -10   38.70   12.10
   4   8 -10   18.90   10.70
  -4   8  10   82.99   11.60
  -3  -8  10    0.20    7.30
   3  -8 -10   11.50    5.70
  -3   8  10    1.80    6.10
   3   8 -10   -1.50    6.50
  -3   8  10   14.60    8.00
  -2  -8  10   72.59   16.20
   2  -8 -10   74.79   11.40
   2   8 -10   49.80   11.20
  -2   8  10   67.79   12.50
  -1  -8  10   15.30    8.20
   1  -8 -10   27.00    7.30
  -1   8  10   29.30    9.30
   1   8 -10   35.00    9.80
   0  -8  10  144.49   17.90
   0   8  10  155.58   19.40
   0   8  10  155.28   12.50
   1  -8  10   -1.20    6.20
   1   8  10   -8.60    8.00
   2  -8  10  217.78   23.00
   2  -8  10  268.37   29.50
   2   8  10  233.48   27.80
   3  -8  10    4.50   13.30
   3  -8  10   -6.50    8.70
   3   8  10    3.60   12.20
  -5  -9  10  112.99   25.90
   5  -9 -10   84.79   18.30
   5   9 -10   79.09   16.60
  -4  -9  10   -0.10    8.10
   4  -9 -10    7.90    8.60
  -4   9  10    6.50    6.00
   4   9 -10    6.70    9.00
  -3  -9  10   17.00    9.60
   3  -9 -10   36.50    9.90
   3   9 -10   40.50   12.90
  -3   9  10   65.49   10.90
  -3   9  10   31.00    7.70
  -2  -9  10   17.70    8.70
   2  -9 -10    1.00    5.60
   2   9 -10   14.90    8.50
  -2   9  10    0.70    5.50
   1  -9 -10   38.90    7.60
  -1  -9  10   32.30    9.70
  -1   9  10   33.30   10.60
   1   9 -10   34.00   10.40
   0  -9  10   23.90    9.50
   0   9  10   18.30    7.90
   0   9  10   18.00    9.30
   1  -9  10  341.97   27.40
   1   9  10  320.97   29.70
   2  -9  10  -11.70    8.90
   2  -9  10   12.60    9.00
   2   9  10    6.10    8.20
   3  -9  10   25.20   13.20
   3   9  10   21.70   14.00
   5 -10 -10    5.20   10.60
  -5 -10  10   -4.20   11.60
   5  10 -10    1.80   12.60
   4 -10 -10    2.60    7.80
  -4 -10  10    1.90   18.00
   3 -10 -10    1.30    6.40
  -3 -10  10   -0.10    7.50
   3  10 -10   -6.70    6.30
  -3  10  10    6.10    5.30
  -2 -10  10  124.59   17.20
   2 -10 -10  132.59   14.50
   2  10 -10  156.18   19.30
  -2  10  10  122.39   13.50
  -1 -10  10    2.80    5.90
   1 -10 -10   -1.10    3.90
  -1  10  10    6.70    6.90
   1  10 -10    5.30    5.80
   0 -10  10   29.90   10.00
   0  10  10   13.90    4.20
   0  10  10   32.60   10.60
   0  10  10   23.20    5.30
   1 -10  10   23.70   10.30
   1  10  10   20.80   11.10
   2 -10  10   57.99   15.80
   2 -10  10   80.69   18.30
   2  10  10   55.99   13.90
   3 -10  10   -2.70   14.90
   3  10  10   -2.10   11.40
   5 -11 -10   -0.10    9.90
   5  11 -10    3.20   13.00
  -4 -11  10    4.90   10.90
   4 -11 -10    6.10    9.30
   4  11 -10    9.50    9.00
   3 -11 -10   53.59   12.60
  -3 -11  10   80.99   18.50
   3  11 -10   45.10   13.40
  -2 -11  10    9.60    7.60
   2 -11 -10    4.80    4.80
   2  11 -10    8.80    7.40
  -2  11  10    1.50    5.60
  -1 -11  10    5.30    7.20
   1 -11 -10   -2.90    3.90
  -1  11  10    8.90    6.40
   1  11 -10    4.80    7.70
   0 -11  10   42.30   13.20
   0  11  10    8.60    5.40
   0  11  10   22.40   10.20
   1 -11  10    0.30    8.80
   1  11  10   20.10    8.30
   2 -11  10  -14.50   12.30
   2 -11  10    7.50    8.90
   2  11  10    8.60   10.40
   3 -11  10   54.89   16.10
   3 -11  10   62.99   20.00
   3  11  10   57.19   18.90
  -4 -12  10    0.00   10.30
   4 -12 -10   -2.40   15.70
   4  12 -10    9.10   11.10
  -3 -12  10   13.00   10.80
   3 -12 -10   18.40    8.50
   3  12 -10    2.80    7.80
   2 -12 -10   70.99   11.70
  -2 -12  10   31.10   10.80
   2  12 -10   59.99   15.30
  -2  12  10   29.30    7.80
   1 -12 -10   40.40    8.40
  -1 -12  10   34.80   13.50
  -1  12  10   49.70   10.30
   1  12 -10   19.10    7.70
   0 -12  10   87.09   16.20
   0  12  10   63.39   13.40
   0  12  10   51.99    8.80
   1 -12  10   -5.70    7.00
   1  12  10   -0.80    7.30
   2 -12  10   14.10   11.40
   2  12  10    5.90   11.40
   3 -12  10    5.70   14.00
   3 -12  10   24.80   13.00
   3  12  10    2.90   13.10
  -4 -13  10    3.90   14.10
   4 -13 -10  -11.60    8.70
   4  13 -10    6.00   10.50
   3 -13 -10   31.70   10.90
   3  13 -10   29.90   12.80
   2 -13 -10  101.29   13.00
  -2 -13  10   34.90   12.70
   2  13 -10   77.29   16.40
  -2  13  10   61.39   10.80
  -1 -13  10   84.59   17.90
   1 -13 -10   61.99   10.50
   1  13 -10   91.69   18.90
  -1  13  10   57.69   11.80
   0 -13  10   -0.50    6.40
   0  13  10    7.00    8.50
   1 -13  10   28.80   10.30
   1  13  10   45.40   14.50
   2 -13  10   -9.50    9.10
   4 -14 -10  111.59   20.50
  -4 -14  10  110.09   25.10
   4  14 -10  190.38   26.40
   3 -14 -10    2.80   10.00
  -3 -14  10    1.10   10.20
   3  14 -10    7.80    8.60
  -2 -14  10   79.69   18.80
   2 -14 -10   44.90    9.80
   2  14 -10   40.70   14.00
  -2  14  10   56.89   10.30
   1 -14 -10   34.60    7.80
  -1 -14  10   21.70   10.60
   1  14 -10   33.20   11.20
   0 -14  10   -1.50    8.20
   0  14  10    6.30    4.10
   1 -14  10   -1.40    8.90
   1  14  10   -2.00    8.90
   2 -14  10  -22.80   10.70
   2  14  10    5.20   11.20
   4 -15 -10    8.30   11.20
  -4 -15  10  -10.40   12.70
   4  15 -10   20.70   12.30
   3 -15 -10   17.80   10.30
  -3 -15  10   33.20   14.40
   3  15 -10   31.60   13.00
   2 -15 -10   11.60    8.30
  -2 -15  10    9.80   10.40
   2  15 -10    2.20    8.70
  -2  15  10    3.90    5.70
   1 -15 -10   96.99   13.40
   1  15 -10   95.09   18.30
   0 -15  10  -17.90    8.40
   0  15  10   -5.10    9.20
   0  15  10   -0.20    4.60
   1 -15  10   92.39   19.80
   1  15  10  118.09   20.20
   2 -15  10   -1.50   11.40
   2  15  10    0.70   11.10
   3 -16 -10   20.00   11.10
  -3 -16  10  -28.40   10.00
   3  16 -10   19.20   10.40
   2 -16 -10   -3.00    8.20
  -2 -16  10    0.90   11.90
   2  16 -10   28.80   12.20
  -1 -16  10   10.80   10.90
   1 -16 -10    1.00    6.10
   1  16 -10   -0.10    8.40
  -1  16  10   14.40    7.90
   0 -16  10   61.69   17.10
   1 -16  10    1.40    9.60
   1  16  10    9.40   10.20
   2 -16  10   55.79   17.00
   2  16  10   66.09   17.00
   3 -17 -10   14.20   11.40
  -3 -17  10    2.20   13.10
   3  17 -10   -8.10   10.50
   2 -17 -10    3.10    8.80
  -2 -17  10    5.70   10.10
   2  17 -10   13.50   11.50
  -1 -17  10    2.70   10.30
   1  17 -10    6.70    9.30
  -1  17  10   -0.30    7.20
   0 -17  10   -2.10   10.40
   1 -17  10   18.20   12.70
   1  17  10   46.20   15.40
   2 -18 -10   28.40   12.10
  -2 -18  10   23.80   14.20
   2  18 -10   26.40   12.00
  -1 -18  10   70.29   18.10
   1  18 -10   25.40   12.70
  -1  18  10   23.50    9.50
   0 -18  10    7.20   12.60
   0  18  10   14.00   10.50
  -1 -19  10   12.60   13.80
   1  19 -10   52.19   18.30
   5   0 -11    7.10    7.90
   5   0 -11   12.30    9.80
   4   0 -11   -0.10    6.20
   4   0 -11    3.90    7.00
   3   0 -11  111.69   14.70
   3   0 -11  119.69   16.20
  -2   0  11    0.00    5.00
  -1   0  11   92.29   13.40
   0   0  11   -8.00    4.10
   1   0  11  154.98   22.50
   1   0  11  166.28   16.00
   2   0  11    8.90    8.50
   2   0  11    2.10    5.40
   3   0  11   30.20   15.10
   5  -1 -11   -4.70    8.50
   5  -1 -11   -2.40    7.10
   5   1 -11    0.10    7.20
   5   1 -11   11.60    9.90
   4  -1 -11   25.60    9.80
   4  -1 -11   31.90   10.30
   4   1 -11   27.30    9.60
   4   1 -11   34.00   11.00
  -3  -1  11   -1.40    6.80
   3  -1 -11    0.70    5.50
   3   1 -11    9.10    6.70
   3   1 -11    2.30    5.60
  -2  -1  11   24.60    9.50
  -2   1  11   22.70    9.00
  -1  -1  11    2.10    5.90
   0  -1  11   44.90   10.10
   0   1  11   12.90   10.80
   0   1  11   30.40    8.00
   1  -1  11   32.10   12.80
   1  -1  11   74.19   12.70
   1   1  11   70.29   10.40
   1   1  11   49.50   13.10
   2  -1  11   40.80   16.00
   2  -1  11   25.50   12.60
   2   1  11   58.29   16.00
   2   1  11   55.59   10.30
   3  -1  11    9.60   12.40
   3   1  11   -5.20   10.80
   3   1  11   -5.10    5.90
   5  -2 -11    9.20    9.70
   5  -2 -11   13.20   10.60
   5   2 -11   28.60   10.30
   5   2 -11   35.20   11.60
   4  -2 -11   -3.20    6.30
   4  -2 -11   -2.80    6.50
   4   2 -11   -3.10    6.90
   4   2 -11   -5.90    7.10
  -3  -2  11   16.30    8.90
   3  -2 -11   21.30    9.00
   3   2 -11   18.80    8.00
  -2  -2  11   15.40    8.10
  -2   2  11    2.80    6.10
  -1  -2  11   51.29   12.10
  -1   2  11   77.09   11.60
   0  -2  11   -1.50    5.00
   0   2  11   -4.90    6.40
   0   2  11    2.00    4.50
   1  -2  11    2.40    8.70
   1  -2  11   11.70    7.70
   1   2  11    0.60    4.30
   1   2  11   -4.20    7.60
   2  -2  11   36.40   13.20
   2   2  11   53.39    9.70
   2   2  11   31.00   12.50
   3  -2  11   74.19   13.30
   3  -2  11  103.19   22.50
   3   2  11   68.49   10.70
   3   2  11   94.59   24.90
   5  -3 -11   -3.40    8.00
   5  -3 -11    8.70   10.60
   5   3 -11   17.80    9.90
   5   3 -11   10.10    9.40
  -4  -3  11   -1.00    9.10
   4  -3 -11    3.80    6.70
   4   3 -11    3.20    7.80
   4   3 -11    3.30    6.90
  -3  -3  11   23.70   11.20
   3  -3 -11   26.30    8.30
   3   3 -11   17.30    7.70
  -2  -3  11  110.09   15.90
   2  -3 -11  113.59   13.60
  -1  -3  11   18.90    7.40
  -1   3  11    6.50    6.00
   0  -3  11   41.10   10.50
   0   3  11   37.10   13.20
   0   3  11   26.00    7.20
   1  -3  11  148.29   21.60
   1  -3  11  106.89   14.60
   1   3  11   89.29   10.90
   1   3  11   83.69   19.10
   2  -3  11  171.88   18.70
   2  -3  11  219.58   28.20
   2   3  11  188.98   13.70
   2   3  11  172.78   25.00
   3  -3  11   -3.50    7.20
   3  -3  11   10.50   12.30
   3   3  11   -4.50    4.70
   3   3  11    6.80   10.70
   5  -4 -11   21.10   11.00
  -5  -4  11   13.10   13.60
   5   4 -11   29.80   11.90
   5   4 -11   16.00    9.80
   4  -4 -11   -5.70    6.50
  -4  -4  11    1.20    9.30
   4   4 -11   -1.20    8.10
   3  -4 -11   94.89   14.40
  -3  -4  11  112.99   17.40
   3   4 -11  146.89   18.00
  -2  -4  11    9.20    7.20
   2  -4 -11    8.50    6.00
   2   4 -11   11.60    7.00
  -1  -4  11  156.38   18.00
  -1   4  11  150.58   16.40
  -1   4  11  152.08   19.30
   0  -4  11    7.30    6.40
   0   4  11    5.20    5.20
   0   4  11    8.30    9.20
   1  -4  11   87.79   12.60
   1   4  11   45.90   13.70
   1   4  11   69.99    9.60
   2  -4  11   -3.50    6.00
   2  -4  11    1.10   11.30
   2   4  11   -7.90    9.10
   2   4  11   -0.40    4.20
   3  -4  11   17.50   15.00
   3   4  11   30.00   15.00
  -5  -5  11   23.20   15.40
   5  -5 -11   26.00   12.40
   5   5 -11   16.50   11.10
  -4  -5  11    4.60    8.60
   4  -5 -11    4.70    9.20
   4   5 -11    8.80    8.60
   3  -5 -11   69.49   13.10
  -3  -5  11   51.09   13.80
   3   5 -11   38.10   12.60
  -2  -5  11  145.29   19.40
   2  -5 -11  130.89   14.90
   2   5 -11  148.39   18.80
  -1  -5  11   -1.00    5.10
  -1   5  11    0.20    7.30
  -1   5  11    4.30    4.90
   0  -5  11    0.80    5.80
   0   5  11    6.20    4.40
   0   5  11    8.20    8.20
   1  -5  11   13.40    7.80
   1   5  11   -1.80    8.10
   1   5  11    7.20    6.10
   2  -5  11   44.50   12.40
   2  -5  11   69.69   16.30
   2   5  11   33.10   16.80
   2   5  11   42.30    5.80
   2   5  11   60.99    9.40
   3  -5  11    6.80   12.20
   3   5  11  -15.70   10.20
  -5  -6  11   28.80   14.90
   5  -6 -11   40.80   14.80
   5   6 -11   23.30   11.50
  -4  -6  11   -8.30    8.60
   4  -6 -11    9.90    9.60
   4   6 -11   -7.20    7.80
  -3  -6  11   14.00    7.40
   3  -6 -11   12.10    6.90
   3   6 -11    7.70    7.80
   2  -6 -11    0.80    5.10
  -2  -6  11   -2.70    6.70
  -2   6  11   -1.30    7.40
   2   6 -11    4.20    5.20
  -1  -6  11   34.10   10.70
  -1   6  11   37.10   12.30
  -1   6  11   40.20    9.80
   0  -6  11   19.50    7.90
   0   6  11   36.90   12.00
   0   6  11   12.20    6.50
   1  -6  11   -7.10    5.20
   1   6  11   -5.70    7.50
   1   6  11   -1.90    4.10
   2  -6  11   26.20   15.40
   2  -6  11    3.50    7.80
   2   6  11   12.70   11.70
   3  -6  11    4.60    9.60
   3  -6  11    2.60   12.90
   3   6  11    5.40   11.50
  -5  -7  11    1.10   11.50
   5  -7 -11   -5.50    8.90
   5   7 -11    4.40   10.60
   4  -7 -11   29.20   11.30
  -4  -7  11   32.80   14.40
   4   7 -11   32.10   11.50
  -3  -7  11    0.00    7.60
   3  -7 -11   -2.50    6.30
  -3   7  11    5.60    7.00
   3   7 -11    2.10    6.50
   2  -7 -11  117.29   14.10
  -2  -7  11   87.39   15.60
  -2   7  11   57.19   12.60
   2   7 -11   98.89   15.90
  -1  -7  11   76.19   15.00
  -1   7  11   39.10   10.60
  -1   7  11   58.99   12.20
   0  -7  11   32.30    9.80
   0   7  11   12.80    8.10
   0   7  11   47.40    8.70
   1  -7  11    8.60    7.80
   1   7  11   19.40   12.00
   1   7  11   25.10    4.50
   2  -7  11   80.69   21.50
   2  -7  11  100.79   16.90
   2   7  11   91.59   19.10
   3  -7  11   15.40   13.90
   3  -7  11   -3.00    9.80
   3   7  11   -0.10   13.00
  -5  -8  11   10.50   12.80
   5  -8 -11   25.70   12.10
   5   8 -11   15.80   12.80
   4  -8 -11    3.90    9.30
  -4  -8  11   11.70   10.90
   4   8 -11   19.00   11.30
  -4   8  11    3.40    8.20
  -3  -8  11   29.00   11.00
   3  -8 -11   26.70    9.00
   3   8 -11   36.40   13.30
  -3   8  11   36.80   10.20
  -2  -8  11   13.50    8.70
   2  -8 -11    5.60    5.20
   2   8 -11    3.10    6.00
  -2   8  11   13.40    7.80
  -1  -8  11   62.29   14.20
  -1   8  11   43.90    9.20
  -1   8  11   56.39   13.10
   0  -8  11    1.50    7.40
   0   8  11    3.20    4.50
   0   8  11   -1.00    7.50
   1  -8  11  165.28   19.30
   1   8  11  122.09   22.60
   2  -8  11   -1.20    7.80
   2  -8  11   14.70   12.40
   2   8  11   14.30   10.80
   3  -8  11   14.70   15.90
   3  -8  11   10.00   10.80
   3   8  11   16.40   15.50
  -5  -9  11    2.90   12.90
   5  -9 -11   17.20   11.80
   5   9 -11  -11.50   10.60
  -4  -9  11    3.10    9.10
   4  -9 -11   -6.20    8.30
  -4   9  11    6.80    6.90
   4   9 -11    3.30    9.10
   3  -9 -11   11.70    7.80
  -3  -9  11    7.50   10.40
  -3   9  11    3.00    7.50
   3   9 -11   11.80    8.70
  -2  -9  11  120.49   18.10
   2  -9 -11  106.19   13.70
  -2   9  11  114.79   16.30
   2   9 -11  143.59   19.70
   1  -9 -11    7.20    5.00
  -1  -9  11   -8.10    6.70
  -1   9  11   -1.40    7.80
   0  -9  11   33.50   11.40
   0   9  11   25.10   11.30
   0   9  11   27.70    6.50
   1  -9  11   17.10   10.70
   1   9  11    3.60   11.50
   2  -9  11  163.68   21.40
   2  -9  11  147.19   25.90
   2   9  11  172.58   26.10
   3  -9  11   44.90   19.00
   3  -9  11   38.50   14.40
   3   9  11   43.30   15.90
   4 -10 -11   30.40   18.40
  -4 -10  11   18.60   12.10
   4  10 -11   15.50   11.40
  -3 -10  11    7.90    9.40
   3 -10 -11    3.00    7.70
   3  10 -11    0.30    6.70
  -3  10  11   15.20    6.90
   2 -10 -11   -0.80    5.90
  -2 -10  11    9.30    8.50
  -2  10  11    7.50    7.00
   2  10 -11    1.40    7.40
   1 -10 -11   10.80    5.70
  -1 -10  11   13.60    9.40
  -1  10  11    3.30    8.40
   1  10 -11    8.80    8.60
   0 -10  11    0.70    8.20
   0  10  11    0.80    5.80
   0  10  11    4.20    9.60
   1 -10  11    5.90    9.60
   1  10  11    7.50   10.30
   2 -10  11   14.10    9.60
   2 -10  11   28.80   28.00
   2  10  11   -7.10   17.00
   3 -10  11   20.00   16.30
   3 -10  11   28.60   14.40
   3  10  11   54.59   20.40
  -4 -11  11    3.40   11.10
   4 -11 -11   -6.20    7.80
   4  11 -11    2.20    8.80
  -3 -11  11    7.50   13.50
   3 -11 -11    0.50    7.40
  -3  11  11    2.20    6.20
   2 -11 -11    2.00    6.60
  -2 -11  11    6.60    9.20
   2  11 -11    8.50    7.40
  -1 -11  11   -4.10    7.90
   1 -11 -11    1.90    4.60
   1  11 -11   -2.10    8.10
   0 -11  11    5.50    7.90
   0  11  11   15.60   10.40
   0  11  11    3.30    4.30
   1 -11  11   27.70   10.00
   1  11  11   11.80   12.10
   2 -11  11   43.60   15.00
   2 -11  11   64.99   19.90
   2  11  11   87.29   20.20
  -4 -12  11   11.10   13.20
   4 -12 -11   -1.50    9.00
   4  12 -11    5.40   10.20
  -3 -12  11   22.90   13.50
   3 -12 -11   43.40   12.70
   3  12 -11   39.10   13.00
  -2 -12  11   45.60   14.10
   2 -12 -11   17.80    6.70
  -2  12  11   15.90    7.60
   2  12 -11   17.20    8.70
   1 -12 -11   67.19   11.60
  -1 -12  11   88.39   19.00
  -1  12  11   99.39   16.20
   1  12 -11   99.59   17.80
   0 -12  11    8.70    9.10
   0  12  11   -8.60    7.40
   0  12  11    2.80    4.30
   1 -12  11   15.80   10.60
   1  12  11    7.10   10.80
   2 -12  11   23.80   12.70
   2 -12  11   53.79   21.70
   2  12  11   28.70   14.10
  -4 -13  11   44.80   17.60
   4 -13 -11   18.30   12.60
   4  13 -11   52.79   17.80
  -3 -13  11   -1.20   10.60
   3 -13 -11   15.10    9.80
   3  13 -11   16.90   11.80
   2 -13 -11  114.59   15.80
  -2 -13  11  149.69   23.20
  -2  13  11  124.19   14.70
   2  13 -11   81.79   18.90
  -1 -13  11   -3.60    8.60
   1 -13 -11   -1.70    5.70
   1  13 -11   19.50    9.80
  -1  13  11    0.40    7.50
   0 -13  11   83.19   24.80
   0  13  11   88.29    9.00
   1 -13  11    5.50   11.40
   1  13  11   16.70   11.20
   2 -13  11   30.10   14.60
   2 -13  11   19.90   17.40
   2  13  11   31.00   14.20
  -3 -14  11   55.99   18.20
   3 -14 -11   57.99   14.20
   3  14 -11   66.89   18.40
  -2 -14  11    2.90   11.00
   2 -14 -11   11.10    8.50
   2  14 -11   -2.20    8.90
  -2  14  11    5.20    7.20
   1 -14 -11   70.09   11.50
  -1 -14  11   40.20   15.40
   1  14 -11   56.09   14.30
   0 -14  11   38.80   12.50
   0  14  11   25.10   13.10
   1 -14  11   24.40   11.70
   1  14  11   12.00   14.10
   2 -14  11   -5.50   12.60
   2 -14  11   20.30   17.00
   2  14  11   -2.50   12.70
   3 -15 -11    0.80    9.80
  -3 -15  11   -4.00   11.30
   3  15 -11   10.30   10.90
   2 -15 -11   -3.50    8.00
  -2 -15  11   -0.60    9.80
  -2  15  11   15.30    7.80
   2  15 -11   -5.30    9.20
  -1 -15  11   20.60   12.10
   1  15 -11   -5.60    8.30
   0 -15  11    5.20   10.80
   1 -15  11   -5.60   11.40
   2 -16 -11   11.00    9.10
  -2 -16  11   -7.00   10.70
   2  16 -11   -6.70   12.30
  -1 -16  11   44.50   16.70
   1 -16 -11   27.50   11.60
   1  16 -11   33.80   13.30
  -1  16  11   23.80   10.80
   0 -16  11    0.50    8.80
   1 -16  11   14.40   11.80
  -2 -17  11   18.80   11.70
   2 -17 -11    8.70   10.40
   2  17 -11    9.10   10.50
  -1 -17  11  -17.00    9.60
   1 -17 -11    4.20    8.40
  -1  17  11    9.60    9.30
   1  17 -11   -4.30   11.30
   0 -17  11   53.39   16.00
   0  17  11   28.50   14.50
   5   0 -12    7.70   11.40
   5   0 -12   -2.80    9.60
   4   0 -12   23.30   10.30
   4   0 -12   32.70   11.10
  -3   0  12    3.60    9.30
  -2   0  12   11.00    7.60
  -1   0  12    2.30    5.10
   0   0  12   64.99   12.50
   1   0  12   -8.30    8.40
   2   0  12   40.60   10.70
   3   0  12    9.60   10.70
   3   0  12    6.30   12.70
   5  -1 -12   30.50   11.70
   5  -1 -12   32.00   13.70
   5   1 -12   11.30   11.80
   5   1 -12   17.40    8.50
   4  -1 -12    4.90    7.90
   4   1 -12    0.20    8.20
   4   1 -12    6.90   11.40
   3  -1 -12   11.10    7.60
  -3  -1  12    0.20    8.10
  -3   1  12    2.50    7.30
  -2  -1  12   -1.70    7.90
  -2   1  12   -2.50    6.10
  -1  -1  12  164.08   19.00
  -1   1  12  158.18   16.90
   0  -1  12   48.90   10.90
   0   1  12   24.80   12.10
   0   1  12   38.30   14.80
   1  -1  12   64.59   18.60
   1  -1  12   36.10   10.10
   1   1  12   36.90    8.70
   1   1  12   42.40   13.30
   2  -1  12   24.00    8.80
   2   1  12   35.10    8.80
   3  -1  12   36.60   14.00
   3  -1  12   53.09   17.30
   3   1  12   33.60   17.60
   3   1  12   29.30    9.40
   5  -2 -12   11.20    9.70
   5   2 -12    9.90   11.00
   5   2 -12   -5.50    8.50
   4  -2 -12  193.38   22.70
  -4  -2  12  179.78   29.90
   4   2 -12  210.48   23.10
  -3  -2  12   18.80   10.90
   3  -2 -12    4.90    6.20
   3   2 -12   30.50   10.90
  -2  -2  12    4.50    6.50
  -2   2  12   21.40    8.10
  -1  -2  12   15.40    8.00
  -1   2  12    4.30    7.00
   0  -2  12   -5.30    4.90
   0   2  12   -1.90    4.80
   0   2  12   -9.50    7.10
   1  -2  12    2.90    5.70
   1  -2  12    3.90    9.60
   1   2  12    1.10   11.90
   1   2  12    1.10    5.40
   2  -2  12   86.39   14.30
   3  -2  12   21.00   14.70
   3   2  12   20.70   14.30
   3   2  12    6.20    7.10
  -5  -3  12   32.90   15.40
   5  -3 -12   58.89   16.80
   5   3 -12   32.20   12.10
   5   3 -12   21.20   10.30
   4  -3 -12   14.90   10.90
  -4  -3  12    1.40   10.00
   4   3 -12   17.40    9.20
   3  -3 -12   20.50    8.90
  -3  -3  12   23.60   11.30
   3   3 -12   32.60   10.30
  -2  -3  12  -10.70    6.10
  -2   3  12   -1.70    6.90
  -1  -3  12  237.78   22.60
  -1   3  12  225.68   19.80
   0  -3  12   20.90    9.10
   0   3  12   17.80   10.80
   0   3  12    3.20    5.40
   1  -3  12    5.30   12.40
   1  -3  12   10.80    6.30
   1   3  12    9.90    5.60
   1   3  12   -6.00   10.00
   2  -3  12   -4.00   14.70
   2  -3  12   14.80   10.10
   2   3  12   19.80   20.50
   2   3  12    7.70    6.00
   3  -3  12   15.30   14.00
   3   3  12   52.69   17.50
   5  -4 -12   -4.80    8.80
  -5  -4  12    7.90   13.50
   5   4 -12   14.70   13.40
   4  -4 -12    1.70    8.10
  -4  -4  12   -8.30   10.50
   4   4 -12   -5.70    7.30
   3  -4 -12   18.30    9.00
  -3  -4  12    1.00    7.50
   3   4 -12   19.00    9.00
  -2  -4  12  104.19   18.40
  -2   4  12  119.69   16.60
  -1  -4  12   44.10   12.60
  -1   4  12   34.00   10.20
  -1   4  12   37.60   13.20
   0  -4  12   12.80    8.40
   0   4  12   20.30    7.00
   0   4  12   31.00   13.40
   1  -4  12   -4.20    6.40
   1  -4  12   -1.40   10.50
   1   4  12   -1.00    5.10
   1   4  12    1.70   10.30
   2  -4  12   51.99   16.90
   2   4  12   72.99   22.20
   2   4  12   63.39    8.90
   3  -4  12    3.40   14.40
   3   4  12   14.30   12.70
   5  -5 -12   23.70   13.70
  -5  -5  12    2.90   12.30
   5   5 -12    0.30   12.40
  -4  -5  12    7.10   12.30
   4  -5 -12    8.40   13.50
   4   5 -12   -4.00    8.70
   3  -5 -12   19.20    9.40
  -3  -5  12   15.90   10.40
   3   5 -12   10.40    8.10
   2  -5 -12   -1.20    5.80
  -2  -5  12   -0.20    7.20
  -2   5  12    3.30    6.70
  -1  -5  12   45.90   12.50
  -1   5  12   39.80   11.30
  -1   5  12   32.50   11.00
   0  -5  12    5.70    7.00
   0   5  12    6.30    5.30
   0   5  12    3.20    8.20
   1  -5  12    7.00    8.10
   1   5  12    3.40    5.10
   1   5  12    6.10   12.30
   2  -5  12   -0.90   12.40
   2  -5  12    7.30    9.20
   2   5  12    9.70   12.00
   3  -5  12   47.00   17.90
   3   5  12  102.09   24.40
   5  -6 -12    4.70   11.20
  -5  -6  12   10.50   13.50
   5   6 -12    0.30   10.70
  -4  -6  12   38.30   14.10
   4   6 -12    0.20    8.50
   3  -6 -12    2.10    7.80
  -3  -6  12  -10.30    6.90
   3   6 -12  -10.90    6.90
   2  -6 -12   68.99   13.40
  -2  -6  12   75.39   16.70
   2   6 -12   98.39   17.00
  -2   6  12  102.89   18.10
  -1  -6  12   -1.10    7.10
  -1   6  12   10.90    8.00
  -1   6  12    5.40    8.10
   0  -6  12   16.70   10.10
   0   6  12   22.10   11.10
   0   6  12   23.50    7.30
   1  -6  12    0.00    5.90
   1   6  12    5.20    4.90
   1   6  12   -4.80    7.90
   2  -6  12    3.10   12.80
   2  -6  12    1.60    9.70
   2   6  12    3.80   11.30
   3  -6  12   -5.70   14.20
   3  -6  12   14.50   12.30
   3   6  12   10.90   14.00
   4  -7 -12    3.90    8.50
  -4  -7  12    5.90   10.60
   4   7 -12   -9.10    8.20
  -3  -7  12   17.40   11.00
   3  -7 -12    1.30    7.10
  -3   7  12    8.50    9.70
   3   7 -12   -1.10    8.20
  -2  -7  12   -2.80    7.80
   2  -7 -12    7.60    5.90
   2   7 -12    5.50    9.30
  -1  -7  12    3.60    7.70
  -1   7  12   10.00    9.10
   0  -7  12   -9.00    6.60
   0   7  12    9.50    8.30
   0   7  12    8.20    5.30
   1  -7  12  171.88   21.10
   1   7  12  150.78   24.80
   2  -7  12   -3.20   13.50
   2  -7  12   16.40    9.10
   2   7  12   32.70   15.50
  -4  -8  12  -20.10    9.10
   4  -8 -12    6.90    9.90
   4   8 -12    7.00   10.70
  -4   8  12    4.30   10.10
  -3  -8  12  -11.60   11.60
   3  -8 -12   -1.00    7.00
   3   8 -12    7.10    8.40
  -2  -8  12  202.38   24.10
   2  -8 -12  201.88   19.10
   2   8 -12  195.68   24.20
  -1  -8  12   13.30    7.50
  -1   8  12   17.80    8.20
  -1   8  12   21.70   10.50
   0  -8  12  110.99   17.90
   0   8  12  103.09   12.10
   0   8  12  144.89   21.30
   1  -8  12    6.30    9.20
   1   8  12   -4.70   10.80
   2  -8  12   -0.40   15.50
   2  -8  12   -1.90    9.30
   2   8  12    5.20   11.90
  -4  -9  12   -0.20   11.90
   4  -9 -12    3.60    9.90
   4   9 -12    8.10   10.60
  -4   9  12   14.80    9.10
  -3  -9  12   21.30   13.40
   3  -9 -12   11.20    9.30
  -3   9  12   14.00    9.30
   2  -9 -12   -1.50    6.90
  -2  -9  12    3.90    9.80
   2   9 -12   11.40   10.00
  -2   9  12   10.60    9.00
  -1  -9  12   31.00   12.70
  -1   9  12   24.40   11.30
  -1   9  12   38.10    9.30
   0  -9  12   27.60   10.10
   0   9  12    9.60   11.60
   0   9  12   22.70    6.90
   1  -9  12   57.49   13.30
   1   9  12   65.89   18.30
   2  -9  12    3.70   15.30
   2   9  12   -0.40   11.00
   4 -10 -12   30.10   11.60
  -4 -10  12   53.89   20.50
   4  10 -12   41.60   15.60
  -3 -10  12    0.80   11.00
   3 -10 -12    1.00    7.70
  -3  10  12   -0.30    8.00
   3  10 -12   -3.10    9.60
  -2 -10  12   -3.30    8.50
   2 -10 -12    1.80    6.20
   2  10 -12    6.80    8.30
  -1 -10  12   15.10    9.20
  -1  10  12   30.40    8.90
   0 -10  12   11.60   11.80
   0  10  12    9.50    5.70
   0  10  12   13.30   11.70
   1 -10  12   14.90   11.20
   1  10  12   11.10   12.30
   2 -10  12   38.20   20.10
   2 -10  12   22.20   13.70
   2  10  12   41.00   16.20
  -4 -11  12   32.50   17.90
   4 -11 -12   31.80   12.20
   4  11 -12    7.80   11.80
   3 -11 -12   12.60    9.10
  -3 -11  12   -7.00    9.60
   3  11 -12   -5.80    8.90
  -3  11  12   -1.50    7.80
  -2 -11  12    2.50    8.30
   2 -11 -12   12.80    8.20
   2  11 -12   18.00    8.10
  -1 -11  12   32.40   13.20
  -1  11  12   41.00   15.30
   0 -11  12   61.19   17.70
   0  11  12   17.40   12.30
   0  11  12   19.50    6.00
   1 -11  12    5.90   10.40
   1  11  12    9.80   12.40
   2 -11  12    3.50   11.90
   2 -11  12    0.80   16.50
   2  11  12    7.40   16.30
   3 -12 -12    5.10    9.80
  -3 -12  12   23.50   13.30
   3  12 -12   32.90   12.10
  -3  12  12   19.00    9.50
   2 -12 -12   34.70    9.10
  -2 -12  12   29.30   12.60
   2  12 -12   17.20    9.30
  -1 -12  12   18.30    9.80
   0 -12  12   -8.20   11.40
   0  12  12    6.70   10.30
   1 -12  12   -2.60   10.00
   1  12  12   15.10   14.70
   3 -13 -12   37.50   13.20
  -3 -13  12   32.80   12.60
   3  13 -12   46.80   14.20
  -2 -13  12   76.69   19.90
   2 -13 -12   49.90   11.60
  -2  13  12   64.69   13.20
   2  13 -12   62.99   16.30
  -1 -13  12  110.09   22.50
  -1  13  12  101.29   18.80
   0 -13  12   -3.30    9.70
   0  13  12    5.20   11.10
   1 -13  12   36.50   16.80
   1  13  12   -2.80   18.50
   3 -14 -12    9.20   10.70
  -3 -14  12   23.30   12.50
   3  14 -12   14.60   11.10
   2 -14 -12   16.40    9.30
  -2 -14  12   28.60   12.50
   2  14 -12   24.20   12.00
  -2  14  12    3.50    9.70
  -1 -14  12   -1.50    9.90
  -1  14  12  -11.10    6.90
   0 -14  12   16.60   12.20
   1 -14  12   -8.50   10.20
   1  14  12  -14.40   11.30
  -2 -15  12   -1.90   11.00
   2 -15 -12    4.80    9.60
  -2  15  12    2.20   10.90
   2  15 -12    2.90    9.50
  -1 -15  12   44.40   15.60
  -1  15  12   21.70    9.40
   0 -15  12    2.00   11.30
  -1 -16  12    4.60   13.20
  -1  16  12   36.70   13.20
   4   0 -13    7.70    8.50
  -4   0  13   -3.60   11.90
  -3   0  13   -2.50    8.60
  -2   0  13   -2.30    6.50
  -1   0  13   17.10    8.50
   0   0  13  -18.10    9.30
   0   0  13    2.00    6.80
   1   0  13    7.20    7.00
   1   0  13   16.80   14.30
   2   0  13    7.90   12.60
   4  -1 -13   -0.90    8.50
  -4  -1  13    7.40   10.60
  -3  -1  13   22.50   11.40
  -3   1  13    8.30   12.10
  -2  -1  13   10.80    9.40
  -2   1  13   15.60    8.80
  -1  -1  13   14.30    8.60
  -1   1  13   21.50    8.00
   0  -1  13   40.00   11.10
   0   1  13   59.89   12.00
   0   1  13   66.79   19.10
   1  -1  13   -0.90    7.10
   1  -1  13   -0.90   11.80
   1   1  13    1.60    7.20
   1   1  13  -10.10   12.00
   2  -1  13   16.10   14.00
   2   1  13   18.20   14.80
  -4  -2  13    7.00   12.80
   4  -2 -13   -6.00    8.30
   4   2 -13    0.90   10.10
  -3  -2  13   11.30   11.50
  -3   2  13   26.30   11.10
  -2  -2  13    2.90    9.60
  -2   2  13   21.20   10.50
  -1  -2  13  124.89   18.40
  -1   2  13  107.69   17.00
   0  -2  13   11.60    8.00
   0   2  13   -3.50   10.70
   1  -2  13   68.89   27.70
   1  -2  13   97.49   16.40
   1   2  13   57.89   16.90
   2  -2  13   10.50   14.40
   2   2  13   -1.60    6.90
   2   2  13    2.20   13.00
   4  -3 -13  106.69   20.50
  -4  -3  13  159.38   25.00
   4   3 -13  117.89   20.30
  -3  -3  13    8.80   10.90
   3  -3 -13    6.70    7.70
  -3   3  13   -6.80    8.20
  -2  -3  13   64.09   16.30
  -2   3  13   53.09   12.90
  -1  -3  13   28.40   11.50
  -1   3  13   26.30    9.80
  -1   3  13   17.90   11.20
   0  -3  13   65.19   14.20
   0   3  13   51.19   11.10
   0   3  13   64.49   18.80
   1  -3  13    3.00   15.20
   1   3  13   11.70    6.60
   1   3  13   25.90   13.60
   2  -3  13   67.99   20.70
   2  -3  13   67.99   16.00
   2   3  13   50.29    9.60
   2   3  13   59.79   19.50
  -4  -4  13  -12.10   10.40
   4  -4 -13   -7.10    9.00
   4   4 -13    2.20   13.20
   3  -4 -13   31.00   11.10
  -3  -4  13   33.30   14.00
   3   4 -13   26.20   11.60
  -2  -4  13   12.90   10.40
  -2   4  13   -5.00    6.90
  -1  -4  13   93.59   16.80
  -1   4  13   91.29   14.80
  -1   4  13  109.99   20.90
   0  -4  13   12.90   10.50
   0   4  13    5.80   11.50
   0   4  13   11.80    7.40
   1  -4  13    6.00    8.30
   1  -4  13   -0.40   11.40
   1   4  13   14.10   11.10
   2  -4  13   13.40   16.90
   2   4  13   -1.40   12.40
   4  -5 -13   27.80   11.90
  -4  -5  13    7.80   12.40
   4   5 -13   22.60   12.40
   3  -5 -13  -11.90    6.20
  -3  -5  13   -2.50   11.90
   3   5 -13   13.90   10.20
  -2  -5  13   -3.70    8.50
  -2   5  13   11.90   10.50
  -2   5  13    0.90    7.90
  -1  -5  13   -9.00    7.40
  -1   5  13   -4.60    8.70
  -1   5  13    3.70    7.10
   0  -5  13   28.70   11.20
   0   5  13   40.50   16.30
   1  -5  13    4.20    8.30
   1  -5  13   -2.50   12.00
   1   5  13   14.10   11.90
   1   5  13    3.40    5.60
   2  -5  13   32.10   16.70
   2   5  13   21.90   16.90
  -4  -6  13    1.20   12.30
   4  -6 -13    2.30   10.00
   4   6 -13   16.70   12.50
  -3  -6  13    5.50    9.20
   3  -6 -13   -2.60    7.60
   3   6 -13    1.30    8.50
  -2  -6  13   40.50   15.40
  -2   6  13   19.70    8.80
  -1  -6  13   17.50    9.70
  -1   6  13   -2.30    9.80
  -1   6  13    8.20    7.20
   0  -6  13   63.69   17.00
   0   6  13   31.00   13.90
   0   6  13   48.70    9.40
   1  -6  13   30.80   11.60
   1  -6  13   23.10   15.10
   1   6  13   39.80   23.40
   1   6  13   41.20    7.80
   2  -6  13   45.40   21.60
   2  -6  13   17.40   11.50
   2   6  13   53.39   18.10
  -4  -7  13   -0.30   11.20
   4  -7 -13    0.60   10.20
   4   7 -13   16.50   12.10
  -4   7  13   48.00   14.70
   3  -7 -13   -5.10    6.50
  -3  -7  13    9.60   12.30
   3   7 -13   11.30   10.60
  -2  -7  13   49.50   15.70
  -2   7  13  103.19   16.90
  -1  -7  13   -2.50    7.50
  -1   7  13   -3.90    6.30
  -1   7  13   13.60   11.30
   0  -7  13   24.10    9.50
   0   7  13   31.50   14.50
   1  -7  13   -8.60    8.30
   2  -7  13   26.20   17.70
   2   7  13   -5.10   15.60
  -4  -8  13    6.50   13.40
   4  -8 -13   -0.40   10.10
   4   8 -13    1.80   12.90
  -4   8  13   -6.70   12.40
  -3  -8  13    2.50   10.90
   3  -8 -13    2.30    8.60
   3   8 -13    1.20    9.20
  -2  -8  13   12.20   15.80
   2  -8 -13   17.00    9.20
  -1  -8  13    9.10   11.70
  -1   8  13   13.40   10.40
  -1   8  13   40.60    9.90
   0  -8  13   24.30   11.20
   0   8  13   18.30    7.60
   0   8  13   13.10   11.30
   1  -8  13   74.99   19.40
   1   8  13   40.00   18.20
   2  -8  13    6.10   16.20
   2  -8  13   -4.10   10.30
   2   8  13  -12.80   12.90
   4  -9 -13   20.20   12.80
  -4  -9  13    8.30   15.00
   4   9 -13   17.70   12.40
   3  -9 -13    0.20    8.60
  -3  -9  13    8.40   12.80
   3   9 -13   -8.40    9.30
  -3   9  13   -3.00   12.60
  -2  -9  13   27.30   13.70
   2  -9 -13   17.40    8.60
  -2   9  13   29.70   12.70
  -1  -9  13   52.09   23.50
   0  -9  13  154.38   24.90
   0   9  13  174.48   27.50
   0   9  13  180.38   14.30
   1  -9  13    7.60   11.20
   1   9  13    9.40   14.30
  -3 -10  13   44.90   18.10
   3 -10 -13   19.40   10.20
   3  10 -13    8.00   10.40
  -3  10  13   14.60   10.30
   2 -10 -13   -2.90    7.00
  -2 -10  13    9.40   11.10
   2  10 -13   -8.90    8.50
  -1 -10  13   68.49   18.10
  -1  10  13   35.30   14.20
   0 -10  13    8.40   10.80
   0  10  13    8.10    6.10
   0  10  13   14.30   10.60
   1 -10  13   16.60   12.00
   1  10  13   12.50   13.80
   3 -11 -13   -3.10    8.90
  -3 -11  13    8.80   11.40
  -3  11  13   -4.60    9.50
   3  11 -13    1.70    9.50
   2 -11 -13    6.60    7.90
  -2 -11  13    1.00   12.00
   2  11 -13    3.10    9.40
  -1 -11  13   10.80   10.40
   0 -11  13    7.90   11.30
   0  11  13   22.10   14.20
   1 -11  13    2.70   11.00
   1  11  13   17.50   15.40
   3 -12 -13   11.50   10.60
  -3 -12  13   11.60   13.70
   3  12 -13    6.10   11.10
   2 -12 -13   66.99   13.60
  -2 -12  13   40.50   14.00
   2  12 -13   53.79   16.80
  -2  12  13   77.29   16.50
  -1 -12  13   -0.20   11.80
  -1  12  13    8.80   10.70
   0 -12  13    9.70   11.70
   0  12  13   12.90   11.30
   1 -12  13   -5.80   11.20
   1  12  13   14.20   13.10
   2 -13 -13   14.80   10.80
  -2 -13  13    7.50   12.40
  -2  13  13   16.70   10.60
   2  13 -13   27.50   12.60
  -1 -13  13   -0.30   10.40
  -1  13  13    8.20    9.20
   0 -13  13   13.70   11.40
   0  13  13    0.80   12.10
  -1 -14  13   34.10   16.30
  -1  14  13   35.80   13.30
  -1  14  13   -8.40    9.30
  -4   0  14   22.50   15.50
  -3   0  14   -1.00    9.80
  -2   0  14  -11.90    8.20
  -1   0  14   -2.40    9.70
   0   0  14   27.70   10.30
   1   0  14   -4.30   14.60
   2   0  14   19.10   15.90
   2   0  14   65.79   13.60
  -4  -1  14   -7.90   11.30
  -4   1  14   -8.00   12.10
  -3  -1  14   24.90   11.00
  -2  -1  14    1.90    9.60
  -2   1  14   -1.40    9.90
  -1  -1  14   63.69   14.80
  -1   1  14   52.99   13.50
   0  -1  14   58.89   24.90
   0  -1  14   46.80   12.60
   0   1  14   45.70   11.60
   0   1  14   55.39   26.40
   1  -1  14   -1.40   10.10
   1  -1  14    0.80   12.60
   1   1  14  -18.20   12.90
   2  -1  14    1.40   10.10
   2  -1  14   20.80   15.30
   2   1  14  -10.30   15.00
   2   1  14    8.10    9.00
  -4  -2  14   18.50   13.60
  -4   2  14   -0.70   12.30
  -3  -2  14   10.50   12.40
  -3   2  14    2.50   17.60
  -2  -2  14    4.50   10.30
  -2   2  14    9.40   11.90
  -1  -2  14   -1.10    9.20
  -1   2  14    9.60    9.90
  -1   2  14   12.20   12.70
   0  -2  14   64.29   13.10
   0  -2  14  109.99   24.40
   0   2  14   27.30   19.10
   0   2  14   64.09   13.10
   1  -2  14   -7.80   12.10
   1   2  14   -3.00   12.80
   2  -2  14   24.70   17.10
   2  -2  14   59.99   15.40
   2   2  14   47.90   11.40
   2   2  14   50.99   19.60
  -4  -3  14  -10.90   11.90
   4  -3 -14   -4.90   10.00
  -4   3  14   -1.70   12.80
  -3  -3  14   10.30   11.90
  -3   3  14   58.49   19.40
  -2  -3  14    1.90    9.50
  -2   3  14   -2.00    8.50
  -1  -3  14   58.49   14.00
  -1   3  14   67.99   18.80
   0  -3  14   24.10   10.80
   0   3  14   18.80    8.00
   0   3  14   69.19   18.30
   1  -3  14  129.49   29.40
   1   3  14   83.39   22.30
   1   3  14   57.39   15.60
   4  -4 -14   98.79   19.40
  -4  -4  14   73.39   19.10
   4   4 -14   82.79   18.40
  -3  -4  14   10.20   11.10
  -3   4  14    1.20   11.30
  -2  -4  14   43.70   14.80
  -2   4  14   24.40   13.60
  -2   4  14   16.80   10.40
  -1  -4  14    0.80    9.20
  -1   4  14    5.80   11.20
  -1   4  14    2.70    9.30
   0  -4  14   17.70   10.60
   0   4  14   32.40   14.20
   1  -4  14    5.20   10.80
   1  -4  14    9.80   16.00
   1   4  14    5.90    7.60
   1   4  14    0.10   12.30
   4  -5 -14    6.20   11.50
  -4  -5  14    8.30   14.50
   4   5 -14    9.40   11.30
  -3  -5  14   39.80   16.40
  -3   5  14   44.30   16.50
  -2  -5  14   11.10   13.20
  -2   5  14   26.20   14.10
  -2   5  14   15.60    9.40
  -1  -5  14   22.80   10.50
  -1   5  14   -4.80   11.70
  -1   5  14   -5.30    7.40
   0  -5  14   -3.30    9.50
   0   5  14    8.60   13.30
   1  -5  14   -0.20   11.30
   1  -5  14    5.20   12.90
   1   5  14   17.60    8.30
   1   5  14   -2.30   13.50
   3  -6 -14   18.10    9.70
  -3  -6  14    1.20   12.30
  -3   6  14    8.30   13.50
  -2  -6  14   -2.30    9.80
  -2   6  14    0.50    9.40
  -2   6  14    4.40   12.20
  -1  -6  14   -5.40   10.70
  -1   6  14    0.70   12.20
  -1   6  14    1.20    8.70
   0  -6  14   11.90    9.30
   0   6  14   24.80   14.70
   1  -6  14   27.90   17.80
   1  -6  14    8.20   12.30
   1   6  14   -6.20   13.70
  -3  -7  14    2.40   13.60
   3  -7 -14    2.70   10.70
  -3   7  14    1.20   20.20
  -2  -7  14   -1.10   10.60
  -2   7  14    0.90   10.60
  -1  -7  14   25.80   11.90
  -1   7  14   41.40   11.60
  -1   7  14   46.00   16.00
   0   7  14   14.30    8.30
   0   7  14   38.40   19.50
   1  -7  14   87.09   24.10
   1  -7  14   63.09   15.60
   1   7  14   82.99   22.70
  -3  -8  14    9.40   13.90
   3  -8 -14   -0.50   10.10
  -3   8  14   18.30   18.70
   3   8 -14   -5.40    9.30
  -2  -8  14    2.00   12.20
  -1  -8  14   -0.60    9.50
  -1   8  14    4.00   12.40
   0  -8  14   33.40   14.30
   0   8  14   70.29   12.80
   1  -8  14    5.40   12.10
   1  -8  14   11.90   16.90
   1   8  14    3.90   14.40
  -3  -9  14   17.50   15.20
   3   9 -14   55.09   17.60
  -3   9  14   24.70   14.30
  -2  -9  14    6.90   10.70
  -1  -9  14   75.79   19.30
  -1   9  14   23.80   14.80
   0  -9  14   33.10   13.70
   0   9  14   23.30    8.30
  -2 -10  14    4.70   12.50
  -2  10  14    5.50   11.20
  -1 -10  14   -0.30    9.90
  -1  10  14    2.00    9.20
   0 -10  14   88.49   19.40
   0  10  14   84.49   24.60
  -2 -11  14   45.50   16.30
  -2  11  14   28.40   13.10
  -2  11  14   24.90   14.10
  -1 -11  14   -1.20   13.40
  -1  11  14   23.30   10.00
   0 -11  14   -5.90   12.40
   0  11  14   17.10   16.60
  -3   0  15   -5.00   13.10
  -2   0  15  -12.40   11.30
  -1   0  15   51.39   14.90
   0   0  15  -14.00   15.20
   1   0  15   11.50   14.00
   1   0  15    3.10   15.60
  -3  -1  15   -3.90   11.20
  -3   1  15   -1.90   12.10
  -2  -1  15   45.80   16.50
  -2   1  15   26.70   13.70
  -1  -1  15   -8.00    9.30
  -1   1  15   20.60   15.30
  -1   1  15   16.00   11.60
   0  -1  15   35.50   18.80
   0   1  15   59.09   21.70
   1  -1  15  -16.60    9.90
   1  -1  15   47.70   22.60
   1   1  15   19.10   10.50
   1   1  15    9.60   16.70
  -3  -2  15  -15.10   13.50
  -3   2  15   11.70   12.50
  -2  -2  15    9.50   11.00
  -2   2  15   16.40   13.20
  -1  -2  15   -9.60    8.80
  -1   2  15  -11.80   12.40
   0  -2  15   28.70   20.20
   0   2  15   18.20   16.10
   1  -2  15   52.49   22.90
   1   2  15   66.99   14.70
   1   2  15   67.69   21.80
  -3  -3  15   10.50   12.90
  -3   3  15   13.70   13.40
  -2  -3  15    9.50   12.30
  -2   3  15    4.80   14.20
  -2   3  15   21.00   15.40
  -1  -3  15   20.90   13.20
  -1   3  15   45.00   18.20
   0  -3  15   27.10   19.70
   0   3  15   20.80   15.70
  -3  -4  15   53.09   18.50
  -3   4  15   17.70   14.00
  -2  -4  15   29.80   16.50
  -2   4  15  -10.40   12.10
  -2   4  15   74.59   32.70
  -1  -4  15   -5.90   10.30
  -1   4  15  -12.50   13.90
   0   4  15   -5.50   13.40
  -3  -5  15    8.50   13.50
  -3   5  15   -8.40   11.80
  -2  -5  15   38.10   14.30
  -1  -5  15  -11.20    9.70
  -1   5  15  -18.10   19.00
   0  -5  15   12.10   13.00
   0   5  15  -16.40   12.70
   0   5  15   10.10    9.60
  -2  -6  15   -8.40   12.20
  -2   6  15   10.40   13.50
  -1  -6  15   12.90   10.90
  -1   6  15   34.20   28.30
   0  -6  15   14.40   11.50
   0   6  15   14.70    9.20
   0   6  15   15.40   16.00
  -2  -7  15  -15.70   12.80
  -1  -7  15    0.50   10.80
   0  -7  15   67.49   19.50
   0   7  15   61.19   19.10
   0   7  15   80.99   16.40
  -1  -8  15  144.89   25.80
  -1   8  15  114.29   19.10
  -1   8  15  132.19   39.80
   0   0   0    0.00    0.00

_computing_structure_solution     'SHELXT 2018/2 (Sheldrick, 2018)'
;
_shelx_hkl_checksum   96031

