 
data_OAV819
 
_audit_creation_method            'SHELXL-2019/3'
_shelx_SHELXL_version_number      '2019/3'
_chemical_name_systematic         ?
_chemical_name_common             ?
_chemical_melting_point           ?
_chemical_formula_moiety          ?
_chemical_formula_sum
 'C6 H6 Cl Co N5 O3' 
_chemical_formula_weight          290.54

loop_
 _atom_type_symbol
 _atom_type_description
 _atom_type_scat_dispersion_real
 _atom_type_scat_dispersion_imag
 _atom_type_scat_source
 'C'  'C'   0.0033   0.0016
 'International Tables Vol C Tables 4.2.6.8 and 6.1.1.4'
 'N'  'N'   0.0061   0.0033
 'International Tables Vol C Tables 4.2.6.8 and 6.1.1.4'
 'O'  'O'   0.0106   0.0060
 'International Tables Vol C Tables 4.2.6.8 and 6.1.1.4'
 'Co'  'Co'   0.3494   0.9721
 'International Tables Vol C Tables 4.2.6.8 and 6.1.1.4'
 'Cl'  'Cl'   0.1484   0.1585
 'International Tables Vol C Tables 4.2.6.8 and 6.1.1.4'
 'H'  'H'   0.0000   0.0000
 'International Tables Vol C Tables 4.2.6.8 and 6.1.1.4'
 
_space_group_crystal_system       monoclinic
_space_group_IT_number            14
_space_group_name_H-M_alt         'P 21/c'
_space_group_name_Hall            '-P 2ybc'
 
_shelx_space_group_comment
;
The symmetry employed for this shelxl refinement is uniquely defined
by the following loop, which should always be used as a source of
symmetry information in preference to the above space-group names.
They are only intended as comments.
;
 
loop_
 _space_group_symop_operation_xyz
 'x, y, z'
 '-x, y+1/2, -z+1/2'
 '-x, -y, -z'
 'x, -y-1/2, z-1/2'
 
_cell_length_a                    10.1303(6)
_cell_length_b                    13.9083(8)
_cell_length_c                    6.8703(5)
_cell_angle_alpha                 90
_cell_angle_beta                  96.725(6)
_cell_angle_gamma                 90
_cell_volume                      961.33(11)
_cell_formula_units_Z             4
_cell_measurement_temperature     291(2)
_cell_measurement_reflns_used     ?
_cell_measurement_theta_min       ?
_cell_measurement_theta_max       ?
 
_exptl_crystal_description        ?
_exptl_crystal_colour             ?
_exptl_crystal_density_meas       ?
_exptl_crystal_density_method     ?
_exptl_crystal_density_diffrn     2.007          
_exptl_crystal_F_000              580
_exptl_transmission_factor_min    ?
_exptl_transmission_factor_max    ?
_exptl_crystal_size_max           ?
_exptl_crystal_size_mid           ?
_exptl_crystal_size_min           ?
_exptl_absorpt_coefficient_mu     2.062
_shelx_estimated_absorpt_T_min    ?
_shelx_estimated_absorpt_T_max    ?
_exptl_absorpt_correction_type    ?
_exptl_absorpt_correction_T_min   ?
_exptl_absorpt_correction_T_max   ?
_exptl_absorpt_process_details    ?
_exptl_absorpt_special_details    ?
_diffrn_ambient_temperature       291(2)
_diffrn_radiation_wavelength      0.71073
_diffrn_radiation_type            MoK\a
_diffrn_source                    ?
_diffrn_measurement_device_type   ?
_diffrn_measurement_method        ?
_diffrn_detector_area_resol_mean  ?
_diffrn_reflns_number             4599
_diffrn_reflns_av_unetI/netI      0.0391
_diffrn_reflns_av_R_equivalents   0.0250
_diffrn_reflns_limit_h_min        -8
_diffrn_reflns_limit_h_max        13
_diffrn_reflns_limit_k_min        -13
_diffrn_reflns_limit_k_max        18
_diffrn_reflns_limit_l_min        -9
_diffrn_reflns_limit_l_max        7
_diffrn_reflns_theta_min          2.024
_diffrn_reflns_theta_max          29.057
_diffrn_reflns_theta_full         25.242
_diffrn_measured_fraction_theta_max   0.837
_diffrn_measured_fraction_theta_full  1.000
_diffrn_reflns_Laue_measured_fraction_max    0.837
_diffrn_reflns_Laue_measured_fraction_full   1.000
_diffrn_reflns_point_group_measured_fraction_max   0.837
_diffrn_reflns_point_group_measured_fraction_full  1.000
_reflns_number_total              2148
_reflns_number_gt                 1805
_reflns_threshold_expression      'I > 2\s(I)'
_reflns_Friedel_coverage          0.000
_reflns_Friedel_fraction_max      .
_reflns_Friedel_fraction_full     .
 
_reflns_special_details
;
 Reflections were merged by SHELXL according to the crystal
 class for the calculation of statistics and refinement.
 
 _reflns_Friedel_fraction is defined as the number of unique
 Friedel pairs measured divided by the number that would be
 possible theoretically, ignoring centric projections and
 systematic absences.
;
 
_computing_data_collection        ?
_computing_cell_refinement        ?
_computing_data_reduction         ?
_computing_structure_solution     'SHELXT 2018/2 (Sheldrick, 2018)'
_computing_structure_refinement 'SHELXL-2019/2 (Sheldrick, 2019)'
_computing_molecular_graphics     ?
_computing_publication_material   ?
_refine_special_details           ?
_refine_ls_structure_factor_coef  Fsqd
_refine_ls_matrix_type            full
_refine_ls_weighting_scheme       calc
_refine_ls_weighting_details
'w=1/[\s^2^(Fo^2^)+(0.0324P)^2^+0.3925P] where P=(Fo^2^+2Fc^2^)/3'
_atom_sites_solution_primary      ?
_atom_sites_solution_secondary    ?
_atom_sites_solution_hydrogens    mixed
_refine_ls_hydrogen_treatment     mixed
_refine_ls_extinction_method      none
_refine_ls_extinction_coef        .
_refine_ls_number_reflns          2148
_refine_ls_number_parameters      150
_refine_ls_number_restraints      0
_refine_ls_R_factor_all           0.0434
_refine_ls_R_factor_gt            0.0330
_refine_ls_wR_factor_ref          0.0797
_refine_ls_wR_factor_gt           0.0737
_refine_ls_goodness_of_fit_ref    1.054
_refine_ls_restrained_S_all       1.054
_refine_ls_shift/su_max           0.001
_refine_ls_shift/su_mean          0.000
 
loop_
 _atom_site_label
 _atom_site_type_symbol
 _atom_site_fract_x
 _atom_site_fract_y
 _atom_site_fract_z
 _atom_site_U_iso_or_equiv
 _atom_site_adp_type
 _atom_site_occupancy
 _atom_site_site_symmetry_order  
 _atom_site_calc_flag
 _atom_site_refinement_flags_posn
 _atom_site_refinement_flags_adp
 _atom_site_refinement_flags_occupancy
 _atom_site_disorder_assembly
 _atom_site_disorder_group
C1 C 0.4607(2) 0.74678(17) 0.6746(3) 0.0186(5) Uani 1 1 d . . . . .
N3 N 0.58545(18) 0.79021(13) 0.7334(3) 0.0202(4) Uani 1 1 d . . . . .
C4 C 0.7893(2) 0.82274(16) 0.8341(4) 0.0208(5) Uani 1 1 d . . . . .
Co1 Co 0.16260(3) 0.52481(2) 0.57022(5) 0.02244(13) Uani 1 1 d . . . . .
N1 N 0.29795(19) 0.64045(14) 0.6032(3) 0.0237(5) Uani 1 1 d . . . . .
C2 C 0.4278(2) 0.64949(17) 0.6628(4) 0.0236(5) Uani 1 1 d . . . . .
H2 H 0.486877 0.598881 0.691768 0.028 Uiso 1 1 calc R U . . .
C5 C 0.7044(2) 0.74872(17) 0.7871(4) 0.0239(5) Uani 1 1 d . . . . .
H5 H 0.724005 0.683378 0.790934 0.029 Uiso 1 1 calc R U . . .
N5 N 0.71965(19) 0.90601(14) 0.8074(3) 0.0244(5) Uani 1 1 d . . . . .
O2 O 0.97927(15) 0.90836(11) 0.9503(3) 0.0248(4) Uani 1 1 d . . . . .
C6 C 0.9325(2) 0.82445(17) 0.9107(4) 0.0248(6) Uani 1 1 d . . . . .
C3 C 0.3456(2) 0.79618(17) 0.6203(4) 0.0263(6) Uani 1 1 d . . . . .
H3 H 0.335594 0.862608 0.613647 0.032 Uiso 1 1 calc R U . . .
N2 N 0.25088(19) 0.73083(14) 0.5790(3) 0.0265(5) Uani 1 1 d . . . . .
H2A H 0.169116 0.744571 0.541156 0.032 Uiso 1 1 calc R U . . .
N4 N 0.59469(19) 0.88738(14) 0.7456(3) 0.0260(5) Uani 1 1 d . . . . .
Cl2 Cl 0.22191(7) 0.48520(5) 0.25004(10) 0.03357(18) Uani 1 1 d . . . . .
O3 O 0.1042(2) 0.56269(16) 0.8408(3) 0.0366(5) Uani 1 1 d . . . . .
H3A H 0.043(4) 0.584(3) 0.8269(9) 0.055 Uiso 1 1 calc R U . . .
H1 H 0.121(4) 0.536(2) 0.943(5) 0.055 Uiso 1 1 d . U . . .
O1 O 0.99375(17) 0.74858(13) 0.9326(3) 0.0447(6) Uani 1 1 d . . . . .
 
loop_
 _atom_site_aniso_label
 _atom_site_aniso_U_11
 _atom_site_aniso_U_22
 _atom_site_aniso_U_33
 _atom_site_aniso_U_23
 _atom_site_aniso_U_13
 _atom_site_aniso_U_12
C1 0.0113(11) 0.0174(11) 0.0261(12) -0.0031(10) -0.0026(9) -0.0043(8)
N3 0.0115(9) 0.0166(10) 0.0309(11) -0.0037(9) -0.0039(8) -0.0015(8)
C4 0.0115(11) 0.0181(11) 0.0312(13) -0.0032(10) -0.0036(10) 0.0005(9)
Co1 0.01264(19) 0.01433(19) 0.0382(2) 0.00074(14) -0.00611(14) -0.00102(12)
N1 0.0162(10) 0.0161(10) 0.0369(12) -0.0011(9) -0.0047(9) -0.0034(8)
C2 0.0118(11) 0.0198(12) 0.0373(14) -0.0015(11) -0.0055(10) -0.0004(9)
C5 0.0149(12) 0.0150(11) 0.0402(14) -0.0032(11) -0.0039(10) 0.0009(9)
N5 0.0114(10) 0.0197(10) 0.0404(12) -0.0021(9) -0.0049(8) -0.0011(8)
O2 0.0130(8) 0.0161(8) 0.0429(10) -0.0046(8) -0.0065(7) -0.0021(7)
C6 0.0118(12) 0.0213(12) 0.0396(14) -0.0053(11) -0.0040(10) -0.0004(10)
C3 0.0154(12) 0.0160(12) 0.0453(15) -0.0036(11) -0.0051(11) -0.0015(9)
N2 0.0103(10) 0.0182(11) 0.0486(13) -0.0030(10) -0.0063(9) 0.0003(8)
N4 0.0126(10) 0.0177(10) 0.0453(13) -0.0016(10) -0.0070(9) -0.0018(8)
Cl2 0.0397(4) 0.0222(3) 0.0388(4) 0.0004(3) 0.0044(3) 0.0021(3)
O3 0.0307(12) 0.0378(12) 0.0397(11) 0.0024(10) -0.0028(9) 0.0089(9)
O1 0.0173(10) 0.0176(9) 0.0937(17) -0.0072(10) -0.0163(10) 0.0027(7)
 
_geom_special_details
;
 All esds (except the esd in the dihedral angle between two l.s. planes)
 are estimated using the full covariance matrix.  The cell esds are taken
 into account individually in the estimation of esds in distances, angles
 and torsion angles; correlations between esds in cell parameters are only
 used when they are defined by crystal symmetry.  An approximate (isotropic)
 treatment of cell esds is used for estimating esds involving l.s. planes.
;
 
loop_
 _geom_bond_atom_site_label_1
 _geom_bond_atom_site_label_2
 _geom_bond_distance
 _geom_bond_site_symmetry_2
 _geom_bond_publ_flag
C1 C3 1.367(3) . ?
C1 C2 1.393(3) . ?
C1 N3 1.416(3) . ?
N3 C5 1.348(3) . ?
N3 N4 1.357(3) . ?
C4 C5 1.356(3) . ?
C4 N5 1.357(3) . ?
C4 C6 1.485(3) . ?
Co1 O3 2.083(2) . ?
Co1 N1 2.1084(19) . ?
Co1 N5 2.150(2) 2_646 ?
Co1 O2 2.1525(16) 4_475 ?
Co1 O2 2.1589(16) 2_646 ?
Co1 Cl2 2.4110(8) . ?
N1 C2 1.337(3) . ?
N1 N2 1.348(3) . ?
C2 H2 0.9300 . ?
C5 H5 0.9300 . ?
N5 N4 1.313(3) . ?
O2 C6 1.277(3) . ?
C6 O1 1.224(3) . ?
C3 N2 1.328(3) . ?
C3 H3 0.9300 . ?
N2 H2A 0.8600 . ?
O3 H3A 0.68(4) . ?
O3 H1 0.79(3) . ?
 
loop_
 _geom_angle_atom_site_label_1
 _geom_angle_atom_site_label_2
 _geom_angle_atom_site_label_3
 _geom_angle
 _geom_angle_site_symmetry_1
 _geom_angle_site_symmetry_3
 _geom_angle_publ_flag
C3 C1 C2 106.4(2) . . ?
C3 C1 N3 124.6(2) . . ?
C2 C1 N3 129.0(2) . . ?
C5 N3 N4 110.90(18) . . ?
C5 N3 C1 129.4(2) . . ?
N4 N3 C1 119.70(19) . . ?
C5 C4 N5 108.1(2) . . ?
C5 C4 C6 131.5(2) . . ?
N5 C4 C6 120.3(2) . . ?
O3 Co1 N1 87.73(8) . . ?
O3 Co1 N5 92.76(8) . 2_646 ?
N1 Co1 N5 102.72(8) . 2_646 ?
O3 Co1 O2 84.82(7) . 4_475 ?
N1 Co1 O2 103.46(7) . 4_475 ?
N5 Co1 O2 153.58(7) 2_646 4_475 ?
O3 Co1 O2 89.51(8) . 2_646 ?
N1 Co1 O2 177.24(7) . 2_646 ?
N5 Co1 O2 77.51(7) 2_646 2_646 ?
O2 Co1 O2 76.17(6) 4_475 2_646 ?
O3 Co1 Cl2 177.40(6) . . ?
N1 Co1 Cl2 92.52(6) . . ?
N5 Co1 Cl2 89.71(6) 2_646 . ?
O2 Co1 Cl2 92.61(5) 4_475 . ?
O2 Co1 Cl2 90.23(5) 2_646 . ?
C2 N1 N2 105.74(18) . . ?
C2 N1 Co1 135.14(16) . . ?
N2 N1 Co1 118.81(14) . . ?
N1 C2 C1 109.2(2) . . ?
N1 C2 H2 125.4 . . ?
C1 C2 H2 125.4 . . ?
N3 C5 C4 105.2(2) . . ?
N3 C5 H5 127.4 . . ?
C4 C5 H5 127.4 . . ?
N4 N5 C4 109.95(19) . . ?
N4 N5 Co1 138.39(16) . 2_656 ?
C4 N5 Co1 110.32(14) . 2_656 ?
C6 O2 Co1 139.30(15) . 4_676 ?
C6 O2 Co1 116.38(14) . 2_656 ?
Co1 O2 Co1 103.83(6) 4_676 2_656 ?
O1 C6 O2 126.3(2) . . ?
O1 C6 C4 119.3(2) . . ?
O2 C6 C4 114.4(2) . . ?
N2 C3 C1 106.6(2) . . ?
N2 C3 H3 126.7 . . ?
C1 C3 H3 126.7 . . ?
C3 N2 N1 112.05(19) . . ?
C3 N2 H2A 124.0 . . ?
N1 N2 H2A 124.0 . . ?
N5 N4 N3 105.87(18) . . ?
Co1 O3 H3A 109.5 . . ?
Co1 O3 H1 128(3) . . ?
H3A O3 H1 115.2 . . ?
 
_refine_diff_density_max    0.410
_refine_diff_density_min   -0.386
_refine_diff_density_rms    0.076

_shelx_res_file
;
TITL OAV819_auto_a.res in P2(1)/c
    OAV819.res
    created by SHELXL-2019/3 at 11:38:51 on 14-May-2024

CELL  0.71073  10.1303  13.9083   6.8703   90.000   96.725   90.000
ZERR   4  0.0006   0.0008   0.0005    0.000    0.006    0.000
LATT  1
SYMM -X, 1/2+Y, 1/2-Z
SFAC C N O Co Cl H
UNIT 24 20 12 4 4 24
ACTA
LIST 4

TEMP 18
L.S. 10
BOND $H

REM LIST 4
FMAP 2
PLAN 20
WGHT    0.032400    0.392500
FVAR       0.40363
C1    1    0.460716    0.746776    0.674564    11.00000    0.01131    0.01735 =
         0.02614   -0.00307   -0.00260   -0.00427
N3    2    0.585448    0.790213    0.733433    11.00000    0.01153    0.01656 =
         0.03093   -0.00368   -0.00387   -0.00152
C4    1    0.789252    0.822738    0.834122    11.00000    0.01155    0.01812 =
         0.03116   -0.00320   -0.00356    0.00047
CO1   4    0.162601    0.524812    0.570225    11.00000    0.01264    0.01433 =
         0.03820    0.00074   -0.00611   -0.00102
N1    2    0.297952    0.640450    0.603198    11.00000    0.01624    0.01614 =
         0.03695   -0.00107   -0.00466   -0.00338
C2    1    0.427847    0.649495    0.662787    11.00000    0.01182    0.01982 =
         0.03725   -0.00150   -0.00554   -0.00043
AFIX  43
H2    6    0.486877    0.598881    0.691768    11.00000   -1.20000
AFIX   0
C5    1    0.704375    0.748719    0.787052    11.00000    0.01495    0.01497 =
         0.04024   -0.00324   -0.00387    0.00086
AFIX  43
H5    6    0.724005    0.683378    0.790934    11.00000   -1.20000
AFIX   0
N5    2    0.719650    0.906015    0.807441    11.00000    0.01142    0.01966 =
         0.04038   -0.00211   -0.00486   -0.00112
O2    3    0.979268    0.908360    0.950326    11.00000    0.01304    0.01612 =
         0.04293   -0.00461   -0.00648   -0.00207
C6    1    0.932513    0.824451    0.910730    11.00000    0.01184    0.02130 =
         0.03958   -0.00532   -0.00399   -0.00044
C3    1    0.345610    0.796179    0.620305    11.00000    0.01539    0.01604 =
         0.04528   -0.00361   -0.00509   -0.00148
AFIX  43
H3    6    0.335594    0.862608    0.613647    11.00000   -1.20000
AFIX   0
N2    2    0.250878    0.730833    0.578954    11.00000    0.01034    0.01815 =
         0.04860   -0.00298   -0.00631    0.00031
AFIX  43
H2A   6    0.169116    0.744571    0.541156    11.00000   -1.20000
AFIX   0
N4    2    0.594687    0.887382    0.745606    11.00000    0.01264    0.01767 =
         0.04534   -0.00165   -0.00698   -0.00175
CL2   5    0.221909    0.485196    0.250043    11.00000    0.03966    0.02217 =
         0.03883    0.00037    0.00438    0.00208
O3    3    0.104170    0.562691    0.840777    11.00000    0.03072    0.03781 =
         0.03970    0.00243   -0.00284    0.00893
AFIX 148
H3A   6    0.043039    0.584177    0.826911    11.00000   -1.50000
AFIX   0
H1    6    0.121055    0.536002    0.942649    11.00000   -1.50000
O1    3    0.993749    0.748577    0.932551    11.00000    0.01731    0.01755 =
         0.09370   -0.00722   -0.01633    0.00269
HKLF 4




REM  OAV819_auto_a.res in P2(1)/c
REM wR2 = 0.0797, GooF = S = 1.054, Restrained GooF = 1.054 for all data
REM R1 = 0.0330 for 1805 Fo > 4sig(Fo) and 0.0434 for all 2148 data
REM 150 parameters refined using 0 restraints

END

WGHT      0.0324      0.3925

REM Highest difference peak  0.410,  deepest hole -0.386,  1-sigma level  0.076
Q1    1   0.8554  0.8200  0.8801  11.00000  0.05    0.41
Q2    1   0.1648  0.5212  0.7111  11.00000  0.05    0.41
Q3    1   1.0301  0.7791  0.8455  11.00000  0.05    0.37
Q4    1   0.2237  0.4536  0.3804  11.00000  0.05    0.34
Q5    1   0.4594  0.7009  0.6311  11.00000  0.05    0.33
Q6    1   0.5078  0.7609  0.6853  11.00000  0.05    0.29
Q7    1   0.4396  0.6974  0.7143  11.00000  0.05    0.28
Q8    1   0.7595  0.8591  0.7770  11.00000  0.05    0.28
Q9    1   0.2779  0.6824  0.5830  11.00000  0.05    0.28
Q10   1   0.2171  0.5535  0.2859  11.00000  0.05    0.25
Q11   1   0.3458  0.8190  0.6041  11.00000  0.05    0.25
Q12   1   0.1864  0.5720  0.4335  11.00000  0.05    0.24
Q13   1   0.9389  0.8628  0.9936  11.00000  0.05    0.24
Q14   1   0.3622  0.6442  0.6294  11.00000  0.05    0.24
Q15   1   0.3542  0.9214  0.8214  11.00000  0.05    0.24
Q16   1   0.8550  0.8999  1.0915  11.00000  0.05    0.23
Q17   1   0.2367  0.5444  0.3376  11.00000  0.05    0.23
Q18   1   0.1656  0.5730  0.7119  11.00000  0.05    0.23
Q19   1   0.4177  0.7738  0.6438  11.00000  0.05    0.23
Q20   1   0.7651  0.7833  0.7294  11.00000  0.05    0.22
;
_shelx_res_checksum   51852

_shelx_hkl_file
;
   0   0  -1    0.75    0.33
   0   0  -1    0.80    0.32
   0   0  -2  336.34    9.27
   0   0  -2  343.57    9.33
   0   0  -3    0.75    0.63
   0   0  -3    1.73    0.72
   0   0  -4    1.26    0.86
   0   0  -4    1.09    0.83
   0   0  -5   -0.03    0.75
   0   0  -5    0.29    0.73
   0   0  -6  399.76   14.68
   0   0  -6  382.36   14.33
   0   0  -7   -0.11    1.07
   0   0  -8   16.02    3.34
   0   1  -1 2797.15   57.46
   0  -1   1 2730.65   57.54
   0   1  -2   37.08    2.45
   0   1  -2   41.06    2.58
   0  -1  -2   37.59    2.05
   0  -1  -2   37.34    2.03
   0   1  -3   62.31    3.80
   0  -1  -3   58.66    3.26
   0  -1  -3   63.22    3.40
   0   1  -3   63.77    3.85
   0   1  -4    7.05    1.60
   0  -1  -4    5.91    1.30
   0   1  -4    5.37    1.38
   0  -1  -4    4.48    0.97
   0  -1  -5  106.00    5.90
   0   1  -5  104.70    6.37
   0  -1  -5  112.80    6.11
   0   1  -5  115.78    6.70
   0   1  -6    9.39    1.98
   0  -1  -6   10.02    2.10
   0  -1  -6   12.22    2.42
   0   1  -6    9.06    2.01
   0  -1  -7  119.03    7.57
   0  -1  -7  109.61    7.38
   0   1  -7  118.15    8.04
   0   1  -8    1.05    1.36
   0  -1  -8    1.52    1.35
   0   1  -9    8.04    2.75
   0  -2   0  169.44    4.37
   0   2   0  166.37    4.39
   0   2  -1   31.75    2.00
   0  -2   1   34.69    2.08
   0  -2  -2   20.01    1.29
   0   2   2   20.97    1.35
   0  -2  -2   21.00    1.31
   0   2  -2   20.21    1.98
   0   2  -3  156.87    6.86
   0   2  -3  165.83    6.97
   0  -2  -3  168.13    5.70
   0  -2  -3  160.81    5.68
   0   2  -4   93.28    5.66
   0  -2  -4  104.03    4.92
   0  -2  -4   92.40    4.64
   0   2  -4   91.81    5.58
   0   2  -5    8.95    1.95
   0   2  -5    6.05    1.74
   0  -2  -5    7.44    1.56
   0  -2  -5    5.97    1.36
   0   2  -6  196.03   10.01
   0  -2  -6  182.35    8.58
   0  -2  -6  175.51    8.31
   0  -2  -7    1.62    1.11
   0   2  -7    3.06    1.89
   0  -2  -7    2.61    1.38
   0  -2  -8    2.23    1.26
   0   2  -8    0.67    1.76
   0   2  -9   -3.95    2.03
   0  -3   0    0.92    0.38
   0   3   0    0.25    0.35
   0   3  -1   74.41    3.48
   0  -3   1   82.72    3.68
   0   3   1   77.36    2.42
   0   3  -2   28.00    2.45
   0  -3  -2   28.20    1.26
   0  -3  -2   24.24    1.33
   0   3   2   24.67    1.34
   0   3   3  233.75    6.87
   0   3  -3  239.62    9.17
   0  -3  -3  227.49    6.92
   0   3  -3  242.32    9.19
   0  -3  -3  238.97    6.89
   0  -3  -4  165.76    6.37
   0   3  -4  172.37    8.24
   0  -3  -4  175.09    6.39
   0   3  -4  169.09    8.23
   0   3  -5   43.64    4.30
   0  -3  -5   39.39    3.10
   0  -3  -5   44.34    3.33
   0   3  -5   41.30    4.18
   0  -3  -6    2.20    1.25
   0  -3  -6   -0.46    0.76
   0   3  -6    0.26    1.00
   0  -3  -7   76.85    5.51
   0   3  -7   70.87    6.62
   0   3  -8    7.77    2.67
   0   4   0 2559.60   52.18
   0  -4   0 2414.70   52.16
   0  -4   1  716.34   17.96
   0   4  -1  722.28   17.90
   0   4   2   14.19    1.00
   0   4  -2   13.77    1.89
   0  -4  -3   75.55    3.07
   0   4  -3   79.08    5.03
   0  -4  -3   77.37    2.90
   0   4   3   84.17    3.17
   0   4  -4   58.74    4.76
   0  -4  -4   62.99    3.30
   0  -4  -4   64.33    3.22
   0   4  -4   68.58    5.17
   0   4  -5   26.26    3.48
   0  -4  -5   24.57    2.32
   0   4  -5   27.29    3.64
   0  -4  -5   26.83    2.38
   0  -4  -6  240.56    9.12
   0  -4  -6  216.65    8.78
   0   4  -6  224.62   11.60
   0  -4  -7    8.99    1.82
   0   4  -7   12.09    3.07
   0   4  -8    7.26    2.65
   0  -5   0    0.02    0.41
   0   5   0   -0.19    0.41
   0   5   1  228.90    5.74
   0   5  -1  209.44    7.63
   0   5   2   25.37    1.40
   0   5  -2   21.40    2.41
   0   5   3   12.70    1.04
   0  -5  -3   10.16    0.95
   0   5  -3   13.88    2.25
   0  -5  -4  211.76    6.34
   0   5  -4  230.34   10.40
   0  -5  -4  219.78    6.69
   0   5  -4  219.99   10.13
   0  -5  -5   86.63    4.11
   0   5  -5   84.17    6.47
   0  -5  -5   75.29    3.90
   0   5  -6   10.48    2.48
   0  -5  -6   11.14    1.70
   0  -5  -6   10.66    1.69
   0   5  -7   20.35    3.84
   0  -5  -7   14.86    2.14
   0   5  -8    6.10    2.35
   0   6   0   16.15    1.59
   0   6  -1  287.24    9.86
   0   6   1  318.71    7.97
   0   6   2    0.51    0.39
   0   6  -2    0.08    1.00
   0   6  -3   92.69    5.93
   0   6   3   89.32    3.06
   0   6  -4    0.25    0.83
   0  -6  -4    1.19    0.47
   0   6  -4   -0.05    0.92
   0  -6  -4    0.07    0.17
   0   6  -5  274.33   12.63
   0  -6  -5  256.08    7.75
   0  -6  -5  252.28    7.36
   0   6  -6  122.53    8.76
   0  -6  -6  118.73    5.17
   0  -6  -6  126.21    5.22
   0   6  -7   -1.89    2.21
   0   6  -8    3.45    1.87
   0   7   0   -0.04    0.56
   0   7  -1  263.08    9.31
   0   7   1  257.27    7.28
   0   7   2  250.43    7.13
   0   7  -2  258.27   10.13
   0   7  -3   71.72    5.38
   0   7   3   74.42    2.73
   0   7  -4  305.88   13.13
   0   7  -5   17.57    3.14
   0   7  -6   53.06    5.88
   0   7  -7    0.44    1.51
   0   8   0  762.31   19.46
   0   8  -1 1175.04   28.70
   0   8   1 1127.06   25.81
   0   8   2   12.95    1.33
   0   8  -2   10.68    1.96
   0   8  -3   68.65    5.43
   0   8   3   70.54    2.75
   0   8  -4  105.38    7.36
   0   8  -5  289.31   13.95
   0   8  -6   72.70    7.15
   0   8  -7    6.60    2.47
   0   9   0    0.40    0.68
   0   9  -1   28.36    2.94
   0   9   1   30.80    2.24
   0   9  -2  740.18   22.06
   0   9   2  756.59   18.40
   0   9  -3    9.81    2.34
   0   9   3    8.39    0.91
   0   9  -4  178.80   10.16
   0   9  -5   -0.18    1.73
   0   9  -6   22.80    4.45
   0   9  -7   -2.52    1.75
   0  10   0    9.99    1.61
   0  10   1  368.63   10.79
   0  10  -1  365.65   12.98
   0  10   2   71.28    3.81
   0  10  -2   70.92    5.45
   0  10  -3  375.06   15.56
   0  10   3  430.39   10.83
   0  10  -4  104.62    7.83
   0  10  -5  224.24   12.73
   0  10  -6   39.78    5.60
   0  11   0   -0.22    0.68
   0  11   1    1.53    0.75
   0  11  -1   -0.73    0.84
   0  11  -2  344.76   14.12
   0  11   2  388.34   11.53
   0  11   3    1.42    0.42
   0  11  -3    0.12    1.11
   0  11  -4  185.26   10.98
   0  11  -5   21.77    4.11
   0  11  -6   23.42    4.45
   0  12   0   62.44    4.50
   0  12  -1    3.12    1.19
   0  12   1    4.22    1.07
   0  12   2   17.16    2.09
   0  12  -2   14.46    2.63
   0  12   3    2.26    0.63
   0  12  -3    3.28    1.67
   0  12  -4   11.33    2.92
   0  12  -5  197.03   12.49
   0  13   0    0.10    0.84
   0  13   1    3.00    1.10
   0  13  -1    3.69    1.52
   0  13   2    1.54    0.91
   0  13  -2   -0.69    1.38
   0  13  -3    5.71    2.18
   0  13  -4   59.36    6.47
   0  13  -5   -2.90    1.87
   0  14   0  138.69    7.52
   0  14  -1  166.62    9.27
   0  14   1  183.70    7.62
   0  14   2   35.19    3.19
   0  14  -2   35.00    4.40
   0  14  -3    9.19    2.60
   0  14  -4    2.56    2.22
   0  14  -5  116.34    9.93
   0  15   0    0.49    0.92
   0  15  -1  201.26   10.52
   0  15  -2  140.13    9.29
   0  15  -3    2.28    3.02
   0  15  -4   43.54    5.86
   0  16   0   63.29    5.22
   0  16  -1  130.07    8.45
   0  16  -2   43.66    5.39
   0  16  -3    0.56    1.52
   0  16  -4   -6.01    2.51
   0  17  -1   94.56    7.35
   0  17  -2   12.31    3.19
   0  17  -3    5.42    2.27
   1   0  -9   -2.09    1.96
   1   0  -8   54.45    5.59
   1   0  -7    0.07    1.18
   1   0  -6    1.74    0.87
   1   0  -6    1.02    1.08
   1   0  -5   -0.63    0.72
   1   0  -5    0.31    0.87
   1   0  -4  160.77    6.99
   1   0  -4  157.80    6.80
   1   0  -3    1.24    0.76
  -1   0   3    2.25    0.87
  -1   0   2 9976.48  203.35
   1   0  -2 9999.00  203.36
  -1   0   1    0.33    0.36
   1   0  -1    0.35    0.37
  -1   0   0  653.31   14.32
  -1   0  -1    0.06    0.33
   1   0   1    0.09    0.41
   1   0   2  208.65    6.97
  -1   0  -2  214.92    7.01
   1   0   3   -0.13    0.68
  -1   0  -3    0.99    0.57
  -1   0  -4  566.03   17.16
  -1   0  -4  628.69   17.55
  -1   0  -5    0.08    0.92
  -1   0  -5   -0.52    1.02
  -1   0  -6  182.21    9.32
  -1   0  -6  164.77    8.94
  -1   0  -7    0.58    1.49
  -1   0  -8    1.50    1.36
   1   1  -9   50.22    5.94
   1  -1  -8   -0.50    1.08
   1   1  -8   -0.57    1.37
   1  -1  -7    0.97    0.97
   1  -1  -7   -0.11    1.11
   1   1  -7   -0.93    1.36
   1   1  -6    3.11    1.36
   1  -1  -6   -0.83    1.07
   1   1  -6    2.71    1.32
   1  -1  -6    1.33    1.24
   1   1  -5   34.45    3.56
   1  -1  -5   36.91    3.33
   1   1  -5   34.76    3.55
   1  -1  -5   34.66    3.12
   1  -1  -4  198.21    7.48
   1   1  -4  207.55    8.46
   1  -1  -4  203.15    7.74
   1   1  -4  199.29    8.23
   1  -1  -3 2837.15   59.11
   1   1  -3 2754.81   60.21
   1  -1  -3 2717.58   58.65
  -1  -1   3 2734.50   60.24
  -1   1   3 2754.74   59.17
   1   1  -2 3414.31   72.02
  -1   1   2 3410.15   70.93
   1  -1  -2 3404.34   70.87
  -1  -1   2 3437.93   72.06
  -1   1   1 1554.08   32.57
   1   1  -1 1559.36   33.50
  -1  -1   1 1546.27   33.46
   1  -1  -1 1572.10   32.56
   1  -1   0    6.56    0.63
   1   1   0    5.48    0.64
  -1   1   0    5.50    0.60
  -1  -1   0    5.66    0.63
  -1  -1   0    5.89    0.67
  -1   1  -1   22.59    1.65
   1  -1   1   24.79    1.75
  -1  -1  -1   22.75    1.49
   1   1   1   25.96    1.58
  -1  -1  -2   32.74    2.17
   1   1   2   34.95    2.25
  -1   1  -2   33.22    2.48
   1  -1   2   36.13    2.58
  -1   1  -3  532.54   15.30
   1   1   3  544.43   14.66
  -1  -1  -3  526.66   14.58
  -1  -1  -4  161.62    7.17
  -1  -1  -4  164.54    7.13
  -1   1  -4  165.44    7.64
  -1   1  -4  157.32    7.51
  -1  -1  -5   69.35    4.80
  -1  -1  -5   65.96    4.79
  -1   1  -5   73.09    5.29
  -1   1  -5   68.21    5.21
  -1  -1  -6    5.39    1.58
  -1  -1  -6    8.78    2.06
  -1   1  -6    7.32    2.01
  -1   1  -7  189.55   10.59
  -1  -1  -7  177.45    9.70
  -1  -1  -8    1.37    1.32
  -1   1  -8    2.43    1.53
  -1   1  -9   22.30    4.21
   1   2  -9    2.34    2.30
   1  -2  -8   17.31    2.94
   1   2  -8   14.92    3.36
   1  -2  -7    2.22    1.47
   1  -2  -7    0.68    1.10
   1   2  -7    1.99    1.34
   1  -2  -6    4.29    1.15
   1   2  -6    2.53    1.55
   1   2  -6    6.49    1.73
   1  -2  -6    2.96    1.26
   1   2  -5   80.72    5.64
   1  -2  -5   73.29    4.36
   1  -2  -5   73.03    4.58
   1   2  -5   75.59    5.41
   1  -2  -4  290.96    9.23
   1   2  -4  299.63   11.12
   1  -2  -4  310.12    9.69
  -1  -2   3  385.30   12.35
   1  -2  -3  404.10   10.74
   1  -2  -3  386.87   10.29
   1   2  -3  426.98   12.67
  -1   2   2  110.23    3.69
   1  -2  -2  116.94    3.37
  -1  -2   2  117.23    5.04
   1  -2  -2  117.23    3.76
   1   2  -2  115.43    5.02
  -1  -2   1   12.12    1.23
  -1   2   1   11.57    0.74
   1   2  -1   11.51    1.27
  -1   2   0 1762.30   36.67
   1   2   0 1769.75   36.79
   1  -2   0 1720.43   36.67
  -1  -2   0 1737.85   36.79
   1  -2   1  194.63    6.26
   1   2   1  193.72    5.52
  -1  -2  -1  181.58    5.44
  -1   2  -1  191.56    6.22
   1   2   2   47.36    2.59
  -1  -2  -2   48.41    2.60
  -1   2  -2   49.95    3.23
  -1  -2  -3    4.33    0.94
  -1   2  -3    2.34    0.93
  -1   2  -3    3.95    1.24
   1   2   3    4.99    1.02
  -1  -2  -4  330.72   10.48
  -1   2  -4  292.69   11.44
  -1   2  -4  297.74   11.42
   1   2   4  328.44   10.51
  -1  -2  -4  284.52   10.06
  -1   2  -5   16.94    2.61
  -1  -2  -5   17.98    2.33
  -1  -2  -5   18.75    2.40
  -1   2  -5   16.62    2.64
  -1  -2  -6   78.88    5.62
  -1  -2  -6   88.48    5.84
  -1   2  -6   81.52    6.40
  -1   2  -7   32.75    4.40
  -1  -2  -7   23.44    3.23
  -1  -2  -8    0.81    1.14
  -1   2  -8    2.90    2.07
  -1   2  -9    4.65    2.27
   1   3  -9   42.56    5.84
   1   3  -8   -0.77    1.62
   1  -3  -7    8.09    1.83
   1   3  -7   10.57    2.74
   1  -3  -6    3.61    1.30
   1   3  -6    3.58    1.37
   1  -3  -6    3.77    1.14
   1  -3  -5    5.12    1.19
   1  -3  -5    3.35    0.87
   1   3  -5    6.32    1.66
   1   3  -5    3.18    1.34
   1  -3  -4   80.13    3.89
   1  -3  -4   74.99    3.57
   1   3  -4   74.46    5.16
   1  -3  -3 1232.11   26.79
   1   3  -3 1245.99   30.63
   1  -3  -3 1257.98   27.34
  -1  -3   3 1237.05   30.64
   1   3  -2    7.28    1.40
   1  -3  -2    6.03    0.56
  -1   3   2    5.58    0.59
  -1  -3   2    6.18    1.25
  -1  -3   1  308.21    8.94
   1   3  -1  308.48    9.00
  -1  -3   0   21.28    1.47
   1   3   0   18.85    1.42
  -1   3   0   17.88    1.35
  -1   3  -1 1095.37   25.62
  -1  -3  -1 1095.07   24.41
   1   3   1 1129.29   24.42
   1   3   2  171.00    5.52
  -1   3  -2  177.27    7.00
  -1  -3  -2  166.47    5.50
  -1   3  -3  786.43   21.39
   1   3   3  778.21   18.98
  -1  -3  -3  766.58   19.13
  -1   3  -3  781.65   21.44
   1   3   4    0.79    0.59
  -1   3  -4    0.56    0.86
  -1  -3  -4    1.19    0.66
  -1   3  -4    0.30    0.81
  -1  -3  -4    1.29    0.61
  -1  -3  -5   21.57    2.40
  -1   3  -5   23.40    3.22
  -1  -3  -5   22.44    2.59
  -1   3  -5   19.83    3.02
  -1  -3  -6   -0.05    0.86
  -1   3  -6    3.40    1.86
  -1  -3  -6    0.99    0.84
  -1   3  -7   67.43    6.54
  -1  -3  -7   74.65    5.61
  -1   3  -8   14.71    3.44
   1   4  -8    7.99    2.85
   1   4  -7   11.42    2.94
   1  -4  -7   13.42    2.23
   1  -4  -6    2.12    0.94
   1  -4  -6    0.80    0.79
   1   4  -6    3.88    1.77
   1  -4  -5   28.11    2.39
   1   4  -5   27.61    3.44
   1   4  -5   26.63    3.56
   1  -4  -5   24.62    2.07
   1  -4  -4  238.65    7.00
   1   4  -4  256.10   10.65
   1  -4  -4  252.48    7.52
   1  -4  -3    4.42    0.61
   1   4  -3    5.41    1.44
  -1  -4   3    7.26    1.60
   1   4  -2  379.85   11.74
  -1  -4   2  365.27   11.62
   1   4  -1    5.04    1.01
  -1  -4   1    4.45    0.98
  -1   4   1    5.35    0.58
   1   4   0  542.71   13.18
  -1   4   0  534.83   13.21
  -1  -4   0  523.22   13.09
  -1  -4  -1  570.66   13.40
  -1   4  -1  583.65   15.39
   1   4   1  601.08   14.17
   1   4   2   52.83    2.69
  -1   4  -2   57.65    3.83
  -1  -4  -2   51.81    2.69
  -1   4  -2   54.69    3.80
  -1  -4  -3  186.15    6.47
   1   4   3  192.78    6.50
  -1   4  -3  203.07    8.69
  -1   4  -3  199.16    8.71
  -1   4  -4  274.36   11.27
   1   4   4  276.14    8.98
  -1  -4  -4  272.80    8.63
  -1   4  -4  267.06   11.30
  -1  -4  -4  250.71    8.77
  -1  -4  -5   75.12    4.63
  -1   4  -5   83.37    6.28
  -1  -4  -5   81.26    4.56
  -1  -4  -6  141.80    7.30
  -1  -4  -6  148.83    7.15
  -1   4  -6  148.30    9.42
  -1   4  -7    3.47    2.05
  -1  -4  -7    4.79    1.47
  -1   4  -8   -2.07    1.69
   1   5  -8   10.35    2.93
   1   5  -7    3.88    2.00
   1  -5  -7    3.45    1.03
   1   5  -6    2.37    1.63
   1  -5  -6    3.37    1.01
   1  -5  -6    3.79    0.86
   1   5  -5    6.17    1.79
   1  -5  -5    4.96    0.85
   1  -5  -5    4.27    0.85
   1   5  -4  256.47   11.06
   1  -5  -4  249.78    6.25
   1  -5  -4  259.20    6.95
   1   5  -3  431.03   14.50
  -1  -5   3  455.72   14.95
   1   5  -2  339.98   11.43
  -1  -5   2  347.41   11.53
   1   5  -1   15.22    1.78
  -1   5   1   13.46    1.01
  -1   5   1   14.09    1.12
  -1  -5   1   15.85    1.82
  -1  -5   0  216.37    6.84
   1   5   0  208.06    6.77
  -1   5   0  216.39    6.87
  -1   5  -1  668.40   17.84
   1   5   1  693.93   16.59
  -1   5  -1  679.47   17.94
  -1  -5  -1  686.97   15.75
  -1   5  -2  527.77   15.88
   1   5   2  558.09   13.45
  -1  -5  -2  513.43   12.25
  -1   5  -2  561.81   16.06
   1   5   3 1274.83   27.82
  -1   5  -3 1235.08   31.74
  -1   5  -3 1209.77   31.20
  -1  -5  -3 1161.62   27.58
  -1   5  -4    2.20    0.99
  -1  -5  -4    1.66    0.46
  -1  -5  -4    2.38    0.84
  -1   5  -4    4.63    1.64
   1   5   4    0.66    0.53
  -1   5  -5   31.18    3.94
  -1  -5  -5   34.42    2.69
  -1  -5  -5   31.69    2.78
  -1   5  -6   -0.97    1.36
  -1  -5  -6    1.43    0.82
  -1  -5  -6    2.02    0.82
  -1  -5  -7   53.64    4.23
  -1   5  -7   60.40    6.45
  -1   5  -8   69.82    7.35
   1   6  -8   -0.27    0.95
   1   6  -7   59.66    6.55
   1  -6  -6   30.17    2.22
   1  -6  -6   30.30    1.84
   1   6  -6   40.21    4.93
   1   6  -5   53.83    5.27
   1  -6  -5   50.53    2.35
   1   6  -4  131.13    7.74
   1   6  -3    7.14    1.70
  -1  -6   3    4.75    1.33
   1   6  -2   17.59    2.29
  -1  -6   2   16.07    2.20
  -1   6   1    2.70    0.61
   1   6  -1    2.49    0.90
  -1  -6   1    2.49    0.86
   1   6   0    7.53    1.20
  -1   6   0    7.30    1.18
  -1  -6   0    6.10    1.08
  -1   6  -1  824.31   21.34
  -1   6  -1  802.85   21.05
   1   6   1  822.10   18.85
  -1  -6  -1  829.27   18.92
  -1   6  -2  478.07   14.91
  -1  -6  -2  464.67   11.10
  -1   6  -2  479.92   15.16
   1   6   2  495.88   12.49
   1   6   3  379.66   10.48
  -1   6  -3  380.76   13.76
  -1   6  -3  415.13   14.42
  -1  -6  -3  382.23    9.22
   1   6   4   56.48    3.25
  -1   6  -4   71.03    5.73
  -1  -6  -4   53.73    2.59
  -1   6  -4   52.13    4.86
  -1  -6  -4   52.03    3.13
  -1  -6  -5    1.29    0.65
  -1  -6  -5    0.39    0.76
  -1   6  -5    3.25    1.95
  -1   6  -6    3.60    1.83
  -1  -6  -6    8.18    1.43
  -1  -6  -6    3.62    1.17
  -1   6  -7   71.91    7.26
   1   7  -7    8.33    2.76
   1   7  -6   58.23    6.14
   1   7  -5   21.02    3.50
   1   7  -4  226.52   10.88
   1   7  -3  466.50   16.26
  -1  -7   3  508.17   16.96
   1   7  -2    0.00    0.82
  -1   7   2    1.43    0.35
  -1  -7   2    2.00    1.01
  -1   7   2    0.71    0.27
   1   7  -1   79.14    4.60
  -1   7   1   77.39    3.28
  -1  -7   1   78.08    4.59
   1   7   0  247.80    8.36
  -1   7   0  264.48    8.43
  -1  -7   0  251.55    8.45
  -1  -7  -1  103.23    4.17
  -1   7  -1  114.70    5.62
   1   7   1  102.69    4.13
  -1  -7  -2  533.11   12.43
  -1   7  -2  528.80   16.57
  -1   7  -2  556.94   17.16
   1   7   2  538.50   13.97
  -1   7  -3  434.65   15.11
  -1   7  -3  405.63   15.02
   1   7   3  405.64   11.25
  -1   7  -4   55.65    5.18
  -1  -7  -4   58.96    2.08
   1   7   4   57.15    3.17
  -1  -7  -4   54.24    2.03
  -1  -7  -5    3.42    0.66
  -1   7  -5    4.40    1.82
  -1  -7  -5    4.68    1.06
  -1   7  -6    1.57    1.72
  -1   7  -7   10.85    3.06
   1   8  -7   42.97    5.76
   1   8  -6   -1.71    1.63
   1   8  -5  175.79   10.48
   1   8  -4   40.81    4.51
   1   8  -3  154.54    8.38
   1   8  -2  339.81   12.47
  -1   8   2  339.00    8.77
  -1  -8   2  341.75   12.73
  -1   8   1  512.95   13.24
   1   8  -1  541.37   15.85
  -1  -8   1  531.75   15.83
   1   8   0   11.54    1.61
  -1  -8   0   11.02    1.54
  -1   8   0   13.17    1.69
  -1  -8  -1  322.61    9.26
  -1   8  -1  309.68   11.00
   1   8   1  312.11    9.17
  -1  -8  -2    1.02    0.39
   1   8   2    0.53    0.54
  -1   8  -2    0.52    0.87
  -1   8  -2    1.89    1.25
  -1   8  -3  173.60    9.17
   1   8   3  189.06    6.54
  -1   8  -3  190.84    9.72
  -1   8  -4   -0.40    1.37
   1   8   4    1.09    0.56
  -1   8  -5    2.41    1.31
  -1   8  -6   51.18    6.16
  -1   8  -7    8.70    2.79
   1   9  -7    6.65    2.30
   1   9  -6   33.49    5.08
   1   9  -5    8.50    2.54
   1   9  -4  403.00   16.30
   1   9  -3   14.99    2.66
  -1  -9   2  172.83    8.71
  -1   9   2  166.23    5.52
   1   9  -2  160.72    8.23
  -1   9   1    0.23    0.48
  -1  -9   1    0.16    0.83
   1   9  -1    0.67    0.81
   1   9   0  443.49   13.60
  -1   9   0  480.77   13.84
  -1  -9   0  449.99   13.70
  -1   9  -1   98.67    5.94
  -1  -9  -1   97.68    4.49
   1   9   1  100.95    4.51
  -1   9  -1   98.15    5.76
  -1   9  -2  763.92   22.86
  -1   9  -2  745.55   22.31
   1   9   2  757.61   19.35
  -1   9  -3   54.71    5.05
   1   9   3   53.60    3.22
   1   9   4    0.37    0.51
  -1   9  -4    0.36    1.15
  -1   9  -5    1.02    1.32
  -1   9  -6    1.63    1.99
  -1   9  -7    2.04    2.55
   1  10  -6    0.99    1.52
   1  10  -5  260.18   13.78
   1  10  -4    3.83    1.97
   1  10  -3   78.05    6.23
   1  10  -2    0.92    0.89
  -1  10   2    0.97    0.56
  -1  10   2    0.97    0.30
   1  10  -1  204.44    8.93
  -1 -10   1  200.86    9.10
  -1  10   1  184.47    6.87
  -1  10   1  202.84    7.70
  -1  10   0    2.25    0.89
   1  10   0    2.05    0.83
  -1 -10   0    1.85    0.91
  -1  10  -1 1299.82   33.00
   1  10   1 1296.96   30.22
  -1  10  -1 1291.00   33.53
  -1  10  -2   11.14    2.36
   1  10   2   10.25    1.62
  -1  10  -2    5.65    1.64
   1  10   3   53.31    3.30
  -1  10  -3   56.33    5.28
  -1  10  -4    0.87    1.71
   1  10   4    0.80    0.65
  -1  10  -5   15.95    3.54
  -1  10  -6   10.98    3.25
   1  11  -6   14.82    3.53
   1  11  -5   36.63    5.25
   1  11  -4  230.92   12.45
   1  11  -3    5.40    2.08
  -1  11   2   29.89    1.55
  -1  11   2   33.05    2.45
   1  11  -2   33.33    3.85
   1  11  -1    1.54    1.05
  -1  11   1    0.96    0.68
  -1  11   1    1.00    0.57
  -1  11   0   33.68    3.36
  -1  11   0   34.21    3.22
   1  11   0   32.24    3.11
   1  11   1  140.68    6.03
  -1  11  -1  146.71    7.98
  -1  11  -1  123.29    7.10
   1  11   2 1129.89   27.23
  -1  11  -2 1007.15   29.89
   1  11   3    0.48    0.65
  -1  11  -3    6.12    2.25
  -1  11  -4    9.17    2.65
   1  11   4    9.51    1.20
  -1  11  -5   26.01    4.30
  -1  11  -6    1.02    1.17
   1  12  -6    0.08    2.26
   1  12  -5   53.52    6.44
   1  12  -4   21.87    3.91
   1  12  -3    8.82    2.37
  -1  12   3    8.85    0.75
  -1  12   3    8.89    0.76
   1  12  -2   -0.78    0.95
  -1  12   2   -2.02    0.87
  -1  12   2    0.21    0.30
  -1  12   1   -0.17    0.91
  -1  12   1   -0.35    0.73
   1  12  -1   -0.96    0.99
  -1  12   0   51.81    4.11
  -1  12   0   51.10    4.38
   1  12   0   54.53    4.27
   1  12   1  182.83    7.32
  -1  12  -1  168.42    9.14
  -1  12  -1  173.27    8.86
   1  12   2    1.38    0.87
  -1  12  -2    1.73    1.18
   1  12   3   86.13    4.51
  -1  12  -3   69.17    6.38
  -1  12  -4   69.29    6.92
  -1  12  -5    2.10    2.45
   1  13  -5   15.45    3.67
   1  13  -4   22.57    4.10
   1  13  -3   21.37    3.73
   1  13  -2  194.43   10.55
  -1  13   2  201.22    7.81
  -1  13   1   81.26    5.24
  -1  13   1   77.85    4.57
   1  13  -1   82.59    6.08
  -1  13   0   36.73    3.60
   1  13   0   34.85    3.63
  -1  13   0   34.10    3.75
  -1  13  -1    5.38    1.73
   1  13   1    0.42    0.63
   1  13   2  429.36   13.90
  -1  13  -2  392.53   16.20
   1  13   3    0.47    0.51
  -1  13  -3   -2.25    1.86
  -1  13  -4    3.20    1.76
  -1  13  -5   32.72    5.12
   1  14  -5   73.07    7.71
   1  14  -4    0.11    1.64
   1  14  -3   -1.83    1.51
  -1  14   2  191.91    7.61
   1  14  -2  156.59    9.76
   1  14  -1  137.76    8.38
  -1  14   1  162.14    7.03
  -1  14   1  141.06    7.55
   1  14   0   80.79    5.65
  -1  14   0   70.92    5.73
  -1  14   0   80.44    5.57
   1  14   1  125.63    6.25
  -1  14  -1  116.96    7.64
  -1  14  -2    2.23    1.58
   1  14   2    0.26    0.76
  -1  14  -3   24.76    4.08
  -1  14  -4   13.31    3.38
   1  15  -4  130.37   10.12
   1  15  -3   54.43    6.70
   1  15  -2   25.21    3.92
   1  15  -1  185.59   10.04
  -1  15   0   46.19    4.31
   1  15   0   49.33    4.53
  -1  15  -1   -2.99    1.47
  -1  15  -2  223.14   12.08
  -1  15  -3   27.10    5.19
  -1  15  -4   17.78    3.73
   1  16  -4   42.00    5.93
   1  16  -3    9.01    2.91
   1  16  -2   94.32    7.89
   1  16  -1    9.11    2.35
   1  16   0   13.21    2.40
  -1  16  -1   84.89    6.76
  -1  16  -2   11.46    3.22
  -1  16  -3    7.51    2.73
   1  17  -3   44.20    5.75
   1  17  -2   57.79    6.46
   1  17  -1   68.71    6.35
  -1  17  -2   67.27    6.97
  -1  17  -3    6.90    2.39
   1  18  -3    1.18    2.53
   2   0  -8   21.55    3.57
   2   0  -7   -0.23    1.14
   2   0  -7    0.90    1.01
   2   0  -6  387.11   14.49
   2   0  -6  390.73   14.12
   2   0  -5    0.20    0.80
   2   0  -5   -0.44    0.93
   2   0  -4  521.38   15.44
  -2   0   4  517.31   15.40
  -2   0   3    0.28    0.67
   2   0  -3   -0.22    0.80
  -2   0   2  392.87   11.08
   2   0  -2  422.02   11.30
  -2   0   1    0.49    0.45
   2   0  -1    0.11    0.42
   2   0  -1    0.23    0.51
   2   0   0 1165.12   24.95
  -2   0   0 1073.28   24.72
  -2   0  -1   -0.12    0.43
   2   0   1   -0.11    0.53
   2   0   2  132.15    5.53
  -2   0  -2  121.51    5.34
   2   0   3   -0.46    0.72
  -2   0  -3    1.45    0.91
  -2   0  -4  938.36   25.46
   2   0   4  967.36   25.52
  -2   0  -5    1.22    0.85
  -2   0  -5   -0.15    0.97
  -2   0  -6    8.78    2.04
  -2   0  -7   -0.44    1.06
  -2   0  -8    9.91    2.84
   2   1  -9    7.52    2.85
   2  -1  -8    5.75    1.82
   2   1  -8    5.70    2.23
   2  -1  -7   58.85    5.21
   2  -1  -7   55.33    4.83
   2   1  -7   54.27    5.33
   2  -1  -6   30.94    3.34
   2   1  -6   30.46    3.56
   2  -1  -6   35.98    3.74
   2   1  -6   36.28    4.03
   2  -1  -5   62.86    4.45
  -2  -1   5   66.82    5.03
   2  -1  -5   54.40    3.93
   2   1  -5   62.50    4.82
   2   1  -4 1348.64   32.71
  -2  -1   4 1309.40   32.59
  -2   1   4 1305.07   31.52
   2  -1  -4 1328.69   31.63
  -2  -1   3 1888.36   43.01
  -2   1   3 1858.25   41.86
   2  -1  -3 1908.97   41.94
   2   1  -3 1908.76   43.02
  -2   1   2    1.31    0.54
   2   1  -2    2.42    0.80
   2  -1  -2    2.01    0.69
  -2  -1   2    1.16    0.76
  -2  -1   1   85.87    3.70
   2   1  -1   82.84    3.66
  -2   1   1   86.27    3.38
  -2   1   1   87.14    3.14
   2  -1  -1   87.05    3.20
  -2   1   0    1.56    0.54
   2  -1   0    1.79    0.62
   2   1   0    2.39    0.68
  -2  -1   0    2.40    0.62
  -2  -1  -1  298.25    8.74
   2   1   1  314.03    8.90
  -2   1  -1  301.37    8.95
   2  -1   1  305.15    9.06
   2   1   2  549.25   14.39
  -2  -1  -2  517.17   14.29
   2  -1   2  531.30   14.72
  -2   1  -2  509.41   14.59
  -2   1  -3  938.39   24.32
  -2  -1  -3  896.93   23.44
   2   1   3  943.90   23.57
   2  -1   3  928.59   24.14
   2   1   4  156.29    7.31
  -2   1  -4  159.88    7.87
   2  -1   4  152.11    7.57
  -2  -1  -4  142.38    7.07
  -2   1  -5    9.17    2.06
  -2  -1  -5    6.13    1.53
  -2  -1  -5    7.46    1.80
  -2   1  -5    7.50    1.83
  -2   1  -6    1.85    1.38
  -2  -1  -6    2.00    1.31
  -2  -1  -6    0.91    0.90
  -2   1  -7    1.07    2.08
  -2  -1  -7   -0.28    0.98
  -2   1  -8    1.94    1.99
  -2  -1  -8    4.57    2.04
  -2   1  -9   28.32    4.70
   2   2  -9   -3.95    2.06
   2  -2  -8   10.14    2.39
   2   2  -8   11.71    3.15
   2  -2  -7   42.45    3.99
   2   2  -7   39.00    4.73
   2  -2  -7   45.33    4.37
   2   2  -6  189.36    9.99
   2  -2  -6  199.82    8.97
   2  -2  -6  187.11    8.21
   2   2  -6  199.18    9.93
   2  -2  -5   85.83    5.07
  -2  -2   5   91.31    6.20
   2  -2  -5   88.62    4.75
   2   2  -5   87.29    5.98
  -2   2   4   68.18    3.95
   2  -2  -4   76.07    3.78
  -2  -2   4   64.26    4.67
   2   2  -4   72.43    4.92
   2  -2  -4   71.80    4.07
  -2  -2   3  450.98   13.71
   2   2  -3  459.24   13.72
   2  -2  -3  435.56   11.95
  -2   2   3  430.10   11.85
  -2  -2   2  867.53   22.01
   2   2  -2  906.24   22.16
   2  -2  -2  897.27   19.61
   2  -2  -2  891.11   20.38
  -2   2   2  904.70   20.45
  -2   2   1   11.56    0.96
   2  -2  -1   10.76    0.96
  -2  -2   1   13.77    1.48
   2   2  -1    9.57    1.32
  -2   2   0 1273.58   27.53
   2   2   0 1257.21   27.91
  -2  -2   0 1264.78   27.66
   2  -2   0 1183.67   27.43
   2  -2   1   61.80    3.41
   2   2   1   60.96    3.16
  -2   2  -1   69.20    3.58
  -2  -2  -1   61.39    3.14
  -2  -2  -2  130.83    5.46
   2   2   2  135.14    5.40
   2  -2   2  136.06    6.08
  -2   2  -2  138.13    6.10
   2   2   3    1.17    0.79
   2  -2   3    0.69    1.08
  -2   2  -3    0.43    0.72
  -2  -2  -3    1.74    0.73
   2   2   4  794.42   21.19
  -2   2  -4  759.61   22.41
  -2  -2  -4  761.32   21.16
  -2   2  -5  227.42   10.67
  -2  -2  -5  234.77    9.73
  -2   2  -5  221.40   10.60
   2   2   5  217.84    9.53
  -2  -2  -5  216.72    9.67
  -2   2  -6   24.78    3.61
  -2  -2  -6   26.62    3.27
  -2  -2  -6   21.82    3.22
  -2   2  -7    2.14    1.79
  -2  -2  -7    4.55    1.65
  -2   2  -8    2.92    2.05
  -2  -2  -8    0.71    1.20
   2   3  -9    2.88    1.83
   2   3  -8    5.49    2.15
   2   3  -7   22.73    3.82
   2  -3  -7   24.02    3.09
   2  -3  -6    3.46    1.04
   2   3  -6    2.51    1.54
   2  -3  -6    2.47    1.09
   2  -3  -5  139.69    5.84
  -2  -3   5  151.25    8.44
   2   3  -5  154.61    8.40
   2  -3  -5  155.16    6.68
   2   3  -4   50.27    4.26
   2  -3  -4   45.88    2.60
   2  -3  -4   49.01    3.10
  -2  -3   4   49.71    4.22
  -2   3   4   49.09    3.10
  -2  -3   3  158.63    7.23
   2  -3  -3  158.11    5.35
   2   3  -3  151.79    7.07
  -2   3   3  143.79    5.19
  -2  -3   2   56.47    3.66
   2  -3  -2   55.33    1.92
  -2   3   2   59.78    2.59
   2   3  -2   54.43    3.65
   2  -3  -1   19.65    1.26
   2   3  -1   17.96    1.86
  -2   3   1   16.54    1.15
  -2  -3   1   15.95    1.69
  -2  -3   0  630.44   15.27
  -2   3   0  609.81   15.02
   2   3   0  637.69   15.60
   2  -3   0  599.15   15.04
  -2  -3  -1  702.63   17.65
  -2   3  -1  697.22   18.24
   2  -3   1  758.03   18.57
   2   3   1  748.89   17.83
   2  -3   2   -0.65    0.88
  -2   3  -2    0.27    0.67
  -2  -3  -2    0.80    0.56
   2   3   2    0.03    0.57
  -2   3  -3  451.92   14.60
   2   3   3  454.59   13.10
  -2  -3  -3  432.84   13.02
  -2   3  -4   49.71    4.45
   2   3   4   56.97    3.99
  -2  -3  -4   54.80    3.99
  -2  -3  -5   27.99    3.12
  -2  -3  -5   28.89    3.04
   2   3   5   21.58    2.75
  -2   3  -5   26.26    3.53
  -2  -3  -6    9.24    1.93
  -2   3  -6    8.19    2.11
  -2  -3  -6   11.59    2.19
  -2  -3  -7    1.98    1.37
  -2   3  -7    0.35    1.48
  -2   3  -8   11.59    2.92
   2   4  -8    7.54    2.70
   2   4  -7   33.76    4.70
   2  -4  -7   39.92    3.68
   2  -4  -6  236.07    9.00
   2  -4  -6  213.25    7.73
   2   4  -6  239.20   11.88
   2  -4  -5    1.60    0.58
   2  -4  -5    2.00    0.65
   2   4  -5    5.26    1.85
  -2  -4   4   10.08    2.02
   2  -4  -4    8.62    1.18
   2  -4  -4    7.02    0.79
   2   4  -4    7.78    1.86
  -2   4   3   46.22    2.35
   2   4  -3   52.47    4.08
  -2  -4   3   53.80    4.16
  -2   4   2  506.86   11.83
  -2  -4   2  498.41   14.78
   2   4  -2  498.11   14.77
   2   4  -1  331.82   10.33
  -2   4   1  341.72    8.50
   2  -4  -1  330.81    8.46
  -2  -4   1  344.02   10.41
  -2   4   0  703.83   17.34
  -2  -4   0  725.12   17.64
   2   4   0  731.66   17.64
   2  -4   0  708.96   17.43
  -2  -4  -1   79.86    3.53
   2   4   1   80.20    3.90
   2  -4   1   82.35    4.37
  -2   4  -1   81.45    4.29
  -2   4  -2  179.44    7.83
  -2  -4  -2  195.02    6.89
   2   4   2  191.14    6.87
  -2   4  -3    1.24    0.82
  -2  -4  -3    2.17    0.81
   2   4   3   -0.09    0.63
  -2   4  -4  632.11   20.09
  -2  -4  -4  596.13   17.33
  -2   4  -4  646.05   20.24
   2   4   4  637.51   17.53
  -2   4  -5   85.27    6.45
   2   4   5   78.48    5.07
  -2  -4  -5   83.41    4.98
  -2  -4  -5   69.20    4.84
  -2  -4  -6   73.91    5.03
  -2   4  -6   69.07    6.28
  -2  -4  -6   67.65    5.19
  -2   4  -7   64.10    6.63
  -2  -4  -7   64.10    5.20
  -2   4  -8   -4.42    2.06
   2   5  -8   13.26    3.30
   2   5  -7   13.46    3.22
   2   5  -6    4.17    1.95
   2  -5  -6    3.81    1.19
   2  -5  -6    3.96    0.82
   2  -5  -5   44.39    1.94
   2   5  -5   44.01    4.67
   2  -5  -5   44.54    2.79
   2   5  -4    4.19    1.55
  -2  -5   4    1.95    1.19
   2   5  -3  167.25    8.06
  -2   5   3  168.82    4.74
  -2  -5   3  170.44    8.14
   2   5  -2  461.90   14.01
  -2  -5   2  436.08   13.84
  -2   5   2  432.66   10.25
   2   5  -1   25.48    2.46
  -2  -5   1   24.81    2.39
  -2   5   1   34.11    1.91
   2   5   0 1432.25   32.34
  -2   5   0 1461.12   32.37
  -2  -5   0 1387.50   32.33
  -2   5  -1  628.85   17.23
  -2  -5  -1  602.40   15.56
   2   5   1  674.70   16.63
  -2   5  -2    2.95    1.26
   2   5   2    3.61    0.96
  -2  -5  -2    1.34    0.69
  -2  -5  -3  807.95   20.87
  -2   5  -3  849.10   23.97
   2   5   3  835.59   20.83
  -2   5  -4  415.66   15.55
   2   5   4  416.80   12.68
  -2   5  -4  431.25   15.68
  -2  -5  -4  376.65   12.43
   2   5   5    2.74    1.14
  -2  -5  -5    2.04    1.08
  -2  -5  -5    2.64    1.02
  -2   5  -5    3.49    1.65
  -2  -5  -6   31.01    3.37
  -2  -5  -6   34.68    3.27
  -2   5  -6   29.19    4.18
  -2   5  -7    6.80    2.78
  -2  -5  -7    5.28    1.43
  -2   5  -8   28.90    4.82
   2   6  -8    5.38    2.19
   2   6  -7   42.18    5.56
   2   6  -6   80.50    7.01
   2   6  -5   -0.74    1.24
  -2  -6   4    1.99    0.95
   2   6  -4    0.94    1.11
   2   6  -3   27.50    3.18
  -2  -6   3   28.35    3.26
  -2  -6   2  246.64    9.81
   2   6  -2  247.76    9.76
   2   6  -1 1106.95   27.13
  -2   6   1 1108.50   24.67
  -2  -6   1 1061.09   26.98
  -2   6   0  998.02   23.90
   2   6   0  997.09   23.88
  -2  -6   0  968.99   23.90
  -2   6  -1   77.09    4.59
  -2  -6  -1   70.75    3.58
   2   6   1   73.80    4.05
  -2   6  -2  322.00   11.54
   2   6   2  295.49    9.38
  -2  -6  -2  276.73    8.33
  -2   6  -3   26.77    3.28
  -2   6  -3   30.55    3.59
   2   6   3   29.65    2.57
  -2  -6  -3   31.61    2.63
   2   6   4   85.43    4.77
  -2  -6  -4   85.74    4.80
  -2   6  -4  106.74    7.09
  -2  -6  -5  320.32   11.55
   2   6   5  360.37   11.97
  -2   6  -5  337.24   14.88
  -2  -6  -5  364.53   11.04
  -2  -6  -6    4.45    1.50
  -2   6  -6    8.47    2.72
  -2  -6  -6    1.69    0.70
  -2   6  -7    8.58    2.76
   2   7  -7    3.32    2.32
   2   7  -6    1.86    1.80
   2   7  -5  128.12    8.55
   2   7  -4   52.71    4.94
  -2  -7   3    0.47    0.89
   2   7  -3    0.48    1.09
  -2   7   2  627.53   14.19
  -2   7   2  636.29   13.95
  -2  -7   2  627.52   18.93
   2   7  -2  619.44   18.71
  -2   7   1  134.51    5.05
   2   7  -1  134.34    6.43
  -2  -7   1  126.66    6.30
   2   7   0  102.39    4.97
  -2   7   0  107.06    5.11
  -2  -7   0   97.82    4.93
  -2  -7  -1    2.06    0.67
   2   7   1    2.45    0.83
  -2   7  -1    3.56    1.15
  -2   7  -2  257.64   10.51
  -2  -7  -2  233.02    7.43
   2   7   2  251.84    8.61
  -2   7  -2  259.55   10.59
  -2   7  -3   77.83    5.80
  -2  -7  -3   67.57    3.21
   2   7   3   78.37    4.29
  -2   7  -3   79.55    5.86
  -2   7  -4   10.03    2.45
  -2  -7  -4   11.18    1.62
   2   7   4   10.05    1.54
  -2  -7  -5   13.04    1.53
  -2   7  -5   10.66    2.60
   2   7   5   10.38    1.70
  -2  -7  -5    9.87    1.69
  -2   7  -6   47.16    5.72
  -2   7  -7    4.03    2.66
   2   8  -7  128.14   10.05
   2   8  -6   79.87    7.47
   2   8  -5    0.22    1.45
   2   8  -4    2.48    1.23
  -2  -8   3   73.14    5.60
   2   8  -3   70.63    5.56
  -2   8   2   69.16    2.67
  -2  -8   2   69.83    5.07
  -2   8   2   62.59    2.49
   2   8  -2   68.12    4.99
  -2  -8   1  601.27   17.69
   2   8  -1  587.30   17.44
  -2   8   1  604.78   15.25
  -2   8   1  575.29   15.31
  -2   8   0  160.01    6.62
   2   8   0  143.61    6.34
  -2   8   0  137.65    6.31
  -2  -8   0  124.96    6.01
   2   8   1   12.14    1.73
  -2  -8  -1   13.73    1.64
  -2   8  -1   14.45    2.09
  -2   8  -1   12.86    2.03
   2   8   2    2.23    0.92
  -2  -8  -2    3.73    0.84
  -2   8  -2    2.84    1.23
  -2   8  -2    5.02    1.49
   2   8   3   68.53    4.07
  -2  -8  -3   65.16    3.01
  -2   8  -3   57.77    5.10
  -2   8  -4  113.03    7.81
   2   8   4  120.88    5.66
  -2  -8  -4  108.96    4.05
   2   8   5   95.01    5.10
  -2  -8  -5   97.85    3.84
  -2   8  -5  100.43    7.96
  -2  -8  -5  101.93    3.88
  -2   8  -6   89.39    8.07
  -2   8  -7   15.26    3.59
   2   9  -7   30.32    5.00
   2   9  -6   39.02    5.33
   2   9  -5   -2.71    2.22
   2   9  -4   15.05    2.78
   2   9  -3   64.55    5.49
  -2  -9   2  770.46   22.86
  -2   9   2  766.70   17.93
  -2   9   2  781.65   17.39
   2   9  -2  773.57   22.92
  -2  -9   1  189.32    8.75
  -2   9   1  209.02    7.61
   2   9  -1  232.08    9.42
  -2   9   1  215.87    7.38
  -2   9   0  215.39    8.29
  -2  -9   0  202.19    8.33
  -2   9   0  217.03    8.71
   2   9   0  218.27    8.49
  -2   9  -1   65.62    4.86
   2   9   1   59.33    4.13
  -2   9  -1   65.89    4.62
  -2  -9  -1   57.18    3.57
  -2   9  -2   72.14    5.59
  -2  -9  -2   72.26    3.59
   2   9   2   79.87    4.63
  -2   9  -2   81.57    5.74
  -2   9  -3   90.00    6.60
   2   9   3   90.54    4.92
  -2  -9  -3   87.01    3.41
  -2   9  -4  176.49   10.34
   2   9   4  181.73    7.23
  -2   9  -5   11.77    3.04
   2   9   5   13.78    1.87
  -2   9  -6   83.38    8.07
   2  10  -6    0.44    1.51
   2  10  -5   -1.43    1.89
   2  10  -4   13.17    2.83
   2  10  -3    1.95    1.27
  -2  10   2  156.26    5.40
  -2 -10   2  149.29    8.27
   2  10  -2  144.21    8.15
  -2  10   2  146.24    4.68
  -2  10   1 1422.57   33.89
  -2 -10   1 1493.32   36.59
  -2  10   1 1458.63   33.49
   2  10  -1 1426.21   36.29
  -2  10   0   44.40    3.56
  -2 -10   0   46.25    3.69
   2  10   0   53.88    3.99
  -2  10   0   55.48    4.15
  -2  10  -1   13.47    2.24
  -2  10  -1   10.91    2.08
   2  10   1   10.94    1.90
  -2 -10  -1    9.90    1.52
  -2  10  -2    6.03    1.76
  -2  10  -2    3.63    1.66
   2  10   2    5.78    1.35
  -2 -10  -2    5.09    0.97
  -2 -10  -3    2.83    0.56
  -2  10  -3    1.42    1.05
   2  10   3    4.01    1.09
   2  10   4    6.56    1.49
  -2  10  -4    6.97    2.48
  -2  10  -5  204.41   12.38
  -2  10  -6   13.65    3.48
   2  11  -6   15.46    3.55
   2  11  -5   49.30    6.08
   2  11  -4    1.09    1.35
   2  11  -3   59.71    5.66
  -2  11   2  217.14    7.18
   2  11  -2  198.19   10.24
  -2  11   2  214.08    6.25
   2  11  -1   75.72    5.44
  -2  11   1   61.06    4.11
  -2  11   1   64.18    3.91
  -2 -11   1   75.85    5.44
   2  11   0  350.33   12.34
  -2  11   0  343.64   12.56
  -2 -11   0  347.19   12.26
  -2  11   0  331.50   12.04
  -2 -11  -1   53.97    3.71
   2  11   1   52.75    4.24
  -2  11  -1   56.88    4.91
  -2  11  -1   52.76    4.57
  -2 -11  -2    8.23    1.25
  -2  11  -2    9.08    2.06
   2  11   2    9.58    1.78
  -2  11  -3    9.75    2.47
   2  11   3   13.64    2.00
  -2  11  -4    0.43    1.60
   2  11   4    3.69    1.07
  -2  11  -5   17.12    3.73
  -2  11  -6   84.69    8.47
   2  12  -5   18.59    4.07
   2  12  -4   32.44    4.70
   2  12  -3   11.25    2.79
  -2  12   2  123.75    5.30
  -2  12   2  124.13    4.40
   2  12  -2  121.89    7.96
  -2  12   1  613.32   17.75
   2  12  -1  597.43   19.56
  -2 -12   1  582.68   19.56
  -2  12   1  622.00   16.99
   2  12   0    4.67    1.38
  -2  12   0    8.66    1.78
  -2  12   0    5.29    1.51
  -2 -12   0    7.14    1.76
  -2  12  -1   43.31    4.34
  -2  12  -1   39.55    4.37
   2  12   1   50.34    4.29
  -2 -12  -1   54.61    3.87
   2  12   2  207.12    8.98
  -2  12  -2  188.50   10.32
  -2  12  -3    0.31    1.19
   2  12   3    0.60    0.73
  -2  12  -4   50.07    6.02
  -2  12  -5  186.92   12.35
   2  13  -5    1.78    1.43
   2  13  -4   63.44    6.82
   2  13  -3   65.17    6.38
   2  13  -2  155.57    9.41
  -2  13   2  151.89    5.12
  -2  13   1    5.60    1.55
  -2  13   1    7.54    1.52
   2  13  -1    4.78    1.50
  -2  13   0   74.99    5.64
   2  13   0   70.99    5.28
  -2  13   0   76.64    5.35
  -2  13  -1   16.28    2.71
   2  13   1   19.19    2.85
   2  13   2   69.85    5.05
  -2  13  -2   67.99    6.17
  -2  13  -3   47.00    5.50
   2  13   3   46.36    3.77
  -2  13  -4  257.35   14.30
  -2  13  -5    8.73    2.94
   2  14  -5   45.20    6.15
   2  14  -4   40.66    5.65
   2  14  -3   24.42    4.08
   2  14  -2  115.33    8.18
   2  14  -1  276.06   12.65
  -2  14   1  288.40   10.39
  -2  14   0   -1.04    1.20
   2  14   0   -0.06    0.79
  -2  14   0   -0.13    0.97
  -2  14  -1    0.89    1.02
   2  14   1   -3.57    1.43
   2  14   2   91.29    5.97
  -2  14  -2   77.10    6.71
  -2  14  -3    1.99    1.64
  -2  14  -4   42.89    5.95
   2  15  -4    4.03    2.44
   2  15  -3   44.90    6.29
   2  15  -2  135.84    9.27
   2  15  -1    0.06    1.21
   2  15   0   25.99    3.25
  -2  15   0   21.58    2.99
  -2  15  -1   36.42    4.35
   2  15   1   43.29    4.51
  -2  15  -2    9.27    2.66
   2  15   2   11.79    2.32
  -2  15  -3   41.30    5.49
  -2  15  -4   21.46    4.10
   2  16  -4   60.10    7.13
   2  16  -3    1.72    1.78
   2  16  -2    8.66    2.63
   2  16  -1  201.68   10.95
   2  16   0   23.26    3.21
  -2  16  -1    2.38    1.47
   2  16   1    2.56    1.59
  -2  16  -2   99.40    8.16
  -2  16  -3   15.18    3.57
   2  17  -3   49.75    6.25
   2  17  -2   45.97    5.66
   2  17  -1   -0.95    1.13
  -2  17  -2   10.50    2.98
  -2  17  -3   48.88    6.19
   3   0  -8   28.60    4.14
   3   0  -7    3.28    1.59
   3   0  -7    2.14    1.29
   3   0  -6   28.16    3.49
  -3   0   6   30.15    3.62
   3   0  -6   27.20    3.28
  -3   0   5    0.61    0.93
   3   0  -5    0.75    0.85
  -3   0   4   54.92    4.05
   3   0  -4   50.74    3.93
  -3   0   3    0.09    0.60
   3   0  -3   -0.18    0.86
  -3   0   2  115.88    5.10
   3   0  -2  111.60    5.04
   3   0  -1    0.43    0.58
  -3   0   1   -0.39    0.60
  -3   0   0  228.04    7.45
   3   0   0  224.52    7.47
  -3   0  -1    0.49    0.58
   3   0   1    0.01    0.85
   3   0   2   83.26    4.73
  -3   0  -2   83.15    4.74
  -3   0  -3   -0.02    0.76
   3   0   3   -0.15    0.87
  -3   0  -4   82.98    5.64
   3   0   4   85.63    5.71
   3   0   5    0.33    1.03
  -3   0  -5    1.28    0.86
  -3   0  -6   83.21    6.54
  -3   0  -7    0.80    1.46
  -3   0  -8   12.75    3.23
   3   1  -9   21.34    4.17
   3   1  -8    1.48    1.60
   3  -1  -8    2.84    1.34
   3  -1  -7    4.34    1.59
   3  -1  -7    9.35    2.09
   3   1  -7    5.87    2.05
   3  -1  -6  272.55   11.31
   3  -1  -6  256.05   10.36
   3   1  -6  252.48   11.70
   3   1  -5  333.99   12.77
  -3  -1   5  324.86   12.60
   3  -1  -5  340.33   12.17
  -3   1   5  320.15   11.81
  -3   1   4   -0.56    0.85
  -3  -1   4   -0.91    0.76
   3   1  -4    0.51    0.79
   3  -1  -4   -0.08    0.69
   3   1  -3  278.10    9.80
  -3   1   3  256.91    8.89
   3  -1  -3  267.15    9.00
  -3  -1   3  257.41    9.45
  -3   1   2   19.27    1.88
  -3  -1   2   18.62    2.00
   3  -1  -2   16.60    1.59
   3   1  -2   18.22    2.05
  -3  -1   1   95.43    4.47
   3   1  -1  101.47    4.56
  -3   1   1   97.81    4.11
   3  -1  -1  108.40    4.33
  -3   1   0   10.36    1.34
   3   1   0   11.91    1.54
   3  -1   0   12.36    1.48
  -3  -1   0   12.99    1.51
   3  -1   1 2609.25   54.88
  -3   1  -1 2444.67   54.73
  -3  -1  -1 2482.60   54.65
   3   1   1 2492.93   54.71
   3  -1   2  380.78   12.10
  -3  -1  -2  368.79   11.78
   3   1   2  367.08   11.63
  -3   1  -2  371.17   12.07
   3   1   3   34.80    3.17
   3  -1   3   28.10    3.04
  -3   1  -3   30.40    3.09
  -3  -1  -3   31.15    3.04
   3   1   4   69.71    4.98
   3  -1   4   62.30    4.94
  -3   1  -4   59.09    4.79
  -3  -1  -4   66.83    4.93
  -3   1  -5    0.38    0.96
   3  -1   5    1.95    1.22
   3   1   5    1.09    1.30
  -3  -1  -5    0.32    0.73
  -3  -1  -6   11.84    2.52
  -3   1  -6   12.73    2.78
  -3  -1  -7  143.35    9.00
  -3   1  -7  135.38    9.21
  -3   1  -8    5.36    2.59
  -3  -1  -8   10.30    3.00
   3   2  -9    1.95    1.27
   3   2  -8    1.15    1.72
   3  -2  -8    0.36    1.00
   3   2  -7    1.58    1.42
   3  -2  -7    1.91    1.03
   3  -2  -6  340.44   11.86
   3  -2  -6  349.52   12.90
   3   2  -6  329.24   14.12
  -3   2   5  179.65    7.98
   3  -2  -5  189.54    8.21
   3   2  -5  191.95    9.40
  -3  -2   5  194.89    9.41
  -3  -2   4   28.68    3.19
  -3   2   4   30.31    2.71
   3  -2  -4   29.75    2.67
   3   2  -4   29.87    3.24
  -3  -2   3    2.70    1.08
  -3   2   3    3.08    0.88
   3   2  -3    3.84    1.28
   3  -2  -3    1.94    0.77
  -3   2   2  200.91    6.77
   3  -2  -2  202.03    6.26
   3   2  -2  203.75    7.78
  -3  -2   2  191.97    7.60
   3  -2  -1   40.22    2.40
   3   2  -1   34.76    2.70
  -3   2   1   38.97    2.33
  -3  -2   1   35.11    2.69
  -3  -2   0 3163.14   67.77
   3  -2   0 3261.93   67.30
   3   2   0 3189.18   67.78
  -3   2   0 3058.49   67.21
   3  -2   1  522.48   14.40
  -3   2  -1  492.30   14.16
  -3  -2  -1  501.46   14.00
   3   2   1  505.94   14.10
   3   2   2  157.14    6.63
  -3  -2  -2  144.98    6.45
   3  -2   2  157.78    7.06
  -3   2  -2  150.97    6.84
  -3   2  -3  189.29    8.60
   3   2   3  187.31    7.99
   3  -2   3  187.99    8.60
  -3  -2  -3  187.41    8.04
   3  -2   4   25.26    3.24
   3   2   4   23.64    2.86
  -3   2  -4   16.81    2.60
  -3  -2  -4   22.59    2.77
   3   2   5   -0.11    1.24
  -3  -2  -5    4.56    1.73
  -3  -2  -6  201.84   10.07
  -3   2  -6  196.07   10.87
  -3  -2  -7    3.47    1.57
  -3   2  -7    0.10    1.49
  -3   2  -8   23.35    4.22
  -3  -2  -8   18.36    3.54
   3   3  -9   11.33    3.30
   3   3  -8   -1.01    2.09
   3   3  -7   30.78    4.39
   3  -3  -7   26.64    3.25
   3  -3  -6    3.22    1.17
   3   3  -6    4.29    1.76
   3  -3  -6    2.26    1.21
  -3   3   5  184.11    7.69
   3  -3  -5  175.54    6.72
   3   3  -5  193.88    9.66
   3  -3  -5  185.16    7.70
  -3  -3   5  191.08    9.61
  -3  -3   4  102.36    6.35
   3  -3  -4   96.03    4.77
   3   3  -4   97.05    6.17
  -3   3   4   94.51    4.74
   3   3  -3  164.08    7.61
   3  -3  -3  158.13    5.18
  -3  -3   3  166.94    7.66
  -3   3   3  163.37    6.02
   3   3  -2    5.34    1.38
   3  -3  -2    7.59    0.93
  -3  -3   2    5.88    1.25
  -3   3   2    7.66    1.09
  -3  -3   1  208.00    7.76
   3  -3  -1  216.17    6.68
   3   3  -1  219.33    7.91
  -3   3   1  218.27    6.66
  -3  -3   0  216.18    7.62
   3  -3   0  235.60    7.73
  -3   3   0  223.61    7.54
   3   3   0  230.24    8.01
   3   3   1 1309.22   30.01
  -3   3  -1 1277.77   30.25
   3  -3   1 1261.10   30.30
  -3  -3  -1 1233.97   29.90
   3   3   2   79.74    4.50
   3  -3   2   70.55    4.72
  -3  -3  -2   76.42    4.40
  -3   3  -2   80.31    5.00
   3   3   3   73.83    4.57
  -3  -3  -3   65.25    4.36
   3  -3   3   67.34    5.01
  -3   3  -3   72.67    5.21
  -3   3  -4  153.93    8.52
   3   3   4  147.20    7.27
   3  -3   4  146.68    8.22
  -3  -3  -4  144.54    7.37
   3   3   5   48.59    4.35
  -3  -3  -5   45.95    4.26
  -3   3  -6   17.40    3.33
  -3  -3  -6   11.95    2.42
  -3  -3  -6   18.03    2.79
   3   3   6   11.58    2.40
  -3   3  -7  140.11    9.86
  -3  -3  -7  143.34    8.48
  -3   3  -8    0.71    2.10
   3   4  -8   13.31    3.38
   3   4  -7    1.16    1.39
   3  -4  -7    0.66    0.74
   3  -4  -6   80.05    4.10
   3  -4  -6   88.46    5.18
   3   4  -6   84.27    6.91
   3  -4  -5   21.55    2.24
  -3   4   5   17.93    2.08
   3  -4  -5   14.31    1.42
   3   4  -5   15.11    2.75
  -3   4   4    8.01    1.27
   3   4  -4   10.54    2.15
  -3  -4   4   11.67    2.19
   3  -4  -4   11.82    1.06
   3  -4  -4   10.91    1.04
   3   4  -3  319.72   11.74
  -3  -4   3  310.12   11.58
   3  -4  -3  304.84    7.61
  -3   4   3  298.40    8.87
   3   4  -2   68.93    4.55
   3  -4  -2   76.35    2.89
  -3   4   2   68.94    3.30
  -3  -4   2   67.86    4.49
   3  -4  -1  357.12    9.75
  -3  -4   1  346.27   11.26
   3   4  -1  339.73   11.13
  -3   4   1  369.06    9.80
   3  -4   0 1461.24   33.48
  -3   4   0 1464.18   33.36
   3   4   0 1533.59   34.46
  -3  -4   0 1428.04   33.68
   3   4   1  298.41    9.76
   3  -4   1  276.19    9.92
  -3   4  -1  302.86   10.18
  -3  -4  -1  281.17    9.56
  -3   4  -2   81.56    5.15
   3  -4   2   76.42    5.01
  -3  -4  -2   73.87    4.40
   3   4   2   79.76    4.57
   3   4   3   30.43    2.88
  -3   4  -3   30.91    3.46
   3  -4   3   35.10    3.73
  -3  -4  -3   33.78    3.05
  -3  -4  -4    3.51    1.30
  -3   4  -4    1.37    0.96
   3   4   4    2.55    1.11
  -3  -4  -5  189.87    9.13
   3   4   5  214.99    9.57
  -3   4  -5  221.68   11.34
  -3  -4  -6  137.77    7.57
   3   4   6  124.45    7.61
  -3   4  -6  123.37    8.82
  -3  -4  -6  124.75    7.59
  -3  -4  -7   20.12    3.03
  -3   4  -7   23.53    4.16
  -3   4  -8   16.10    3.69
   3   5  -8   -0.16    1.23
   3   5  -7   -0.18    1.60
   3   5  -6    6.85    2.20
   3  -5  -6    5.47    0.79
   3  -5  -6    4.20    0.73
   3   5  -5  156.34    9.16
  -3   5   4  233.85    7.40
   3   5  -4  233.66   10.75
  -3  -5   4  222.21   10.53
   3   5  -3  152.05    7.74
  -3  -5   3  140.27    7.53
  -3   5   3  144.21    5.06
   3   5  -2  285.48   10.59
  -3  -5   2  269.42   10.39
   3  -5  -2  290.20    7.28
  -3   5   2  266.02    7.12
   3  -5  -1  397.96   10.66
   3   5  -1  387.55   12.29
  -3  -5   1  377.75   12.26
  -3   5   1  381.51   10.52
   3   5   0  253.87    9.01
  -3  -5   0  233.97    8.47
  -3   5   0  242.65    8.31
   3  -5   0  243.12    8.36
  -3   5  -1 2075.25   46.98
   3  -5   1 2079.77   47.09
  -3  -5  -1 2020.12   45.51
   3   5   1 2053.04   46.35
   3   5   2 1285.98   30.94
  -3   5  -2 1346.31   32.82
  -3  -5  -2 1242.89   30.82
   3  -5   2 1273.35   32.50
   3   5   3  110.49    5.75
  -3   5  -3  115.03    7.01
  -3  -5  -3  111.22    5.81
   3   5   4  148.85    7.16
  -3  -5  -4  139.50    7.03
  -3   5  -5    1.78    1.42
   3   5   5    2.71    1.30
  -3  -5  -5   -0.13    0.87
  -3  -5  -6   79.25    5.39
   3   5   6   75.02    5.64
  -3  -5  -6   58.74    5.03
  -3   5  -6   74.25    6.92
  -3   5  -7  102.50    8.73
   3   6  -8   -0.76    1.21
   3   6  -7   10.61    3.12
   3   6  -6   66.65    6.50
   3   6  -5   79.02    6.57
  -3   6   4   48.26    2.47
   3   6  -4   55.32    5.00
  -3  -6   3  471.61   16.31
  -3   6   3  475.02   11.78
   3   6  -3  484.02   16.35
  -3   6   2    3.12    0.57
  -3  -6   2    3.68    1.34
   3   6  -2    1.67    1.08
  -3   6   1  151.18    5.57
   3  -6  -1  150.64    5.56
   3   6  -1  146.13    6.86
  -3  -6   1  155.30    7.05
  -3   6   0 1255.59   30.52
   3  -6   0 1310.58   30.70
   3   6   0 1334.68   30.98
  -3  -6   0 1271.83   30.90
  -3  -6  -1  363.62   11.23
  -3   6  -1  363.34   12.29
   3   6   1  376.61   12.02
  -3  -6  -2  222.99    7.94
  -3   6  -2  243.51   10.12
   3   6   2  238.81    8.85
   3   6   3  220.21    8.83
  -3   6  -3  234.17   10.72
  -3  -6  -3  226.15    8.90
   3   6   4   24.35    2.77
  -3  -6  -4   19.24    2.53
  -3  -6  -5   73.63    5.26
   3   6   5   94.30    5.80
  -3   6  -5   82.96    6.99
  -3  -6  -6   55.56    4.23
  -3   6  -6   56.98    6.24
   3   6   6   55.45    4.72
  -3   6  -7    2.76    1.87
   3   7  -7   -0.46    1.79
   3   7  -6    6.56    2.51
   3   7  -5   22.47    3.65
   3   7  -4  409.51   15.96
  -3   7   3   57.60    2.40
   3   7  -3   51.38    4.70
  -3  -7   3   61.12    5.10
  -3  -7   2    0.86    0.79
  -3   7   2    1.07    0.37
   3   7  -2    0.68    1.08
  -3  -7   1   14.50    2.13
  -3   7   1   12.31    1.45
   3   7  -1   10.56    1.86
  -3   7   0  177.61    7.22
  -3  -7   0  158.98    7.09
   3   7   0  178.18    7.32
  -3   7  -1  266.96   10.31
   3   7   1  277.81   10.03
  -3  -7  -1  258.58    9.11
  -3  -7  -2   39.28    2.88
  -3   7  -2   39.77    3.87
   3   7   2   40.13    3.30
  -3  -7  -3    0.90    0.63
   3   7   3    0.21    0.69
  -3   7  -3    0.16    0.93
   3   7   4  144.13    6.97
  -3  -7  -4  128.56    6.74
  -3   7  -4  140.24    8.90
  -3   7  -5   14.35    3.08
  -3  -7  -5    9.45    1.99
   3   7   5   14.00    2.24
  -3   7  -6   21.13    4.05
   3   7   6   23.72    2.96
  -3   7  -7   24.99    4.40
   3   8  -7   -4.24    2.10
   3   8  -6   20.57    4.01
   3   8  -5   74.10    6.77
   3   8  -4   82.60    6.62
  -3   8   3  140.29    3.84
   3   8  -3  143.07    8.30
  -3  -8   2    2.51    1.22
   3   8  -2    1.69    1.03
  -3   8   2    0.82    0.37
   3   8  -1  104.87    6.07
  -3  -8   1  103.56    6.02
  -3   8   1   98.64    4.70
  -3  -8   0   13.46    1.97
   3   8   0   11.80    1.82
  -3   8   0   12.27    1.82
  -3  -8  -1    4.21    1.11
   3   8   1    2.71    1.18
  -3   8  -1    3.08    1.27
  -3   8  -2    2.94    1.33
   3   8   2    4.73    1.33
  -3  -8  -2    5.29    1.17
  -3   8  -3   87.40    6.59
   3   8   3   85.85    5.17
  -3  -8  -3   81.59    4.25
   3   8   4   31.76    3.11
  -3   8  -4   30.68    4.24
  -3  -8  -4   30.19    2.46
   3   8   5  176.19    8.08
  -3  -8  -5  162.70    7.85
  -3   8  -5  172.56   10.80
  -3   8  -6    8.65    2.72
   3   9  -7    3.30    2.28
   3   9  -6    1.39    2.19
   3   9  -5  100.87    8.15
   3   9  -4  327.11   14.64
   3   9  -3  206.62   10.56
   3   9  -2  102.35    6.75
  -3   9   2  120.42    4.41
  -3  -9   2  117.21    7.18
  -3  -9   1    4.43    1.33
  -3   9   1    6.54    1.24
   3   9  -1    6.26    1.74
   3   9   0   90.48    5.35
  -3   9   0   99.37    5.54
  -3  -9   0   87.46    5.31
  -3   9  -1   85.95    5.69
   3   9   1   89.37    5.52
  -3  -9  -1   77.34    4.63
  -3   9  -2  681.65   21.72
   3   9   2  694.08   19.77
  -3   9  -2  708.09   21.98
  -3  -9  -2  673.54   18.07
  -3   9  -3  192.36   10.27
  -3  -9  -3  160.62    6.40
   3   9   3  188.73    8.22
   3   9   4   14.03    2.14
  -3   9  -4   14.05    2.98
  -3  -9  -4   13.07    1.57
  -3   9  -5   22.67    4.04
   3   9   5   23.84    2.74
  -3   9  -6   54.04    6.53
   3  10  -6    9.67    2.66
   3  10  -5   95.67    8.17
   3  10  -4    3.11    1.72
   3  10  -3   88.85    6.89
   3  10  -2    2.26    1.25
  -3  10   2    1.33    0.47
  -3  10   2    1.35    0.55
  -3 -10   2    2.12    1.22
  -3  10   1  189.23    7.55
   3  10  -1  172.73    8.75
  -3 -10   1  186.01    9.07
  -3  10   1  196.59    7.67
  -3  10   0   -0.16    0.83
  -3 -10   0   -0.36    0.92
   3  10   0    0.32    0.83
  -3  10   0    0.17    0.92
  -3 -10  -1  129.69    6.36
  -3  10  -1  138.97    7.68
   3  10   1  128.14    7.06
  -3  10  -1  142.14    7.77
  -3 -10  -2    1.26    0.69
  -3  10  -2    1.34    1.17
   3  10   2    3.10    1.33
  -3  10  -3   87.39    6.91
   3  10   3   90.76    5.56
  -3 -10  -3   91.23    4.34
   3  10   4   64.18    4.53
  -3  10  -4   70.02    6.64
  -3  10  -5  110.65    9.06
  -3  10  -6   26.68    4.79
   3  11  -6    4.24    1.91
   3  11  -5   42.93    5.69
   3  11  -4  200.17   11.71
   3  11  -3   36.22    4.49
   3  11  -2  146.00    8.77
  -3  11   2  159.81    5.80
  -3  11   2  159.40    5.91
   3  11  -1   36.81    3.94
  -3  11   1   32.61    2.98
  -3  11   1   31.59    2.84
  -3 -11   1   37.46    3.91
  -3  11   0    1.89    1.28
  -3 -11   0    2.68    1.24
   3  11   0    0.69    0.92
  -3  11   0    0.44    0.89
  -3 -11  -1    8.74    1.71
  -3  11  -1    8.96    2.02
  -3  11  -1   10.47    2.07
   3  11   1    8.09    1.85
  -3  11  -2   17.78    3.05
  -3 -11  -2   16.73    2.01
   3  11   2   20.15    2.71
  -3  11  -3    0.11    1.43
  -3 -11  -3    1.77    0.76
   3  11   3    0.58    0.82
  -3  11  -4  128.89    9.38
   3  11   4  126.70    6.64
  -3  11  -5   27.31    4.68
   3  12  -5  140.47   10.51
   3  12  -4    2.80    2.08
   3  12  -3   91.95    7.50
   3  12  -2   62.04    5.77
  -3  12   2   80.78    4.04
  -3  12   2   81.33    3.86
   3  12  -1  229.04   10.86
  -3 -12   1  233.05   10.92
  -3  12   1  251.96    9.62
  -3  12   1  231.79    9.11
   3  12   0   29.38    3.33
  -3 -12   0   29.53    3.36
  -3  12   0   29.25    3.26
  -3  12   0   29.35    3.30
   3  12   1   75.70    5.66
  -3  12  -1   66.68    5.49
  -3 -12  -1   74.06    4.93
   3  12   2   36.58    3.81
  -3 -12  -2   38.49    3.07
  -3  12  -2   31.95    4.23
  -3  12  -3  217.05   12.10
   3  12   3  231.75    9.88
  -3  12  -4   -0.45    1.38
  -3  12  -5  159.14   11.64
   3  13  -5   42.87    6.02
   3  13  -4  333.04   16.47
   3  13  -3    1.78    1.53
   3  13  -2   37.86    4.65
  -3  13   2   52.12    3.01
   3  13  -1   83.69    6.32
  -3  13   1   73.53    5.02
  -3  13   1   81.06    4.94
  -3  13   0  102.71    6.64
   3  13   0  110.11    6.79
  -3 -13   0   96.88    6.37
  -3  13   0  112.11    6.79
   3  13   1   58.01    5.09
  -3 -13  -1   49.91    4.16
  -3  13  -1   56.99    5.23
   3  13   2  877.30   25.03
  -3  13  -2  820.71   26.99
  -3  13  -3    6.64    2.43
   3  13   3    5.65    1.71
  -3  13  -4   28.82    4.73
   3  14  -4   56.06    6.57
   3  14  -3   13.88    3.36
   3  14  -2   11.81    2.96
   3  14  -1   80.29    6.43
  -3  14   1   82.21    5.13
   3  14   0   45.68    4.41
  -3  14   0   42.43    4.18
   3  14   1   85.89    6.54
  -3  14  -1   88.96    6.85
   3  14   2   40.29    4.23
  -3  14  -2   49.15    5.43
  -3  14  -3  101.53    8.56
  -3  14  -4    4.27    2.05
   3  15  -4   94.63    8.72
   3  15  -3    2.18    1.56
   3  15  -2   -2.05    1.86
   3  15  -1   98.16    7.31
  -3  15   0   26.21    3.41
   3  15   0   21.86    3.11
  -3  15  -1   14.85    2.98
   3  15   1   16.69    3.09
   3  15   2   88.06    6.41
  -3  15  -2   73.34    6.94
  -3  15  -3    9.11    2.95
  -3  15  -4    5.77    2.45
   3  16  -3   10.61    2.78
   3  16  -2   21.74    3.95
   3  16  -1   76.58    6.63
   3  16   0   69.42    6.54
  -3  16  -1   28.18    4.04
   3  16   1   32.47    4.26
  -3  16  -2   37.30    5.12
  -3  16  -3   15.96    3.72
   3  17  -3    1.64    1.36
   3  17  -2    3.76    2.14
   3  17   0   66.89    6.68
  -3  17  -2   81.63    7.62
  -3  17  -3    9.36    3.16
   4   0  -8    1.33    1.46
   4   0  -7    1.90    1.34
   4   0  -6    3.64    1.64
  -4   0   6    3.35    1.55
  -4   0   5    0.38    0.80
   4   0  -5    0.02    0.82
  -4   0   4    4.35    1.30
   4   0  -4    6.09    1.49
  -4   0   3    0.29    0.56
   4   0  -3    0.66    0.88
  -4   0   2  366.39   11.80
   4   0  -2  386.42   11.60
  -4   0   1    0.77    0.74
   4   0  -1    0.00    0.69
  -4   0   0  162.69    6.65
   4   0   0  162.37    6.72
  -4   0  -1   -0.73    0.86
   4   0   1    0.28    0.86
   4   0   2   10.61    1.85
  -4   0  -2   11.95    1.93
  -4   0  -3   -0.64    1.08
   4   0   3    1.33    1.03
  -4   0  -4  234.62   10.68
   4   0   4  222.73   10.38
   4   0   5    0.67    1.06
   4   0   6   15.74    3.25
  -4   0  -7    2.02    1.83
  -4   0  -8   35.52    5.20
   4   1  -9   14.74    3.60
   4   1  -8   10.52    3.01
   4  -1  -8   15.92    2.98
   4   1  -7   -0.33    1.20
   4  -1  -7    0.95    1.01
  -4   1   6    0.10    0.68
   4  -1  -6   -0.11    1.06
   4   1  -6    1.68    1.41
  -4   1   5    7.00    1.66
  -4  -1   5    6.78    1.69
   4  -1  -5    3.82    1.25
   4   1  -5    6.00    1.72
  -4  -1   4    0.81    0.71
  -4   1   4    4.55    1.36
   4   1  -4    2.94    1.20
   4  -1  -4    3.01    1.03
  -4  -1   3  788.93   21.77
   4  -1  -3  806.50   20.37
   4   1  -3  800.33   21.85
  -4   1   3  807.05   21.20
   4  -1  -2    1.21    0.77
  -4  -1   2    0.92    0.59
  -4   1   2    2.04    0.84
   4   1  -2    2.92    1.15
   4   1  -2    1.05    0.83
   4  -1  -1    3.42    0.95
  -4  -1   1    2.50    0.84
  -4   1   1    4.13    0.99
   4   1  -1    2.87    1.10
  -4  -1   0   32.78    2.77
  -4   1   0   28.01    2.51
   4   1   0   30.93    2.74
   4  -1   0   30.59    2.67
  -4  -1  -1    7.60    1.49
   4   1   1    8.25    1.59
   4  -1   1    8.15    1.54
  -4   1  -1    7.30    1.53
   4   1   2  170.06    7.56
   4  -1   2  156.75    7.55
  -4  -1  -2  172.41    7.69
  -4   1  -2  172.15    7.89
  -4   1  -3   99.35    6.24
   4   1   3  100.18    6.01
   4  -1   3   93.50    6.02
  -4  -1  -3   93.37    5.93
   4   1   4    0.66    0.95
  -4  -1  -4    2.06    1.25
   4  -1   4   -0.15    1.12
  -4   1  -4    0.21    0.64
   4   1   5  147.91    8.66
   4  -1   5  149.34    8.98
   4   1   6   20.46    3.49
  -4  -1  -7   62.48    6.10
  -4   1  -7   52.63    5.96
  -4  -1  -8   21.35    3.89
  -4   1  -8   22.10    4.15
   4   2  -9   -0.81    1.41
   4   2  -8  147.76   10.18
   4  -2  -8  136.58    8.62
   4   2  -7   63.25    6.21
   4  -2  -7   65.23    5.46
  -4   2   6   18.92    2.77
   4   2  -6   25.01    3.58
   4  -2  -6   21.38    2.91
   4  -2  -6   21.03    2.58
  -4  -2   5    6.00    1.66
   4   2  -5    2.77    1.27
  -4   2   5    8.11    1.70
   4  -2  -5    5.42    1.44
  -4  -2   4    6.96    1.70
  -4   2   4   11.65    1.84
   4   2  -4    8.95    1.97
   4  -2  -4    9.50    1.68
   4   2  -3  141.45    7.14
   4  -2  -3  142.60    5.75
  -4  -2   3  144.94    7.18
  -4   2   3  149.56    6.46
  -4  -2   2 1898.05   43.58
  -4   2   2 1858.26   42.17
   4   2  -2 1896.16   43.49
   4  -2  -2 1857.03   41.44
  -4  -2   1  181.94    7.49
   4   2  -1  199.17    7.79
  -4   2   1  193.57    7.00
   4  -2  -1  197.87    7.14
   4  -2   0  476.25   13.83
  -4  -2   0  491.58   14.19
   4   2   0  478.18   14.17
  -4   2   0  467.61   13.69
   4  -2   1  290.30   10.35
  -4  -2  -1  273.55   10.03
  -4   2  -1  299.75   10.43
   4   2   1  298.03   10.35
  -4  -2  -2    8.63    1.69
  -4   2  -2    7.70    1.74
   4  -2   2    9.18    1.80
   4   2   2   10.16    1.83
   4   2   3   31.08    3.30
   4  -2   3   36.72    3.68
  -4  -2  -3   29.36    3.19
  -4   2  -3   34.73    3.65
   4   2   4  829.61   24.14
   4  -2   4  859.36   25.43
  -4   2  -4  870.11   25.48
  -4  -2  -4  819.78   24.31
   4  -2   5    0.94    1.35
  -4  -2  -5   -0.68    1.22
   4   2   5    2.43    1.32
   4   2   6   30.35    4.08
  -4   2  -7    4.51    2.49
  -4  -2  -7    6.10    2.17
  -4   2  -8    7.64    2.54
  -4  -2  -8    6.14    2.59
   4   3  -8   11.90    3.33
   4   3  -7    7.41    2.51
   4  -3  -7    8.06    2.02
   4   3  -6   45.04    4.93
   4  -3  -6   48.23    4.16
   4  -3  -6   44.56    3.38
  -4   3   6   42.64    3.94
  -4   3   5    0.95    0.67
   4   3  -5    1.62    1.15
   4  -3  -5    0.36    0.56
   4   3  -4   96.39    6.29
   4  -3  -4   81.68    4.07
  -4  -3   4   89.16    6.01
  -4   3   4   81.52    4.69
  -4   3   3 1059.43   26.00
   4   3  -3 1105.39   28.53
   4  -3  -3 1058.85   24.85
  -4  -3   3 1087.38   28.44
  -4   3   2   70.25    3.90
   4  -3  -2   69.36    3.55
   4   3  -2   68.04    4.61
  -4  -3   2   67.14    4.56
   4   3  -1   73.75    4.58
   4  -3  -1   74.61    3.97
  -4   3   1   78.53    3.97
  -4  -3   1   74.49    4.58
   4  -3   0    8.91    1.50
  -4   3   0    9.85    1.52
  -4  -3   0    9.46    1.54
   4   3   0    8.09    1.54
   4  -3   1  975.20   25.00
  -4  -3  -1  985.96   24.97
  -4   3  -1  942.22   24.94
   4   3   1  955.01   24.69
   4   3   2  283.30   10.43
   4  -3   2  278.31   10.86
  -4   3  -2  272.17   10.72
  -4  -3  -2  267.49   10.18
  -4   3  -3  967.97   26.47
   4   3   3  914.51   24.89
  -4  -3  -3  895.61   25.00
   4  -3   3  935.99   26.41
  -4  -3  -4   24.01    3.07
   4   3   4   24.20    3.03
   4  -3   4   28.85    3.70
   4   3   5  159.64    8.77
  -4  -3  -5  161.28    8.86
  -4   3  -6    4.44    2.09
   4   3   6    2.48    1.42
  -4   3  -7   43.55    5.64
  -4  -3  -7   41.78    4.70
  -4   3  -8   11.00    3.24
   4   4  -8   33.92    5.09
   4   4  -7   18.23    3.72
   4  -4  -7   20.15    2.76
  -4   4   6   15.85    2.34
   4  -4  -6   16.43    1.78
   4   4  -6   18.13    3.17
   4  -4  -6   18.69    1.90
  -4   4   5   13.92    2.19
   4   4  -5   13.81    2.73
   4  -4  -5   13.39    1.47
   4  -4  -5   13.54    1.49
   4   4  -4   42.45    4.32
   4  -4  -4   36.06    2.30
  -4  -4   4   38.77    4.01
  -4   4   4   40.86    3.06
  -4   4   3  243.91    8.37
   4   4  -3  240.85   10.38
   4  -4  -3  248.09    7.41
  -4  -4   3  246.45   10.42
   4   4  -2 1256.84   31.14
  -4   4   2 1205.77   27.68
   4  -4  -2 1185.62   27.73
  -4  -4   2 1316.80   31.50
   4  -4  -1    1.46    0.67
  -4   4   1    2.86    0.78
  -4  -4   1    2.34    1.06
   4   4  -1   -0.09    0.79
   4   4  -1    1.66    0.97
  -4  -4   0   23.79    2.50
   4   4   0   21.41    2.47
   4  -4   0   18.95    2.14
  -4   4   0   22.68    2.32
  -4   4  -1  720.96   20.10
   4  -4   1  733.44   20.22
  -4  -4  -1  685.40   19.76
   4   4   1  753.30   20.10
  -4   4  -2   -1.71    0.97
   4   4   2    0.33    0.72
   4  -4   2    1.69    1.25
  -4  -4  -2    0.32    0.69
   4   4   3  271.09   10.46
  -4   4  -3  258.48   11.29
   4  -4   3  279.72   11.69
  -4  -4  -3  239.32   10.10
  -4  -4  -4  494.39   16.81
   4   4   4  525.40   17.01
   4  -4   4  524.99   18.70
   4   4   5    4.08    1.71
  -4  -4  -5    2.24    1.09
  -4   4  -6    4.09    2.08
   4   4   6    8.29    2.15
  -4   4  -7    1.90    1.38
  -4  -4  -7    5.52    1.87
   4   5  -8    4.20    2.05
   4   5  -7    0.20    1.79
   4   5  -6   44.59    5.23
   4  -5  -6   40.66    2.08
  -4   5   5    0.18    0.57
   4  -5  -5    0.14    0.32
   4   5  -5    2.99    1.82
   4  -5  -5    1.04    0.40
   4   5  -4  224.90   10.77
   4  -5  -4  229.70    6.04
  -4   5   4  207.06    7.67
   4   5  -3  470.86   16.15
   4  -5  -3  455.80   11.35
  -4  -5   3  482.60   16.23
  -4   5   3  466.74   12.98
   4   5  -2   31.36    3.24
   4  -5  -2   32.30    2.19
  -4   5   2   27.51    2.01
  -4  -5   2   33.69    3.40
  -4  -5   1  510.40   15.81
   4  -5  -1  517.44   14.08
   4   5  -1  517.33   15.68
  -4   5   1  510.63   14.00
  -4  -5   0  417.79   13.24
   4  -5   0  400.52   12.75
   4   5   0  424.36   13.68
  -4   5   0  423.12   12.97
  -4   5  -1   15.95    2.23
   4   5   1   17.72    2.32
  -4  -5  -1   14.18    1.90
   4  -5   1   12.53    2.05
  -4   5  -2  275.09   11.08
   4  -5   2  261.34   10.93
  -4  -5  -2  243.77    9.93
   4   5   2  276.89   10.35
  -4   5  -3  208.06   10.17
   4  -5   3  210.06   10.20
   4   5   3  206.05    9.01
  -4  -5  -3  194.40    8.84
   4   5   4   85.90    5.76
  -4  -5  -4   78.74    5.56
  -4  -5  -5   10.77    2.27
   4   5   5    3.17    1.33
   4   5   6    2.17    1.22
  -4   5  -6    1.74    1.60
  -4   5  -7   66.77    7.13
   4   6  -7   62.82    6.95
   4   6  -6   23.98    4.07
   4   6  -5   65.16    6.04
  -4   6   5   60.66    3.57
  -4   6   4    4.46    0.90
   4   6  -4    7.96    2.03
   4   6  -3   73.91    5.61
   4  -6  -3   70.14    2.57
  -4   6   3   69.93    3.66
  -4  -6   3   69.78    5.43
  -4  -6   2  807.21   23.16
   4  -6  -2  806.18   19.16
  -4   6   2  799.95   19.03
   4   6  -2  810.39   23.10
   4   6  -1  404.36   13.47
   4  -6  -1  398.30   11.79
  -4   6   1  389.33   11.67
  -4  -6   1  399.00   13.54
  -4  -6   0  275.29   10.34
  -4   6   0  272.38    9.91
   4  -6   0  293.12   10.28
   4   6   0  306.10   11.10
  -4  -6  -1  327.92   11.22
   4  -6   1  334.82   12.15
  -4   6  -1  329.35   12.00
   4   6   1  347.50   12.05
  -4   6  -2  100.68    6.48
  -4  -6  -2   96.92    5.71
   4  -6   2   89.76    6.14
  -4  -6  -2   94.86    5.18
   4   6   2   94.21    5.65
  -4  -6  -3  136.40    7.22
   4   6   3  144.15    7.34
   4   6   4   97.25    6.14
  -4  -6  -4   87.07    5.90
  -4   6  -5   54.35    6.01
   4   6   5   60.69    4.98
  -4  -6  -5   46.21    4.45
   4   6   6   66.08    5.58
  -4   6  -6   65.98    6.98
  -4   6  -7   17.94    3.84
   4   7  -7   15.31    3.66
   4   7  -6   58.61    6.40
  -4   7   5   10.14    1.26
   4   7  -5    7.67    2.28
   4   7  -4  112.19    7.76
  -4   7   4  111.04    4.42
   4   7  -3   62.41    5.35
  -4   7   3   59.65    3.21
  -4  -7   3   57.80    5.11
   4   7  -2  138.10    7.62
  -4  -7   2  137.22    7.62
  -4   7   2  136.67    5.04
  -4   7   1  136.58    5.90
   4  -7  -1  125.98    5.77
   4   7  -1  153.72    7.50
  -4  -7   1  143.05    7.35
  -4   7   0   11.63    1.79
  -4  -7   0   15.97    2.24
   4   7   0   12.41    2.19
   4  -7   0   13.42    1.99
  -4  -7  -1  290.18   10.59
  -4   7  -1  290.59   11.44
   4  -7   1  307.07   11.61
   4   7   1  298.62   11.29
  -4  -7  -2  589.69   17.07
  -4   7  -2  601.97   19.60
   4   7   2  611.45   18.22
  -4  -7  -3  181.61    8.57
   4   7   3  195.29    8.88
   4   7   4    0.88    0.85
  -4  -7  -4    1.52    1.06
  -4   7  -5   -0.06    1.61
   4   7   5    0.86    1.13
  -4  -7  -5    0.58    1.14
   4   7   6   86.80    6.29
  -4   7  -6   87.65    8.11
   4   8  -7   18.99    3.98
   4   8  -6    5.74    2.53
   4   8  -5   56.59    6.02
   4   8  -4   16.64    3.09
  -4   8   4   15.50    1.23
   4   8  -3   61.28    5.49
  -4   8   3   59.28    3.09
   4   8  -2   65.24    5.29
  -4   8   2   77.30    3.56
  -4  -8   2   72.61    5.57
  -4   8   1   66.24    4.04
  -4  -8   1   65.13    4.97
   4   8  -1   73.61    5.23
  -4   8   0  203.98    8.56
   4   8   0  221.25    9.68
  -4  -8   0  201.89    8.88
  -4  -8  -1  228.05    9.28
  -4   8  -1  254.87   10.62
   4   8   1  241.80   10.17
   4   8   2    1.55    1.04
  -4  -8  -2    1.39    0.83
  -4  -8  -3  275.92   10.08
   4   8   3  298.69   11.61
  -4   8  -4   42.86    5.20
  -4  -8  -4   40.65    3.38
   4   8   4   42.34    4.00
  -4   8  -5   16.55    3.52
   4   8   5   19.44    2.86
  -4  -8  -5   19.57    2.88
  -4   8  -6   -2.93    1.93
   4   9  -6    3.68    1.91
   4   9  -5    1.20    1.37
   4   9  -4  160.13    9.92
  -4   9   3   19.45    1.59
   4   9  -3   10.83    2.49
  -4  -9   2    6.88    1.97
  -4   9   2    7.26    1.10
   4   9  -2    9.00    2.10
  -4  -9   1    2.77    1.23
   4   9  -1    1.09    1.06
  -4   9   1    1.49    0.70
  -4   9   0  265.27   10.47
   4   9   0  269.82   11.36
  -4  -9   0  270.94   10.83
  -4  -9  -1   11.39    1.90
  -4   9  -1    7.76    1.78
   4   9   1    9.68    1.96
  -4  -9  -2  147.89    6.95
   4   9   2  154.02    7.89
  -4  -9  -3   27.62    2.74
   4   9   3   30.78    3.45
  -4   9  -4    8.51    2.64
  -4  -9  -4   11.63    1.81
   4   9   4   10.74    2.10
  -4   9  -5    4.12    2.07
   4   9   5    4.28    1.52
  -4   9  -6    2.47    1.70
   4  10  -6    3.12    1.60
   4  10  -5   10.43    3.12
   4  10  -4    2.26    1.71
   4  10  -3  102.85    7.68
  -4  10   3  105.63    3.90
   4  10  -2    0.78    0.99
  -4  10   2    1.79    0.72
   4  10  -1  397.92   14.53
  -4  10   1  354.98   12.04
  -4 -10   1  393.51   14.58
  -4 -10   0    0.39    0.79
  -4  10   0    0.31    0.86
   4  10   0    0.72    0.83
  -4 -10  -1    5.17    1.37
  -4  10  -1    6.20    1.80
   4  10   1    4.87    1.58
   4  10   2   48.85    4.39
  -4 -10  -2   52.90    3.97
  -4  10  -3  197.91   11.23
   4  10   3  212.85    9.69
  -4 -10  -3  183.68    7.78
   4  10   4   46.77    4.27
  -4  10  -4   43.31    5.45
  -4  10  -5    2.66    3.88
   4  10   5    2.37    1.06
   4  11  -6    9.12    2.80
   4  11  -5   47.90    6.05
   4  11  -4  136.78    9.67
  -4  11   3    1.10    0.40
   4  11  -3    1.45    1.31
  -4  11   3    0.64    0.37
   4  11  -2   66.30    5.89
  -4  11   2   62.79    3.84
  -4  11   2   70.76    3.82
   4  11  -1   46.03    4.63
  -4  11   1   65.18    4.33
  -4 -11   1   55.65    5.07
  -4 -11   0    2.57    1.12
  -4  11   0    2.23    1.23
   4  11   0    2.89    1.34
  -4  11  -1    9.95    2.24
  -4 -11  -1    9.89    2.05
   4  11   1   10.68    2.24
  -4  11  -2  762.63   25.39
   4  11   2  822.52   24.02
  -4 -11  -2  797.38   21.87
  -4  11  -3    1.82    1.68
   4  11   3    2.69    1.08
  -4  11  -4    4.88    2.14
   4  11   4    6.15    1.56
  -4  11  -5    9.79    2.84
   4  12  -5   63.76    7.11
   4  12  -4   64.96    6.88
   4  12  -3  110.50    8.39
  -4  12   2    1.24    0.83
   4  12  -2    1.91    1.38
  -4  12   2    1.26    0.46
   4  12  -1  209.88   10.61
  -4  12   1  208.42    8.81
  -4  12   1  203.12    8.85
  -4  12   0  329.25   13.02
  -4  12   0  330.52   13.08
   4  12   0  340.00   14.26
  -4 -12   0  318.31   13.02
   4  12   1  155.82    8.84
  -4  12  -1  153.25    8.88
  -4 -12  -1  142.17    7.61
   4  12   2   12.55    2.41
  -4  12  -2    9.42    2.46
  -4 -12  -2   12.01    2.03
  -4  12  -3  365.32   16.71
   4  12   3  390.58   14.76
  -4  12  -4   10.35    3.24
  -4  12  -5   10.29    3.10
   4  13  -5    2.01    1.24
   4  13  -4  123.40    9.73
   4  13  -3   19.85    3.85
  -4  13   2    0.44    0.70
   4  13  -2    0.40    1.50
  -4  13   1  110.75    6.31
  -4  13   1  112.38    6.39
   4  13  -1  111.37    7.64
  -4  13   0  335.19   13.44
   4  13   0  320.71   14.32
  -4  13   0  336.19   13.26
  -4 -13   0  311.82   13.19
  -4  13  -1    0.62    1.28
  -4 -13  -1    1.55    1.13
   4  13   1    0.39    0.93
  -4  13  -2  355.42   15.62
   4  13   2  332.51   13.90
  -4  13  -3    7.12    3.59
   4  13   3    3.21    1.47
  -4  13  -4    0.77    1.51
   4  14  -4   27.55    4.75
   4  14  -3   40.87    5.33
   4  14  -2   43.95    5.14
   4  14  -1   96.89    7.37
  -4  14   1  106.31    6.28
  -4  14   0   -2.21    1.23
   4  14   0    0.77    1.24
   4  14   1   90.64    7.06
  -4  14  -1   91.90    7.07
   4  14   2   10.06    2.32
  -4  14  -2    6.66    2.27
  -4  14  -3   99.28    8.57
  -4  14  -4    8.87    3.08
   4  15  -4   42.05    5.82
   4  15  -3   22.98    4.16
   4  15  -2   15.70    3.32
   4  15  -1   46.69    5.08
  -4  15   0    8.41    2.11
   4  15   0    4.11    1.91
  -4  15  -1   -0.01    1.04
   4  15   1   -0.09    1.41
  -4  15  -2  136.13    9.80
   4  15   2  150.77    9.07
  -4  15  -3   24.04    4.45
   4  16  -3   56.52    6.61
   4  16  -2   32.97    4.97
   4  16  -1   54.85    5.72
   4  16   0   32.88    4.71
  -4  16  -1    9.36    2.88
   4  16   1    8.07    2.45
  -4  16  -2    9.04    2.99
  -4  16  -3   43.19    5.81
   4  17  -2    0.95    2.04
   4  17   0    8.14    2.73
  -4  17  -2   23.06    4.37
   4  18  -1   11.52    3.29
   5   0  -8   21.67    3.76
   5   0  -7    0.08    0.96
   5   0  -6  144.24    8.55
  -5   0   5    1.84    1.27
   5   0  -5    1.95    1.36
  -5   0   4    4.80    1.50
   5   0  -4    2.39    1.05
  -5   0   3   -0.55    0.76
   5   0  -3    0.39    0.84
  -5   0   2   16.31    2.22
   5   0  -2   16.95    2.22
   5   0  -1    0.40    0.79
  -5   0   1    0.94    0.82
  -5   0   0  695.01   19.24
   5   0   0  669.50   19.20
  -5   0  -1   -0.04    0.72
   5   0   1   -0.12    0.94
   5   0   2   19.92    2.68
  -5   0  -2   21.51    2.79
  -5   0  -3    0.63    0.69
   5   0   3    0.75    1.20
   5   0   4  873.03   26.25
   5   0   5   -0.54    1.02
   5   0   6   66.15    6.57
  -5   0  -7    3.36    2.26
  -5   0  -8    5.35    1.99
   5   1  -9    2.47    2.00
   5   1  -8   -0.84    1.70
   5  -1  -8    3.93    2.09
   5   1  -7    8.00    2.32
   5  -1  -7    3.48    1.70
   5   1  -6    0.83    1.09
   5  -1  -6    3.63    1.73
   5   1  -5  256.88   11.50
   5  -1  -5  260.17   10.98
  -5  -1   5  262.38   11.59
  -5   1   5  244.41   10.71
   5   1  -4   27.98    3.30
  -5  -1   4   23.98    3.01
  -5   1   4   23.59    2.84
   5  -1  -4   25.90    2.70
  -5   1   3   77.03    4.92
  -5  -1   3   74.66    5.14
   5   1  -3   75.18    5.13
   5   1  -3   70.20    4.74
   5  -1  -3   74.58    4.52
   5   1  -2    3.12    1.13
   5  -1  -2    2.74    1.04
  -5  -1   2    2.89    1.15
  -5   1   2    1.94    0.87
   5  -1  -1   16.41    2.10
   5   1  -1   19.57    2.42
  -5  -1   1   16.28    2.15
  -5   1   1   17.68    2.11
  -5  -1   0  147.25    6.90
  -5   1   0  133.42    6.50
   5   1   0  131.80    6.64
   5  -1   0  142.66    6.76
   5  -1   1  589.68   17.95
  -5  -1  -1  628.07   18.28
  -5   1  -1  580.47   17.93
   5   1   1  637.06   18.41
  -5  -1  -2   22.98    2.92
   5  -1   2   21.48    2.95
  -5   1  -2   23.22    2.96
   5   1   2   19.26    2.68
   5   1   3  160.09    8.46
   5  -1   3  162.91    8.62
  -5  -1  -3  155.34    8.35
  -5   1  -3  169.26    8.83
   5   1   4   68.72    5.64
   5  -1   4   72.83    5.95
   5   1   5  136.23    8.78
   5  -1   5  152.71    9.55
   5  -1   6   47.46    5.65
   5   1   6   39.01    4.92
  -5  -1  -7   14.07    3.28
  -5   1  -7   16.04    3.65
  -5  -1  -8    9.66    2.89
  -5   1  -8   15.91    3.59
   5   2  -9    1.22    2.37
   5   2  -8    5.67    2.42
   5  -2  -8    1.58    1.15
   5   2  -7    9.95    2.69
   5  -2  -7   10.77    2.39
   5   2  -6  201.35   10.82
   5  -2  -6  211.94    9.96
  -5   2   6  193.14    9.61
  -5   2   5    3.26    1.33
   5   2  -5    5.68    1.70
   5  -2  -5    4.23    1.19
   5   2  -4   85.12    5.90
   5  -2  -4   68.78    4.36
  -5  -2   4   79.44    5.74
  -5   2   4   73.15    4.89
  -5  -2   3   22.73    2.88
  -5   2   3   18.63    2.30
   5   2  -3   22.21    2.86
   5  -2  -3   19.11    2.13
  -5  -2   2  621.58   18.26
  -5   2   2  600.69   17.09
   5   2  -2  595.29   17.86
   5  -2  -2  592.62   16.52
   5   2  -1   -0.26    1.00
  -5  -2   1    1.56    0.95
   5  -2  -1    1.60    1.05
  -5   2   1    0.36    0.60
   5  -2   0  148.67    6.88
  -5  -2   0  136.80    6.84
   5   2   0  140.49    6.90
  -5   2   0  133.19    6.50
   5  -2   1  337.23   12.04
  -5  -2  -1  330.45   12.03
  -5   2  -1  335.04   12.09
   5   2   1  326.57   12.05
   5   2   2  479.05   15.96
   5  -2   2  473.66   16.13
  -5  -2  -2  494.43   16.12
  -5   2  -2  491.85   16.40
   5  -2   3   11.97    2.39
   5   2   3   13.29    2.28
  -5  -2  -3   16.97    2.72
  -5   2  -3   15.13    2.62
   5   2   4  486.46   17.34
   5  -2   4  502.58   18.30
  -5  -2  -4  490.99   17.55
   5   2   5    4.77    1.77
   5  -2   5    2.23    2.38
   5   2   6   12.62    3.12
  -5   2  -7   24.00    4.48
   5   2   7   22.59    4.05
   5   3  -8   -0.07    1.76
   5   3  -7    0.31    1.62
  -5   3   6   25.38    3.16
   5   3  -6   22.94    3.83
   5  -3  -6   20.01    2.45
   5   3  -5  305.54   13.47
   5  -3  -5  310.98   10.44
  -5   3   5  302.50   11.54
  -5  -3   4    4.04    1.43
  -5   3   4    2.88    1.15
   5   3  -4    4.22    1.55
   5  -3  -4    1.71    0.78
  -5   3   3  156.09    7.08
   5   3  -3  154.75    8.11
   5  -3  -3  157.81    6.45
  -5  -3   3  174.56    8.52
  -5  -3   2  227.62    9.60
  -5   3   2  206.22    7.78
   5   3  -2  217.40    9.30
   5  -3  -2  216.71    8.00
   5  -3  -1  319.62   10.80
  -5  -3   1  337.57   11.87
   5   3  -1  320.51   11.76
  -5   3   1  317.45   10.65
  -5  -3   0  531.87   16.51
   5  -3   0  564.80   16.44
  -5  -3   0  540.99   16.79
   5   3   0  584.22   17.23
  -5   3   0  564.94   16.50
   5  -3   1 1660.03   40.51
  -5  -3  -1 1632.91   40.44
   5   3   1 1635.75   40.35
  -5   3  -1 1763.32   40.86
  -5  -3  -2    7.18    1.63
   5   3   2    6.74    1.64
  -5   3  -2    4.08    1.26
   5  -3   2    6.42    1.79
  -5   3  -3  346.45   13.93
   5   3   3  345.06   13.06
  -5  -3  -3  334.24   13.11
   5  -3   3  335.42   13.68
  -5  -3  -4    1.28    0.74
   5   3   4    0.62    1.01
   5   3   5   47.59    4.92
   5  -3   5   53.34    5.70
   5   3   6   10.47    2.56
  -5   3  -7   55.77    6.45
   5   3   7   51.27    5.82
   5   4  -8    9.10    3.01
   5   4  -7   38.10    5.25
   5   4  -6  150.56    9.74
   5  -4  -6  140.56    6.01
  -5   4   6  130.73    7.16
  -5   4   5    1.56    0.95
   5   4  -5    0.13    1.16
   5   4  -4   99.85    6.84
   5  -4  -4   99.43    4.58
  -5   4   4   89.87    5.18
  -5  -4   3   21.55    2.97
  -5   4   3   18.51    2.20
   5   4  -3   16.29    2.58
   5  -4  -3   19.08    1.96
   5  -4  -2  116.46    5.41
   5   4  -2  119.07    6.74
  -5   4   2  120.35    5.33
  -5  -4   2  115.68    6.75
   5  -4  -1  690.86   18.59
  -5  -4   1  702.12   20.24
   5   4  -1  689.99   20.22
  -5   4   1  680.16   18.48
  -5  -4   0  351.09   12.30
   5  -4   0  348.95   12.01
   5   4   0  336.58   12.36
  -5   4   0  355.71   12.06
  -5   4  -1  134.18    7.10
   5  -4   1  130.64    7.02
  -5  -4  -1  133.30    7.12
   5   4   1  137.83    7.12
  -5   4  -2  332.93   13.08
   5  -4   2  317.17   12.82
  -5  -4  -2  336.32   12.66
   5   4   2  340.36   12.68
  -5  -4  -3   20.16    2.89
   5  -4   3   23.19    3.26
   5   4   3   20.67    2.93
   5   4   4  131.15    7.87
   5  -4   4  125.88    8.45
  -5  -4  -4  127.17    7.73
   5   4   5   70.37    5.91
   5  -4   5   64.99    6.37
   5   4   6   20.74    3.42
  -5   4  -7   11.38    2.99
   5   4   7   10.38    3.09
   5   5  -8    3.88    2.00
   5   5  -7   -0.57    1.77
   5   5  -6   21.56    3.86
   5   5  -5  165.12    9.85
  -5   5   5  150.26    6.97
   5  -5  -5  146.98    5.23
  -5   5   4    1.77    0.98
   5   5  -4    1.29    0.94
   5  -5  -4    0.51    0.41
   5  -5  -3   49.33    3.03
   5   5  -3   59.60    5.05
  -5  -5   3   57.69    4.95
  -5   5   3   49.84    3.55
   5   5  -2  188.71    8.99
   5  -5  -2  179.85    6.94
  -5   5   2  184.12    6.92
  -5  -5   2  209.73    9.47
  -5  -5   1   49.57    4.17
   5  -5  -1   47.96    3.48
   5   5  -1   44.69    4.10
  -5   5   1   45.94    3.37
   5  -5   0  319.14   11.23
   5   5   0  312.83   11.86
  -5  -5   0  290.33   11.18
  -5   5   0  302.52   11.00
  -5   5  -1  209.79    9.38
   5  -5   1  202.56    9.24
  -5  -5  -1  208.03    8.88
   5   5   1  210.95    9.30
   5   5   2    2.34    0.95
   5  -5   2    3.11    1.31
  -5  -5  -2    2.95    1.02
  -5   5  -2    5.21    1.68
   5  -5   3    1.56    0.99
   5   5   3    1.00    1.14
  -5  -5  -3    2.33    1.12
   5  -5   4    4.69    1.87
   5   5   4    6.70    1.86
  -5  -5  -4    7.65    1.94
   5   5   5  112.28    7.53
  -5   5  -6   53.12    6.42
   5   5   6   49.54    5.26
  -5   5  -7   -0.15    1.27
   5   5   7   -0.33    1.66
   5   6  -7   64.96    7.08
   5   6  -6   15.88    3.56
  -5   6   5   17.87    2.13
   5   6  -5   19.02    3.46
   5  -6  -4   22.57    1.50
   5   6  -4   21.33    3.39
  -5   6   4   24.62    2.41
   5   6  -3   99.11    6.76
  -5   6   3   89.66    4.75
   5  -6  -3   85.09    3.89
   5   6  -2  916.60   25.88
   5  -6  -2  914.58   22.31
  -5   6   2  875.64   22.04
  -5  -6   2  920.77   25.99
  -5  -6   1  230.83   10.10
   5  -6  -1  232.50    8.82
   5   6  -1  244.61   10.53
  -5   6   1  234.72    8.75
  -5   6   0  166.85    7.76
  -5  -6   0  167.48    8.11
   5  -6   0  155.74    7.55
   5   6   0  170.20    8.42
  -5   6  -1   68.12    5.06
  -5  -6  -1   57.52    4.40
   5  -6   1   60.42    4.81
   5   6   1   68.54    5.09
  -5   6  -2    5.45    1.53
   5   6   2    5.08    1.62
   5  -6   2    5.35    1.44
  -5  -6  -2    5.99    1.54
   5  -6   3    4.20    1.95
   5   6   3    2.94    1.27
  -5  -6  -3    3.80    1.24
   5   6   4  136.99    7.92
  -5  -6  -4  135.03    8.03
   5   6   5  189.43   10.04
  -5   6  -6   62.23    7.02
   5   6   6   62.39    5.85
   5   7  -7    0.82    1.35
   5   7  -6   66.63    6.96
   5   7  -5   51.65    5.71
  -5   7   5   50.18    3.32
   5   7  -4   71.19    6.31
  -5   7   4   65.97    3.87
   5  -7  -3   16.59    1.49
   5   7  -3   15.78    2.84
  -5   7   3   15.03    1.84
   5   7  -2  273.96   11.58
   5  -7  -2  232.05    8.24
  -5   7   2  238.98    8.17
  -5  -7   2  243.91   11.08
   5  -7  -1  213.00    8.49
   5   7  -1  220.64   10.21
  -5   7   1  204.09    8.26
  -5  -7   1  227.31   10.07
  -5   7   0  776.47   21.70
  -5  -7   0  760.45   22.11
   5  -7   0  732.09   21.47
   5   7   0  786.91   22.95
  -5  -7  -1  138.33    7.23
  -5   7  -1  146.81    7.81
   5  -7   1  136.80    7.67
   5   7   1  153.03    8.01
   5   7   2    2.39    1.26
  -5  -7  -2    2.49    1.17
   5  -7   2    2.75    1.41
  -5  -7  -3   33.10    3.68
   5   7   3   41.76    4.22
   5   7   4  261.59   11.55
  -5  -7  -4  251.05   11.53
   5   7   5  154.15    8.91
   5   7   6  105.15    7.59
  -5   7  -6  103.39    9.19
   5   8  -7   74.08    7.92
   5   8  -6   28.92    4.79
   5   8  -5   -1.47    2.01
  -5   8   4    3.02    0.80
   5   8  -4    3.93    2.05
   5   8  -3    3.70    1.75
  -5   8   3    4.35    1.12
   5  -8  -2    4.02    0.95
   5   8  -2    4.99    1.72
  -5   8   2    2.47    0.72
   5  -8  -1  822.26   22.14
   5   8  -1  822.56   24.73
  -5   8   1  828.92   22.10
  -5  -8   1  829.80   24.37
  -5   8   0  118.96    6.65
   5  -8   0  121.57    6.79
   5   8   0  126.54    7.52
  -5  -8   0  122.12    7.05
  -5  -8  -1   46.10    4.09
  -5   8  -1   49.11    4.44
   5  -8   1   53.81    4.75
   5   8   1   49.52    4.52
   5   8   2    0.99    1.11
  -5  -8  -2    2.22    1.17
  -5  -8  -3    5.73    1.52
   5   8   3    6.40    1.85
   5   8   4   69.64    5.59
  -5  -8  -4   72.67    5.13
   5   8   5  377.19   15.02
  -5   8  -5  369.45   17.91
  -5   8  -6   13.18    3.45
   5   9  -6   57.43    6.80
   5   9  -5   39.86    5.46
   5   9  -4   51.04    5.75
  -5   9   4   53.17    2.94
   5   9  -3   64.69    5.93
  -5   9   3   59.20    3.62
   5   9  -2   89.92    6.66
  -5   9   2   90.67    4.55
  -5  -9   1    3.61    1.24
   5   9  -1    6.72    1.82
  -5   9   1    4.63    1.29
   5   9  -1    5.32    1.82
   5   9   0  107.79    7.08
  -5   9   0   90.93    5.91
  -5  -9   0  100.61    6.45
  -5   9  -1    4.40    1.23
  -5  -9  -1    5.35    1.48
   5   9   1    2.58    1.35
  -5  -9  -2   41.87    3.86
   5   9   2   42.69    4.29
  -5  -9  -3   31.64    3.35
   5   9   3   38.42    4.17
   5   9   4    2.45    1.11
  -5   9  -5    5.85    2.40
   5   9   5    5.18    1.57
   5  10  -6    4.55    1.65
   5  10  -5    2.15    1.39
   5  10  -4   47.90    5.64
   5  10  -3   49.61    5.36
  -5  10   3   49.68    3.17
   5  10  -2  145.35    8.89
  -5  10   2  138.29    5.96
  -5  10   1  244.57    9.65
   5  10  -1  220.15   10.79
   5  10  -1  246.80   11.80
   5  10   0  117.59    7.65
  -5  10   0  107.15    6.50
  -5 -10   0   96.47    6.56
  -5 -10  -1   12.07    2.19
   5  10   1   11.52    2.45
   5  10   2    4.24    1.53
  -5 -10  -2    5.30    1.51
  -5 -10  -3   -0.46    0.96
   5  10   3    2.07    1.16
  -5  10  -4   15.16    3.64
   5  10   4    4.73    1.63
   5  10   5   58.33    5.42
  -5  10  -5   66.60    7.19
   5  11  -5    0.20    1.69
   5  11  -4   42.63    5.52
   5  11  -3   35.79    4.73
   5  11  -2   42.66    4.90
  -5  11   2   43.14    3.15
   5  11  -1    0.61    1.09
  -5  11   1    0.53    0.95
  -5  11   0  606.79   19.45
  -5 -11   0  585.45   19.84
   5  11   0  648.68   21.57
  -5 -11  -1   11.09    2.20
   5  11   1   14.00    2.64
   5  11   2    2.99    1.36
  -5 -11  -2    5.66    1.74
  -5  11  -3    9.33    2.91
   5  11   3   10.11    2.43
   5  11   4   53.71    5.06
  -5  11  -4   38.95    5.47
  -5  11  -5    2.57    2.05
   5  12  -5    1.75    1.49
   5  12  -4    0.27    1.77
   5  12  -3    8.13    2.60
   5  12  -2  218.81   11.83
  -5  12   1  602.30   18.56
   5  12  -1  591.35   20.76
   5  12  -1  617.08   21.94
  -5  12   0    1.39    0.91
   5  12   0   -0.44    1.09
  -5 -12  -1   74.41    5.66
   5  12   1   81.26    6.55
  -5  12  -2   22.52    3.87
   5  12   2   20.66    3.26
  -5  12  -3    3.23    1.95
   5  12   3   -0.47    1.00
  -5  12  -4   16.08    3.54
   5  12   4   16.81    2.90
   5  13  -4   20.60    4.08
   5  13  -3   32.71    4.81
   5  13  -2   47.27    5.47
  -5  13   1    0.19    1.11
   5  13  -1   -0.54    1.17
   5  13  -1    0.31    1.41
  -5  13   0  324.01   13.63
   5  13   0  297.04   14.28
  -5  13  -1    7.88    2.39
   5  13   1   16.52    3.17
   5  13   2   14.84    2.90
  -5  13  -2    6.84    2.35
  -5  13  -3   62.54    6.80
   5  13   3   73.19    6.17
  -5  13  -4    1.86    1.42
   5  14  -4   74.89    7.83
   5  14  -3   -0.20    1.72
   5  14  -2    9.98    2.77
   5  14  -1  354.77   16.41
  -5  14   1  337.09   13.08
  -5  14   0   13.60    2.57
   5  14   0   18.26    3.41
  -5  14  -1    1.49    1.22
   5  14   1    0.83    1.49
  -5  14  -2   52.39    5.96
   5  14   2   55.74    5.60
  -5  14  -3   16.23    3.66
   5  15  -3    9.40    2.76
   5  15  -2   11.87    3.14
   5  15  -1    4.95    2.36
   5  15   0  143.79   10.07
  -5  15   0  149.06    8.95
  -5  15  -1   21.37    3.76
   5  15   1   21.88    3.91
   5  15   2    9.91    2.79
  -5  15  -2   11.32    3.53
  -5  15  -3   44.69    6.01
   5  16  -3    0.87    1.20
   5  16  -2   18.78    3.84
   5  16  -1  105.41    9.00
   5  16   0   27.12    4.59
  -5  16  -1   -0.22    1.70
   5  16   1   -0.55    2.03
  -5  16  -2   39.17    5.55
   5  17  -2    0.03    1.73
   5  17  -1    3.51    1.58
   5  17   0   46.68    5.99
   6   0  -8   21.54    3.92
   6   0  -7    0.23    1.46
   6   0  -6   43.34    4.75
   6   0  -5    1.32    1.09
  -6   0   4   23.75    3.08
   6   0  -4   27.27    3.12
  -6   0   3    0.98    0.67
   6   0  -3   -0.20    0.90
  -6   0   2  984.18   26.52
   6   0  -2  974.87   26.08
   6   0  -1   -0.31    0.76
  -6   0   1    0.51    0.65
  -6   0   0   95.06    5.91
   6   0   0   99.28    6.11
  -6   0  -1   -0.62    1.01
   6   0   1   -0.69    1.28
   6   0   2 1417.95   36.92
  -6   0  -2 1443.47   37.17
   6   0   3   -0.73    1.01
   6   0   4  166.01    9.70
   6   0   5    0.96    1.30
   6   0   6   18.91    4.06
   6   1  -8   -0.82    1.70
   6  -1  -8   -0.92    1.94
   6   1  -7    7.47    2.56
   6  -1  -7   11.68    2.54
   6  -1  -7    8.50    2.09
   6   1  -6    2.71    1.59
   6  -1  -6    6.65    1.81
   6   1  -5  108.23    7.34
   6  -1  -5  109.63    6.45
  -6   1   5  109.38    6.99
  -6  -1   4   15.18    2.52
  -6   1   4   15.81    2.45
   6   1  -4   14.39    2.44
   6  -1  -4   13.65    2.21
  -6  -1   3  133.83    7.50
  -6   1   3  134.09    7.28
   6   1  -3  129.85    7.09
   6  -1  -3  128.39    6.67
   6  -1  -2    4.02    1.21
  -6  -1   2    6.98    1.67
  -6   1   2    6.27    1.57
   6   1  -2    4.80    1.37
  -6  -1   1   68.36    4.87
  -6  -1   1   68.78    4.85
  -6   1   1   71.18    4.79
   6   1  -1   61.19    4.66
   6  -1  -1   65.05    4.66
  -6  -1   0  229.98    9.85
  -6   1   0  240.72    9.84
   6   1   0  213.92    9.60
   6  -1   0  226.16    9.73
   6  -1   1 1633.74   40.93
  -6  -1  -1 1706.15   41.28
  -6   1  -1 1627.14   40.89
   6   1   1 1650.64   41.14
  -6  -1  -2    5.87    1.76
   6  -1   2    7.63    1.85
  -6   1  -2    5.94    1.76
   6   1   2    5.44    1.64
   6   1   3    3.42    1.47
   6  -1   3    3.98    1.73
   6  -1   4   12.32    2.80
   6   1   4   15.52    2.82
   6   1   5   20.18    3.55
   6  -1   5   17.62    3.44
   6  -1   6   13.82    3.54
   6   1   6   13.53    3.45
   6   1   7  137.32   10.32
   6   2  -8   28.85    4.60
   6   2  -7    6.97    2.42
   6   2  -6   43.92    5.12
   6  -2  -6   39.91    3.74
  -6   2   5    2.63    1.09
   6   2  -5    4.48    1.59
   6  -2  -5    2.80    1.28
   6   2  -4   84.43    6.22
   6  -2  -4   87.33    5.28
  -6   2   4   90.43    5.87
   6  -2  -3    0.29    0.75
  -6  -2   3    0.68    0.96
  -6   2   3    0.97    0.86
   6   2  -3   -0.34    0.85
  -6  -2   2  356.03   13.19
  -6   2   2  331.81   12.09
   6   2  -2  331.05   12.64
   6  -2  -2  346.48   11.91
  -6  -2   1  219.14    9.59
  -6   2   1  206.58    8.86
   6   2  -1  226.05    9.71
   6  -2  -1  221.31    9.19
   6  -2   0  377.97   13.54
  -6  -2   0  383.20   13.76
  -6   2   0  393.74   13.53
   6   2   0  388.14   13.83
   6  -2   1   14.94    2.46
  -6   2  -1   23.36    2.95
   6   2   1   20.17    2.88
  -6  -2  -1   19.36    2.79
   6   2   2  319.12   12.89
   6  -2   2  321.48   13.07
  -6  -2  -2  320.71   12.90
  -6   2  -2  300.82   12.79
   6   2   3    0.81    0.94
   6  -2   3    0.32    1.43
   6  -2   4    4.79    1.95
   6   2   4    3.41    1.73
   6   2   5  113.68    8.37
   6  -2   5  123.58    9.18
   6   2   6  117.93    9.02
   6  -2   6  119.32    9.45
   6   2   7    4.89    2.48
   6   3  -8   -2.02    1.58
   6   3  -7    8.01    2.76
  -6   3   6    4.67    1.69
   6   3  -6    3.10    1.66
   6  -3  -6    5.02    1.37
   6   3  -5  240.04   11.99
   6  -3  -5  232.76    9.15
  -6   3   5  227.24   10.14
   6   3  -4   63.00    5.49
   6  -3  -4   59.94    4.13
  -6   3   4   55.82    4.48
  -6   3   3   52.75    4.18
   6   3  -3   52.15    4.62
   6  -3  -3   55.36    3.96
  -6  -3   3   49.32    4.60
  -6  -3   2  203.79    9.58
  -6   3   2  189.79    8.06
   6   3  -2  204.28    9.50
   6  -3  -2  205.36    8.48
   6  -3  -1  182.51    8.26
  -6  -3   1  201.20    9.13
   6   3  -1  192.07    9.09
  -6   3   1  186.75    8.22
   6  -3   0  103.09    6.10
  -6  -3   0  106.27    6.51
   6   3   0  107.33    6.51
  -6   3   0  102.60    6.07
   6  -3   1 1452.94   37.90
  -6  -3  -1 1503.91   38.18
  -6   3  -1 1521.24   38.08
   6   3   1 1506.37   38.16
   6   3   2  177.73    9.14
   6  -3   2  178.36    9.33
  -6  -3  -2  172.17    9.01
  -6   3  -2  186.31    9.58
   6   3   3   37.99    4.16
   6  -3   3   41.75    4.69
   6   3   4   24.94    3.65
   6  -3   4   24.40    3.75
   6  -3   5    5.65    2.29
   6   3   5    4.10    1.83
   6   3   6   58.33    6.18
   6  -3   6   73.16    7.50
   6   3   7   47.98    5.95
  -6   3  -7   70.41    7.58
   6   4  -8   23.74    4.24
   6   4  -7   -0.15    1.84
   6  -4  -6   25.99    2.65
  -6   4   6   23.91    3.19
   6   4  -6   28.53    4.28
   6  -4  -5    0.35    0.78
  -6   4   5    1.61    1.31
   6   4  -5    1.81    1.44
   6   4  -4   33.53    4.11
   6  -4  -4   32.18    2.82
  -6   4   4   28.30    3.10
  -6   4   3  480.52   15.28
   6   4  -3  470.96   16.95
   6   4  -3  475.91   16.83
   6  -4  -3  485.04   14.52
  -6  -4   2  107.82    6.82
   6  -4  -2  105.06    5.67
   6   4  -2  105.50    6.72
  -6   4   2  101.15    5.42
   6  -4  -1    5.57    1.43
  -6   4   1    6.73    1.50
  -6  -4   1    3.70    1.30
   6   4  -1    1.77    1.11
  -6  -4   0  394.18   14.21
   6  -4   0  400.66   14.13
   6   4   0  428.93   14.99
  -6   4   0  411.53   14.09
   6  -4   1   37.47    3.86
  -6  -4  -1   37.07    3.85
   6   4   1   31.29    3.61
  -6   4  -1   34.56    3.74
   6  -4   2  166.05    9.06
  -6  -4  -2  157.38    8.60
   6   4   2  162.10    8.70
  -6   4  -2  165.55    9.07
   6  -4   3    5.33    1.76
   6   4   3    5.47    1.70
   6  -4   4   32.60    4.44
   6   4   4   32.22    4.12
   6  -4   5   11.83    3.08
   6   4   5   16.92    3.26
   6   4   6    0.55    1.31
   6   4   7    0.80    1.81
   6   5  -7   -0.50    1.40
   6   5  -6    2.48    2.09
   6   5  -5   93.50    7.54
  -6   5   5   93.87    5.79
   6  -5  -5   94.30    4.58
  -6   5   4   33.61    3.30
   6   5  -4   33.99    4.24
   6  -5  -4   35.06    2.82
   6  -5  -3   30.28    2.70
  -6   5   3   26.24    2.87
   6   5  -3   26.21    3.61
   6  -5  -2   56.07    3.94
   6   5  -2   59.66    5.12
  -6   5   2   61.64    4.07
  -6  -5   2   61.22    5.14
  -6   5   1    2.25    1.01
   6  -5  -1    1.54    0.91
  -6  -5   1    1.71    0.86
   6   5  -1    3.23    1.43
   6   5   0    7.05    1.68
  -6   5   0    8.50    1.78
  -6  -5   0    7.55    1.78
   6  -5   0    5.21    1.50
  -6  -5  -1   95.16    6.14
   6  -5   1  109.79    6.81
  -6  -5  -1  100.41    6.59
   6   5   1  115.17    7.01
  -6   5  -1  107.04    6.79
   6  -5   2   54.82    5.21
  -6  -5  -2   62.75    5.25
   6   5   2   59.04    5.17
   6  -5   3    3.12    1.72
   6   5   3    1.17    1.18
   6   5   4   -2.73    1.43
   6  -5   4    1.34    1.28
   6   5   5   55.09    5.63
   6  -5   5   63.63    6.83
   6   5   6    5.58    2.18
   6   5   7   72.00    7.12
   6   6  -7    4.16    2.42
   6   6  -6    4.26    2.45
   6   6  -5   51.37    5.74
   6  -6  -5   48.56    2.50
  -6   6   5   49.99    3.94
  -6   6   4  141.40    6.96
   6   6  -4  152.27    9.41
   6  -6  -4  148.21    5.73
  -6   6   3  146.56    6.98
   6   6  -3  148.50    8.85
   6  -6  -3  133.91    5.99
   6  -6  -2   67.42    4.30
   6   6  -2   61.54    5.39
  -6   6   2   49.87    3.69
  -6   6   1    7.63    1.66
  -6  -6   1   11.15    2.18
   6  -6  -1    8.25    1.73
   6   6  -1    8.67    2.10
   6  -6   0   16.45    2.51
  -6  -6   0   19.99    2.84
  -6   6   0   21.66    2.85
   6   6   0   16.09    2.74
   6   6   1    5.76    1.69
   6  -6   1    6.32    1.93
  -6  -6  -1    4.33    1.43
  -6   6  -1    4.07    1.41
   6   6   2   19.25    3.06
  -6  -6  -2   21.70    3.17
   6  -6   2   19.49    3.12
   6   6   3  171.12    9.52
   6  -6   3  178.98   10.44
   6   6   4   22.06    3.50
   6  -6   4   27.73    4.36
   6   6   5   59.83    5.78
   6   6   6   24.91    4.11
   6   7  -7    1.19    2.02
   6   7  -6   -0.17    1.63
   6   7  -5  142.26    9.90
  -6   7   4  345.05   11.91
   6   7  -4  344.71   15.55
   6  -7  -4  363.61    9.66
  -6   7   3   28.32    2.87
   6  -7  -3   28.16    2.46
   6   7  -3   34.11    4.22
   6  -7  -2  167.53    7.23
   6   7  -2  162.97    9.28
  -6   7   2  159.20    6.98
   6  -7  -1    9.37    1.80
  -6   7   1    7.67    1.64
  -6  -7   1   18.94    3.08
   6   7  -1    9.22    2.24
  -6  -7   0   96.87    6.53
   6  -7   0  101.69    6.39
   6   7   0  102.09    6.96
  -6   7   0  108.50    6.55
  -6   7  -1  200.09    9.82
  -6  -7  -1  180.19    8.97
   6  -7   1  174.03    9.34
   6   7   1  194.24    9.80
  -6  -7  -2  679.82   21.45
   6  -7   2  740.20   23.81
   6   7   2  748.61   23.14
   6   7   3   13.83    2.79
   6  -7   3   14.05    3.01
   6   7   4  275.62   12.74
   6   7   5   -0.85    1.56
  -6   7  -6   40.36    6.19
   6   7   6   47.61    5.44
   6   8  -6   -1.26    1.88
   6   8  -5   33.82    5.14
  -6   8   4    0.12    0.66
   6   8  -4   -0.64    1.33
   6   8  -3  412.27   16.86
  -6   8   3  416.41   13.29
   6  -8  -3  403.36   11.76
  -6   8   2    3.86    1.12
   6  -8  -2    5.57    1.26
   6   8  -2    4.49    1.64
   6   8  -2    4.88    1.66
   6  -8  -1   21.39    2.71
  -6   8   1   22.97    2.72
   6   8  -1   21.88    3.39
  -6  -8   0   51.90    4.69
   6  -8   0   49.01    4.47
   6   8   0   54.51    5.12
  -6   8   0   50.35    4.43
   6   8   1    5.15    1.75
  -6  -8  -1    6.56    1.69
   6  -8   1    5.24    1.62
  -6  -8  -2  318.41   12.72
   6  -8   2  312.29   14.20
   6   8   2  335.67   13.92
  -6  -8  -3  841.63   24.92
   6   8   3  897.61   26.92
   6   8   4   58.35    5.47
   6   8   5   67.51    6.20
   6   9  -6    5.54    2.25
   6   9  -5    1.41    1.94
   6   9  -4  142.85    9.88
   6   9  -3   15.28    3.26
  -6   9   3   19.98    2.36
  -6   9   2    8.32    1.52
   6   9  -2    9.02    2.35
   6  -9  -1   10.24    1.88
  -6   9   1    9.04    1.77
   6   9  -1    9.27    2.43
  -6   9   0  113.40    7.02
   6  -9   0  106.28    6.89
   6   9   0  120.15    7.98
  -6  -9  -1   53.70    4.82
   6  -9   1   49.94    4.97
   6   9   1   56.70    5.32
  -6  -9  -2  122.66    7.40
   6   9   2  128.68    8.21
  -6  -9  -3    3.61    1.33
   6   9   3    3.17    1.81
   6   9   4  136.22    8.70
  -6   9  -5    1.31    1.63
   6   9   5    2.43    1.59
   6  10  -5   25.16    4.54
   6  10  -4   44.45    5.61
   6  10  -3  100.66    8.03
   6  10  -2  104.59    7.74
  -6  10   2  102.28    5.43
   6  10  -1   52.17    5.77
  -6  10   1   53.06    4.39
  -6  10   0    9.55    2.08
   6  10   0    7.08    2.15
   6  10   1   22.87    3.50
  -6 -10  -1   20.70    3.06
   6  10   2   -0.50    0.93
  -6 -10  -2   -0.15    0.73
   6  10   3  152.06    9.31
   6  10   4   48.78    5.20
   6  10   5   65.00    6.13
   6  11  -5    5.73    2.19
   6  11  -4  368.56   17.51
   6  11  -3   88.79    7.78
   6  11  -2   67.31    6.36
  -6  11   1   -0.65    0.97
   6  11  -1   -0.80    1.55
   6  11   0   10.59    2.57
   6  11   1   -1.75    1.40
   6  11   2  310.56   14.03
   6  11   3   34.45    4.39
  -6  11  -4   33.79    5.27
   6  11   4   17.37    3.09
   6  12  -4   61.11    6.86
   6  12  -3  200.74   12.20
   6  12  -2    3.07    1.51
   6  12  -1   95.67    7.89
   6  12   0    3.69    1.75
   6  12   1   24.58    3.79
   6  12   2    9.04    2.38
  -6  12  -3  145.68   10.73
   6  12   3  130.92    8.94
  -6  12  -4   -3.52    1.83
   6  12   4    1.22    1.43
   6  13  -4   58.81    6.80
   6  13  -3    5.80    2.58
   6  13  -2   22.67    4.03
   6  13  -1  100.98    8.48
   6  13   0   50.81    5.72
   6  13   1    4.92    1.96
  -6  13  -2   45.40    5.72
   6  13   2   46.92    5.31
  -6  13  -3   12.43    2.96
   6  13   3   12.45    2.82
   6  14  -3  110.74    9.19
   6  14  -2    3.87    2.30
   6  14  -2    8.79    2.60
   6  14  -1    4.94    2.37
   6  14   0   96.38    8.68
  -6  14   0  103.69    7.64
   6  14   1    3.26    1.85
  -6  14  -1    2.06    1.61
  -6  14  -2   10.19    2.95
   6  14   2    7.00    2.15
  -6  14  -3   61.14    6.90
   6  15  -3   10.95    2.96
   6  15  -2    6.42    2.45
   6  15  -1   49.48    6.06
  -6  15   0   15.07    3.05
   6  15   0   13.88    3.51
   6  15   1   12.90    3.06
  -6  15  -1   12.53    3.12
  -6  15  -2   30.44    4.75
   6  15   2   32.07    4.69
   6  16  -1   -0.65    1.19
   6  16   0   42.15    5.88
   6  16   1   10.84    3.01
  -6  16  -2   43.68    5.87
   6  17   0   29.92    5.18
   7   0  -7   -0.91    1.14
   7   0  -6    4.26    1.41
   7   0  -5    1.00    1.06
   7   0  -4   17.96    2.73
   7   0  -3    1.70    1.19
  -7   0   3    0.74    0.81
  -7   0   2 1221.03   32.74
   7   0  -2 1239.27   32.44
   7   0  -1    0.78    1.01
  -7   0   1   -3.88    1.32
  -7   0   0  647.35   20.00
   7   0   0  587.78   19.60
  -7   0  -1    0.91    0.87
   7   0   1   -0.09    0.93
   7   0   2  120.74    7.78
   7   0   3    0.43    1.17
   7   0   4  109.63    8.20
   7   0   5    0.54    1.51
   7   0   6   85.60    8.14
   7   1  -8   -1.17    1.78
   7   1  -7   18.27    3.61
   7   1  -7   23.08    3.70
   7  -1  -7   19.64    3.13
   7   1  -6    0.70    0.94
   7  -1  -6    1.36    1.24
   7   1  -5   35.24    4.13
   7  -1  -5   51.19    4.63
  -7   1   4    1.94    1.19
   7   1  -4    1.75    1.18
   7  -1  -4    1.59    1.23
  -7   1   3  214.44   10.16
   7   1  -3  223.98   10.33
   7  -1  -3  221.16    9.82
  -7  -1   2   91.92    6.32
  -7   1   2  104.30    6.54
   7   1  -2  110.53    6.79
   7  -1  -2   97.87    6.18
  -7  -1   1  527.02   17.73
  -7  -1   1  561.61   17.94
  -7   1   1  520.83   17.36
   7   1  -1  532.06   17.76
   7  -1  -1  545.14   17.70
   7   1   0   16.82    2.72
   7  -1   0   15.73    2.67
  -7  -1   0   13.73    2.48
  -7   1   0    9.68    1.99
   7   1   1  169.34    9.12
   7  -1   1  168.35    9.08
  -7  -1  -1  167.69    9.04
  -7   1  -1  181.57    9.34
   7  -1   2   11.89    2.56
   7   1   2   17.37    3.10
   7   1   3  250.66   12.28
   7  -1   3  224.60   11.75
   7  -1   4    0.81    1.23
   7   1   4    1.98    1.72
   7   1   5  234.74   13.07
   7  -1   5  216.05   12.76
   7  -1   6    5.20    2.28
   7   1   6    5.49    2.66
   7   1   7   23.10    4.42
   7   2  -8   39.75    5.41
   7   2  -7    1.83    2.01
   7   2  -6   11.07    2.98
   7   2  -6    9.96    2.36
   7  -2  -6   11.98    2.30
   7   2  -5    4.82    1.84
   7  -2  -5    5.67    1.69
   7  -2  -4    6.00    1.68
  -7   2   4    3.11    1.29
   7   2  -4    5.59    1.84
  -7   2   3  216.34    9.94
   7   2  -3  200.38   10.00
   7  -2  -3  205.19    9.18
  -7  -2   2  984.24   27.51
  -7   2   2  948.27   26.45
   7   2  -2  931.88   26.95
   7  -2  -2  918.56   25.85
   7   2  -1    0.53    1.02
  -7  -2   1    0.98    0.63
   7  -2  -1    1.39    1.00
  -7   2   1    3.81    1.25
  -7   2   0    0.47    0.67
   7   2   0    0.48    1.05
  -7  -2   0   -0.41    0.89
   7  -2   0    1.95    1.23
   7  -2   1   12.52    2.46
  -7   2  -1   14.08    2.39
   7   2   1   16.83    2.86
  -7  -2  -1   16.56    2.81
   7   2   2   41.92    4.55
   7  -2   2   36.38    4.33
   7   2   3  102.99    7.39
   7  -2   3   97.93    7.46
   7   2   4  677.71   23.86
   7  -2   4  702.40   24.63
   7  -2   5   28.10    4.64
   7   2   5   30.54    4.67
   7  -2   6   12.22    3.42
   7   2   6   15.46    3.62
   7   2   7    2.94    1.34
   7   3  -8    1.67    2.27
   7   3  -7   36.72    5.11
   7   3  -6   30.70    4.54
   7  -3  -6   29.32    3.25
   7   3  -5   68.78    6.29
   7   3  -5   53.22    5.43
   7  -3  -5   52.99    4.26
  -7   3   5   60.14    5.17
   7  -3  -4   13.55    2.14
  -7   3   4   17.56    2.84
   7   3  -4   16.34    3.04
  -7   3   3   84.42    5.77
   7   3  -3   86.15    6.38
   7  -3  -3   77.84    5.24
   7  -3  -2    9.26    1.87
  -7   3   2    7.39    1.62
   7   3  -2   11.72    2.43
   7  -3  -1  442.53   15.47
  -7  -3   1  458.10   16.34
  -7   3   1  452.96   15.43
   7   3  -1  462.95   16.52
   7  -3   0   45.44    4.28
  -7  -3   0   48.10    4.54
  -7   3   0   49.67    4.44
   7   3   0   33.92    3.89
   7  -3   1    1.26    1.05
  -7   3  -1    2.06    1.24
   7   3   1    0.81    1.25
   7   3   2  124.10    7.98
   7  -3   2  108.48    7.53
   7  -3   3   14.41    2.76
   7   3   3   17.82    3.19
   7   3   4   45.57    5.26
   7  -3   4   45.16    5.40
   7   3   5  158.98   10.42
   7  -3   5  182.28   11.78
   7   3   6   70.84    7.29
   7  -3   6   71.28    7.60
   7   3   7   14.41    3.42
   7   4  -7    6.61    2.56
   7   4  -6    6.21    2.50
   7   4  -5   45.28    5.21
   7  -4  -5   43.40    3.68
  -7   4   5   44.78    4.26
  -7   4   4    9.02    1.91
   7  -4  -4    5.27    1.43
   7   4  -4   10.02    2.40
  -7   4   3   37.36    3.76
   7   4  -3   35.84    4.28
   7  -4  -3   41.83    3.68
   7  -4  -2  527.18   16.70
  -7   4   2  500.70   16.21
   7   4  -2  536.14   18.55
  -7  -4   1  380.73   14.57
   7  -4  -1  356.74   13.27
  -7   4   1  374.92   13.48
   7   4  -1  366.11   14.50
   7   4   0    3.39    1.43
  -7   4   0    4.39    1.45
   7  -4   0    3.80    1.38
  -7  -4   0    2.79    1.28
  -7   4  -1    4.79    1.70
   7   4   1    7.91    2.14
   7  -4   1    3.89    1.54
   7  -4   2   36.21    4.40
   7   4   2   38.07    4.43
   7  -4   3    0.81    1.51
   7   4   3    0.81    1.04
   7   4   4   53.94    5.65
   7  -4   4   48.26    5.75
   7   4   5    4.11    2.12
   7  -4   5    3.75    2.33
   7   4   6   33.47    5.01
   7  -4   6   33.55    5.22
   7   4   7   13.26    3.49
   7   5  -7   -0.07    1.46
   7   5  -6   18.42    3.85
  -7   5   5    1.96    1.16
   7   5  -5    0.58    1.60
   7  -5  -5    0.80    0.86
   7  -5  -4   28.16    2.83
  -7   5   4   21.68    2.88
   7   5  -4   33.58    4.50
   7   5  -4   25.72    3.84
   7  -5  -3   32.84    3.19
  -7   5   3   32.40    3.48
   7   5  -3   33.11    4.23
   7  -5  -2   49.59    4.06
  -7   5   2   47.68    3.97
   7   5  -2   49.26    4.98
   7  -5  -1  108.47    6.53
   7   5  -1  107.09    7.26
  -7   5   1  100.48    6.19
   7   5   0   19.99    3.09
  -7   5   0   22.83    3.03
   7  -5   0   18.39    2.77
  -7  -5   0   21.47    3.04
   7   5   1   15.57    2.76
  -7  -5  -1   14.04    2.51
   7  -5   1   14.55    2.67
   7  -5   2    0.69    1.15
   7   5   2    1.23    1.30
   7  -5   3    4.60    1.96
   7   5   3    4.91    1.75
   7   5   4   29.83    4.19
   7  -5   4   41.71    5.45
   7   5   5  108.36    8.42
   7  -5   5  105.64    9.17
   7   5   6    6.07    2.45
   7   5   7    2.82    2.17
   7   6  -7   26.75    4.84
   7   6  -6    4.79    2.32
   7   6  -5    9.95    2.86
   7  -6  -4    0.37    0.74
  -7   6   4    0.91    1.03
   7   6  -4   -0.57    1.52
  -7   6   3  115.53    6.67
   7  -6  -3  107.31    5.81
   7   6  -3  103.26    7.70
   7  -6  -2  226.12    9.51
   7   6  -2  216.97   11.26
  -7   6   2  210.95    9.05
   7  -6  -1   79.67    5.56
   7   6  -1   83.23    6.50
  -7   6   1   76.40    5.36
   7  -6   0  154.04    8.52
   7   6   0  161.43    9.29
  -7   6   0  169.38    8.73
   7  -6   1   89.43    6.81
   7   6   1  109.46    7.48
   7  -6   2   43.99    4.99
   7   6   2   41.94    4.75
   7   6   3  232.28   12.03
   7  -6   3  239.50   12.91
   7   6   4  221.80   11.91
   7  -6   4  236.49   13.46
   7   6   5   -0.95    2.01
   7  -6   5    3.26    2.21
   7   6   6    3.29    2.12
   7   7  -6  142.46   10.61
   7   7  -5    4.14    2.23
   7  -7  -4   31.15    2.65
  -7   7   4   27.26    3.16
   7   7  -4   29.29    4.40
  -7   7   3   22.62    2.84
   7  -7  -3   16.81    2.19
   7   7  -3   16.01    3.19
   7   7  -2   17.54    3.14
   7  -7  -2   17.15    2.36
  -7   7   2   16.93    2.30
   7  -7  -1  214.61    9.79
   7   7  -1  224.00   11.44
  -7   7   1  207.17    9.44
   7  -7   0  173.81    9.24
   7   7   0  186.58   10.24
  -7   7   0  186.02    9.40
   7   7   1   26.29    3.68
   7  -7   1   22.90    3.55
   7  -7   2  855.87   27.50
   7   7   2  851.77   26.97
   7   7   3   33.78    4.34
   7  -7   3   33.64    4.79
   7   7   4   27.81    4.06
   7  -7   4   32.70    5.20
   7   7   5   19.57    3.76
   7   7   6    4.11    2.22
   7   8  -6    7.65    2.52
   7   8  -5   62.50    6.82
   7   8  -4   32.41    4.64
  -7   8   3   63.59    4.74
   7   8  -3   68.30    6.45
   7  -8  -3   64.77    4.21
   7   8  -3   64.56    6.34
   7  -8  -2   72.52    4.98
   7   8  -2   71.06    6.49
  -7   8   2   64.62    4.60
   7  -8  -1   48.81    4.45
   7   8  -1   59.79    5.87
  -7   8   1   52.65    4.50
   7  -8   0  110.99    7.45
   7   8   0  125.08    8.43
  -7   8   0  138.86    8.07
   7  -8   1  608.51   21.25
   7   8   1  617.25   21.57
   7   8   2   26.83    3.95
   7  -8   2   11.75    2.77
   7   8   3  270.63   13.28
   7  -8   3  251.99   13.83
   7   8   4   81.57    7.03
   7   8   5    7.19    2.77
   7   9  -5   -0.67    1.74
   7   9  -4   74.63    7.25
   7  -9  -3    0.21    0.70
  -7   9   3    1.43    1.08
   7   9  -3    1.06    1.32
   7   9  -3    0.72    1.40
  -7   9   2   11.72    2.02
   7  -9  -2    9.73    1.86
   7   9  -2   13.11    3.01
  -7   9   1   16.02    2.45
   7  -9  -1   12.50    2.36
   7   9  -1   15.88    3.23
   7  -9   0  240.84   11.50
   7   9   0  257.79   12.85
   7   9   1   23.77    3.76
   7  -9   1   15.97    3.07
   7  -9   2  286.24   14.26
   7   9   2  294.78   13.94
   7   9   3    3.70    1.82
   7   9   4   27.56    4.18
   7   9   5    2.42    2.44
   7  10  -5   16.86    3.79
   7  10  -4   22.17    4.23
   7  10  -3  104.37    8.40
   7  10  -3  102.55    8.62
   7  10  -2   -0.72    1.34
   7  10  -1  185.95   11.13
  -7  10   1  172.06    8.80
   7  10   0   64.01    6.27
   7  10   1   49.69    5.45
   7  10   2    4.61    2.12
   7  10   3  267.94   13.54
   7  10   4    2.67    1.89
   7  11  -4   23.21    4.36
   7  11  -3    2.54    1.51
   7  11  -3    4.41    2.27
   7  11  -2    1.63    1.78
   7  11  -1   -0.99    1.71
   7  11   0  339.85   15.86
   7  11   1   29.30    4.35
   7  11   2   42.02    5.16
   7  11   3    5.46    2.29
   7  11   4   61.11    6.25
   7  12  -4   14.65    3.32
   7  12  -3   54.55    6.35
   7  12  -3   59.61    6.76
   7  12  -2    6.06    2.33
   7  12  -1  110.43    8.96
   7  12   0    3.57    2.28
   7  12   1    9.48    2.76
   7  12   2    5.43    2.37
   7  12   3  226.45   12.74
   7  13  -3   55.19    6.46
   7  13  -3   61.81    7.00
   7  13  -2    1.42    1.23
   7  13  -1    1.22    1.62
   7  13   0   69.32    7.09
   7  13   1    3.52    2.09
   7  13   2   21.17    3.84
  -7  13  -3   18.35    4.13
   7  13   3   14.22    3.36
   7  14  -2   32.57    5.24
   7  14  -1   31.98    5.07
   7  14   0   17.19    3.72
   7  14   1    3.02    1.85
  -7  14  -1   -0.24    1.51
  -7  14  -2    2.04    1.78
   7  14   2    4.44    2.33
   7  15  -1   28.50    4.88
   7  15   0   43.92    5.89
   7  15   1   -1.35    2.08
  -7  15  -1   -0.93    1.62
  -7  15  -2   32.50    5.17
   7  15   2   28.69    4.67
   7  16   1   12.74    4.00
   8   0  -7    1.26    1.45
   8   0  -6   33.04    4.23
   8   0  -5    0.41    1.16
   8   0  -4  258.93   11.86
   8   0  -3   -0.21    0.98
   8   0  -2  327.85   13.45
   8   0  -1   -0.40    1.13
   8   0   0   37.35    4.32
   8   0   1   -0.53    1.58
   8   0   2  211.42   11.27
   8   0   3   -2.22    1.65
   8   0   4  151.74   10.36
   8   0   5    0.73    1.59
   8   0   6   31.52    5.17
   8   1  -7    9.26    2.66
   8   1  -6   -0.07    1.31
   8  -1  -6   -0.11    0.94
   8   1  -5  354.60   15.06
   8  -1  -5  359.89   14.41
   8  -1  -4   16.88    2.81
   8   1  -4   18.02    3.05
   8   1  -3   81.62    6.30
   8  -1  -3   83.58    6.14
   8   1  -2   90.72    6.61
   8  -1  -2   84.29    6.17
  -8   1   1  188.48    9.61
   8   1  -1  184.87    9.80
   8  -1  -1  185.64    9.75
   8  -1   0   95.83    6.85
   8   1   0   86.74    6.72
   8   1   1  834.97   26.16
   8  -1   1  815.87   25.68
   8  -1   2   26.59    3.87
   8   1   2   27.97    4.03
   8   1   3   50.80    5.66
   8  -1   3   46.03    5.40
   8   1   4   16.48    3.39
   8  -1   4   15.71    3.31
   8   1   5  208.97   12.79
   8  -1   5  205.12   12.83
   8  -1   6   -4.66    2.43
   8   1   6    0.55    1.07
   8   2  -7    4.20    2.42
   8  -2  -6   38.07    4.11
   8   2  -6   35.58    4.68
   8  -2  -5    9.09    2.14
   8   2  -5    9.94    2.47
   8   2  -4   96.36    7.26
   8  -2  -4  103.49    6.74
   8  -2  -3    3.35    1.73
   8   2  -3    0.98    1.07
   8   2  -2   82.86    6.38
   8  -2  -2   75.00    5.80
   8  -2  -1   62.93    5.40
  -8   2   1   77.15    5.78
   8   2  -1   73.63    5.99
   8   2   0    4.38    1.69
   8  -2   0    6.84    1.97
   8  -2   1   35.91    4.32
   8   2   1   44.45    4.86
   8   2   2  937.99   29.11
   8  -2   2  928.66   29.19
   8   2   3   39.60    4.76
   8  -2   3   31.10    4.48
   8  -2   4   49.66    6.10
   8   2   4   44.48    5.50
   8  -2   5   20.38    4.12
   8   2   5   20.52    4.09
   8   2   6    2.58    1.50
   8   3  -7    0.67    1.71
   8  -3  -6   13.97    2.37
   8   3  -6   12.58    3.21
   8   3  -5  116.55    8.43
   8  -3  -5  124.74    7.26
   8  -3  -4    3.87    1.47
   8   3  -4    3.61    1.75
   8  -3  -3    3.46    1.29
   8   3  -3    9.15    2.42
  -8   3   2   62.89    5.09
   8   3  -2   67.87    5.88
   8  -3  -2   66.01    5.32
   8  -3  -1   59.80    5.16
  -8   3   1   52.78    4.77
   8   3  -1   50.70    5.07
   8  -3   0   68.67    5.76
   8   3   0   73.07    6.17
   8  -3   1   96.64    7.30
   8   3   1  100.69    7.54
   8  -3   2   10.11    2.44
   8   3   2    8.70    2.39
   8   3   3  144.71    9.52
   8  -3   3  153.01   10.13
   8   3   4   12.90    3.23
   8  -3   4   11.42    3.05
   8   3   5   98.73    8.53
   8  -3   5   92.26    8.72
   8   3   6   35.31    5.25
   8   4  -7   -4.12    1.88
   8   4  -7    2.58    1.66
   8   4  -6    6.74    2.34
   8  -4  -5    0.69    0.88
   8   4  -5    3.81    1.87
   8   4  -4   51.67    5.51
   8  -4  -4   56.67    4.71
   8   4  -3   84.31    6.87
   8  -4  -3   83.89    5.84
   8  -4  -2   33.20    3.75
  -8   4   2   33.53    3.66
   8   4  -2   45.91    5.00
   8  -4  -1   27.97    3.49
   8   4  -1   27.25    3.72
  -8   4   1   23.47    3.16
   8  -4   0    4.65    1.58
   8   4   0    0.92    1.25
   8  -4   1    1.48    1.16
   8   4   1    2.53    1.63
   8   4   2   26.88    4.07
   8  -4   2   29.44    4.23
   8  -4   3    0.26    1.37
   8   4   3   -1.08    1.49
   8   4   4  211.18   12.41
   8  -4   4  226.85   13.40
   8   4   5   77.03    7.53
   8  -4   5   87.21    8.47
   8   4   6    6.54    2.47
   8   5  -6   56.79    6.57
   8   5  -6   52.52    6.19
   8   5  -5   87.83    7.69
   8  -5  -5   93.00    5.63
   8  -5  -4   52.01    4.35
   8   5  -4   48.81    5.58
   8   5  -3    3.12    1.86
   8  -5  -3    4.65    1.38
   8  -5  -2   87.91    5.99
  -8   5   2   90.25    6.01
   8   5  -2   84.61    6.93
   8   5  -1   10.45    2.61
   8  -5  -1   10.97    2.25
  -8   5   1    9.80    2.21
   8   5   0    9.21    2.41
   8  -5   0    7.66    1.99
   8  -5   1  169.80    9.88
   8   5   1  167.75   10.03
   8  -5   2   20.68    3.60
   8   5   2   16.95    3.89
   8   5   3   53.10    5.80
   8  -5   3   60.66    6.41
   8  -5   4    0.27    1.72
   8   5   4   -4.32    2.06
   8  -5   5   37.13    5.46
   8   5   5   33.88    5.09
   8   5   6   98.79    8.87
   8   6  -6   -0.38    1.48
   8   6  -5    5.90    2.55
  -8   6   4  119.25    7.49
   8  -6  -4  113.30    6.20
   8   6  -4  125.37    9.20
   8  -6  -3   -1.18    0.94
  -8   6   3   -0.02    0.96
   8   6  -3    0.61    1.53
   8  -6  -2   23.61    3.16
  -8   6   2   26.48    3.13
   8   6  -2   27.20    3.96
   8  -6  -1  118.40    7.55
   8   6  -1  134.03    8.87
  -8   6   1  140.53    7.93
   8  -6   0  167.25    9.51
   8   6   0  178.21   10.36
   8  -6   1  358.88   15.51
   8   6   1  364.95   15.87
   8  -6   2  105.20    8.25
   8   6   2  112.91    8.41
   8   6   3    1.44    1.83
   8  -6   3    0.40    2.14
   8   6   4    4.20    2.27
   8  -6   4    6.29    3.00
   8   6   5   18.78    3.78
   8  -6   5   25.62    4.70
   8   6   6    7.65    2.43
   8   7  -6   23.48    4.46
   8   7  -5   36.08    5.24
   8   7  -5   28.15    4.58
   8  -7  -4   15.37    2.14
   8   7  -4   21.96    3.96
  -8   7   3    2.74    1.34
   8  -7  -3    3.21    1.23
   8   7  -3    6.65    2.53
   8  -7  -2    2.33    1.17
  -8   7   2    0.64    0.89
   8   7  -2    0.47    1.50
  -8   7   1    1.86    0.61
   8  -7  -1    1.65    1.29
   8   7  -1   -0.72    1.45
   8  -7   0  902.58   27.53
   8   7   0  901.03   28.80
   8  -7   1  196.61   11.07
   8   7   1  191.63   11.08
   8   7   2    0.49    1.75
   8  -7   2    2.47    1.73
   8  -7   3    2.52    1.68
   8   7   3    7.46    2.36
   8   7   4    1.44    1.59
   8  -7   4    2.94    1.77
   8   7   5   -0.46    1.70
   8   7   6   54.48    6.55
   8   8  -5    1.80    1.53
   8   8  -4   23.00    4.24
   8  -8  -3   25.22    2.89
   8   8  -3   30.95    4.68
   8  -8  -2   38.85    3.90
  -8   8   2   40.31    4.00
   8   8  -2   43.97    5.44
   8  -8  -1  408.20   15.53
   8   8  -1  416.64   17.68
  -8   8   1  388.03   14.96
   8   8   0    0.13    1.38
   8  -8   0    3.71    1.67
   8  -8   1  175.75   10.64
   8   8   1  184.82   10.98
   8  -8   2   12.88    3.04
   8   8   2   14.77    3.22
   8  -8   3    8.44    3.03
   8   8   3    7.28    2.51
   8   8   4    9.34    2.89
   8  -8   4   16.38    3.67
   8   8   5   24.82    4.47
   8   9  -5   18.70    3.93
   8   9  -4   10.08    2.98
   8  -9  -3   40.81    3.61
   8   9  -3   31.88    4.93
   8  -9  -2  121.30    7.17
   8   9  -2  120.55    9.25
   8  -9  -1  246.99   11.74
   8   9  -1  291.24   14.49
   8  -9   0  515.31   19.31
   8   9   0  543.27   21.04
   8  -9   1   57.23    5.90
   8   9   1   60.46    6.26
   8   9   2    2.09    1.65
   8  -9   2   -1.16    1.76
   8   9   3   -0.29    1.80
   8  -9   3    0.57    1.60
   8   9   4   20.71    3.96
   8   9   5   31.05    5.06
   8  10  -4    0.75    1.25
   8  10  -3   77.52    7.69
   8 -10  -2   19.57    2.75
   8  10  -2   26.54    4.34
   8 -10  -1  219.93   10.96
   8  10  -1  238.51   13.37
   8  10   0    7.76    2.62
   8 -10   0    4.66    1.63
   8 -10   1   90.45    7.62
   8  10   1   93.81    7.98
   8  10   2    1.51    1.90
   8  10   3   -0.15    1.70
   8  10   4    1.41    1.57
   8  11  -4   19.73    4.33
   8  11  -3   13.98    3.63
   8  11  -2   23.16    4.28
   8  11  -1    3.20    1.76
   8  11   0  198.05   12.21
   8  11   1    8.30    2.96
   8  11   2   20.01    3.87
   8  11   3   19.42    3.82
   8  11   4    5.60    2.41
   8  12  -3   35.75    5.53
   8  12  -2    0.27    1.85
   8  12  -1   56.52    6.55
   8  12   0    1.19    1.62
   8  12   1   65.62    6.93
   8  12   2   10.73    2.99
   8  12   3    0.74    1.74
   8  13  -2    0.85    1.88
   8  13  -1   -1.61    1.51
   8  13   0  131.60   10.14
   8  13   1   10.37    3.24
   8  13   2    2.18    1.82
   8  13   3   21.54    4.21
   8  14   0   -1.68    1.78
   8  14   1   14.73    3.44
   8  14   2    7.23    2.57
   9   0  -6   70.23    6.46
   9   0  -5   -1.48    1.31
   9   0  -4   70.56    6.18
   9   0  -3   -0.25    1.23
   9   0  -2   83.73    6.75
   9   0  -1   -0.15    1.20
   9   0   0   54.01    5.49
   9   0   1    0.19    1.22
   9   0   2  309.26   14.88
   9   0   3   -2.99    1.94
   9   0   4   19.39    4.02
   9   0   5    0.31    1.50
   9   1  -7   35.07    4.87
   9  -1  -6    5.10    1.89
   9   1  -6    1.65    1.79
   9   1  -5   76.85    6.76
   9  -1  -5   70.36    6.09
   9   1  -4   31.06    4.17
   9  -1  -4   31.03    3.97
   9   1  -3   14.53    3.02
   9  -1  -3   11.55    2.54
   9   1  -2   29.90    4.06
   9  -1  -2   30.52    4.02
   9   1  -1  441.45   17.33
   9  -1  -1  398.71   16.42
   9  -1   0   88.97    7.13
   9   1   0   86.06    7.05
   9   1   1  199.13   11.56
   9  -1   1  212.97   11.58
   9   1   2   44.13    5.36
   9  -1   2   65.71    6.51
   9   1   3   38.14    5.26
   9  -1   3   42.59    5.51
   9   1   4   14.96    3.58
   9  -1   4   14.05    3.28
   9   1   5    2.28    1.90
   9  -1   5   12.64    3.29
   9   2  -7    1.21    1.71
   9  -2  -6    4.68    1.68
   9   2  -6    0.38    1.70
   9  -2  -5    3.56    1.46
   9   2  -5    4.17    1.84
   9   2  -4   93.45    7.56
   9  -2  -4  101.00    7.12
   9   2  -3   58.06    5.90
   9  -2  -3   57.32    5.36
   9   2  -2  211.11   11.34
   9  -2  -2  207.27   10.78
   9   2  -1   26.13    3.86
   9  -2  -1   25.42    3.77
   9  -2   0  176.96   10.28
   9   2   0  185.90   10.85
   9  -2   1   -0.73    1.71
   9   2   1   -0.62    1.51
   9   2   2  291.11   14.48
   9  -2   2  290.91   14.66
   9   2   3   69.68    6.94
   9  -2   3   76.52    7.43
   9  -2   4   38.71    7.03
   9   2   4   44.29    5.77
   9  -2   5    5.87    2.68
   9   2   5   -0.11    1.57
   9   3  -7    5.04    2.44
   9   3  -6   -0.17    1.55
   9  -3  -5    9.84    2.29
   9   3  -5   10.54    2.99
   9  -3  -4   30.02    3.77
   9   3  -4   27.14    4.25
   9   3  -3    0.69    1.13
   9  -3  -3    4.31    1.78
   9  -3  -2   56.83    5.32
   9   3  -2   66.21    6.27
   9   3  -1   13.33    2.77
   9  -3  -1   11.30    2.63
   9  -3   0   82.29    6.75
   9   3   0   95.11    7.59
   9  -3   1  456.97   18.59
   9   3   1  454.63   18.68
   9  -3   2   42.27    5.32
   9   3   2   35.35    4.89
   9   3   3   20.81    3.80
   9  -3   3   16.00    3.59
   9  -3   4    4.52    2.40
   9   3   4    7.76    2.80
   9   3   5    1.40    1.48
   9   4  -7    3.76    1.93
   9   4  -6   -0.71    1.82
   9  -4  -5   30.93    3.65
   9   4  -5   27.86    4.48
   9   4  -4   58.01    6.21
   9  -4  -4   55.62    5.01
   9  -4  -3   52.96    5.04
   9   4  -3   67.83    6.48
   9   4  -2   26.09    4.00
   9  -4  -2   31.71    3.92
   9  -4  -1    8.87    2.27
   9   4  -1    7.12    2.29
   9  -4   0    5.88    1.88
   9   4   0    5.48    2.00
   9  -4   1    6.65    2.22
   9   4   1    7.09    2.11
   9   4   2  531.17   20.85
   9  -4   2  479.90   20.04
   9   4   3  192.95   12.01
   9  -4   3  217.40   12.97
   9   4   4    7.90    2.75
   9  -4   4    7.49    2.88
   9   4   5   36.11    5.46
   9   5  -6   -1.24    1.72
   9   5  -5   47.10    5.96
   9  -5  -4   59.69    5.10
   9   5  -4   67.99    6.89
   9  -5  -3   25.79    3.37
   9   5  -3   25.56    4.18
   9  -5  -2   70.83    5.81
   9   5  -2   89.17    7.53
   9  -5  -1  131.70    8.46
   9   5  -1  136.71    9.36
   9  -5   0   69.31    6.28
   9   5   0   70.52    6.62
   9  -5   1  114.86    8.61
   9   5   1  146.12    9.87
   9   5   2  135.38    9.73
   9  -5   2  125.14    9.38
   9  -5   3   36.56    5.43
   9   5   3   36.42    5.03
   9   5   4  177.75   11.76
   9  -5   4  155.42   11.57
   9   5   5   43.27    5.84
   9   6  -6    3.43    1.65
   9   6  -5   -0.67    1.65
   9  -6  -4   31.86    3.48
   9   6  -4   40.95    5.50
   9  -6  -3  108.72    6.95
   9   6  -3  110.81    8.88
   9  -6  -2  429.01   16.57
   9   6  -2  484.51   19.56
   9  -6  -1  110.63    7.75
   9   6  -1  120.63    8.99
   9   6   0   31.68    4.60
   9  -6   0   30.01    4.20
   9   6   1    6.33    2.30
   9  -6   1    3.95    1.86
   9  -6   2   92.20    8.02
   9   6   2   94.70    8.18
   9   6   3  118.89    9.42
   9  -6   3  141.28   10.54
   9   6   4   57.80    6.61
   9  -6   4   56.45    6.89
   9   6   5   36.41    5.45
   9   7  -5   11.15    3.19
   9   7  -4   -1.24    1.49
   9  -7  -3   66.92    5.37
   9   7  -3   68.24    7.05
   9  -7  -2  257.99   11.84
   9   7  -2  250.52   13.78
   9   7  -1   27.87    4.53
   9  -7  -1   22.60    3.56
   9  -7   0    4.04    1.75
   9   7   0    7.47    2.58
   9  -7   1   14.95    3.18
   9   7   1    9.98    2.61
   9   7   2    3.76    2.13
   9  -7   2    4.95    2.54
   9  -7   3    1.05    1.66
   9   7   3    5.88    2.83
   9   7   4   25.45    4.53
   9   7   5   10.57    3.05
   9   8  -5    3.92    2.14
   9   8  -4   25.50    4.50
   9  -8  -3  145.82    7.96
   9   8  -3  144.22   10.65
   9  -8  -2    4.31    1.64
   9   8  -2    6.00    2.21
   9   8  -1   40.74    5.37
   9  -8  -1   37.01    4.45
   9   8   0    4.99    2.31
   9  -8   0    1.72    2.36
   9   8   1    1.91    2.06
   9  -8   1    0.75    1.51
   9  -8   2   12.95    3.53
   9   8   2    9.94    3.23
   9   8   3   67.28    7.17
   9  -8   3   68.18    7.48
   9   8   4    3.57    1.93
   9   8   5   24.10    4.82
   9   9  -4  151.10   11.31
   9   9  -3   39.51    5.73
   9  -9  -2  145.00    8.50
   9   9  -2  150.26   10.85
   9   9  -1    0.13    1.60
   9  -9  -1    1.55    1.47
   9  -9   0    4.12    2.03
   9   9   0    1.42    1.99
   9   9   1    0.99    1.50
   9  -9   1    8.69    2.69
   9  -9   2   58.02    6.69
   9   9   2   58.56    6.73
   9  -9   3   26.20    4.70
   9   9   3   19.75    3.93
   9   9   4  110.10    9.17
   9  10  -3  323.03   17.19
   9 -10  -2    0.07    1.02
   9  10  -2    2.70    1.68
   9  10  -1   15.12    3.54
   9 -10  -1   16.03    2.96
   9  10   0    1.25    1.63
   9 -10   0    3.19    1.92
   9  10   1   -0.11    1.49
   9 -10   1    4.01    2.27
   9 -10   2    8.30    2.72
   9  10   2    8.34    2.91
   9  10   3  137.09   10.51
   9  10   4    9.21    3.05
   9  11  -2   47.24    6.28
   9  11  -1    0.46    2.01
   9 -11  -1    2.35    1.42
   9  11   0   30.81    5.02
   9 -11   0   30.30    4.48
   9  11   1    3.39    1.89
   9  11   2   41.24    5.76
   9  11   3    0.62    1.33
   9  12  -1    1.09    1.52
   9  12   0   34.76    5.33
   9  12   1   -2.46    1.76
   9  12   2    9.07    2.72
   9  12   3  204.30   13.33
  10   0  -6    0.97    1.65
  10   0  -5    2.57    1.78
  10   0  -4    1.60    1.57
  10   0  -3   -0.68    1.17
  10   0  -2  452.81   18.48
  10   0  -1   -0.75    1.23
  10   0   0    7.30    2.57
  10   0   1    2.48    1.42
  10   0   2   23.87    4.22
  10   0   3    2.68    1.81
  10   0   4  143.48   11.03
  10   1  -6    6.30    2.60
  10  -1  -6    7.70    2.03
  10   1  -5   22.28    4.26
  10  -1  -5   25.80    3.91
  10   1  -4   11.87    2.97
  10  -1  -4   10.33    2.52
  10   1  -3   17.31    3.33
  10  -1  -3   18.16    3.40
  10   1  -2   58.69    6.07
  10  -1  -2   60.66    6.09
  10  -1  -1  308.82   14.84
  10   1  -1  335.40   15.72
  10   1   0   17.62    3.60
  10  -1   0   20.13    3.62
  10  -1   1    0.11    1.47
  10   1   1    2.62    2.03
  10   1   2   79.58    7.55
  10  -1   2   79.02    7.68
  10   1   3    9.58    3.07
  10  -1   3    8.02    2.78
  10   1   4    2.79    1.17
  10  -1   4    5.66    2.15
  10   2  -7    0.96    2.03
  10   2  -6    6.75    2.72
  10   2  -5   24.57    4.16
  10  -2  -5   22.16    3.61
  10   2  -4   46.07    5.60
  10  -2  -4   40.98    4.78
  10   2  -3   23.23    3.90
  10  -2  -3   27.05    4.00
  10   2  -2  140.87    9.71
  10  -2  -2  163.53   10.03
  10   2  -1    1.69    1.80
  10  -2  -1    0.79    1.74
  10  -2   0   60.63    6.24
  10   2   0   71.16    6.99
  10  -2   1   51.12    5.97
  10   2   1   44.00    5.66
  10  -2   2    0.06    1.61
  10   2   2    5.98    2.44
  10   2   3    4.64    2.26
  10  -2   3    3.17    1.83
  10  -2   4   34.19    5.51
  10   2   4   21.71    4.32
  10   3  -7   13.22    3.78
  10   3  -6   29.69    5.00
  10  -3  -5   10.58    2.32
  10   3  -5   12.13    3.11
  10   3  -4    0.29    1.36
  10  -3  -4    2.79    1.81
  10   3  -3    0.48    1.57
  10  -3  -3   -1.03    1.37
  10  -3  -2   45.38    5.16
  10   3  -2   51.38    5.84
  10  -3  -1  472.81   18.84
  10   3  -1  486.23   19.89
  10  -3   0   16.23    3.39
  10   3   0   12.79    3.33
  10  -3   1    1.68    1.72
  10   3   1    1.20    1.84
  10  -3   2   19.78    4.00
  10   3   2   21.88    4.14
  10   3   3    2.80    2.07
  10  -3   3    5.01    2.32
  10   3   4    8.21    2.73
  10   4  -6    0.70    1.52
  10   4  -5   35.48    5.35
  10  -4  -4    1.14    1.15
  10   4  -4   -0.07    1.80
  10   4  -3   13.46    3.28
  10  -4  -3   25.81    3.83
  10  -4  -2  167.04   10.01
  10   4  -2  165.91   10.86
  10  -4  -1   46.75    5.22
  10   4  -1   44.40    5.55
  10  -4   0  131.76    9.43
  10   4   0  152.87   10.46
  10  -4   1   81.56    7.53
  10   4   1   90.27    8.09
  10  -4   2   11.94    3.43
  10   4   2    6.18    2.40
  10   4   3  117.06    9.61
  10  -4   3  124.55   10.19
  10   4   4   87.27    8.60
  10   5  -6   30.86    5.33
  10   5  -5   28.36    4.79
  10  -5  -4   33.79    4.05
  10   5  -4   25.53    4.61
  10  -5  -3   66.17    5.84
  10   5  -3   85.25    7.89
  10  -5  -2   86.21    6.90
  10   5  -2   85.55    7.91
  10  -5  -1  174.60   10.59
  10   5  -1  191.75   11.81
  10  -5   0  172.73   10.89
  10   5   0  182.52   11.72
  10   5   1    2.66    2.02
  10  -5   1    3.40    2.00
  10   5   2  289.45   15.43
  10  -5   2  253.59   14.57
  10   5   3   26.82    4.55
  10  -5   3   18.19    3.86
  10   5   4   48.32    6.38
  10   6  -5   40.30    5.85
  10   6  -4  119.80    9.83
  10  -6  -3   71.55    6.04
  10   6  -3   66.98    7.15
  10   6  -2   32.91    5.19
  10  -6  -2   32.78    4.28
  10   6  -1   34.79    5.02
  10  -6  -1   26.68    4.05
  10  -6   0   63.18    6.46
  10   6   0   83.25    7.75
  10  -6   1   92.09    8.00
  10   6   1   81.59    7.94
  10  -6   2    0.77    1.82
  10   6   2   -1.25    2.29
  10   6   3   62.00    7.06
  10  -6   3   62.86    7.31
  10   7  -4    7.27    2.64
  10  -7  -3    2.38    1.20
  10   7  -3   -0.15    1.41
  10   7  -2   23.78    4.46
  10  -7  -2   22.46    3.50
  10   7  -1   53.83    6.29
  10  -7  -1   51.59    5.50
  10  -7   0   63.71    6.47
  10   7   0   73.67    7.42
  10  -7   1    9.42    2.57
  10   7   1   15.35    3.75
  10  -7   2    6.69    2.58
  10   7   2    6.75    2.96
  10   7   3    0.04    0.93
  10   8  -3   29.75    5.07
  10   8  -2    9.18    2.66
  10  -8  -2    9.69    2.37
  10  -8  -1   23.82    3.97
  10   8  -1   33.36    5.15
  10   8   0   -0.96    1.83
  10  -8   0    0.68    1.61
  10   8   1   28.74    4.63
  10  -8   1   16.91    3.81
  10  -8   2    0.62    1.17
  10   8   2    0.97    1.33
  10   8   3   63.89    7.20
  10   9  -2   14.36    3.69
  10  -9  -2   15.19    2.99
  10   9  -1   27.14    4.60
  10  -9  -1   26.99    4.11
  10  -9   0  119.29    9.19
  10   9   0  116.35    9.62
  10  -9   1    4.27    2.29
  10   9   1    0.61    1.63
  10  -9   2   65.96    7.48
  10   9   2   67.66    7.62
  10  10  -1    9.69    3.02
  10 -10  -1    6.32    2.29
  10  10   0    4.83    2.14
  10 -10   0    0.72    1.45
  10 -10   1  126.77    9.98
  10  10   1  126.95   10.35
  10 -10   2    2.33    2.25
  10 -11  -1    0.89    1.49
  10 -11   0  143.51   10.27
  10 -11   1   31.82    4.89
  11   0  -6   15.83    3.71
  11   0  -5   -0.02    1.63
  11   0  -4  271.34   14.37
  11   0  -3   -0.41    1.95
  11   0  -2    0.21    1.52
  11   0  -1   -1.04    2.06
  11   0   0    1.24    1.74
  11   0   1   -1.33    1.53
  11   0   2  384.21   18.80
  11   1  -6    3.84    2.63
  11   1  -5   38.44    5.34
  11  -1  -5   37.51    5.13
  11   1  -4    0.03    1.52
  11  -1  -4    0.76    1.48
  11   1  -3   38.81    5.35
  11  -1  -3   36.68    5.01
  11   1  -2   -0.02    1.81
  11  -1  -2   -1.03    1.62
  11   1  -1    3.23    2.07
  11  -1  -1    1.88    1.77
  11   1   0   77.38    7.63
  11  -1   0   83.05    7.80
  11   1   1   58.04    6.79
  11  -1   1   64.99    7.13
  11   1   2    0.88    1.37
  11  -1   2    0.13    1.77
  11   2  -6    5.39    2.18
  11   2  -5   11.62    3.15
  11  -2  -5   11.58    2.97
  11   2  -4   29.36    4.76
  11  -2  -4   52.45    5.90
  11   2  -3    3.04    1.78
  11  -2  -3    4.60    2.20
  11   2  -2   14.18    3.84
  11  -2  -2   14.36    3.36
  11   2  -1   35.52    5.26
  11  -2  -1   40.42    5.30
  11  -2   0    4.58    2.49
  11   2   0    0.37    1.63
  11  -2   1   13.92    3.41
  11   2   1    7.83    2.41
  11   2   2  122.03   10.02
  11  -2   2  116.36    9.90
  11   3  -6    0.41    1.72
  11   3  -5   48.27    6.09
  11   3  -4   37.29    5.42
  11  -3  -4   32.01    4.58
  11   3  -3   49.85    6.19
  11  -3  -3   48.83    5.59
  11   3  -2    1.87    1.89
  11  -3  -2   -0.38    1.47
  11  -3  -1    8.90    2.67
  11   3  -1   13.33    3.51
  11  -3   0   18.09    3.77
  11   3   0   22.28    4.29
  11   3   1  101.03    9.07
  11  -3   1  103.93    9.04
  11  -3   2   20.80    4.11
  11   3   2   23.98    4.45
  11   4  -5   22.69    4.27
  11  -4  -4  201.02   11.40
  11   4  -4  214.67   13.38
  11   4  -3   33.08    5.17
  11  -4  -3   28.89    4.18
  11  -4  -2   13.09    2.82
  11   4  -2   12.11    3.43
  11  -4  -1   57.71    6.18
  11   4  -1   52.32    6.32
  11  -4   0    7.94    2.93
  11   4   0   17.73    3.86
  11   4   1  192.82   12.69
  11  -4   1  174.52   11.92
  11   4   2  224.02   13.97
  11  -4   2  197.82   13.16
  11   5  -4    1.34    1.55
  11  -5  -3   26.46    3.96
  11   5  -3   29.40    4.91
  11  -5  -2   56.11    5.95
  11   5  -2   63.86    7.04
  11  -5  -1   46.88    5.72
  11   5  -1   44.53    5.86
  11  -5   0  154.51   10.90
  11   5   0  175.04   12.07
  11  -5   1   66.62    7.17
  11   5   1   79.32    7.92
  11  -5   2   56.93    6.88
  11   5   2   55.59    6.99
  11   6  -3   32.75    5.15
  11  -6  -3   25.10    3.96
  11   6  -2    6.66    2.62
  11  -6  -2    2.55    2.13
  11  -6  -1   83.03    7.55
  11   6  -1   97.20    8.82
  11   6   0   52.78    6.57
  11  -6   0   52.92    6.24
  11  -6   1   51.16    6.25
  11   6   1   59.77    7.06
  11  -6   2  140.31   11.00
  11   7  -2   34.27    5.25
  11  -7  -2   32.24    4.52
  11   7  -1   11.74    2.84
  11  -7  -1    9.30    2.49
  11   7   0   48.63    6.36
  11  -7   0   41.15    5.64
  11  -7   1   25.80    4.62
  11   7   1   32.59    5.43
  11  -8  -2   18.81    3.47
  11  -8  -1   13.42    3.16
  11  -8   0    0.81    1.64
  11  -8   1   64.19    7.12
  11  -9  -1    2.58    2.30
  11  -9   0  108.75    9.17
  11  -9   1    7.07    2.42
  11 -10  -1   66.75    6.96
  11 -10   0   20.63    4.21
  11 -11   0   86.79    8.30
  12   0  -5   -1.57    1.92
  12   0  -4   14.21    3.55
  12   0  -3   -1.16    1.42
  12   0  -2   95.76    8.75
  12   0  -1   -0.66    1.39
  12   0   0  132.84   10.49
  12   0   1   -1.40    1.54
  12   1  -5   11.03    3.03
  12  -1  -5    6.90    2.89
  12   1  -4    0.04    1.32
  12  -1  -4    0.22    1.86
  12   1  -3    2.68    1.86
  12  -1  -3    1.87    1.79
  12   1  -2   35.08    5.38
  12  -1  -2   40.02    5.68
  12  -1  -1  134.08   10.34
  12   1  -1  142.03   10.82
  12  -1   0    8.12    2.65
  12   1   0   10.48    2.95
  12  -1   1   48.60    6.38
  12   1   1   52.40    6.86
  12   2  -4   26.12    4.52
  12  -2  -4   16.67    3.97
  12   2  -3    6.57    2.50
  12  -2  -3    6.01    2.87
  12   2  -2   12.89    3.44
  12  -2  -2   10.31    3.19
  12   2  -1    9.77    2.86
  12  -2  -1   12.89    3.30
  12  -2   0   46.28    6.03
  12   2   0   44.71    6.09
  12  -2   1    0.53    1.42
  12   3  -4    1.42    1.66
  12  -3  -4    0.45    1.85
  12   3  -3   20.64    4.15
  12  -3  -3   10.77    3.09
  12   3  -2   43.65    6.10
  12  -3  -2   42.36    5.65
  12  -3  -1  181.66   12.04
  12   3  -1  204.29   13.42
  12  -3   0    6.62    2.42
  12   3   0    1.03    1.76
  12  -3   1   46.77    6.37
  12  -4  -3   11.38    2.90
  12  -4  -2   59.34    6.71
  12   4  -2   59.86    7.12
  12  -4  -1   67.83    7.27
  12   4  -1   72.20    7.90
  12  -4   0   92.11    8.68
  12  -4   1    0.99    1.57
  12  -5  -3   19.11    3.92
  12  -5  -2   68.16    7.17
  12  -5  -1   33.15    5.16
  12  -5   0   13.21    3.25
  12  -6  -2    0.92    2.12
  12  -6  -1   13.84    3.51
  12  -6   0   24.53    4.69
  12  -7  -2   71.57    7.16
  12  -7  -1   22.91    4.43
  12  -7   0   10.31    2.89
  12  -8  -1    8.41    2.71
  12  -8   0   -3.30    2.04
  12  -9  -1   -0.14    2.21
  13  -1  -4    1.73    2.05
  13  -1  -3   19.08    4.26
  13  -2  -4   18.05    4.28
  13  -2  -3    5.22    2.11
  13  -2  -2   43.15    6.11
  13  -3  -3   39.98    5.65
  13  -3  -2   24.38    4.39
  13  -4  -3    1.56    2.04
  13  -4  -2   40.08    5.57
  13  -5  -2   24.04    4.59
  13  -6  -2    1.97    2.45
   0   0   0    0.00    0.00


TITL OAV819_auto in P2(1)/c
REM P2(1)/c (#14 in standard setting)
CELL 0.71073  10.130333  13.908262   6.870275  90.0000  96.7249  90.0000
ZERR   14.00   0.000615   0.000837   0.000489   0.0000   0.0063   0.0000
LATT  1
SYMM -x, y+1/2,-z+1/2
SFAC C H N O Co
UNIT 14.00 14.00 14.00 14.00 14.00
REM  CrysAlisPro recorded range (K): Min=291.4; max=291.4; aver:291.4
TEMP 18
TREF
HKLF 4
END
_computing_structure_solution     'SHELXT 2018/2 (Sheldrick, 2018)'
;
_shelx_hkl_checksum   45106

