 
data_oav-185
 
_audit_creation_method            'SHELXL-2019/3'
_shelx_SHELXL_version_number      '2019/3'
_chemical_name_systematic         ?
_chemical_name_common             ?
_chemical_melting_point           ?
_chemical_formula_moiety          ?
_chemical_formula_sum
 'C10 H0.06 Cl Eu0.50 N2 O4' 
_chemical_formula_weight          323.61

loop_
 _atom_type_symbol
 _atom_type_description
 _atom_type_scat_dispersion_real
 _atom_type_scat_dispersion_imag
 _atom_type_scat_source
 'C'  'C'   0.0033   0.0016
 'International Tables Vol C Tables 4.2.6.8 and 6.1.1.4'
 'Cl'  'Cl'   0.1484   0.1585
 'International Tables Vol C Tables 4.2.6.8 and 6.1.1.4'
 'Eu'  'Eu'  -0.1578   3.6682
 'International Tables Vol C Tables 4.2.6.8 and 6.1.1.4'
 'N'  'N'   0.0061   0.0033
 'International Tables Vol C Tables 4.2.6.8 and 6.1.1.4'
 'O'  'O'   0.0106   0.0060
 'International Tables Vol C Tables 4.2.6.8 and 6.1.1.4'
 'H'  'H'   0.0000   0.0000
 'International Tables Vol C Tables 4.2.6.8 and 6.1.1.4'
 
_space_group_crystal_system       orthorhombic
_space_group_IT_number            70
_space_group_name_H-M_alt         'F d d d'
_space_group_name_Hall            '-F 2uv 2vw'
 
_shelx_space_group_comment
;
The symmetry employed for this shelxl refinement is uniquely defined
by the following loop, which should always be used as a source of
symmetry information in preference to the above space-group names.
They are only intended as comments.
;
 
loop_
 _space_group_symop_operation_xyz
 'x, y, z'
 '-x+3/4, -y+3/4, z'
 '-x+3/4, y, -z+3/4'
 'x, -y+3/4, -z+3/4'
 'x, y+1/2, z+1/2'
 '-x+3/4, -y+5/4, z+1/2'
 '-x+3/4, y+1/2, -z+5/4'
 'x, -y+5/4, -z+5/4'
 'x+1/2, y, z+1/2'
 '-x+5/4, -y+3/4, z+1/2'
 '-x+5/4, y, -z+5/4'
 'x+1/2, -y+3/4, -z+5/4'
 'x+1/2, y+1/2, z'
 '-x+5/4, -y+5/4, z'
 '-x+5/4, y+1/2, -z+3/4'
 'x+1/2, -y+5/4, -z+3/4'
 '-x, -y, -z'
 'x-3/4, y-3/4, -z'
 'x-3/4, -y, z-3/4'
 '-x, y-3/4, z-3/4'
 '-x, -y+1/2, -z+1/2'
 'x-3/4, y-1/4, -z+1/2'
 'x-3/4, -y+1/2, z-1/4'
 '-x, y-1/4, z-1/4'
 '-x+1/2, -y, -z+1/2'
 'x-1/4, y-3/4, -z+1/2'
 'x-1/4, -y, z-1/4'
 '-x+1/2, y-3/4, z-1/4'
 '-x+1/2, -y+1/2, -z'
 'x-1/4, y-1/4, -z'
 'x-1/4, -y+1/2, z-3/4'
 '-x+1/2, y-1/4, z-3/4'
 
_cell_length_a                    17.3903(4)
_cell_length_b                    11.9631(3)
_cell_length_c                    16.1655(4)
_cell_angle_alpha                 90
_cell_angle_beta                  90
_cell_angle_gamma                 90
_cell_volume                      3363.10(14)
_cell_formula_units_Z             16
_cell_measurement_temperature     150(2)
_cell_measurement_reflns_used     ?
_cell_measurement_theta_min       ?
_cell_measurement_theta_max       ?
 
_exptl_crystal_description        ?
_exptl_crystal_colour             ?
_exptl_crystal_density_meas       ?
_exptl_crystal_density_method     ?
_exptl_crystal_density_diffrn     2.557          
_exptl_crystal_F_000              2473
_exptl_transmission_factor_min    ?
_exptl_transmission_factor_max    ?
_exptl_crystal_size_max           ?
_exptl_crystal_size_mid           ?
_exptl_crystal_size_min           ?
_exptl_absorpt_coefficient_mu     4.121
_shelx_estimated_absorpt_T_min    ?
_shelx_estimated_absorpt_T_max    ?
_exptl_absorpt_correction_type    ?
_exptl_absorpt_correction_T_min   ?
_exptl_absorpt_correction_T_max   ?
_exptl_absorpt_process_details    ?
_exptl_absorpt_special_details    ?
_diffrn_ambient_temperature       150(2)
_diffrn_radiation_wavelength      0.71073
_diffrn_radiation_type            MoK\a
_diffrn_source                    ?
_diffrn_measurement_device_type   ?
_diffrn_measurement_method        ?
_diffrn_detector_area_resol_mean  ?
_diffrn_reflns_number             11339
_diffrn_reflns_av_unetI/netI      0.0193
_diffrn_reflns_av_R_equivalents   0.0387
_diffrn_reflns_limit_h_min        -26
_diffrn_reflns_limit_h_max        26
_diffrn_reflns_limit_k_min        -18
_diffrn_reflns_limit_k_max        18
_diffrn_reflns_limit_l_min        -24
_diffrn_reflns_limit_l_max        24
_diffrn_reflns_theta_min          2.420
_diffrn_reflns_theta_max          33.128
_diffrn_reflns_theta_full         25.242
_diffrn_measured_fraction_theta_max   0.998
_diffrn_measured_fraction_theta_full  1.000
_diffrn_reflns_Laue_measured_fraction_max    0.998
_diffrn_reflns_Laue_measured_fraction_full   1.000
_diffrn_reflns_point_group_measured_fraction_max   0.998
_diffrn_reflns_point_group_measured_fraction_full  1.000
_reflns_number_total              1609
_reflns_number_gt                 1550
_reflns_threshold_expression      'I > 2\s(I)'
_reflns_Friedel_coverage          0.000
_reflns_Friedel_fraction_max      .
_reflns_Friedel_fraction_full     .
 
_reflns_special_details
;
 Reflections were merged by SHELXL according to the crystal
 class for the calculation of statistics and refinement.
 
 _reflns_Friedel_fraction is defined as the number of unique
 Friedel pairs measured divided by the number that would be
 possible theoretically, ignoring centric projections and
 systematic absences.
;
 
_computing_data_collection        ?
_computing_cell_refinement        ?
_computing_data_reduction         ?
_computing_structure_solution     'SHELXT 2014/5 (Sheldrick, 2014)'
_computing_structure_refinement 'SHELXL-2019/2 (Sheldrick, 2019)'
_computing_molecular_graphics     ?
_computing_publication_material   ?
_refine_special_details           ?
_refine_ls_structure_factor_coef  Fsqd
_refine_ls_matrix_type            full
_refine_ls_weighting_scheme       calc
_refine_ls_weighting_details
'w=1/[\s^2^(Fo^2^)+(0.0869P)^2^+354.0014P] where P=(Fo^2^+2Fc^2^)/3'
_atom_sites_solution_primary      ?
_atom_sites_solution_secondary    ?
_atom_sites_solution_hydrogens    geom
_refine_ls_hydrogen_treatment     constr
_refine_ls_extinction_method      none
_refine_ls_extinction_coef        .
_refine_ls_number_reflns          1609
_refine_ls_number_parameters      126
_refine_ls_number_restraints      0
_refine_ls_R_factor_all           0.0675
_refine_ls_R_factor_gt            0.0663
_refine_ls_wR_factor_ref          0.1959
_refine_ls_wR_factor_gt           0.1954
_refine_ls_goodness_of_fit_ref    1.336
_refine_ls_restrained_S_all       1.336
_refine_ls_shift/su_max           0.000
_refine_ls_shift/su_mean          0.000
 
loop_
 _atom_site_label
 _atom_site_type_symbol
 _atom_site_fract_x
 _atom_site_fract_y
 _atom_site_fract_z
 _atom_site_U_iso_or_equiv
 _atom_site_adp_type
 _atom_site_occupancy
 _atom_site_site_symmetry_order  
 _atom_site_calc_flag
 _atom_site_refinement_flags_posn
 _atom_site_refinement_flags_adp
 _atom_site_refinement_flags_occupancy
 _atom_site_disorder_assembly
 _atom_site_disorder_group
Eu1 Eu 0.375000 0.375000 0.375000 0.0061(2) Uani 1 4 d S T P . .
O1 O 0.4962(6) 0.5754(9) 0.5808(6) 0.0085(17) Uani 0.5 1 d . . P A -1
O3 O 0.4639(6) 0.4515(10) 0.4823(7) 0.0110(18) Uani 0.5 1 d . . P A -1
N1 N 0.2624(8) 0.6040(12) 0.4614(11) 0.012(2) Uani 0.5 1 d . . P A -1
N2 N 0.1122(8) 0.8688(13) 0.5151(9) 0.014(2) Uani 0.5 1 d . . P A -1
N4 N 0.3240(8) 0.5431(12) 0.4642(10) 0.010(2) Uani 0.5 1 d . . P A -1
N5 N 0.1573(8) 0.9286(12) 0.5685(9) 0.011(2) Uani 0.5 1 d . . P A -1
N6 N 0.2739(8) 0.6890(12) 0.5145(9) 0.012(2) Uani 0.5 1 d . . P A -1
C1 C 0.2220(10) 0.8673(15) 0.5742(12) 0.015(3) Uani 0.5 1 d . . P A -1
H1 H 0.264934 0.885883 0.607805 0.018 Uiso 0.5 1 calc R U P A -1
C2 C 0.4507(8) 0.5348(12) 0.5289(8) 0.008(2) Uani 0.5 1 d . . P A -1
C3 C 0.3423(9) 0.6822(13) 0.5517(10) 0.012(2) Uani 0.5 1 d . . P A -1
H3 H 0.364164 0.731685 0.591184 0.014 Uiso 0.5 1 calc R U P A -1
C4 C 0.2174(8) 0.7736(14) 0.5245(11) 0.012(3) Uani 0.5 1 d . . P A -1
C5 C 0.3734(9) 0.5862(14) 0.5191(10) 0.013(2) Uani 0.5 1 d . . P A -1
C6 C 0.1459(8) 0.7766(12) 0.4885(10) 0.010(2) Uani 0.5 1 d . . P A -1
H6 H 0.124714 0.722791 0.451755 0.013 Uiso 0.5 1 calc R U P A -1
Cl1 Cl 0.375000 0.375000 0.5462(3) 0.0440(10) Uani 1 2 d S T P A .
 
loop_
 _atom_site_aniso_label
 _atom_site_aniso_U_11
 _atom_site_aniso_U_22
 _atom_site_aniso_U_33
 _atom_site_aniso_U_23
 _atom_site_aniso_U_13
 _atom_site_aniso_U_12
Eu1 0.0058(3) 0.0059(3) 0.0067(3) 0.000 0.000 0.000
O1 0.006(4) 0.012(4) 0.007(4) -0.003(3) -0.006(3) -0.001(3)
O3 0.010(4) 0.013(4) 0.011(4) -0.005(4) -0.002(3) 0.003(3)
N1 0.008(5) 0.008(5) 0.020(7) -0.004(5) -0.002(5) 0.003(4)
N2 0.010(5) 0.017(6) 0.016(6) 0.000(5) -0.002(5) 0.006(5)
N4 0.009(5) 0.010(5) 0.012(6) -0.005(5) -0.004(4) 0.001(4)
N5 0.012(5) 0.011(5) 0.010(5) 0.000(5) -0.003(4) 0.003(4)
N6 0.010(5) 0.012(5) 0.012(6) -0.004(5) -0.002(4) 0.003(4)
C1 0.013(6) 0.014(7) 0.018(7) -0.007(6) -0.003(6) 0.006(5)
C2 0.008(5) 0.010(5) 0.007(5) -0.002(4) -0.003(4) 0.003(4)
C3 0.013(6) 0.010(6) 0.012(6) -0.004(5) -0.004(5) 0.002(5)
C4 0.006(5) 0.017(7) 0.013(6) -0.007(6) -0.006(5) 0.005(5)
C5 0.013(6) 0.014(6) 0.012(6) -0.003(5) 0.001(5) 0.002(5)
C6 0.010(5) 0.006(5) 0.016(6) -0.003(5) -0.004(5) 0.002(4)
Cl1 0.047(3) 0.046(3) 0.039(2) 0.000 0.000 -0.002(2)
 
_geom_special_details
;
 All esds (except the esd in the dihedral angle between two l.s. planes)
 are estimated using the full covariance matrix.  The cell esds are taken
 into account individually in the estimation of esds in distances, angles
 and torsion angles; correlations between esds in cell parameters are only
 used when they are defined by crystal symmetry.  An approximate (isotropic)
 treatment of cell esds is used for estimating esds involving l.s. planes.
;
 
loop_
 _geom_bond_atom_site_label_1
 _geom_bond_atom_site_label_2
 _geom_bond_distance
 _geom_bond_site_symmetry_2
 _geom_bond_publ_flag
Eu1 O3 2.497(11) . ?
Eu1 N4 2.628(13) . ?
Eu1 Cl1 2.768(5) . ?
Eu1 Cl1 2.768(5) 3 ?
O1 C2 1.251(15) . ?
O3 C2 1.271(17) . ?
O3 Cl1 2.073(12) . ?
N1 N4 1.297(18) . ?
N1 N6 1.347(19) . ?
N2 C6 1.321(19) . ?
N2 N5 1.367(19) . ?
N4 C5 1.34(2) . ?
N5 C1 1.35(2) . ?
N6 C3 1.335(19) . ?
N6 C4 1.420(19) . ?
C1 C4 1.38(2) . ?
C1 H1 0.9500 . ?
C2 C5 1.49(2) . ?
C3 C5 1.37(2) . ?
C3 H3 0.9500 . ?
C4 C6 1.373(19) . ?
C6 H6 0.9500 . ?
 
loop_
 _geom_angle_atom_site_label_1
 _geom_angle_atom_site_label_2
 _geom_angle_atom_site_label_3
 _geom_angle
 _geom_angle_site_symmetry_1
 _geom_angle_site_symmetry_3
 _geom_angle_publ_flag
O3 Eu1 N4 63.1(4) . . ?
O3 Eu1 Cl1 46.0(3) . . ?
N4 Eu1 Cl1 56.7(3) . . ?
O3 Eu1 Cl1 134.0(3) . 3 ?
N4 Eu1 Cl1 123.3(3) . 3 ?
Cl1 Eu1 Cl1 180.0 . 3 ?
C2 O3 Cl1 85.1(9) . . ?
C2 O3 Eu1 126.0(9) . . ?
Cl1 O3 Eu1 73.9(4) . . ?
N4 N1 N6 106.2(12) . . ?
C6 N2 N5 112.9(12) . . ?
N1 N4 C5 109.7(13) . . ?
N1 N4 Eu1 133.6(10) . . ?
C5 N4 Eu1 116.3(10) . . ?
C1 N5 N2 103.7(12) . . ?
C3 N6 N1 111.9(13) . . ?
C3 N6 C4 127.5(13) . . ?
N1 N6 C4 120.5(12) . . ?
N5 C1 C4 110.7(14) . . ?
N5 C1 H1 124.7 . . ?
C4 C1 H1 124.7 . . ?
O1 C2 O3 126.0(13) . . ?
O1 C2 C5 118.9(13) . . ?
O3 C2 C5 115.1(12) . . ?
N6 C3 C5 103.2(13) . . ?
N6 C3 H3 128.4 . . ?
C5 C3 H3 128.4 . . ?
C6 C4 C1 106.2(13) . . ?
C6 C4 N6 126.7(13) . . ?
C1 C4 N6 127.1(13) . . ?
N4 C5 C3 109.0(14) . . ?
N4 C5 C2 119.4(13) . . ?
C3 C5 C2 131.3(14) . . ?
N2 C6 C4 106.5(13) . . ?
N2 C6 H6 126.7 . . ?
C4 C6 H6 126.7 . . ?
O3 Cl1 Eu1 60.1(3) . . ?
 
_refine_diff_density_max    1.366
_refine_diff_density_min   -6.189
_refine_diff_density_rms    0.496

_shelx_res_file
;
TITL oav-185_a.res in Fddd
    oav-185.res
    created by SHELXL-2019/3 at 18:29:49 on 23-Nov-2023
REM Old TITL oav-185 in Fdd2
REM SHELXT solution in Fddd
REM R1 0.150, Rweak 0.004, Alpha 0.023, Orientation as input
REM Formula found by SHELXT: C28 N8 Cl2 Eu
CELL 0.71073 17.3903 11.9631 16.1655 90 90 90
ZERR 16 0.0004 0.0003 0.0004 0 0 0
LATT 4
SYMM 0.75-X,0.75-Y,+Z
SYMM 0.75-X,+Y,0.75-Z
SYMM +X,0.75-Y,0.75-Z
SFAC C Cl Eu N O H
UNIT 160 16 8 32 64 1
L.S. 10
PLAN  5
TEMP -123.15
list 4
fmap 2 53
ACTA
BOND $H
WGHT    0.086900  354.001404
FVAR       0.15666
EU1   3    0.375000    0.375000    0.375000    10.25000    0.00581    0.00593 =
         0.00665    0.00000    0.00000    0.00000
PART -1 10.5
O1    5    0.496210    0.575404    0.580797    10.50000    0.00627    0.01169 =
         0.00742   -0.00270   -0.00582   -0.00117
O3    5    0.463930    0.451503    0.482259    10.50000    0.00956    0.01282 =
         0.01065   -0.00483   -0.00211    0.00347
N1    4    0.262361    0.603954    0.461391    10.50000    0.00828    0.00795 =
         0.02044   -0.00450   -0.00173    0.00281
N2    4    0.112223    0.868808    0.515126    10.50000    0.00961    0.01737 =
         0.01562   -0.00044   -0.00243    0.00570
N4    4    0.324048    0.543103    0.464183    10.50000    0.00906    0.00992 =
         0.01228   -0.00466   -0.00356    0.00129
N5    4    0.157263    0.928560    0.568509    10.50000    0.01162    0.01119 =
         0.00971   -0.00033   -0.00304    0.00315
N6    4    0.273888    0.689046    0.514497    10.50000    0.01050    0.01219 =
         0.01213   -0.00409   -0.00237    0.00266
C1    1    0.221985    0.867273    0.574202    10.50000    0.01330    0.01412 =
         0.01832   -0.00734   -0.00308    0.00637
AFIX  43
H1    6    0.264934    0.885883    0.607805    10.50000   -1.20000
AFIX   0
C2    1    0.450686    0.534834    0.528918    10.50000    0.00819    0.01005 =
         0.00706   -0.00178   -0.00324    0.00322
C3    1    0.342286    0.682195    0.551709    10.50000    0.01324    0.00990 =
         0.01218   -0.00368   -0.00419    0.00229
AFIX  43
H3    6    0.364164    0.731685    0.591184    10.50000   -1.20000
AFIX   0
C4    1    0.217354    0.773623    0.524473    10.50000    0.00645    0.01709 =
         0.01323   -0.00668   -0.00593    0.00518
C5    1    0.373359    0.586232    0.519078    10.50000    0.01301    0.01426 =
         0.01213   -0.00309    0.00064    0.00224
C6    1    0.145856    0.776562    0.488536    10.50000    0.00954    0.00621 =
         0.01567   -0.00348   -0.00406    0.00234
AFIX  43
H6    6    0.124714    0.722791    0.451755    10.50000   -1.20000
AFIX   0
PART 0
CL1   2    0.375000    0.375000    0.546200    10.50000    0.04686    0.04623 =
         0.03890    0.00000    0.00000   -0.00240
HKLF 4




REM  oav-185_a.res in Fddd
REM wR2 = 0.1959, GooF = S = 1.336, Restrained GooF = 1.336 for all data
REM R1 = 0.0663 for 1550 Fo > 4sig(Fo) and 0.0675 for all 1609 data
REM 126 parameters refined using 0 restraints

END

WGHT      0.0868    353.9619

REM Highest difference peak  1.366,  deepest hole -6.189,  1-sigma level  0.496
Q1    1   0.2886  0.9489  0.6013  11.00000  0.05    1.37
Q2    1   0.1898  0.7845  0.4968  11.00000  0.05    1.24
Q3    1   0.1382  0.8731  0.5657  11.00000  0.05    1.19
Q4    1   0.3817  0.6581  0.5584  11.00000  0.05    1.16
Q5    1   0.2695  0.5591  0.5526  11.00000  0.05    1.12
;
_shelx_res_checksum   17772

_shelx_hkl_file
;
   2   0   0    1.80    0.50
  -2   0   0    1.40    0.50
   2   0   0    1.40    0.40
  -2   0   0    0.30    0.50
  -4   0   0 5371.56  111.69
   4   0   0 5224.88  111.49
  -6   0   0    1.60    0.90
   6   0   0    0.80    1.00
  -6   0   0    0.90    0.90
  -8   0   0 9732.33  209.08
  -8   0   0 9984.10  209.18
   8   0   0 9999.00  209.18
  10   0   0    1.50    1.30
 -10   0   0    2.00    0.60
 -10   0   0    1.30    1.60
 -10   0   0   -0.10    1.70
  10   0   0    3.30    1.70
  12   0   0 3962.50   90.59
  12   0   0 3706.93   88.89
 -12   0   0 3945.51   89.49
  14   0   0    2.20    2.10
 -14   0   0    9.40    3.00
  16   0   0 1584.54   45.60
 -16   0   0 1527.05   44.00
 -18   0   0    3.30    3.10
  18   0   0    4.20    3.50
  20   0   0 1734.93   52.59
 -20   0   0 1753.42   50.69
 -22   0   0    5.40    4.40
  22   0   0    5.20    5.30
 -24   0   0 1161.18   40.70
  24   0   0 1269.57   44.20
   0  -2   0    1.70    0.70
   0   2   0    0.80    0.40
   0   2   0    2.70    0.70
   0  -2   0    0.80    0.40
   2   2   0  678.83   17.10
   2  -2   0  642.64   16.30
  -2   2   0  636.44   16.30
  -2  -2   0  652.43   17.00
   2   2   0  657.43   15.10
   2  -2   0  612.94   14.00
   2  -2   0  639.94   14.10
  -2  -2   0  649.54   15.10
  -4   2   0  145.19    6.40
  -4   2   0  148.89    4.30
   4  -2   0  164.78    6.80
   4   2   0  146.29    6.80
   4   2   0  158.18    5.60
  -4  -2   0  150.18    5.50
   4  -2   0  150.78    4.30
  -4  -2   0  146.49    6.90
  -6  -2   0 5193.88  113.19
  -6   2   0 5089.89  111.99
   6   2   0 5241.98  110.49
  -6   2   0 5244.27  108.39
  -6  -2   0 5019.40  110.09
   6   2   0 5111.39  112.89
   6  -2   0 5203.68  108.49
   6  -2   0 5255.37  112.39
  -8  -2   0  104.99    6.00
  -8  -2   0  121.19    7.50
   8  -2   0  103.19    5.10
  -8   2   0  112.69    5.30
   8  -2   0  100.29    6.60
   8   2   0  105.09    6.00
  -8   2   0  108.99    6.90
 -10   2   0 2313.27   52.29
 -10  -2   0 2222.18   53.79
 -10  -2   0 2264.97   56.59
  10  -2   0 2217.38   52.29
  10  -2   0 2296.87   56.19
  10   2   0 2235.08   54.19
  10   2   0 2222.68   56.39
 -12  -2   0   31.70    4.80
  12  -2   0   37.70    4.60
 -12   2   0   44.30    4.30
  12  -2   0   42.90    5.40
  12   2   0   51.49    5.20
  14   2   0 4150.98   95.19
  14  -2   0 3900.51   91.89
 -14  -2   0 4113.39   97.39
  16   2   0    3.90    3.60
  16  -2   0   13.40    4.10
 -16  -2   0   12.80    2.50
 -16   2   0   17.90    4.00
 -16  -2   0   17.40    5.10
 -18  -2   0 1334.57   42.90
  18  -2   0 1375.36   43.90
 -18   2   0 1384.56   38.90
  18   2   0 1353.76   41.80
 -20  -2   0   27.30    6.60
  20   2   0   45.70    7.60
 -20   2   0   31.10    6.30
  20  -2   0   33.70    7.50
 -22   2   0 1434.46   43.00
 -22  -2   0 1535.45   48.70
  22  -2   0 1501.85   49.80
  22   2   0 1429.96   47.00
  24  -2   0   61.69   10.30
  24   2   0   54.49    9.80
 -24   2   0   78.49   10.40
 -24  -2   0   64.19   10.80
 -26  -2   0  644.04   30.20
  26   2   0  634.94   29.70
   0  -4   0 8808.72  182.08
   0   4   0 8726.63  181.38
   0   4   0 8530.15  181.98
   2  -4   0   67.59    4.20
  -2   4   0   57.49    4.00
   2   4   0   59.49    3.40
   2   4   0   60.99    3.40
   2  -4   0   62.49    3.20
   2   4   0   58.99    4.30
   4  -4   0 5315.67  115.79
   4   4   0 5370.56  112.89
   4  -4   0 5421.06  110.49
   4   4   0 5251.77  117.09
  -4   4   0 5359.26  115.59
   4  -4   0 5324.47  110.29
  -4  -4   0 5336.17  112.89
  -6  -4   0    6.30    2.20
   6   4   0   17.00    3.40
   6  -4   0   20.20    2.80
  -6   4   0   10.50    2.60
  -6  -4   0    8.40    1.80
   6   4   0    8.80    2.00
   8   4   0 7853.51  177.08
  -8   4   0 8155.08  165.38
   8  -4   0 8106.69  173.98
  -8   4   0 7974.20  176.48
   8   4   0 8173.98  169.98
  -8  -4   0 7799.22  169.38
  -8  -4   0 7981.60  175.28
  10  -4   0  305.77   10.10
  10  -4   0  330.87   14.80
  10   4   0  290.97   12.00
 -10  -4   0  303.17   14.90
 -10   4   0  322.87    9.40
  12   4   0 2509.95   60.49
  12  -4   0 2526.35   64.59
 -12  -4   0 2531.15   65.49
 -12   4   0 2516.95   55.89
 -12  -4   0 2414.66   60.09
 -14   4   0   25.10    3.40
 -14  -4   0   15.90    4.60
  14  -4   0   11.40    3.00
  14  -4   0   24.40    5.50
  14   4   0   12.40    3.60
  16   4   0 2716.23   67.59
  16  -4   0 2662.73   71.69
 -16   4   0 2671.83   61.99
 -16  -4   0 2651.23   72.19
 -18  -4   0    9.50    4.50
  18  -4   0   10.00    5.30
  18   4   0    8.60    4.30
 -18   4   0    5.70    3.00
 -20   4   0 1682.63   43.00
 -20  -4   0 1622.54   39.80
  20   4   0 1645.24   48.90
  20  -4   0 1685.83   52.99
 -20  -4   0 1609.74   52.49
 -22   4   0   64.49    7.90
  22  -4   0   80.19   11.00
  22   4   0   81.89   10.30
  24   4   0  878.71   34.40
 -24  -4   0  888.71   37.60
  24  -4   0  931.71   38.10
 -26  -4   0   58.29   11.80
   0  -6   0    0.70    1.20
   0   6   0    1.10    1.30
   0   6   0    0.30    1.20
   0  -6   0   -0.20    0.90
  -2   6   0 6171.48  134.49
   2   6   0 6024.80  135.99
   2   6   0 6279.37  132.89
   2  -6   0 6255.97  134.69
  -2  -6   0 6436.86  136.49
   2  -6   0 6265.37  132.59
  -4   6   0  273.17   11.50
   4  -6   0  255.97    8.10
   4   6   0  256.37    9.40
   4  -6   0  282.27   11.70
  -4  -6   0  259.47   12.40
   4   6   0  252.67    9.40
   4  -6   0  261.17    8.20
   4   6   0  250.07   12.20
  -6   6   0 3940.11   97.59
  -6  -6   0 3686.13   87.49
   6  -6   0 3567.04   85.29
   6   6   0 3747.12   83.09
   6   6   0 3577.04   81.19
  -8  -6   0   58.79    6.60
  -8  -6   0   49.60    4.40
   8  -6   0   61.49    6.10
   8   6   0   58.49    4.50
  10   6   0 1642.74   40.50
 -10  -6   0 1557.04   42.70
  10  -6   0 1602.54   45.20
 -10  -6   0 1643.44   47.30
 -12  -6   0  123.99   10.30
  12   6   0  112.09    7.50
  12  -6   0  129.79    9.90
 -12  -6   0  119.99    8.10
  14   6   0 1938.51   49.80
 -14  -6   0 1931.61   56.89
  14  -6   0 1914.81   55.09
  16   6   0    3.30    3.10
 -16  -6   0    5.90    4.40
  16  -6   0    1.10    3.10
  18   6   0 1306.37   38.80
 -18  -6   0 1321.47   45.30
 -18   6   0 1187.28   27.20
  18  -6   0 1361.16   44.90
 -20  -6   0    1.40    9.90
  20   6   0   35.50    7.00
  20  -6   0   26.00    8.10
 -22  -6   0  945.01   39.40
  22   6   0  961.90   33.70
 -22  -6   0  923.31   28.00
  22  -6   0  978.60   39.10
  24   6   0   -5.00    6.20
  24  -6   0   -4.90    6.10
   0  -8   0 1856.91   45.20
   0   8   0 1603.94   46.40
   0  -8   0 1823.52   44.10
  -2  -8   0   77.79    6.70
   2  -8   0   79.49    6.00
   2   8   0   67.99    6.70
   2  -8   0   78.59    5.40
  -2   8   0   71.59    6.10
  -4  -8   0 4026.00   94.59
   4   8   0 4069.69   88.79
   4  -8   0 4026.60   92.59
   4  -8   0 3996.20   87.09
   4   8   0 3915.61   88.69
   4  -8   0 4030.40   87.19
   6   8   0   79.59    5.30
  -6  -8   0   85.89    8.10
   6  -8   0   80.49    3.70
   6   8   0   82.59    5.90
   6  -8   0   81.99    3.70
   6  -8   0   82.59    7.20
   8   8   0 3129.09   72.69
   8   8   0 3239.08   73.19
  -8  -8   0 3242.98   97.49
   8  -8   0 3266.77   79.29
  10   8   0   63.89    5.30
 -10  -8   0   57.49    7.80
  10  -8   0   60.39    6.80
  12  -8   0 3077.19   78.79
 -12  -8   0 3079.59   81.09
  12   8   0 2946.71   70.59
  14  -8   0   19.80    4.60
 -14  -8   0    5.20    3.80
  14   8   0   16.00    3.60
  16  -8   0 1953.50   58.09
  16   8   0 1906.81   49.50
 -16  -8   0 1799.82   58.69
  18  -8   0   12.70    5.30
 -18  -8   0   14.00    6.60
  18   8   0    8.50    4.40
 -20  -8   0 1231.78   47.10
  20  -8   0 1267.67   46.00
  22   8   0    0.70    5.70
 -22  -8   0    0.20    6.00
  22  -8   0    1.20    6.40
  24  -8   0  495.95   28.90
   0 -10   0    1.60    2.40
   0 -10   0    4.70    2.40
   2 -10   0 2359.86   56.09
   2 -10   0 2303.67   57.99
  -2 -10   0 2351.96   59.59
   2  10   0 2293.57   56.09
   2  10   0 2202.68   55.29
   4  10   0   84.59    6.30
  -4 -10   0   88.99    8.30
   4 -10   0   68.19    5.80
   4  10   0   82.79    6.60
   4 -10   0   89.19    5.80
   4 -10   0  100.29    7.90
  -6 -10   0 3182.58   80.39
   6 -10   0 3071.59   68.09
   6  10   0 3179.98   72.19
   6 -10   0 3120.49   69.39
   8  10   0  215.68   10.00
   8 -10   0  199.08   12.90
  -8 -10   0  210.68   14.20
   8  10   0  189.08   10.00
 -10 -10   0 1619.44   50.59
  10 -10   0 1615.44   48.30
  10  10   0 1586.14   40.70
  12 -10   0   72.39    9.20
 -12 -10   0   72.79    9.20
  12  10   0   72.19    6.20
  14 -10   0 1148.49   40.30
  14  10   0 1099.49   31.60
 -14 -10   0 1114.29   42.20
  16  10   0    2.00    3.70
  16 -10   0    2.60    4.40
 -16 -10   0    0.70    5.40
  18 -10   0 1231.68   44.70
 -18 -10   0 1165.38   45.90
  20 -10   0   10.70    6.80
 -20 -10   0   21.30    8.10
  20  10   0   17.40    6.00
  22 -10   0  764.92   36.00
   0 -12   0 2897.91   70.89
   0 -12   0 2887.01   71.69
   2 -12   0  168.88   10.00
   2 -12   0  174.08   11.10
   2  12   0  169.08   10.30
   4  12   0 1723.53   44.30
   4 -12   0 1694.93   48.10
   4 -12   0 1686.33   42.80
  -4 -12   0 1702.03   50.09
   6  12   0    7.20    2.80
   6 -12   0    3.80    3.50
  -6 -12   0   11.60    4.10
   8 -12   0 1184.88   38.70
  -8 -12   0 1122.59   40.20
   8  12   0 1148.29   31.70
  10  12   0  131.49    8.20
 -10 -12   0  137.39   13.00
  10 -12   0  143.59   12.30
  12 -12   0 2092.09   61.39
  12  12   0 2070.09   57.29
 -12 -12   0 1987.00   63.79
  14 -12   0    6.10    5.20
 -14 -12   0    7.60    5.70
 -16 -12   0  738.53   34.90
  16 -12   0  725.93   32.90
  16  12   0  726.13   23.30
 -18 -12   0   10.10    7.00
  18 -12   0   11.90    6.40
  20 -12   0  983.80   46.50
   0 -14   0    3.80    4.00
   0  14   0    6.70    3.90
  -2 -14   0 1655.13   48.20
   2 -14   0 1568.74   46.10
   2  14   0 1608.84   44.20
   2 -14   0 1566.34   43.80
   4 -14   0   53.29    9.40
   4 -14   0   56.39    7.90
   4  14   0   50.89    6.90
  -4 -14   0   57.59    9.10
  -6 -14   0 1359.86   45.70
   6  14   0 1356.66   37.50
   6 -14   0 1420.96   44.10
  -8 -14   0   18.70    6.40
   8 -14   0   22.40    5.90
 -10 -14   0 1425.56   49.90
 -12 -14   0   57.19   10.70
  12 -14   0   63.79   10.80
  14 -14   0 1258.37   45.70
 -14 -14   0 1239.38   47.70
 -16 -14   0   78.99   14.00
  -2 -16   0   48.80    9.00
   4  16   0  950.70   32.10
  -4 -16   0 1022.30   37.20
   4 -16   0 1026.30   35.50
   4 -16   0  985.80   29.20
   6 -16   0   -3.30    5.70
   6  16   0    7.70    5.30
  -6 -16   0    4.00    6.10
  -8 -16   0 1147.69   43.10
   8 -16   0 1123.09   40.80
  10 -16   0    9.80    6.50
  12 -16   0  687.93   31.70
   0  18   0   -8.60    8.00
   0 -18   0    9.40    8.40
  -2  18   0  566.74   25.60
  -4 -18   0   16.60    8.80
  -1   1  -1 1336.77   29.50
  -3  -1  -1 4638.74   99.49
   3  -1   1 4599.34   95.99
  -3   1   1 4700.93   97.89
  -3   1  -1 4759.42   96.99
   3   1   1 4586.14   98.39
  -3   1  -1 4635.14   98.79
  -5   1   1 1781.52   39.10
   5  -1   1 1754.72   40.50
   5   1  -1 1391.66   35.00
  -5  -1  -1 1443.66   35.20
   5   1  -1 1497.45   34.60
  -5  -1  -1 1425.26   33.40
  -5   1   1 1723.93   40.40
   5  -1   1 1742.33   38.60
   5   1   1 1680.73   40.70
  -5  -1   1 1718.53   39.90
   5   1   1 1731.83   39.20
   5  -1  -1 1442.76   33.40
  -5   1  -1 1464.65   34.70
   5  -1  -1 1524.75   35.40
  -5  -1   1 1742.03   41.00
  -5   1  -1 1521.35   33.20
   5  -1  -1 1465.85   31.40
  -7   1   1 2806.02   65.19
  -7  -1  -1 2591.74   58.89
   7   1  -1 2636.14   59.89
   7   1  -1 2664.93   60.79
  -7   1   1 2880.21   63.79
   7  -1   1 2804.02   63.29
   7  -1   1 2922.71   65.49
  -7  -1  -1 2634.54   60.79
   7   1   1 2969.30   64.59
  -7  -1   1 2822.22   64.59
   7   1   1 2831.12   65.59
  -7   1  -1 2655.73   58.39
   7  -1  -1 2598.64   58.59
   7  -1  -1 2612.14   60.59
  -7   1  -1 2575.74   59.89
  -7  -1   1 2916.21   65.99
  -9  -1  -1 1452.15   36.70
   9   1  -1 1372.36   35.80
  -9   1   1 1307.37   35.20
   9  -1   1 1377.66   35.60
  -9  -1  -1 1329.37   34.60
  -9   1   1 1368.36   33.90
   9  -1   1 1328.77   33.40
   9  -1  -1 1386.86   36.50
  -9   1  -1 1290.57   35.30
  -9  -1   1 1282.97   34.60
  -9  -1   1 1366.86   35.90
   9   1   1 1365.56   34.50
   9  -1  -1 1351.06   34.40
   9   1   1 1277.07   35.10
  -9   1  -1 1402.36   34.30
 -11  -1  -1 2098.99   52.39
  11  -1   1 2132.19   52.99
 -11  -1  -1 1961.40   50.29
  11  -1   1 2049.89   50.39
 -11   1   1 2135.69   51.09
  11   1  -1 1960.30   51.79
  11   1  -1 2143.59   52.09
  11  -1  -1 2165.28   53.19
 -11  -1   1 2096.49   52.99
  11   1   1 2160.18   52.19
  11   1   1 1954.20   52.09
 -11   1  -1 2107.39   50.19
 -11  -1   1 2111.39   46.60
  11  -1  -1 1997.30   49.99
  13  -1   1  946.41   30.40
 -13   1   1 1040.40   29.60
 -13  -1  -1  895.11   28.60
  13   1  -1  935.51   28.80
  13  -1   1  907.51   28.20
 -13  -1   1  976.60   23.60
 -13   1  -1  909.31   26.80
 -13  -1   1 1062.29   31.60
  13   1   1  983.80   29.90
  13  -1  -1  825.42   26.60
  13  -1  -1  913.41   29.50
 -15   1   1 1090.69   32.60
  15   1  -1 1155.18   36.00
 -15  -1  -1 1123.99   35.20
  15  -1   1 1067.89   34.90
  15   1   1 1076.89   33.70
  15  -1  -1 1133.39   36.00
 -15   1  -1 1121.49   33.00
 -15  -1   1 1132.49   35.00
 -17  -1  -1 1516.25   45.50
  17   1  -1 1599.84   46.60
 -17   1   1 1628.54   44.90
  17  -1   1 1611.24   47.80
  17  -1  -1 1552.04   46.70
 -17  -1   1 1631.44   47.30
 -17   1  -1 1555.94   43.50
  17   1   1 1554.74   46.10
  19  -1   1  650.73   27.00
 -19   1   1  606.24   23.60
  19   1  -1  560.34   24.20
 -19  -1  -1  537.85   23.20
 -19   1  -1  489.75   23.50
  19   1   1  614.54   25.60
 -19  -1   1  633.94   25.80
  19  -1  -1  531.75   24.00
  21   1  -1  568.54   25.90
 -21   1   1  518.05   22.30
 -21  -1  -1  592.24   25.60
  21  -1   1  494.15   24.30
 -21  -1   1  539.35   24.20
  21   1   1  545.65   24.50
  21  -1  -1  576.94   26.80
 -21   1  -1  588.34   23.70
  23  -1   1  792.32   32.80
  23   1  -1  784.02   32.10
 -23   1   1  792.32   29.90
 -23  -1  -1  759.42   31.00
 -23   1  -1  736.73   28.40
  23  -1  -1  717.83   31.80
 -23  -1   1  762.22   31.10
  25   1  -1  620.34   29.50
 -25   1   1  641.34   28.70
 -25  -1   1  611.84   32.70
  25   1   1  711.23   30.50
  25  -1  -1  584.34   42.50
   1   3  -1 2108.59   47.00
  -1  -3  -1 2160.88   48.20
  -1  -3  -1 2176.38   45.40
   1   3  -1 2077.89   47.60
  -1   3   1 2325.17   51.59
   1  -3   1 2424.16   50.99
   1  -3   1 2392.86   52.79
   1  -3  -1 2098.19   46.60
   1   3   1 2368.06   53.29
  -1   3  -1 2115.69   47.60
   1  -3  -1 2101.19   46.80
   1  -3  -1 2169.18   46.70
  -1  -3   1 2371.86   52.79
  -1  -3   1 2369.96   52.19
   1   3   1 2375.36   50.39
  -3   3   1 3876.01   81.69
  -3   3   1 3807.32   84.09
   3  -3   1 3936.01   84.99
   3   3  -1 3631.34   79.09
  -3  -3  -1 3585.14   79.59
  -3  -3  -1 3531.65   74.89
   3   3  -1 3547.04   76.79
   3   3   1 3803.52   85.59
   3  -3  -1 3589.84   77.89
  -3  -3   1 4017.20   85.69
   3   3   1 3965.20   81.39
  -3  -3   1 3813.82   83.09
  -3   3  -1 3570.94   78.29
  -5   3   1 1634.74   35.40
   5   3  -1 1553.04   39.90
  -5   3   1 1610.14   39.10
  -5  -3  -1 1635.24   40.50
  -5  -3  -1 1639.84   36.00
   5   3  -1 1626.54   37.60
   5   3   1 1631.84   36.20
   5  -3  -1 1661.23   36.10
   5   3   1 1514.85   40.00
  -5  -3   1 1615.94   37.60
   5  -3  -1 1576.04   39.00
  -5   3  -1 1543.75   38.90
  -5  -3   1 1655.33   40.60
   7  -3   1 1653.03   42.30
  -7   3   1 1710.53   37.70
   7   3  -1 1595.64   41.90
   7   3  -1 1667.73   39.40
  -7  -3  -1 1597.04   37.80
  -7   3   1 1641.54   41.90
  -7  -3  -1 1579.04   42.20
   7  -3   1 1671.43   36.90
   7  -3  -1 1669.23   36.80
   7   3   1 1690.13   39.10
   7  -3  -1 1630.54   41.20
  -7   3  -1 1644.24   41.20
   7   3   1 1695.73   43.40
  -7  -3   1 1676.43   40.20
  -7   3  -1 1643.94   35.30
  -7  -3   1 1671.33   43.20
  -9   3   1 3632.64   78.59
   9  -3   1 3581.04   74.89
   9  -3   1 3728.43   84.49
   9   3  -1 3417.86   78.09
  -9  -3  -1 3452.95   81.69
   9   3  -1 3379.66   81.19
  -9  -3  -1 3378.36   76.49
   9  -3  -1 3555.94   80.69
  -9   3  -1 3514.95   73.89
   9   3   1 3447.86   84.39
   9  -3  -1 3382.26   74.99
  -9  -3   1 3666.33   85.29
   9   3   1 3576.74   80.49
  -9  -3   1 3698.73   84.09
  11  -3   1 2414.26   61.09
  11  -3   1 2370.96   54.49
  11   3  -1 2246.78   55.79
 -11  -3  -1 2221.08   54.29
 -11  -3  -1 2314.87   59.09
 -11   3   1 2456.75   55.39
  11  -3  -1 2200.58   52.59
 -11  -3   1 2377.36   61.69
 -11   3  -1 2321.57   51.79
  11  -3  -1 2388.86   58.59
  11   3   1 2431.06   57.49
  13  -3   1 1163.48   30.30
  13   3  -1 1167.18   33.60
 -13  -3  -1 1127.29   35.70
 -13   3   1 1143.29   30.70
  13  -3   1 1140.69   35.90
  13  -3  -1 1106.49   30.30
  13  -3  -1 1150.78   35.50
 -13   3  -1 1134.89   29.40
  13   3   1 1197.08   33.20
 -13  -3   1 1159.08   36.50
  15   3  -1  941.01   29.90
 -15  -3  -1  897.91   31.70
 -15   3   1 1120.69   30.90
  15  -3   1 1096.99   36.20
  15  -3  -1  887.11   27.60
 -15  -3   1 1079.09   36.10
 -15   3  -1  906.91   25.80
  15  -3  -1  889.91   31.40
  15   3   1 1127.29   33.60
  17   3  -1  820.82   28.90
 -17  -3  -1  873.41   31.50
 -17   3   1  898.41   27.60
  17  -3   1  928.41   33.40
 -17   3  -1  780.12   24.50
  17   3   1  897.21   30.30
 -17  -3   1  898.01   33.00
  17  -3  -1  797.42   30.70
 -17  -3   1  943.21   25.00
  19   3  -1  436.16   20.40
 -19  -3  -1  411.36   21.20
 -19   3   1  496.85   18.80
 -19  -3  -1  402.66   12.00
  19  -3   1  459.55   22.90
 -19  -3   1  478.65   14.80
 -19  -3   1  436.36   22.40
  19   3   1  486.65   21.20
 -19   3  -1  417.66   16.50
  19  -3  -1  389.56   21.10
  21   3  -1  769.42   30.20
 -21   3   1  755.62   25.70
 -21  -3  -1  764.12   31.50
  21  -3   1  708.83   34.20
  21   3   1  741.83   29.10
 -21  -3   1  741.33   31.00
 -21   3  -1  745.73   25.30
 -23  -3  -1  387.16   25.60
  23   3  -1  352.06   30.10
  23  -3   1  432.66   23.60
 -23   3   1  432.66   19.40
 -23  -3   1  394.86   23.30
  23   3   1  446.26   22.70
 -23   3  -1  380.66   17.10
  23  -3  -1  339.87   21.40
 -25  -3  -1  263.77   20.30
  25   3  -1  282.77   18.90
  25   3   1  324.87   20.60
 -25  -3   1  364.46   22.60
  -1   5   1 3600.94   77.89
  -1  -5  -1 3483.95   78.29
  -1  -5  -1 3482.95   75.19
   1   5  -1 3527.95   76.79
   1  -5   1 3585.24   79.09
   1   5  -1 3486.55   77.79
   1  -5   1 3478.25   77.29
   1   5   1 3433.36   79.69
   1  -5  -1 3480.25   76.69
  -1   5  -1 3446.06   75.99
  -1   5  -1 3472.75   77.39
  -1  -5   1 3627.14   80.79
  -1  -5   1 3645.54   79.49
   1   5   1 3569.74   76.69
   1  -5  -1 3478.25   76.29
   3   5  -1 2073.69   50.69
   3   5  -1 2098.59   48.00
   3  -5   1 2275.07   53.49
  -3  -5  -1 2117.99   51.19
   3  -5   1 2223.48   48.90
  -3   5   1 2237.68   52.49
   3   5  -1 2175.98   48.30
   3   5   1 2285.07   49.60
  -3   5  -1 2046.40   49.50
   3   5   1 2234.88   54.59
   3  -5  -1 2076.89   49.10
  -3   5  -1 2003.00   45.50
   3  -5  -1 2115.39   46.60
  -3  -5   1 2275.67   54.29
   3   5   1 2287.07   49.60
   3  -5  -1 2113.19   46.90
  -5   5   1 3637.44   87.59
   5  -5   1 3724.43   85.69
   5   5  -1 3575.24   80.49
  -5  -5  -1 3740.13   85.29
   5   5  -1 3676.83   84.89
   5  -5  -1 3665.93   77.89
   5   5   1 3964.90   80.99
   5  -5  -1 3662.53   77.59
  -5   5  -1 3580.84   83.09
   5   5   1 3572.04   86.69
  -5  -5   1 3836.92   82.79
   5  -5  -1 3763.92   83.09
  -5  -5   1 3813.32   87.09
   5   5   1 3811.62   80.69
   7  -5   1 1820.42   46.20
  -7   5   1 1698.33   44.90
  -7  -5  -1 1810.72   48.10
   7   5  -1 1766.62   43.00
  -7  -5  -1 1814.12   41.40
  -7   5   1 1829.82   38.80
  -7  -5   1 1797.32   47.40
  -7  -5   1 1736.63   42.50
   7   5   1 1756.12   40.80
   7  -5  -1 1780.02   46.00
  -9   5   1 1685.73   37.10
   9  -5   1 1668.23   45.40
  -9  -5  -1 1795.92   49.10
   9   5  -1 1758.12   43.40
  -9  -5  -1 1743.03   41.80
   9  -5  -1 1738.83   46.90
  -9  -5   1 1732.33   47.10
   9   5   1 1626.54   40.10
 -11  -5  -1  665.33   22.40
 -11   5   1  844.82   20.80
  11   5  -1  685.13   21.80
  11  -5   1  867.91   28.70
 -11  -5  -1  675.43   25.80
 -11  -5   1  814.32   25.10
  11   5   1  853.51   24.30
 -11  -5   1  837.12   29.60
  11  -5  -1  696.83   24.90
 -13   5   1 1205.88   29.50
  13  -5   1 1229.98   38.50
 -13  -5  -1 1275.27   40.70
  13   5  -1 1288.17   35.90
 -13   5  -1 1262.77   28.20
  13  -5  -1 1272.67   39.50
  13   5   1 1234.58   33.70
  13  -5  -1 1215.68   30.40
 -13  -5   1 1229.38   39.80
 -15  -5  -1  971.20   34.60
 -15   5   1  920.51   24.10
  15  -5   1  914.31   32.80
  15   5  -1  949.01   30.00
  15   5   1  909.41   28.30
 -15   5  -1  925.61   22.60
  15  -5  -1  873.01   32.70
 -15  -5   1  888.71   33.50
 -17   5   1 1103.69   29.40
  17   5  -1 1266.87   38.40
 -17  -5  -1 1274.87   43.40
  17  -5   1 1114.99   39.10
  17  -5  -1 1267.77   42.60
 -17  -5   1 1158.88   40.30
  17   5   1 1160.48   34.90
 -19  -5  -1  687.93   30.80
  19  -5   1  892.51   34.50
 -19   5   1  809.02   23.80
  19   5  -1  793.72   28.50
 -19   5  -1  747.73   20.40
  19  -5  -1  750.32   31.40
  19   5   1  855.01   29.30
 -19  -5   1  819.52   33.90
  21   5  -1  472.65   22.70
 -21   5   1  530.45   18.00
  21  -5   1  602.44   28.10
 -21  -5  -1  492.25   16.70
  21  -5  -1  500.55   25.80
 -21  -5   1  585.84   31.50
  21   5   1  547.75   23.10
 -21  -5   1  494.35   18.00
 -21   5  -1  507.25   15.50
  23  -5   1  262.07   19.50
 -23  -5  -1  271.97   20.30
  23   5  -1  300.97   21.40
  23   5   1  296.67   17.80
 -23  -5   1  259.67   19.40
  23  -5  -1  299.47   21.00
 -25  -5  -1  700.23   33.80
  25   5  -1  787.12   32.30
  25  -5   1  703.23   34.30
  25   5   1  699.43   29.90
  25  -5  -1  759.52   35.90
 -25  -5   1  752.92   35.00
   1   7  -1  827.72   23.50
  -1  -7  -1  833.12   22.30
   1   7  -1  791.32   24.30
  -1   7   1  902.01   25.20
   1  -7   1  938.31   25.30
   1  -7   1  924.61   26.50
  -1  -7  -1  845.02   25.00
  -1   7  -1  806.82   24.00
   1  -7  -1  797.22   22.90
   1  -7  -1  864.91   23.90
  -1  -7   1  949.11   26.80
  -1  -7   1  943.91   26.10
   1   7   1  925.51   24.40
  -1   7  -1  804.02   23.10
   3   7  -1 1304.07   36.90
   3   7  -1 1326.37   34.00
   3  -7   1 1324.87   31.20
   3  -7   1 1346.77   35.50
  -3  -7  -1 1364.86   37.50
  -3   7   1 1220.48   35.50
   3   7  -1 1371.76   34.20
   3   7   1 1301.17   35.30
   3  -7  -1 1293.47   34.60
   3   7   1 1259.17   36.30
   3   7   1 1259.37   31.20
  -3  -7   1 1315.47   36.00
   3  -7  -1 1353.96   35.40
  -3   7  -1 1364.86   36.00
   5   7  -1 2682.63   62.39
   5  -7   1 2798.12   67.29
   5  -7   1 2772.52   58.89
  -5  -7  -1 2716.23   67.79
   5  -7  -1 2749.72   59.89
   5  -7  -1 2700.53   65.29
   5  -7  -1 2715.43   61.99
  -5  -7   1 2759.22   68.49
   5   7   1 2749.23   61.39
   7  -7   1 1124.89   33.70
   7   7  -1  881.81   24.50
  -7  -7  -1  840.42   29.20
   7   7  -1  791.92   26.40
  -7  -7   1 1152.18   35.30
   7  -7  -1  882.01   20.30
   7  -7  -1  868.01   20.00
   7   7   1 1085.19   28.00
   7  -7  -1  841.72   27.20
   9  -7   1 1074.59   33.90
   9   7  -1  951.90   27.40
  -9  -7  -1 1028.30   33.80
   9   7   1 1077.59   27.60
  -9  -7   1 1041.90   29.20
   9  -7  -1  966.30   31.20
  -9  -7   1 1057.59   35.00
 -11  -7  -1  668.23   27.00
  11  -7   1  807.62   28.70
  11   7  -1  660.63   21.50
  11   7   1  780.12   22.60
  11  -7  -1  677.73   25.40
 -11  -7   1  771.12   29.60
  13  -7   1 1317.97   42.50
 -13  -7  -1 1290.37   36.60
  13   7  -1 1312.17   36.40
 -13  -7  -1 1286.87   43.00
 -13  -7   1 1412.96   45.10
  13  -7  -1 1305.27   41.30
  13   7   1 1344.47   36.00
  15   7  -1  852.21   27.70
 -15  -7  -1  847.22   33.70
  15  -7   1  984.50   35.40
  15   7   1  948.71   28.40
  15  -7  -1  848.02   32.10
 -15  -7   1  917.51   35.70
  17   7  -1  652.13   24.00
 -17  -7  -1  642.54   29.60
  17  -7   1  655.13   29.10
  17   7   1  696.43   24.00
  17  -7  -1  647.04   28.20
 -17  -7   1  709.43   31.10
  19  -7   1  918.21   36.90
 -19  -7  -1  825.82   39.80
  19   7  -1  835.72   29.70
  19  -7  -1  842.32   34.60
  19   7   1  914.61   30.30
 -19  -7   1  993.90   42.90
  21  -7   1  631.24   30.50
 -21  -7  -1  545.75   28.40
  21   7  -1  551.64   24.20
 -21  -7   1  584.64   30.30
  21  -7  -1  554.14   28.20
  21   7   1  629.34   24.50
  23  -7   1  235.88   19.00
  23   7  -1  189.58   15.00
 -23  -7  -1  178.68   23.20
  23   7   1  184.88   14.10
  23  -7  -1  223.28   18.30
   1  -9   1 1197.68   32.70
   1   9  -1 1120.59   31.20
   1   9  -1 1080.89   34.20
  -1  -9  -1 1126.49   33.00
  -1  -9  -1 1086.69   29.90
  -1   9   1 1168.88   32.60
   1  -9   1 1207.18   34.10
  -1   9  -1 1087.59   31.10
  -1  -9   1 1241.98   34.70
  -1  -9   1 1231.68   33.70
   1  -9  -1 1121.09   31.40
   1  -9  -1 1115.59   30.90
  -3  -9  -1 1377.16   40.10
   3  -9   1 1485.65   40.70
   3   9  -1 1349.36   36.30
   3  -9   1 1463.35   36.50
   3   9  -1 1425.06   36.80
   3  -9  -1 1313.27   35.10
   3   9   1 1455.05   36.40
  -3  -9   1 1466.85   41.50
   3  -9  -1 1393.26   35.70
   3  -9  -1 1431.06   38.10
   3   9   1 1472.95   36.60
   5  -9   1 1597.84   36.70
   5  -9   1 1551.74   44.20
   5   9  -1 1590.54   40.30
   5   9  -1 1569.14   40.10
  -5  -9  -1 1583.34   45.70
   5  -9   1 1565.24   36.60
   5   9   1 1615.24   38.80
   5   9   1 1588.64   38.70
  -5  -9   1 1658.33   46.20
   5  -9  -1 1576.64   43.10
   5  -9  -1 1507.45   37.20
   7   9  -1  987.80   28.30
   7   9  -1 1010.20   28.60
  -7  -9  -1 1088.39   35.30
   7   9   1 1037.00   27.10
   7  -9  -1 1081.49   32.90
   7  -9  -1  981.20   23.80
   7   9   1 1006.90   26.90
  -7  -9   1 1071.09   35.30
   7  -9  -1  965.60   23.60
   9   9  -1 1806.62   45.40
  -9  -9  -1 1824.32   53.49
   9   9  -1 1759.52   45.40
   9  -9   1 1730.53   49.99
   9  -9  -1 1783.32   50.59
   9   9   1 1734.13   42.20
   9   9   1 1763.42   42.10
  -9  -9   1 1758.62   52.09
  11  -9   1 1032.20   36.00
 -11  -9  -1 1059.99   37.90
  11   9  -1 1034.80   30.00
  11  -9  -1 1049.79   35.70
  11   9   1 1048.80   28.30
 -11  -9   1 1120.59   38.70
  13  -9   1  762.62   30.50
  13   9  -1  735.03   24.20
 -13  -9  -1  729.23   31.20
 -13  -9   1  797.32   32.70
  13  -9  -1  763.22   29.80
  13   9   1  787.32   23.30
  15  -9   1  577.24   26.40
 -15  -9  -1  522.35   26.70
  15   9  -1  534.95   20.40
  15  -9  -1  587.44   26.30
 -15  -9   1  581.74   28.10
  15   9   1  558.54   19.30
  17   9  -1  598.64   22.60
 -17  -9  -1  604.64   29.70
  17  -9   1  566.14   27.10
 -17  -9   1  522.35   27.40
  17  -9  -1  608.94   28.40
  17   9   1  577.04   20.20
 -19  -9  -1  569.84   29.90
  19  -9   1  624.54   29.90
  19  -9  -1  607.04   29.20
 -19  -9   1  575.74   29.90
 -21  -9  -1  384.86   25.20
  21  -9   1  404.66   24.80
 -21  -9   1  425.36   25.90
  21  -9  -1  414.86   24.60
  21   9   1  421.56   18.80
  23  -9   1  299.67   22.30
 -23  -9  -1  253.57   30.50
  23   9  -1  258.17   17.60
  23  -9  -1  249.18   20.40
 -23  -9   1  254.57   24.70
   1 -11   1 1260.47   37.40
   1 -11   1 1328.37   36.60
  -1 -11  -1 1222.08   36.40
  -1 -11  -1 1187.68   33.30
   1 -11  -1 1142.99   34.30
  -1 -11   1 1310.57   38.00
   1 -11  -1 1203.58   34.30
   3 -11   1 1077.69   30.70
  -3 -11  -1 1078.99   35.80
   3  11  -1 1147.99   32.70
   3 -11   1 1139.79   34.90
   3 -11   1 1156.88   31.00
   3 -11  -1 1129.79   31.60
   3  11   1 1142.39   31.00
   3 -11  -1 1165.38   34.00
   3  11   1 1091.09   30.70
  -3 -11   1 1200.88   36.50
   3 -11  -1 1083.19   31.30
  -5 -11  -1 1206.98   40.00
   5 -11   1 1285.77   35.20
   5 -11   1 1292.47   39.70
   5  11  -1 1294.97   35.20
  -5 -11   1 1318.37   41.20
   5 -11  -1 1266.87   32.60
   5  11   1 1324.57   34.10
   5  11   1 1324.87   42.20
   7  11  -1  704.43   22.40
  -7 -11  -1  687.23   28.00
   7 -11   1  821.12   29.60
   7 -11  -1  641.64   17.40
   7  11   1  823.02   23.20
  -7 -11   1  808.22   31.00
   7 -11  -1  682.53   25.80
   9 -11   1  520.35   22.90
   9  11  -1  544.15   19.00
  -9 -11  -1  514.45   24.80
   9  11   1  485.55   15.90
   9 -11  -1  541.65   23.30
  -9 -11   1  506.75   24.30
  11 -11   1  966.50   35.40
 -11 -11  -1  844.22   34.50
  11  11  -1  861.31   26.40
 -11 -11   1  957.80   37.00
  11  11   1  933.41   25.70
  11 -11  -1  865.21   32.50
 -13 -11  -1  900.21   37.00
  13  11  -1  894.61   27.70
  13 -11   1  966.60   36.80
 -13 -11   1  974.80   38.70
  13  11   1  973.00   26.70
  13 -11  -1  909.51   34.80
  15 -11   1  311.07   19.80
 -15 -11  -1  389.86   23.60
  15  11  -1  365.66   16.00
  15 -11  -1  366.86   21.50
 -15 -11   1  307.27   20.90
  17 -11   1  379.16   22.80
 -17 -11  -1  386.96   24.80
  17 -11  -1  358.26   21.80
 -17 -11   1  343.97   22.70
  17  11   1  351.46   14.50
  19  11  -1  400.06   18.10
 -19 -11  -1  357.26   24.30
  19 -11   1  440.36   25.50
  19 -11  -1  394.76   24.20
 -19 -11   1  476.35   27.40
 -21 -11  -1  365.96   25.20
  21 -11  -1  348.27   24.10
 -21 -11   1  349.47   24.40
   1 -13   1  776.12   25.60
   1  13  -1  809.72   28.30
  -1 -13  -1  834.42   29.40
   1 -13   1  698.13   26.20
   1 -13  -1  803.82   27.40
   1 -13  -1  865.41   28.30
   1  13   1  760.42   24.80
  -1 -13   1  709.53   26.60
   3 -13   1  628.14   21.10
   3  13  -1  642.84   22.80
   3 -13   1  597.44   24.30
  -3 -13  -1  638.24   26.00
   3  13   1  633.64   21.20
  -3 -13   1  654.33   25.90
   3 -13  -1  645.94   22.10
   3 -13  -1  573.84   23.10
   5 -13   1  548.75   23.20
   5 -13   1  514.05   16.20
  -5 -13  -1  460.25   22.60
   5  13  -1  525.85   19.20
   5 -13   1  468.15   18.90
   5 -13  -1  442.86   16.80
   5 -13  -1  476.85   16.60
   5  13   1  521.95   17.80
  -5 -13   1  526.25   23.90
   5 -13  -1  481.25   21.10
  -7 -13  -1  419.76   22.40
   7  13  -1  468.05   17.80
   7 -13   1  578.34   24.80
   7  13   1  553.44   18.80
   7 -13  -1  465.85   16.20
  -7 -13   1  595.14   26.70
   7  13   1  571.54   18.20
   7 -13  -1  431.76   13.00
   7 -13  -1  443.66   20.90
   9 -13   1  601.64   26.60
   9  13  -1  649.93   21.70
  -9 -13  -1  597.84   28.20
   9 -13  -1  616.04   26.70
   9  13   1  609.44   18.80
  -9 -13   1  616.04   28.50
  11 -13   1  559.94   26.90
 -11 -13  -1  610.54   29.70
  11  13  -1  590.34   21.30
 -11 -13   1  596.34   32.10
  11  13   1  590.04   17.40
  11 -13  -1  625.44   27.60
  13 -13   1  594.84   28.40
 -13 -13  -1  599.14   30.20
  13 -13  -1  585.04   27.80
 -13 -13   1  579.34   29.50
 -15 -13  -1  446.56   26.30
  15  13  -1  379.16   16.30
  15 -13   1  449.95   25.00
 -15 -13   1  449.95   26.80
  15 -13  -1  361.46   22.60
 -17 -13  -1  662.73   33.80
 -17 -13   1  725.73   35.60
  -1 -15  -1  532.35   23.20
   1  15  -1  532.65   22.10
   1 -15   1  564.34   22.50
   1  15   1  594.94   24.90
   1 -15  -1  537.75   22.20
  -1  15  -1  515.85   22.60
  -1 -15   1  549.65   23.50
  -3 -15  -1  726.53   30.10
   3  15  -1  807.02   27.50
   3 -15   1  823.72   31.00
   3 -15  -1  789.72   29.00
   3  15   1  882.41   27.50
  -3 -15   1  875.01   32.40
   3 -15  -1  782.32   26.00
   5 -15   1  592.24   25.90
  -5 -15  -1  599.94   27.30
   5 -15   1  579.04   17.90
   5 -15  -1  567.84   24.80
  -5 -15   1  563.44   26.20
   7 -15   1  451.55   23.50
   7  15   1  507.45   17.00
  -7 -15   1  587.04   39.00
   7 -15  -1  499.15   23.60
  -9 -15  -1  715.13   32.20
   9  15  -1  686.43   23.30
   9 -15   1  703.23   30.20
  -9 -15   1  676.73   31.20
   9 -15  -1  687.33   30.00
 -11 -15  -1  416.36   28.30
  11 -15   1  399.86   23.00
  11 -15  -1  448.76   23.80
 -11 -15   1  446.26   25.60
  13 -15  -1  463.05   25.20
 -15 -15  -1  252.17   33.10
   1 -17   1  470.45   21.00
  -1  17   1  462.95   24.70
  -1  17  -1  451.75   22.00
   1 -17  -1  430.26   20.20
   1  17   1  496.45   20.90
   3  17  -1  372.06   18.50
  -3 -17   1  360.76   20.70
  -5 -17  -1  298.87   19.60
   5  17  -1  280.87   20.60
   5 -17   1  290.57   18.90
  -5 -17   1  301.27   20.30
   7 -17   1  406.86   23.10
  -7 -17  -1  327.97   21.90
   7 -17  -1  336.27   20.70
  -7 -17   1  430.76   24.30
   0   0   2    1.00    0.40
   0   0  -2    0.80    0.50
   0   0   2    0.70    0.50
   0   0  -2    1.50    0.50
   0   0  -2    0.90    0.50
  -2   0   2 5101.99  143.29
   2   0  -2 4813.22  137.59
   2   0   2 5070.09  134.89
   4   0  -2    1.20    0.70
   4   0  -2    1.10    0.80
  -4   0  -2    3.30    1.10
   4   0  -2    3.50    0.90
   4   0   2   16.70    1.90
  -4   0  -2    0.40    0.70
  -6   0  -2 3708.53   80.19
   6   0   2 4626.94  100.09
  -6   0   2 4614.44  100.79
  -6   0  -2 3700.23   80.59
  -6   0   2 4720.63   97.79
   6   0  -2 3653.53   81.19
   6   0  -2 3640.94   80.79
  -6   0   2 4697.83  100.89
   6   0   2 4538.65  100.19
   8   0  -2    1.30    1.50
   8   0   2    2.20    1.50
  -8   0  -2   -0.60    1.00
   8   0  -2    0.50    1.00
  -8   0   2    3.20    1.60
   8   0   2    1.30    1.30
  -8   0   2    1.00    1.00
  -8   0  -2    5.00    1.90
  10   0   2 2386.66   56.99
 -10   0   2 2247.18   57.69
  10   0   2 2326.17   56.49
 -10   0   2 2430.36   51.69
 -10   0  -2 2372.16   55.09
  10   0  -2 2210.78   55.09
 -10   0  -2 2226.78   54.49
 -10   0   2 2407.16   57.29
 -12   0   2    1.60    2.00
  12   0   2    4.20    2.40
 -12   0  -2    2.00    2.00
  12   0  -2    3.10    2.30
  12   0  -2   -2.10    2.50
  14   0   2 1373.46   39.80
 -14   0   2 1396.76   39.70
  14   0  -2 1228.38   37.70
 -14   0  -2 1299.57   36.70
 -16   0  -2   -1.10    2.60
  16   0  -2    1.40    2.40
 -16   0   2    2.10    2.50
  16   0   2    2.70    2.50
  18   0   2 1038.40   35.70
  18   0  -2 1076.49   36.90
 -18   0   2 1123.79   35.70
  20   0  -2   -0.40    3.70
 -20   0  -2    1.70    3.90
  20   0   2   -7.40    3.60
 -20   0   2    1.30    3.60
 -22   0  -2  949.31   33.80
  22   0   2 1024.90   37.00
 -22   0   2  982.50   35.50
  24   0   2   -0.90    6.30
 -24   0  -2    7.60    5.80
  24   0  -2   -2.60    5.30
 -26   0   2  360.36   21.40
   0   2   2 3838.02   80.99
   0  -2  -2 3276.17   72.49
   0  -2  -2 3438.16   70.59
   0   2  -2 3463.45   72.89
   0   2   2 3987.10   83.39
   0  -2   2 3925.61   82.39
   0   2  -2 3359.06   71.89
   0  -2   2 3851.41   83.39
  -2   2   2 1848.12   40.60
   2   2  -2 1813.32   40.60
  -2  -2  -2 1790.22   41.70
  -2   2   2 1810.22   40.80
   2  -2   2 1884.51   39.20
   2  -2   2 1801.92   41.80
   2   2  -2 1825.92   41.20
  -2  -2   2 1850.81   42.00
   2  -2  -2 1796.42   39.80
  -2   2  -2 1738.33   40.80
   2  -2  -2 1785.92   40.00
  -2  -2   2 1840.42   41.30
  -2   2  -2 1847.92   38.40
  -4  -2  -2 3078.09   64.59
  -4   2   2 3069.49   64.89
  -4   2   2 2938.01   66.29
  -4  -2  -2 3107.59   69.09
   4   2  -2 2929.21   68.29
   4  -2   2 3058.89   67.29
   4   2  -2 3048.29   67.29
  -4   2  -2 3075.89   67.99
   4  -2  -2 3099.19   65.99
  -4  -2   2 2929.21   65.79
  -4  -2   2 3010.30   69.39
  -4   2  -2 3052.39   64.09
   4  -2  -2 3074.49   67.69
   4   2   2 3023.00   63.39
  -4   2  -2 3115.89   64.39
   6  -2   2  212.48    6.10
  -6  -2  -2  214.58    7.40
  -6  -2  -2  209.38    9.60
   6   2  -2  217.18    9.70
   6   2  -2  226.48    9.00
  -6   2   2  205.98    9.00
   6  -2   2  222.48    9.40
  -6   2   2  216.58    7.80
   6   2   2  206.88    9.50
   6  -2  -2  220.28    9.30
  -6  -2   2  216.18    9.70
  -6  -2   2  207.48    8.60
   6  -2  -2  210.68    7.80
  -6   2  -2  212.48    6.80
   6   2   2  213.88    7.50
   8   2  -2 3126.59   74.09
   8   2  -2 3192.78   72.59
   8  -2   2 3577.44   81.09
  -8  -2  -2 3195.78   70.49
  -8   2   2 3384.66   80.49
  -8   2   2 3645.44   80.09
  -8  -2  -2 3193.08   74.39
   8  -2   2 3552.24   76.79
  -8   2  -2 3302.17   69.49
   8  -2  -2 3163.28   70.59
  -8   2  -2 3063.69   72.89
  -8  -2   2 3468.35   79.49
  -8  -2   2 3555.04   81.79
   8  -2  -2 3178.48   67.69
   8   2   2 3596.54   78.19
   8  -2  -2 3187.28   73.79
 -10  -2  -2   46.80    5.30
  10   2  -2   36.10    4.30
  10   2  -2   30.50    5.30
 -10   2   2   35.50    3.80
  10  -2   2   37.80    4.70
 -10  -2   2   34.20    4.70
  10  -2  -2   42.80    4.80
  10   2   2   34.90    3.60
 -10   2  -2   36.20    3.90
 -10  -2   2   31.90    4.50
  10  -2  -2   36.10    4.00
  10   2   2   38.90    5.20
  12  -2   2 1660.93   42.50
  12   2  -2 1826.42   47.10
 -12   2   2 1766.02   43.80
 -12  -2  -2 1787.22   48.20
  12  -2   2 1733.23   46.90
 -12  -2  -2 1678.73   44.30
 -12  -2   2 1746.13   41.30
 -12   2  -2 1823.32   43.70
 -12  -2   2 1794.52   47.80
  12  -2  -2 1757.12   48.20
  12   2   2 1705.03   44.30
  14  -2   2  309.37   13.40
  14   2  -2  343.37   15.90
 -14  -2  -2  340.67   16.50
  14  -2   2  357.56   17.10
 -14   2   2  340.37   14.20
 -14  -2   2  331.97   16.60
  14  -2  -2  330.97   16.40
  14  -2  -2  333.97   14.40
  14   2   2  359.86   15.20
 -14  -2   2  324.57   11.60
 -16  -2  -2 1811.82   52.39
  16   2  -2 1885.91   51.89
  16  -2   2 2204.28   59.39
 -16   2   2 2138.89   54.99
 -16  -2   2 2153.28   59.29
 -16  -2   2 2136.29   49.40
  16   2   2 2094.39   55.99
 -16   2  -2 1910.91   48.30
  16  -2  -2 1841.42   53.39
 -18   2   2    1.50    3.00
  18   2  -2    3.50    3.10
  18  -2   2    0.70    3.50
 -18  -2  -2   -0.50    3.40
 -18   2  -2    6.30    3.20
  18   2   2    0.60    3.00
  18  -2  -2    1.50    4.10
 -18  -2   2    2.20    3.20
  20   2  -2  657.33   27.70
  20  -2   2  739.83   30.40
 -20  -2  -2  646.84   27.40
 -20   2   2  767.52   27.30
 -20   2  -2  663.03   23.90
 -20  -2   2  773.52   30.80
  20   2   2  779.52   29.50
  20  -2  -2  668.03   28.70
 -22  -2  -2   11.40    6.20
 -22   2   2   10.00    5.00
  22   2  -2    7.50    4.70
  22  -2   2    9.50    5.70
  22   2   2   10.90    5.60
  22  -2  -2    8.40    5.50
 -22   2  -2    1.50    4.50
 -22  -2   2   11.80    5.70
  24   2  -2  817.62   33.80
 -24  -2  -2  882.21   35.00
 -24   2   2  956.20   36.60
  24  -2   2  942.41   37.50
 -24  -2   2  863.91   35.60
  24   2   2  869.21   34.40
 -24   2  -2  794.92   29.20
  24  -2  -2  835.72   35.90
 -26  -2  -2    6.50    7.90
 -26   2   2    1.50    9.00
  26   2   2    4.20    7.30
 -26  -2   2   17.30    8.10
  26  -2  -2   16.30    7.20
   0   4  -2   -0.20    0.90
   0   4  -2    2.60    1.20
   0  -4   2    0.90    1.10
   0  -4  -2    1.20    0.70
   0  -4   2    1.20    1.20
   0   4   2    0.50    0.60
   0  -4  -2    1.50    1.00
   2  -4   2 4172.88   86.99
   2   4  -2 3842.72   83.79
   2   4  -2 3842.22   84.89
  -2   4   2 4177.48   88.89
  -2  -4  -2 3816.02   85.49
   2  -4   2 4198.38   90.79
   2   4  -2 3849.71   83.79
   2  -4  -2 3801.82   82.69
  -2   4  -2 3851.51   84.59
   2   4   2 3982.40   91.19
   2   4   2 4133.69   85.79
  -2   4  -2 3806.32   81.29
  -2  -4   2 4070.59   92.59
   2  -4  -2 3892.01   83.09
  -4   4   2   98.79    5.70
   4   4  -2   98.19    5.50
   4  -4   2  102.69    2.60
   4  -4   2   99.89    6.20
  -4   4   2  102.49    4.70
  -4  -4  -2   95.69    6.50
   4   4  -2  112.19    6.90
  -4  -4   2  101.19    5.50
   4   4   2   96.29    6.50
   4  -4  -2  108.09    5.90
  -4   4  -2  101.49    6.20
   4   4   2  107.19    3.70
   4  -4  -2   97.99    4.60
  -4  -4   2   96.59    6.40
  -4   4  -2  104.99    2.80
   4   4   2  105.89    3.60
  -6  -4  -2 2506.85   61.09
  -6  -4  -2 2539.55   54.39
   6   4  -2 2506.25   57.69
   6   4  -2 2487.15   60.49
  -6   4   2 2552.74   60.59
  -6   4   2 2604.94   56.39
   6  -4   2 2548.45   61.39
   6  -4  -2 2545.05   54.89
   6  -4  -2 2411.16   58.79
  -6   4  -2 2519.65   59.59
   6   4   2 2553.24   55.69
  -6  -4   2 2534.95   58.99
  -6  -4   2 2649.24   62.59
  -8  -4  -2  135.39    9.00
   8  -4   2  115.19    7.90
   8   4  -2  130.29    7.30
  -8  -4  -2  126.39    5.90
  -8   4   2  130.49    5.70
  -8  -4   2  128.69    8.10
   8  -4  -2  118.79    5.60
   8   4   2  118.99    5.70
   8  -4  -2  130.39    8.10
  -8  -4   2  111.09    8.30
 -10  -4  -2 2452.65   63.19
  10   4  -2 2438.26   59.09
 -10   4   2 2505.35   57.19
  10  -4   2 2507.65   54.39
  10  -4   2 2589.04   63.89
 -10  -4  -2 2415.76   56.19
  10  -4  -2 2459.35   55.39
  10   4   2 2471.25   58.19
 -10  -4   2 2625.44   65.19
 -10   4  -2 2471.45   52.29
  12   4  -2   66.79    6.20
 -12  -4  -2   54.69    6.70
 -12   4   2   46.10    4.20
  12  -4   2   67.59    6.70
 -12  -4  -2   52.99    5.30
 -12  -4   2   51.89    6.70
  12  -4  -2   71.29    7.20
  12  -4  -2   54.49    3.20
 -12   4  -2   61.29    3.70
  12  -4  -2   51.49    4.60
  12   4   2   46.60    4.70
 -14   4   2 1528.75   38.20
  14   4  -2 1355.86   39.00
  14  -4   2 1525.65   45.10
 -14  -4  -2 1366.26   42.50
  14   4   2 1542.55   40.50
 -14  -4   2 1439.86   45.40
  14  -4  -2 1359.86   41.50
 -14   4  -2 1342.97   38.70
 -16   4   2   12.40    3.60
  16   4  -2   15.20    4.70
  16  -4   2   13.30    4.30
 -16  -4  -2   14.70    4.80
  16   4   2   15.90    3.90
 -16  -4   2   17.10    5.10
  16  -4  -2   21.90    6.00
 -16   4  -2   10.50    2.80
  18  -4   2  988.60   36.30
 -18  -4  -2  933.61   35.50
  18   4  -2  981.90   33.20
 -18   4   2  986.20   29.10
 -18  -4   2  943.91   36.00
 -18   4  -2  990.00   26.80
  18   4   2 1034.10   32.40
 -18  -4   2 1011.00   28.30
  18  -4  -2  931.61   35.40
  20  -4   2    1.50    3.90
 -20  -4  -2    7.00    4.90
 -20   4   2    8.80    4.00
  20   4  -2    4.20    4.80
 -20  -4   2   -1.00    4.60
  20  -4  -2    5.30    4.80
 -20  -4   2    7.30    3.40
 -20   4  -2    6.00    3.30
  20   4   2   -1.00    4.10
  22   4  -2  612.14   26.90
 -22   4   2  631.34   23.10
  22  -4   2  671.23   30.50
  22   4   2  669.93   27.10
 -22   4  -2  553.44   19.40
  22  -4  -2  588.04   28.50
 -22  -4   2  702.43   40.70
  24   4  -2    6.40    6.10
 -24  -4  -2    2.00    7.00
 -24  -4   2    5.70    6.30
 -26  -4  -2  461.25   27.60
  26   4  -2  455.35   24.70
  26   4   2  449.26   24.00
  26  -4  -2  436.16   26.30
 -26  -4   2  471.95   26.80
   0   6   2 1305.77   31.30
   0  -6   2 1336.57   34.20
   0   6  -2 1306.47   33.20
   0  -6   2 1283.07   33.00
   0   6  -2 1288.77   33.70
   0  -6  -2 1277.37   31.30
   0  -6  -2 1336.87   34.20
   2   6  -2  104.49    6.90
  -2   6   2  111.69    6.20
   2   6  -2  124.49    6.90
   2  -6   2  105.49    6.90
   2   6  -2  103.69    6.40
  -2  -6  -2  108.59    7.20
   2  -6   2  113.49    5.40
  -2  -6  -2  114.29    5.00
   2  -6  -2  117.69    6.30
  -2   6  -2  108.09    6.90
   2  -6  -2  110.29    6.10
  -2   6  -2  111.19    5.60
   2   6   2  118.89    4.90
   2  -6  -2  106.19    6.00
  -2  -6   2  101.69    6.70
   4  -6   2 3513.45   74.29
  -4  -6  -2 3643.24   83.19
   4   6  -2 3442.76   79.09
   4   6  -2 3586.74   79.39
   4   6  -2 3490.85   82.09
   4  -6   2 3563.84   81.49
   4  -6  -2 3518.75   77.39
   4  -6  -2 3516.95   79.89
  -4   6  -2 3463.05   75.39
   4   6   2 3361.06   82.49
  -4  -6   2 3567.54   82.19
   4  -6  -2 3596.04   77.09
   4   6   2 3616.34   76.09
  -4   6  -2 3453.65   80.89
   4   6   2 3496.95   74.89
   6  -6   2  210.48   10.90
  -6  -6  -2  184.18   11.00
   6   6  -2  199.08    9.10
  -6   6   2  175.88    9.60
   6  -6  -2  182.88    7.20
   6   6   2  181.18    6.50
   6  -6  -2  182.08    9.60
  -6  -6   2  208.48   11.30
   8   6  -2 1423.86   36.90
   8  -6   2 1612.74   43.90
  -8  -6  -2 1442.56   42.00
  -8  -6  -2 1387.16   33.30
  -8  -6   2 1586.04   45.20
   8  -6  -2 1426.46   39.60
  -8  -6   2 1562.94   40.30
   8   6   2 1589.94   36.80
   8  -6  -2 1405.26   32.50
 -10   6   2   45.80    3.20
 -10  -6  -2   43.60    6.60
  10   6  -2   46.90    5.00
  10  -6   2   49.70    5.90
 -10  -6  -2   38.20    3.90
 -10  -6   2   41.50    6.40
  10   6   2   43.50    3.80
  10  -6  -2   40.70    5.50
 -10  -6   2   41.80    5.90
 -12  -6  -2 1309.17   41.80
  12   6  -2 1283.37   36.40
  12  -6   2 1360.66   42.80
 -12   6   2 1451.95   33.50
  12   6   2 1453.35   36.50
 -12  -6   2 1476.75   45.00
  12  -6  -2 1281.87   39.90
  12  -6  -2 1302.27   30.60
  14  -6   2   60.09    7.40
 -14   6   2   44.80    3.90
  14   6  -2   47.90    5.80
 -14  -6  -2   33.00    6.10
 -14  -6   2   40.30    6.80
  14   6   2   41.90    5.00
  14  -6  -2   41.40    3.70
  14  -6  -2   41.50    4.80
  14  -6  -2   60.79    7.20
 -16   6   2 1148.39   31.40
  16   6  -2 1262.47   37.70
  16  -6   2 1226.98   41.00
 -16  -6  -2 1196.28   42.30
  16  -6  -2 1211.08   41.20
 -16  -6   2 1181.98   41.50
  16   6   2 1163.08   33.70
 -18   6   2   13.40    3.20
  18   6  -2   15.10    5.10
  18  -6   2   17.40    5.40
 -18  -6  -2   35.90    7.00
  18  -6  -2   17.80    4.30
  18   6   2   18.60    5.10
  18  -6  -2   16.20    5.60
 -18  -6   2   22.70    6.60
 -20  -6  -2  842.32   50.99
  20   6  -2  859.01   31.60
 -20   6   2  879.51   24.00
  20  -6   2  897.91   36.40
  20   6   2  913.01   30.40
 -20  -6   2  904.11   37.30
 -20  -6   2  911.71   28.70
  20  -6  -2  867.21   35.20
  22   6  -2   12.20    5.90
  22  -6   2   -2.00    5.50
 -22  -6  -2    8.50    6.60
  22  -6  -2    4.00    5.20
  22   6   2    5.60    5.70
 -22  -6   2   -6.00    5.30
 -22  -6   2   -0.60    4.80
  24  -6   2  683.23   32.90
  24   6  -2  583.64   27.20
  24   6   2  615.44   26.10
  24  -6  -2  609.04   30.40
   0  -8   2    0.20    1.50
   0  -8  -2   -0.40    1.30
   0  -8  -2    1.50    2.00
   0   8  -2    1.80    2.30
   0  -8   2    4.00    1.90
  -2  -8  -2 2477.15   56.39
   2   8  -2 2448.16   59.49
  -2  -8  -2 2535.65   61.99
   2   8  -2 2344.87   60.59
   2  -8   2 2890.91   69.49
   2   8  -2 2604.34   63.79
   2  -8   2 2877.31   65.49
   2   8   2 2881.31   64.39
  -2  -8   2 2898.11   69.39
  -2   8  -2 2357.96   57.29
   2  -8  -2 2513.55   58.99
   2  -8  -2 2494.65   58.59
  -4  -8  -2   34.10    5.20
   4  -8   2   39.30    4.80
   4   8  -2   35.20    4.20
   4  -8   2   26.10    2.80
   4  -8  -2   35.90    4.40
   4   8   2   36.50    3.20
   4  -8  -2   36.60    3.80
   4  -8  -2   25.90    3.70
  -4  -8   2   27.40    4.40
   4   8   2   37.70    3.20
   6   8  -2 1466.65   38.40
  -6  -8  -2 1461.25   43.40
   6  -8   2 1495.25   42.20
   6   8  -2 1448.96   38.50
   6  -8  -2 1516.75   39.70
   6   8   2 1462.65   34.50
   6  -8  -2 1482.55   35.50
  -6  -8   2 1540.25   43.70
   6   8   2 1462.95   34.60
   6  -8  -2 1456.65   40.50
   8   8  -2    3.50    1.80
  -8  -8  -2    2.50    3.20
   8   8  -2    7.00    3.10
   8  -8  -2    4.70    1.70
   8   8   2    5.00    2.10
   8   8   2    5.90    1.90
   8  -8  -2    7.90    3.40
   8  -8  -2    7.00    1.50
  10   8  -2 2243.48   54.69
  10  -8   2 2502.85   65.79
 -10  -8  -2 2222.68   62.09
 -10  -8   2 2424.06   67.19
  10   8   2 2475.65   56.19
  10  -8  -2 2120.89   45.90
  10  -8  -2 2155.18   58.59
  10   8   2 2466.75   55.89
  12   8  -2   70.99    6.90
 -12  -8  -2   67.49    8.90
  12  -8   2   64.89    7.90
 -12  -8   2   66.19    8.80
  12  -8  -2   50.09    6.70
  12   8   2   62.09    5.00
 -14  -8  -2  833.12   25.60
  14  -8   2  966.10   35.40
  14   8  -2  929.71   29.10
 -14  -8  -2  913.11   35.50
  14  -8  -2  924.61   33.40
  14   8   2  954.10   27.10
 -14  -8   2 1019.40   37.60
 -16  -8  -2   53.89    9.30
  16   8  -2   44.10    6.80
  16  -8   2   47.60    8.40
  16  -8  -2   46.90    7.40
  16  -8  -2   44.90    4.90
  16   8   2   55.29    6.10
 -16  -8   2   55.69    9.10
  18  -8   2  952.90   37.30
 -18  -8  -2  874.21   37.40
  18   8  -2  950.20   31.70
 -18  -8   2  903.71   37.80
  18   8   2  947.61   28.60
  18  -8  -2  920.81   36.50
 -20  -8  -2   12.40    7.60
  20   8  -2   10.80    5.40
  20  -8   2    4.80    6.20
 -20  -8   2   11.30    6.60
  20  -8  -2   25.70    7.10
  22   8  -2  504.25   23.70
  22  -8   2  661.83   32.00
 -22  -8  -2  549.45   29.60
  22  -8  -2  551.04   28.90
  22   8   2  698.43   25.70
 -22  -8   2  654.63   25.60
 -22  -8   2  649.54   32.50
   0 -10   2  825.92   26.10
   0 -10  -2 1029.40   29.00
   0 -10   2  859.01   27.20
   0  10   2  818.92   24.30
   0 -10  -2 1043.20   31.70
   2 -10   2  126.69    9.20
  -2 -10  -2  137.19    9.80
   2 -10   2  142.89    8.00
   2  10  -2  145.39    9.10
   2 -10  -2  139.09    8.80
  -2 -10   2  120.29    8.90
   2  10   2  136.99    7.60
   2 -10  -2  129.39    8.70
   2 -10  -2  136.09    8.50
   4 -10   2 2111.99   49.50
   4 -10   2 2178.88   56.89
   4  10  -2 2083.99   52.79
  -4 -10  -2 2136.39   57.39
   4  10   2 2160.58   49.80
   4  10   2 2153.88   49.60
   4 -10  -2 2056.29   50.69
   4 -10  -2 2047.60   53.39
  -4 -10   2 2066.39   56.99
   6  10  -2   68.59    6.30
   6 -10   2   62.09    7.20
  -6 -10  -2   80.59    8.90
   6 -10   2   69.39    3.10
   6 -10  -2   64.19    5.20
   6 -10  -2   64.59    5.10
   6 -10  -2   57.19    6.70
   6  10   2   76.19    5.00
  -6 -10   2   62.09    7.70
   6  10   2   67.79    7.00
  -8 -10  -2 1017.00   35.90
   8 -10   2  873.41   30.90
   8  10  -2  989.60   29.60
   8 -10  -2  922.71   27.00
  -8 -10   2  838.52   31.60
   8  10   2  809.12   22.00
   8 -10  -2  955.40   23.80
   8 -10  -2 1051.99   33.40
  10 -10   2   -0.50    3.20
 -10 -10  -2    0.30    4.00
  10  10  -2    3.00    2.70
  10  10   2    1.20    2.80
  10 -10  -2    2.20    2.80
 -10 -10   2   -1.10    3.10
 -12 -10  -2 1102.69   40.60
  12  10  -2 1130.59   33.20
  12 -10   2 1105.59   39.40
 -12 -10   2 1208.08   42.00
  12 -10  -2 1104.09   38.20
  12  10   2 1129.19   28.70
  14  10  -2   64.39    7.40
  14 -10   2   81.89    9.80
 -14 -10  -2   64.09    9.40
  14 -10  -2   57.99    8.40
 -14 -10   2   47.60    9.10
  14  10   2   58.29    5.50
  16 -10   2  856.31   35.00
  16 -10   2  808.42   22.60
 -16 -10  -2  673.13   32.20
  16  10  -2  696.43   25.10
  16 -10  -2  714.93   30.90
 -16 -10   2  809.32   35.50
 -18 -10  -2    0.10    4.90
  18 -10   2    2.70    4.80
  18  10   2    7.00    4.30
 -18 -10   2    3.60    5.70
  18 -10  -2   -2.50    5.20
 -20 -10  -2  468.35   27.40
  20 -10   2  423.86   25.20
  20 -10  -2  459.25   26.00
 -20 -10   2  464.65   27.50
  22 -10   2    0.20    7.20
  22  10  -2   12.90    7.90
 -22 -10   2    8.20    7.50
   0 -12   2    0.10    2.60
   0 -12  -2    5.40    3.50
   0 -12  -2   -0.20    2.30
   2  12  -2 1314.27   38.80
  -2 -12  -2 1272.77   40.70
   2 -12   2 1456.65   38.90
   2 -12   2 1380.86   42.20
   2  12   2 1450.15   37.80
   2 -12  -2 1375.06   38.50
  -2 -12   2 1437.86   44.80
   2 -12  -2 1351.96   38.10
  -4 -12  -2   25.70    6.00
   4  12  -2   30.30    5.40
   4 -12   2   13.80    3.00
   4 -12   2   24.30    5.50
   4 -12  -2   18.60    3.90
   4  12   2   25.80    4.30
  -4 -12   2   12.20    4.30
  -6 -12  -2 1166.68   39.40
   6  12  -2 1134.59   33.30
   6 -12   2 1334.97   42.70
   6 -12  -2 1074.89   29.50
  -6 -12   2 1362.86   43.90
   6 -12  -2 1109.99   35.80
   6  12   2 1404.26   34.10
  -8 -12  -2    3.00    4.50
   8 -12   2    5.40    3.80
   8  12  -2   -1.30    3.10
  -8 -12   2    3.20    4.90
   8 -12  -2   -1.70    3.10
   8  12   2    4.50    3.90
   8 -12  -2    7.60    2.80
  10  12  -2 1182.08   34.40
 -10 -12  -2 1178.78   42.70
  10 -12   2 1365.46   44.60
  10 -12  -2 1154.98   39.60
  10  12   2 1310.77   31.40
  10  12   2 1327.37   34.30
 -10 -12   2 1346.17   46.10
  12  12  -2    3.80    4.20
  12 -12   2    5.10    4.70
 -12 -12   2    4.10    5.10
  12 -12  -2    2.70    3.80
  14 -12   2  769.42   32.60
 -14 -12  -2  658.03   31.70
 -14 -12   2  703.83   33.30
  14 -12  -2  661.13   29.50
 -16 -12  -2   36.90    9.30
  16 -12   2   48.90    9.30
 -16 -12   2   57.99   10.60
  16 -12  -2   66.09   10.60
  18  12  -2  737.63   26.60
  18 -12   2  857.11   37.30
 -18 -12  -2  756.52   36.30
 -18 -12   2  802.62   37.90
  20 -12   2   30.70    9.50
 -20 -12  -2   35.90   10.80
 -20 -12   2   41.20   11.00
   0  14  -2  781.42   28.40
   0 -14  -2  762.12   28.00
   0 -14   2  733.43   26.30
   2  14  -2   10.50    4.50
   2 -14   2   -3.60    3.90
   2 -14   2   -4.90    3.50
  -2 -14  -2    8.10    4.40
  -2 -14   2    0.80    3.60
   2 -14  -2    6.50    3.90
   2  14   2    9.60    4.10
   2 -14  -2    5.30    3.60
   4 -14   2  843.52   31.70
   4  14  -2  821.12   28.10
  -4 -14  -2  760.82   31.00
   4 -14  -2  794.92   25.80
   4 -14  -2  810.92   28.90
   4  14   2  879.91   25.20
  -4 -14   2  834.32   32.00
   6  14  -2   23.70    5.40
   6 -14   2   19.40    5.90
  -6 -14  -2   19.00    5.70
   6 -14   2   16.00    2.70
  -6 -14   2   22.00    6.80
   6 -14  -2   22.90    6.30
   6  14   2   19.90    3.80
   8  14  -2  722.03   27.70
  -8 -14  -2  692.53   31.00
   8 -14   2  631.54   27.90
   8 -14  -2  659.63   27.80
  -8 -14   2  680.33   30.00
 -10 -14  -2   38.20    9.00
  10 -14   2   50.39    9.30
 -10 -14   2   36.20    8.90
  10 -14  -2   59.19   10.00
  12 -14   2  675.63   30.60
  12  14  -2  696.43   23.80
 -12 -14  -2  669.13   32.60
 -12 -14   2  645.14   31.90
  12 -14  -2  676.63   30.40
  14  14  -2   56.49    9.90
 -14 -14  -2   62.49   12.10
 -14 -14   2   47.20   10.60
 -16 -14  -2  513.05   29.80
 -16 -14   2  472.35   29.00
   0 -16  -2    2.80    5.50
   0  16  -2    5.60    5.60
  -2 -16  -2  736.13   29.60
   2  16  -2  701.93   27.40
  -2 -16   2  849.02   31.70
   2  16   2  825.12   26.40
  -2  16  -2  762.12   29.70
   4 -16   2   29.30    7.40
  -4 -16  -2   15.20    6.80
   4 -16  -2   26.60    6.20
   4  16   2   24.60    6.60
   4 -16  -2   36.80    7.30
  -4 -16   2   30.10    8.10
   6 -16   2  685.13   29.80
  -6 -16  -2  642.14   29.80
   6 -16  -2  625.54   26.70
  -6 -16   2  712.03   30.90
   8  16  -2   -2.00    5.70
   8 -16   2   -5.10    6.00
  -8 -16  -2    4.50    6.90
  -8 -16   2    9.60    6.70
   8 -16  -2   17.90    6.70
  10 -16   2  627.34   30.00
  10 -16  -2  575.34   27.50
  12 -16   2   -7.30    6.80
  12 -16  -2    9.60    7.40
   0 -18  -2  539.25   25.30
   2  18  -2  -18.30    8.10
  -2  18  -2    3.40    7.60
  -4  18  -2  409.86   23.90
  -4 -18   2  443.56   37.60
  -1  -1  -3 4322.37   88.79
  -1   1   3 3966.10   84.59
   1  -1   3 4130.29   85.69
   1   1  -3 4336.07   90.89
   1   1  -3 4069.99   90.59
   1  -1   3 4055.69   85.29
  -1   1   3 3936.41   85.59
  -1  -1  -3 4186.68   90.89
  -1  -1  -3 4318.77   88.79
   1  -1   3 4029.00   84.89
  -1  -1   3 3926.91   85.49
  -1   1  -3 4331.37   90.39
  -1   1  -3 4359.96   90.79
   1  -1  -3 4179.68   89.69
  -1   1  -3 4239.08   89.99
   3   1  -3  127.49    5.70
  -3   1   3   86.09    4.50
  -3  -1  -3  121.89    5.90
  -3   1   3   97.69    4.80
   3  -1   3   93.09    4.00
  -3  -1  -3  121.29    5.70
   3  -1   3   95.39    4.10
   3  -1   3   88.59    4.60
  -3   1  -3  116.09    4.60
  -3  -1   3   89.19    4.90
   3  -1  -3  123.49    5.40
  -3  -1   3   86.39    4.60
  -3   1  -3  123.79    4.80
  -3  -1   3   91.89    4.60
   3   1   3   89.79    3.60
  -3   1  -3  111.59    5.20
  -5   1   3 1994.70   47.20
   5   1  -3 2021.80   47.10
   5   1  -3 2035.50   46.90
  -5  -1  -3 1998.10   44.50
  -5   1   3 2060.89   46.80
  -5   1  -3 2021.10   44.90
  -5   1  -3 1968.40   45.10
  -5   1  -3 2054.09   43.70
  -5   1  -3 1997.90   46.30
  -5  -1   3 2082.39   46.20
   5  -1  -3 1978.80   44.60
  -5  -1   3 2036.10   47.30
  -5  -1   3 2065.49   47.90
   5  -1  -3 1951.70   45.80
   5   1   3 2040.90   45.20
   5  -1  -3 2008.90   46.90
   5   1   3 1929.11   47.50
   7   1  -3 2660.03   61.69
   7  -1   3 2885.01   65.89
  -7  -1  -3 2653.93   62.19
   7   1  -3 2613.14   61.89
  -7   1   3 2930.11   65.29
  -7   1   3 2728.93   66.09
  -7  -1  -3 2590.64   59.19
   7   1   3 2837.32   66.29
   7  -1  -3 2608.44   60.49
   7  -1  -3 2655.33   62.09
  -7   1  -3 2733.53   59.99
  -7  -1   3 2924.61   63.69
   7  -1  -3 2659.53   57.99
  -7  -1   3 2927.81   66.89
   7   1   3 2966.70   65.49
  -7  -1   3 2764.32   65.59
  -7   1  -3 2845.22   58.49
  -7   1  -3 2532.35   60.69
   9  -1   3 1271.57   33.80
   9   1  -3 1352.16   35.30
   9  -1   3 1220.68   31.90
  -9   1   3 1281.57   33.10
   9   1  -3 1313.07   35.30
  -9  -1  -3 1211.88   32.50
  -9   1   3 1230.18   34.10
  -9  -1  -3 1297.77   35.30
  -9  -1   3 1196.08   33.50
   9  -1  -3 1277.67   33.80
  -9   1  -3 1266.07   34.10
   9   1   3 1270.67   32.50
  -9  -1   3 1278.27   30.80
  -9   1  -3 1364.46   33.20
   9  -1  -3 1292.07   35.40
  -9  -1   3 1256.67   34.70
 -11   1   3  277.37   12.10
  11   1  -3  268.47   12.70
  11  -1   3  276.67   12.80
 -11  -1  -3  254.77   12.40
 -11  -1  -3  272.27   12.80
 -11   1  -3  257.67   11.30
 -11  -1   3  270.57   13.10
  11   1   3  254.27   12.60
  11  -1  -3  262.27   11.90
  11   1   3  251.87   11.40
  11  -1  -3  266.57   12.90
  13  -1   3  525.15   19.20
  13  -1   3  585.04   21.50
 -13   1   3  569.94   20.30
  13   1  -3  666.93   24.30
 -13  -1  -3  721.13   24.60
 -13   1  -3  689.43   22.40
  13   1   3  565.94   20.20
 -13  -1   3  575.74   21.80
 -13  -1   3  569.24   17.90
  13  -1  -3  699.03   25.00
 -15  -1  -3  874.61   19.80
  15   1  -3  934.21   30.70
 -15  -1  -3  894.71   29.90
 -15   1   3  906.11   29.20
  15  -1  -3  890.21   30.90
 -15   1  -3  866.01   27.60
  15   1   3  907.81   29.60
 -15  -1   3  932.51   31.10
 -17  -1  -3  173.08   12.20
 -17   1   3  294.47   15.20
  17   1  -3  171.98   12.20
  17  -1   3  295.87   16.10
  17  -1  -3  186.98   13.10
 -17  -1   3  312.37   16.80
 -17   1  -3  192.88   11.60
  17   1   3  297.17   15.50
  19  -1   3  460.45   22.20
  19   1  -3  541.65   24.30
 -19   1   3  507.85   21.90
 -19  -1  -3  555.34   23.70
 -19  -1   3  511.95   22.90
  19   1   3  508.95   22.20
 -19   1  -3  532.75   21.50
  19  -1  -3  485.25   23.60
 -21  -1  -3  430.16   21.70
  21  -1   3  375.96   20.60
 -21   1   3  371.26   18.90
  21   1  -3  433.16   22.40
 -21  -1   3  385.76   20.70
  21  -1  -3  436.16   22.70
  21   1   3  386.36   19.80
 -21   1  -3  429.06   19.70
  23  -1   3  208.38   15.90
 -23   1   3  240.18   15.70
 -23  -1  -3  187.28   15.20
  23   1  -3  210.48   16.50
 -23  -1   3  262.87   18.10
 -23   1  -3  210.68   14.60
  23   1   3  217.68   16.20
  23  -1  -3  186.08   16.10
  25  -1   3  139.69   15.10
 -25   1   3  142.29   16.20
  25   1   3  141.39   14.80
 -25  -1   3  103.79   19.60
 -25   1  -3  129.69   13.80
  -1   3   3 2027.30   45.90
   1   3  -3 1921.51   44.50
  -1  -3  -3 1929.71   40.40
  -1  -3  -3 1959.60   44.90
  -1   3   3 1990.30   44.00
  -1  -3  -3 1941.31   45.40
   1  -3   3 1995.20   44.40
   1   3  -3 1899.11   44.00
  -1   3  -3 1916.61   42.70
  -1   3  -3 1894.11   44.60
  -1  -3   3 1967.90   45.70
   1  -3  -3 1875.11   43.80
   1   3   3 2024.90   42.10
   1  -3  -3 1920.71   42.30
   3  -3   3  757.02   17.40
  -3   3   3  742.63   19.50
  -3   3   3  726.73   19.20
   3  -3   3  723.13   20.80
   3   3  -3  425.26   15.10
   3   3  -3  439.06   14.20
  -3  -3   3  707.03   19.90
   3  -3  -3  425.66   13.00
   3  -3  -3  435.76   12.80
  -3  -3   3  744.73   21.00
  -3   3  -3  417.36   13.80
   5   3  -3  683.13   21.20
  -5  -3  -3  721.73   22.00
  -5   3   3  552.34   17.40
   5   3  -3  712.43   20.30
  -5   3   3  605.14   16.40
   5  -3   3  586.94   18.50
  -5  -3  -3  685.53   16.30
   5  -3  -3  700.63   18.70
  -5   3  -3  702.73   20.70
  -5  -3   3  597.44   17.70
   5   3   3  590.54   14.00
  -5   3  -3  696.63   16.40
  -5   3  -3  727.03   16.20
  -5  -3   3  602.14   19.10
   5   3   3  573.64   19.10
   5  -3  -3  678.53   20.20
   7   3  -3 2436.16   57.89
  -7   3   3 2374.86   57.09
  -7  -3  -3 2445.86   53.99
  -7  -3  -3 2546.95   60.69
   7  -3   3 2392.96   57.89
  -7   3   3 2449.85   54.49
   7  -3   3 2393.96   52.39
   7   3  -3 2399.46   59.59
  -7   3  -3 2443.16   52.99
   7  -3  -3 2519.15   58.99
   7  -3  -3 2402.66   55.39
  -7   3  -3 2549.44   53.59
  -7  -3   3 2355.86   55.99
  -7   3  -3 2404.26   58.49
   7   3   3 2375.56   52.69
  -7  -3   3 2417.06   58.79
   7   3   3 2367.86   58.69
   9  -3   3  491.75   18.20
  -9  -3  -3  507.05   19.40
   9   3  -3  524.15   17.80
  -9  -3  -3  508.45   15.10
   9  -3   3  491.15   12.50
  -9   3   3  506.15   15.60
  -9   3  -3  521.35   14.00
   9  -3  -3  493.95   15.80
   9  -3  -3  490.35   14.20
  -9  -3   3  476.15   18.80
   9  -3  -3  500.55   18.50
  -9  -3   3  484.95   17.20
   9   3   3  495.25   15.00
  11   3  -3  563.34   19.70
 -11  -3  -3  540.25   21.00
 -11  -3  -3  507.95   16.60
 -11   3   3  596.84   19.00
  11  -3   3  604.14   22.10
  11  -3  -3  498.15   17.70
 -11  -3   3  607.74   23.00
  11  -3  -3  504.25   14.10
  11  -3  -3  544.95   20.50
  11   3   3  635.54   19.20
 -11   3  -3  534.05   15.50
  13   3  -3 1249.97   36.70
  13  -3   3 1169.48   36.60
 -13  -3  -3 1247.08   38.80
 -13  -3   3 1232.08   32.20
  13   3   3 1185.28   32.90
  13  -3  -3 1299.67   39.30
 -13  -3   3 1195.68   37.80
  13  -3  -3 1176.68   33.50
 -13   3  -3 1280.87   31.90
 -15  -3  -3 1500.75   45.30
  15   3  -3 1481.85   43.40
 -15   3   3 1584.54   42.00
  15  -3   3 1614.14   47.00
 -15  -3   3 1541.65   47.30
  15   3   3 1575.74   42.80
 -15   3  -3 1480.45   38.00
  15  -3  -3 1503.85   45.20
 -15  -3   3 1578.14   40.20
 -17  -3  -3  612.54   25.60
  17  -3   3  584.44   25.10
 -17   3   3  622.04   21.80
  17   3  -3  562.94   23.40
 -17  -3   3  595.94   19.10
  17  -3  -3  583.84   25.00
  17   3   3  615.94   22.70
 -17  -3   3  547.95   25.10
 -17   3  -3  563.64   19.20
  19  -3   3  570.54   25.60
 -19   3   3  561.54   21.80
  19   3  -3  569.74   24.40
 -19  -3  -3  567.14   25.50
 -19  -3   3  577.14   18.00
 -19  -3   3  566.94   26.30
  19  -3  -3  536.35   25.20
  19   3   3  601.64   23.40
 -19   3  -3  539.35   19.30
 -21  -3  -3  211.08   16.00
 -21   3   3  284.27   15.20
  21   3  -3  220.58   15.50
  21  -3   3  267.07   18.10
  21  -3  -3  254.57   17.70
 -21   3  -3  219.78   12.30
  21   3   3  282.47   16.10
 -21  -3   3  266.17   18.10
  23   3  -3  475.35   24.40
 -23   3   3  532.45   23.00
 -23  -3  -3  489.95   25.90
  23  -3   3  554.04   27.50
 -23  -3   3  594.24   28.60
  23  -3  -3  490.45   25.80
  23   3   3  579.94   25.50
 -23   3  -3  508.85   28.40
  25   3  -3  354.46   27.20
 -25   3   3  359.06   19.10
 -25  -3  -3  354.66   22.10
 -25  -3   3  368.56   22.90
  25   3   3  352.96   21.10
  25  -3  -3  398.76   24.20
  -1  -5  -3 1052.69   29.10
   1   5  -3 1037.60   27.90
  -1  -5  -3 1052.09   24.30
   1  -5   3 1093.89   29.60
  -1   5   3 1077.39   26.50
   1   5  -3 1101.09   28.40
   1  -5   3 1118.69   27.20
   1  -5  -3 1053.19   27.70
   1   5   3 1083.69   25.00
   1  -5  -3 1039.80   28.00
  -1   5  -3 1038.40   26.80
  -1   5  -3 1061.49   28.60
   1  -5  -3 1053.89   25.80
  -1  -5   3 1097.59   28.70
   3  -5   3 2114.29   44.80
  -3  -5  -3 1981.80   50.49
  -3   5   3 2014.30   47.60
   3  -5   3 2053.29   49.99
   3   5  -3 2090.29   48.70
   3   5  -3 1974.80   49.50
   3   5  -3 1960.80   48.30
   3   5   3 2056.39   42.60
  -3  -5   3 2029.40   49.80
   3  -5  -3 2037.30   46.90
  -3   5  -3 2067.49   49.70
   3  -5  -3 2049.20   47.50
  -3   5  -3 2035.40   44.80
   3   5   3 2061.99   43.80
   3   5   3 1883.01   52.49
  -5   5   3  404.06   19.50
  -5   5   3  355.96   11.50
  -5  -5  -3  490.65   18.50
   5  -5   3  332.87   14.00
   5   5  -3  482.75   16.00
   5  -5   3  339.07    7.70
   5   5  -3  479.85   17.70
  -5  -5   3  344.27   14.40
   5   5   3  326.07   14.50
   5  -5  -3  477.95   14.30
  -5  -5   3  325.27   12.60
   5   5   3  360.16    8.30
  -5   5  -3  479.55   10.70
   5   5   3  339.57    8.20
  -5   5  -3  465.15   16.90
   5  -5  -3  488.35   16.30
  -7   5   3 1023.10   25.70
  -7  -5  -3 1022.70   23.70
   7   5  -3 1053.99   28.80
   7  -5   3 1019.00   30.50
  -7   5   3  981.10   29.30
  -7  -5  -3  993.50   31.50
   7  -5  -3 1010.40   29.50
   7   5   3 1033.80   23.60
  -7  -5   3 1024.70   28.30
  -7  -5   3 1002.80   31.10
  -9  -5  -3  505.25   21.10
   9   5  -3  547.05   18.80
  -9  -5  -3  522.95   14.90
   9  -5   3  555.04   21.30
   9  -5  -3  566.24   20.30
   9  -5  -3  531.55   15.70
  -9  -5   3  610.94   22.60
   9   5   3  560.44   15.80
 -11  -5  -3  623.14   18.10
 -11   5   3  644.24   18.50
  11  -5   3  596.44   23.60
  11   5  -3  634.84   21.50
  11  -5   3  649.93   16.70
 -11  -5  -3  603.94   24.40
  11  -5  -3  596.24   22.80
 -11  -5   3  626.14   24.80
  11   5   3  636.44   18.50
  11  -5  -3  589.54   17.90
  13  -5   3  270.37   15.00
  13   5  -3  321.37   15.10
 -13   5   3  269.17   10.90
 -13  -5  -3  308.37   12.70
 -13  -5  -3  355.56   18.30
 -13  -5   3  316.07   16.90
  13  -5  -3  314.87   10.60
  13  -5  -3  346.57   12.50
  13   5   3  253.07   11.10
  13  -5  -3  318.27   16.40
  15  -5   3  368.96   18.90
 -15   5   3  344.87   13.40
  15   5  -3  346.67   16.30
 -15  -5  -3  314.77   18.00
 -15  -5   3  363.96   19.70
 -15   5  -3  325.77    8.90
  15   5   3  341.97   14.30
  15  -5  -3  333.27   17.80
  17  -5   3  144.49   12.10
  17   5  -3  269.97   15.20
 -17  -5  -3  267.97   17.30
 -17   5   3  152.28    8.90
 -17   5  -3  253.07    8.30
 -17  -5   3  152.78    9.80
  17   5   3  171.38   10.30
  17  -5  -3  249.68   16.40
 -17  -5   3  150.68   13.10
 -17   5  -3  250.17    8.40
  19  -5   3  242.28   16.70
 -19   5   3  233.58   11.60
 -19  -5  -3  253.67   17.60
  19   5  -3  243.18   15.10
  19   5   3  235.38   13.40
  19  -5  -3  263.37   17.40
 -19   5  -3  238.08    8.60
 -19  -5   3  220.18   16.60
 -19  -5   3  225.68   12.00
  21   5  -3  333.87   18.90
 -21   5   3  308.47   14.10
  21  -5   3  310.57   20.40
 -21  -5  -3  339.87   23.90
  21  -5  -3  327.57   21.00
 -21  -5   3  310.77   20.60
 -21  -5   3  294.87   13.70
  21   5   3  330.07   17.00
  23   5  -3  311.47   19.80
 -23  -5  -3  348.57   22.00
  23  -5   3  308.07   21.40
 -23  -5   3  306.07   21.40
  23  -5  -3  358.76   22.60
  23   5   3  355.26   18.50
 -25  -5  -3   29.50    9.20
  25   5  -3   16.50    7.80
 -25  -5   3   22.50    9.40
   1  -7   3 1049.49   30.20
   1  -7   3 1044.50   27.70
  -1   7   3 1043.80   27.20
  -1  -7  -3 1080.39   26.60
  -1  -7  -3 1154.58   32.00
  -1   7  -3 1041.30   30.50
  -1   7  -3 1068.89   28.80
   1   7   3 1013.10   25.50
   1  -7  -3 1053.59   31.60
  -1  -7   3 1083.59   29.50
   1  -7  -3 1094.69   28.00
   1  -7  -3 1113.79   30.50
  -1  -7   3 1029.60   29.80
  -3  -7  -3 1327.97   37.70
   3   7  -3 1295.87   36.60
   3  -7   3 1266.27   30.50
   3  -7   3 1285.27   35.70
  -3   7   3 1262.87   35.30
   3   7  -3 1336.07   35.20
   3   7   3 1265.77   28.90
   3  -7  -3 1286.17   40.40
   3  -7  -3 1294.77   34.00
   3  -7  -3 1312.47   34.10
  -3  -7   3 1256.07   35.40
   5  -7   3  453.95   17.90
   5   7  -3  443.96   16.40
   5  -7   3  433.46   10.80
  -5  -7  -3  477.35   19.30
   5   7  -3  437.36   16.00
  -5   7   3  385.56   16.80
   5  -7  -3  442.36   16.40
   5   7   3  433.36   10.90
   5  -7  -3  455.35   14.40
   5  -7  -3  426.16   14.60
  -5  -7   3  454.45   18.20
   7   7  -3 1626.64   42.40
  -7  -7  -3 1638.14   47.00
   7  -7   3 1629.14   45.40
   7  -7  -3 1582.94   38.40
   7  -7  -3 1664.13   44.00
   7   7   3 1605.64   35.50
  -7  -7   3 1625.24   46.10
   7  -7  -3 1643.54   39.50
   7   7   3 1617.14   35.60
   9   7  -3  818.22   25.20
   9  -7  -3  784.72   26.90
   9   7   3  850.51   21.20
   9  -7  -3  765.12   20.50
   9   7   3  884.51   21.50
 -11  -7  -3 1027.30   35.40
 -11  -7  -3  926.51   24.50
 -11   7   3 1024.90   25.60
  11   7  -3  951.00   29.40
  11  -7   3 1011.20   34.40
  11  -7  -3  977.60   32.40
  11   7   3 1008.90   31.40
 -11  -7   3 1047.80   35.80
  11  -7  -3  939.71   24.00
 -13  -7  -3  588.94   25.90
 -13   7   3  630.94   17.20
  13  -7   3  624.14   19.40
 -13  -7  -3  466.25   19.70
  13   7  -3  592.64   21.60
  13  -7   3  596.94   25.50
  13  -7  -3  571.64   23.90
 -13  -7   3  645.94   27.60
  13   7   3  604.74   18.50
 -15   7   3  660.33   19.60
  15   7  -3  579.34   22.60
  15  -7   3  610.64   27.00
 -15  -7  -3  558.14   26.30
  15   7   3  638.44   20.30
  15  -7  -3  594.04   25.80
 -15  -7   3  680.93   29.30
  17  -7   3  454.15   23.20
 -17  -7  -3  500.85   25.50
  17   7  -3  516.85   21.60
 -17  -7   3  418.76   23.40
  17   7   3  453.35   17.10
  17  -7  -3  479.35   14.40
  17  -7  -3  503.75   24.60
 -19  -7  -3  446.06   24.90
  19  -7   3  508.25   25.70
  19   7  -3  369.46   19.10
 -19  -7   3  505.55   26.70
  19  -7  -3  410.16   22.40
  19   7   3  506.15   19.50
 -21  -7  -3  308.57   21.40
  21   7  -3  332.67   18.90
  21  -7   3  337.77   22.10
  21  -7  -3  344.27   21.80
 -21  -7   3  326.87   22.40
 -21  -7   3  327.57   16.80
 -23  -7  -3  374.26   36.50
  23   7  -3  440.66   22.90
  23  -7   3  390.56   25.70
  23  -7  -3  410.66   24.50
  23   7   3  410.96   19.70
  -1  -9  -3  643.34   18.70
  -1  -9  -3  645.94   23.10
   1  -9   3  686.53   21.50
   1  -9   3  693.53   23.90
  -1  -9   3  679.93   22.90
   1  -9  -3  621.54   19.60
   1  -9  -3  637.94   21.60
   1  -9  -3  637.54   22.00
  -1   9  -3  644.64   20.80
   3  -9   3  466.05   18.60
  -3   9   3  409.26   15.90
   3   9  -3  424.96   16.80
   3  -9   3  435.86   14.40
  -3  -9  -3  453.25   19.10
   3  -9  -3  422.66   15.90
   3  -9  -3  438.26   16.30
   3   9   3  436.96   13.00
   3  -9  -3  452.85   16.50
  -3   9  -3  421.16   14.70
  -3  -9   3  442.46   18.10
   3   9   3  454.25   13.30
   5  -9   3  599.84   23.20
   5   9  -3  553.04   19.90
   5  -9   3  617.04   16.00
  -5  -9  -3  530.65   22.40
   5  -9  -3  565.14   18.20
   5   9   3  622.44   16.00
   5   9   3  624.64   15.90
  -5  -9   3  626.54   23.80
   5  -9  -3  543.25   17.60
   5  -9  -3  586.24   20.50
  -7  -9  -3  852.91   31.30
   7  -9   3  751.82   27.30
   7   9  -3  875.61   27.10
   7   9   3  734.53   17.80
   7  -9  -3  828.22   23.10
   7  -9  -3  886.41   23.80
   7  -9  -3  891.51   28.70
  -7  -9   3  741.03   27.80
   9   9  -3  124.69    8.50
  -9  -9  -3  131.49   11.40
   9  -9   3   67.19    7.90
   9  -9  -3  127.79    9.80
   9   9   3   70.99    3.60
   9  -9  -3  114.69    5.90
   9  -9  -3  118.09    5.90
  -9  -9   3   78.99    8.90
  11   9  -3  605.44   22.00
 -11  -9  -3  581.94   26.60
  11  -9   3  531.45   24.10
  11  -9  -3  606.94   24.60
  11   9   3  561.14   14.90
 -11  -9   3  550.74   25.30
  11  -9  -3  597.04   14.50
  13  -9   3  690.63   29.20
 -13  -9  -3  724.83   31.20
  13   9  -3  713.83   25.50
  13   9   3  701.53   21.30
  13  -9  -3  727.03   28.90
 -13  -9   3  780.72   32.00
  15   9  -3  367.06   17.10
  15  -9   3  316.87   19.20
 -15  -9  -3  303.37   20.00
  15  -9   3  322.07   11.70
  15   9   3  313.17   11.70
  15  -9  -3  365.66   20.10
 -15  -9   3  346.97   21.00
  17  -9   3  163.68   15.10
 -17  -9  -3  233.18   17.60
  17   9  -3  225.68   14.30
  17  -9  -3  266.57   18.00
 -17  -9   3  183.68   16.40
  19  -9   3  353.26   22.70
  19   9  -3  335.67   18.30
 -19  -9  -3  337.07   22.30
  19   9   3  366.16   15.20
  19  -9  -3  339.77   21.40
 -19  -9   3  387.46   23.80
  21  -9   3  221.78   17.80
  21   9  -3  135.09   14.00
 -21  -9  -3  147.49   15.30
 -21  -9   3  148.69   13.30
 -21  -9   3  170.48   16.60
  21  -9  -3  144.89   15.40
  23  -9   3  196.88   17.90
 -23  -9   3  160.48   18.10
  23  -9  -3  107.59   15.30
   1  11  -3  665.63   23.90
  -1 -11  -3  614.44   19.60
   1 -11   3  712.53   23.00
   1 -11   3  642.14   27.40
  -1 -11  -3  642.04   24.10
   1  11   3  662.93   20.70
   1 -11  -3  628.64   22.90
   1 -11  -3  588.94   20.40
  -1 -11   3  707.13   24.20
  -3 -11  -3  622.54   25.30
   3  11  -3  702.63   24.10
   3 -11   3  573.24   23.30
   3 -11   3  644.94   19.50
  -3 -11   3  600.34   23.50
   3 -11  -3  653.03   22.50
   3  11   3  594.34   17.70
   3 -11  -3  653.93   22.50
   3  11   3  584.64   17.70
   5  11  -3  525.45   20.40
  -5 -11  -3  550.74   24.10
   5 -11   3  551.94   16.00
   5 -11   3  558.64   23.40
   5  11   3  587.64   16.00
  -5 -11   3  586.74   23.90
   5 -11  -3  532.95   18.50
   5 -11  -3  540.35   20.80
   7  11  -3  434.26   18.10
  -7 -11  -3  467.75   22.90
   7 -11   3  472.75   21.50
   7 -11  -3  482.05   20.30
   7 -11  -3  458.15   15.30
  -7 -11   3  476.95   22.20
   7  11   3  440.96   12.00
  -9 -11  -3  398.46   21.80
   9 -11   3  458.55   21.90
   9  11  -3  375.66   16.70
  -9 -11   3  452.15   22.80
   9 -11  -3  400.56   19.20
  11 -11   3  546.95   25.80
 -11 -11  -3  510.65   26.20
  11  11  -3  548.85   21.40
 -11 -11   3  574.14   27.00
  11 -11  -3  544.55   24.10
 -13 -11  -3  236.98   18.10
  13  11  -3  236.98   13.40
  13 -11   3  283.97   18.40
  13 -11  -3  217.28   15.70
 -13 -11   3  287.97   19.10
  15  11  -3  375.76   17.90
  15 -11   3  308.07   20.10
 -15 -11  -3  460.65   25.40
  15 -11  -3  369.96   21.50
 -15 -11   3  365.86   22.20
  17 -11   3  120.79   12.90
 -17 -11  -3  125.99   14.20
  17 -11  -3  120.19   13.70
 -17 -11   3   99.89   13.60
  19 -11   3  430.16   25.70
 -19 -11  -3  366.26   24.60
  19  11  -3  369.96   19.20
  19 -11  -3  380.86   23.30
 -19 -11   3  400.66   25.70
  21  11  -3  381.36   22.10
  21 -11   3  308.97   22.50
 -21 -11  -3  336.67   24.70
 -21 -11   3  324.17   24.10
  21 -11  -3  331.17   26.30
   1 -13   3  413.76   17.40
   1  13  -3  546.25   22.40
   1 -13   3  403.96   19.30
  -1 -13  -3  547.75   23.00
  -1 -13   3  450.55   21.90
   1  13   3  415.96   16.00
   1 -13  -3  509.05   19.50
   3 -13   3  334.27   14.10
   3 -13   3  361.86   18.40
  -3 -13  -3  343.77   18.70
   3  13  -3  348.57   16.90
   3 -13  -3  341.97   18.50
   3 -13  -3  365.96   16.30
  -3 -13   3  366.56   18.20
   3  13   3  341.27   13.00
  -5 -13  -3  557.64   25.30
   5  13  -3  570.64   22.10
   5 -13   3  679.23   27.40
   5 -13   3  616.74   18.50
  -5 -13   3  679.43   27.50
   5  13   3  684.23   21.30
   5  13   3  638.44   18.60
   5 -13  -3  608.04   23.40
   5 -13  -3  548.95   19.90
   7  13  -3  706.93   24.40
   7 -13   3  621.94   26.50
  -7 -13  -3  631.34   28.10
   7 -13  -3  602.64   21.20
   7  13   3  566.44   14.00
  -7 -13   3  622.64   27.30
   7 -13  -3  586.34   24.70
  -9 -13  -3  364.96   21.50
   9 -13   3  309.87   18.90
   9  13  -3  372.86   16.70
  -9 -13   3  304.67   19.30
   9 -13  -3  302.77    9.10
   9 -13  -3  340.67   18.70
 -11 -13  -3  382.46   23.10
  11 -13   3  377.36   21.60
  11  13  -3  364.16   17.60
  11 -13  -3  383.36   20.90
 -11 -13   3  365.36   22.30
 -13 -13  -3  210.08   18.00
  13 -13   3  216.48   16.30
 -13 -13   3  205.88   17.20
  13 -13  -3  217.18   16.30
  15 -13   3  538.85   27.80
  15  13  -3  496.25   21.30
 -15 -13  -3  423.96   26.50
 -15 -13   3  520.65   29.00
  15 -13  -3  488.65   25.60
 -17 -13  -3  167.98   17.60
  17 -13   3  229.18   21.00
  17  13  -3  199.88   15.00
 -17 -13   3  198.98   18.40
   1 -15   3  383.76   17.70
   1  15  -3  386.66   19.20
  -1 -15  -3  357.76   19.40
  -1 -15   3  443.06   20.00
  -1  15  -3  379.96   19.90
   1 -15  -3  377.26   18.50
   3  15  -3  352.26   17.40
   3 -15   3  388.96   20.90
  -3 -15  -3  312.67   19.10
   3  15   3  402.76   15.30
   3 -15  -3  333.57   16.40
  -3 -15   3  425.86   21.00
   5  15  -3  344.27   17.30
   5 -15   3  284.67   17.80
  -5 -15  -3  309.87   19.70
   5 -15  -3  365.76   25.50
  -5 -15   3  262.67   17.90
   7 -15   3  278.77   18.30
  -7 -15  -3  279.27   19.00
   7 -15  -3  239.18   13.40
   7 -15  -3  249.28   16.20
  -9 -15  -3   98.19   12.90
   9 -15   3  122.59   12.70
   9 -15  -3  107.79   13.70
  -9 -15   3   97.79   12.90
  11 -15   3  260.67   21.50
  11  15  -3  285.57   15.80
 -11 -15   3  309.07   32.90
  11 -15  -3  306.67   19.20
 -13 -15  -3  383.06   24.70
  13 -15  -3  336.07   21.80
 -15 -15  -3  185.58   18.40
  15 -15  -3  165.58   16.40
  -1  17   3  255.77   15.30
   1 -17   3  253.17   15.30
   1  17  -3  311.17   18.60
  -1 -17  -3  249.48   18.00
  -3 -17  -3  273.47   18.60
   3  17  -3  223.08   15.30
  -3  17  -3  222.38   18.30
  -3 -17   3  238.68   18.20
   3 -17  -3  229.28   15.10
  -5 -17  -3  195.48   16.20
   5 -17   3  163.88   15.20
   5  17  -3  194.08   14.70
  -5 -17   3  179.28   16.90
   5 -17  -3  208.58   15.40
  -7 -17  -3  283.27   20.40
   7 -17   3  297.07   20.00
  -7 -17   3  298.87   21.00
   7 -17  -3  248.48   18.10
   9 -17   3  293.67   20.30
  -9 -17   3  283.77   21.00
   9 -17  -3  269.07   19.30
   0   0  -4 1520.55   34.60
   0   0   4 2029.10   45.80
   0   0  -4 1520.15   35.20
   0   0  -4 1493.75   35.20
   0   0   4 2107.49   46.90
   2   0  -4    1.30    1.00
  -2   0  -4    3.70    1.00
   2   0  -4   -0.70    0.70
  -2   0  -4    4.70    1.10
  -2   0  -4    2.80    1.00
  -2   0   4    1.60    1.00
  -2   0   4    1.20    1.00
   2   0   4    0.70    0.70
  -2   0   4    0.20    0.70
   2   0   4    1.30    0.90
   2   0  -4    1.20    0.80
  -4   0  -4 2850.71   63.09
  -4   0   4 2757.02   64.59
  -4   0   4 2835.02   61.69
   4   0  -4 2889.51   63.59
   4   0  -4 2867.71   64.69
  -4   0  -4 2852.81   63.99
  -4   0   4 2731.43   62.29
  -4   0  -4 2958.20   63.09
   4   0   4 2747.03   61.09
   4   0  -4 2869.91   64.69
  -6   0   4    1.20    1.10
  -6   0   4    2.90    1.80
   6   0  -4   -0.10    1.00
   6   0  -4    1.00    1.00
  -6   0   4    0.70    1.10
  -6   0  -4   -0.40    1.10
   6   0   4    3.40    1.60
   6   0  -4   -1.10    1.20
  -6   0  -4    0.30    1.10
  -6   0  -4    1.50    1.00
  -8   0  -4 2130.29   52.49
  -8   0   4 2441.46   54.39
  -8   0  -4 2330.77   50.09
  -8   0   4 2250.57   55.79
  -8   0   4 2265.37   55.99
   8   0   4 2341.97   54.69
  -8   0  -4 2312.47   54.19
   8   0  -4 2252.77   54.89
 -10   0   4   -0.80    1.20
  10   0  -4    1.40    1.90
  10   0  -4    2.30    2.00
 -10   0  -4    3.60    2.20
 -10   0  -4   -0.60    1.00
  10   0   4    4.50    1.90
 -10   0  -4    2.30    1.90
 -12   0  -4  814.22   19.30
  12   0   4  668.43   22.40
 -12   0  -4  811.22   25.80
 -12   0   4  699.53   23.60
  12   0   4  623.64   22.50
  12   0  -4  824.82   27.30
 -14   0  -4    3.20    2.60
  14   0   4    1.40    2.10
  14   0  -4    1.40    2.50
 -14   0   4    3.70    2.60
  16   0   4 1873.61   51.59
 -16   0  -4 2025.50   54.69
  16   0  -4 2093.69   57.49
 -18   0   4   -0.30    3.10
 -18   0  -4   -1.50    3.30
  18   0   4   -2.80    3.00
  18   0  -4   -0.30    3.00
 -20   0  -4  821.42   30.00
  20   0  -4  836.12   33.00
  20   0   4  688.33   27.70
 -20   0   4  657.33   27.40
 -22   0  -4   -1.00    4.70
  22   0   4    1.10    5.00
 -22   0   4    4.40    5.00
  22   0  -4   -2.40    4.80
 -24   0  -4  712.83   28.90
  24   0  -4  663.33   33.40
  24   0   4  724.63   31.30
 -26   0   4   -7.30    7.50
  26   0   4   11.60    7.90
 -26   0  -4    0.00    7.50
   0   2   4    1.40    0.70
   0   2   4    0.40    0.80
   0  -2   4    1.90    1.10
   0   2  -4    3.50    1.20
   0  -2   4    0.00    0.80
   0   2  -4    0.60    0.70
   0  -2  -4    0.50    0.80
   0  -2  -4   -0.10    0.50
  -2   2   4 9032.20  184.28
  -2  -2   4 8610.44  185.48
  -2   2  -4 9759.02  204.88
   4  -2   4  341.67   12.30
   4   2  -4  328.17   12.20
  -4   2   4  339.27   11.70
  -4  -2  -4  337.77   12.50
   4  -2   4  344.67   10.30
  -4   2   4  342.87   11.70
  -4  -2  -4  327.87   12.50
   4  -2   4  349.96   10.80
  -4  -2   4  337.47   12.00
   4  -2  -4  350.36   11.50
   4  -2  -4  328.27   11.40
  -4   2  -4  322.67    9.80
  -4   2  -4  351.56   12.10
   4   2   4  340.27    9.20
   6  -2   4 4414.86   98.49
   6  -2   4 4441.36   94.69
  -6   2   4 4520.25   97.29
  -6  -2  -4 4513.65  101.59
  -6  -2  -4 4513.15   96.09
  -6   2   4 4295.07   97.99
   6   2  -4 4579.64  103.49
   6   2  -4 4522.45  100.29
  -6   2  -4 4545.45   97.19
   6  -2  -4 4511.55  100.39
  -6  -2   4 4437.06   97.29
  -6   2  -4 4724.83   96.79
  -6   2  -4 4453.95   99.89
   6   2   4 4501.75   94.59
  -6  -2   4 4532.85   99.59
  -6  -2   4 4362.66   97.99
   6  -2  -4 4436.46   98.69
   8   2  -4  526.45   18.70
  -8   2   4  560.74   17.50
  -8  -2  -4  535.55   19.10
   8  -2   4  520.15   18.30
  -8  -2  -4  508.65   15.20
  -8   2   4  540.65   18.60
   8   2  -4  556.64   18.50
  -8  -2   4  531.25   18.10
  -8  -2   4  573.14   19.70
   8  -2  -4  538.15   18.50
   8   2   4  473.45   18.30
   8  -2  -4  512.75   15.10
  -8   2  -4  536.85   15.70
  -8  -2   4  538.85   16.90
  -8   2  -4  536.75   15.30
   8  -2  -4  518.45   16.80
  -8   2  -4  513.75   17.60
 -10  -2  -4 3630.64   85.39
  10  -2   4 3444.96   81.89
  10   2  -4 3615.74   84.19
 -10  -2  -4 3456.45   79.99
 -10   2   4 3554.84   79.99
 -10   2  -4 3667.83   79.99
 -10  -2   4 3483.85   83.19
 -10  -2   4 3470.35   78.49
  10   2   4 3450.55   78.29
  10  -2  -4 3712.63   85.19
  10  -2  -4 3490.25   84.19
  10  -2  -4 3517.55   81.89
 -10   2  -4 3717.93   80.39
  12  -2   4    2.50    2.00
  12   2  -4    5.00    2.60
 -12  -2  -4    3.60    2.40
 -12  -2  -4   -0.10    2.00
 -12   2   4    6.50    2.50
 -12  -2   4    6.30    2.30
  12   2   4    4.50    2.50
  12  -2  -4    2.20    2.80
  12  -2  -4    7.10    3.20
 -12  -2   4    4.50    3.00
 -12   2  -4    4.10    2.10
 -14   2   4 1669.53   44.60
 -14  -2  -4 1699.33   48.90
  14  -2   4 1544.95   50.39
  14   2  -4 1745.03   62.09
 -14   2  -4 1734.63   53.59
 -14  -2   4 1661.33   52.19
  14  -2  -4 1735.03   49.40
  14   2   4 1685.13   44.20
 -14  -2   4 1700.53   41.40
 -16  -2  -4   24.30    5.50
 -16   2   4   15.40    4.30
  16  -2   4   23.80    5.90
  16   2  -4   23.60    5.40
 -16  -2   4   22.70    4.10
 -16  -2   4   28.90    6.20
  16  -2  -4   13.00    4.80
 -16   2  -4   21.60    4.30
  16   2   4   18.30    4.50
 -18  -2  -4 1579.24   48.30
  18   2  -4 1564.94   48.20
  18  -2   4 1560.64   48.20
 -18   2  -4 1626.94   43.50
  18   2   4 1581.14   45.60
 -18  -2   4 1627.44   49.50
  18  -2  -4 1582.34   49.50
 -20  -2  -4   24.10    6.20
  20  -2   4   27.50    6.60
  20   2  -4   14.80    4.80
 -20   2   4   14.40    4.70
  20  -2  -4   17.20    5.40
 -20   2  -4   16.30    4.60
  20   2   4   21.10    5.30
 -20  -2   4   13.00    5.00
 -22   2   4  741.53   28.30
  22   2  -4  779.42   32.40
  22  -2   4  724.43   31.60
 -22  -2  -4  801.92   32.10
 -22   2  -4  758.52   27.30
  22  -2  -4  801.52   33.40
  22   2   4  700.33   28.60
 -22  -2   4  714.93   31.00
  24  -2   4   54.89   10.50
 -24   2   4   31.10    8.00
  24   2  -4   48.90    9.60
  24  -2  -4   40.80    9.80
 -24  -2   4   22.20    8.60
 -24   2  -4   40.70    7.70
  24   2   4   39.00    8.50
 -26   2   4  486.95   27.10
 -26  -2  -4  582.04   28.60
  26   2   4  514.65   29.10
 -26  -2   4  474.15   28.20
   0  -4  -4 4155.18   92.19
   0   4  -4 4247.88   92.59
   0   4   4 4243.28   89.99
   0  -4  -4 4207.18   87.99
   0  -4   4 4214.28   92.79
   0   4  -4 4067.89   90.59
   0  -4   4 4355.06   94.99
   2   4  -4 1554.04   38.30
  -2   4   4 1522.75   36.50
   2  -4   4 1611.84   36.20
  -2   4   4 1579.74   38.20
   2  -4   4 1506.45   39.20
   2   4  -4 1520.25   38.10
  -2  -4  -4 1514.95   39.30
  -2  -4  -4 1514.15   38.70
   2   4  -4 1512.75   38.00
  -2   4  -4 1555.14   35.40
   2  -4  -4 1503.65   37.20
   2  -4  -4 1555.84   36.00
  -2  -4   4 1576.04   38.80
  -2   4  -4 1515.55   38.50
   4   4  -4 1611.84   40.30
  -4   4   4 1640.44   39.60
  -4  -4  -4 1654.33   42.50
   4  -4   4 1641.84   41.60
   4  -4   4 1605.74   36.20
  -4   4   4 1688.23   39.30
  -4   4  -4 1543.95   40.80
  -4   4  -4 1614.24   35.90
  -4  -4   4 1612.64   41.60
   4  -4  -4 1604.64   38.80
   4  -4  -4 1665.93   39.60
  -4  -4   4 1575.54   40.20
   6   4  -4   58.29    5.40
  -6  -4  -4   56.99    5.50
  -6   4   4   63.19    5.10
  -6   4   4   56.99    4.40
   6   4  -4   55.09    4.80
  -6  -4  -4   61.29    2.50
   6  -4   4   57.09    5.30
  -6   4  -4   66.69    5.70
  -6  -4   4   52.49    4.80
   6  -4  -4   60.19    4.40
   6   4   4   58.79    2.50
  -6  -4   4   59.39    5.60
   6  -4  -4   58.29    5.00
  -8   4   4 1320.47   32.90
  -8  -4  -4 1393.06   31.90
   8  -4   4 1301.87   36.80
   8   4  -4 1364.06   37.20
   8  -4   4 1314.57   31.40
  -8  -4  -4 1426.06   40.30
  -8   4  -4 1402.36   30.90
   8   4   4 1288.37   30.10
  -8  -4   4 1237.18   34.80
   8  -4  -4 1370.86   34.60
  -8  -4   4 1297.87   37.60
   8  -4  -4 1382.96   38.00
 -10  -4  -4  288.57   14.60
 -10   4   4  259.07   10.80
  10   4  -4  244.08   12.10
  10  -4   4  258.97    8.60
 -10  -4  -4  244.08    9.30
  10  -4   4  255.77   13.30
 -10  -4   4  246.08   13.90
  10   4   4  253.87    9.60
 -10   4  -4  252.77    7.80
  10  -4  -4  246.68   10.60
 -10   4  -4  257.57    8.00
  10  -4  -4  265.87   13.40
  12  -4   4 1798.42   51.09
  12   4  -4 1891.11   50.89
 -12  -4  -4 2013.70   54.59
 -12  -4   4 1843.52   56.29
 -12   4  -4 1939.21   43.50
  12   4   4 1827.82   44.50
  12  -4  -4 1880.71   44.60
 -12   4  -4 1932.41   43.60
 -14   4   4   11.40    3.10
 -14  -4  -4   15.90    4.90
  14  -4   4    9.10    3.70
 -14  -4  -4   18.30    6.30
 -14  -4   4   11.80    4.70
  14   4   4   12.80    3.30
  14  -4  -4   13.30    3.90
 -14   4  -4   13.30    2.60
  14  -4  -4   11.70    4.10
 -16   4   4  744.33   24.60
  16   4  -4  889.41   30.80
 -16  -4  -4  854.41   32.50
  16  -4   4  792.42   30.00
 -16   4  -4  856.91   23.60
 -16   4  -4  887.41   23.70
 -16  -4   4  798.12   25.00
  16  -4  -4  854.11   32.10
  16   4   4  773.12   25.30
 -16  -4   4  772.02   30.70
  18  -4   4    3.20    4.50
 -18   4   4    1.10    3.10
  18   4  -4    6.00    4.00
 -18  -4  -4   -2.10    3.90
 -18  -4   4    1.20    4.00
  18   4   4    4.40    3.40
 -18  -4   4    6.70    3.30
  18  -4  -4    5.90    4.20
 -18   4  -4    2.20    3.70
 -18   4  -4    0.80    2.60
  20  -4   4  810.02   33.20
 -20  -4  -4  767.72   32.20
 -20   4   4  782.62   26.60
  20   4  -4  780.02   30.40
  20   4   4  761.32   27.50
 -20  -4   4  768.72   24.10
  20  -4  -4  731.93   35.30
 -20  -4   4  795.22   33.00
  22  -4   4   48.30    9.60
 -22  -4  -4   64.89   11.50
 -22   4   4   53.19    8.80
  22   4  -4   55.99   10.10
 -22  -4   4   32.40    8.80
  22  -4  -4   53.89    9.90
  22   4   4   54.09    9.10
 -24   4   4  566.44   24.80
  24   4  -4  614.24   28.80
 -24  -4  -4  624.04   30.70
  24  -4  -4  610.64   30.80
 -24  -4   4  624.34   30.20
  24   4   4  607.14   26.20
   0   6  -4    0.90    1.60
   0  -6  -4    1.60    1.90
   0   6  -4   -0.40    1.50
   0  -6  -4    1.80    1.10
   0   6   4    1.60    1.00
   0  -6   4   -0.80    1.40
   0  -6   4    3.30    1.30
   0  -6  -4   -2.20    1.80
  -2  -6  -4 2409.06   58.29
   2   6  -4 2375.26   56.79
   2  -6   4 2214.08   50.99
   2  -6   4 2279.57   55.49
  -2  -6  -4 2252.07   57.09
   2   6  -4 2213.08   58.59
  -2   6   4 2210.48   51.29
   2   6  -4 2270.47   56.19
  -2  -6  -4 2388.46   49.80
  -2  -6   4 2213.98   54.19
   2  -6  -4 2391.16   53.49
  -2   6  -4 2324.47   53.29
   2  -6  -4 2429.66   56.09
   2  -6  -4 2250.77   54.89
  -2   6  -4 2308.17   56.89
   4  -6   4  159.68    9.40
   4   6  -4  137.69    8.80
  -4  -6  -4  153.28    9.70
   4  -6   4  145.79    5.70
   4   6  -4  156.18    8.60
   4   6  -4  155.88    8.60
   4  -6  -4  134.39    7.50
  -4  -6   4  150.98    9.10
   4  -6  -4  159.98    8.00
   6  -6   4 3225.38   76.49
  -6   6   4 3088.89   73.69
  -6  -6  -4 3391.06   82.59
   6   6  -4 3337.67   78.49
  -6   6   4 3131.99   70.99
  -6  -6   4 3134.99   76.59
   6  -6  -4 3416.76   78.79
  -8   6   4   26.10    3.40
  -8  -6  -4   18.30    3.90
   8  -6   4   27.80    4.70
   8   6  -4   32.40    4.40
  -8  -6   4   31.70    5.10
   8  -6  -4   36.80    3.90
   8  -6  -4   27.10    4.10
   8   6   4   31.80    1.90
 -10  -6  -4 2183.38   49.10
  10   6  -4 2195.58   56.09
 -10   6   4 2147.39   50.79
  10  -6  -4 2343.87   58.39
  10   6   4 2184.38   48.20
  10  -6  -4 2128.59   51.39
  12  -6   4  110.09    9.50
 -12  -6  -4  113.89   10.50
 -12   6   4  104.79    6.60
  12   6  -4  113.29    8.70
 -12  -6  -4  110.89    7.70
  12  -6  -4  119.19    9.40
 -12  -6   4   90.99    9.40
  12   6   4  102.19    5.80
  12  -6  -4  118.89    7.00
  14   6  -4 1664.23   46.40
  14  -6   4 1577.34   48.30
 -14  -6  -4 1675.93   51.39
 -14   6   4 1575.84   39.40
 -14  -6  -4 1562.64   40.20
  14   6   4 1581.64   39.50
  14  -6  -4 1616.74   48.70
 -14  -6   4 1547.85   49.40
  16  -6   4   35.50    6.20
  16   6  -4   36.80    6.50
 -16   6   4   35.20    4.90
 -16  -6  -4   25.50    7.00
  16   6   4   46.40    5.40
 -16  -6   4   27.80    7.10
  16  -6  -4   36.90    6.80
  16  -6  -4   34.50    6.80
  18  -6   4 1048.10   39.00
  18   6  -4 1157.88   38.50
 -18   6   4 1063.09   29.60
 -18  -6  -4 1221.88   43.70
 -18  -6   4 1034.70   39.90
  18   6   4 1066.59   31.30
  18  -6  -4 1151.08   41.40
 -18  -6   4 1052.69   33.10
 -20  -6  -4    3.30    5.60
  20  -6   4    9.80    6.20
 -20   6   4    5.60    4.00
  20   6  -4    1.40    4.50
  20  -6  -4    7.80    5.60
 -20  -6   4    1.90    4.60
 -20  -6   4   14.10    6.70
  22   6  -4  761.02   31.00
 -22  -6  -4  764.02   34.80
  22  -6   4  658.83   31.90
 -22  -6   4  669.93   32.30
 -22  -6   4  668.03   24.00
  22  -6  -4  713.73   32.90
  24   6  -4   43.20    9.50
  24  -6   4   44.20   10.50
 -24  -6  -4   53.99   17.60
  24  -6  -4   60.49   12.70
  24   6   4   49.30    9.60
   0  -8   4 2635.54   62.19
   0   8   4 2616.04   58.79
   0  -8  -4 2828.52   64.39
   0  -8  -4 2930.01   70.19
   0  -8   4 2572.04   64.39
   2   8  -4   16.20    3.70
   2  -8   4   21.90    3.20
  -2   8   4   14.10    3.20
  -2  -8  -4   19.80    4.40
  -2  -8  -4   18.60    2.30
   2  -8   4    9.10    3.00
   2  -8  -4   17.10    3.50
   2  -8  -4   24.90    3.40
  -2  -8   4   15.60    3.40
   2   8   4   19.70    2.40
  -2   8  -4   16.90    3.20
   4  -8   4 1424.96   39.60
  -4  -8  -4 1489.75   43.00
   4   8  -4 1454.85   40.00
   4  -8   4 1356.66   31.90
  -4   8   4 1245.88   36.00
  -4  -8   4 1316.17   38.50
   4   8   4 1300.37   28.60
  -4   8  -4 1414.86   34.80
   4   8   4 1358.06   28.70
   4  -8  -4 1457.15   38.50
   4  -8  -4 1472.65   39.90
   4  -8  -4 1511.35   38.80
   6   8  -4  131.99    8.50
   6  -8   4  120.99    9.40
  -6  -8  -4  114.19    9.60
  -6  -8   4  132.79   10.20
   6  -8  -4  107.89    8.00
   6  -8  -4  130.89    7.50
   6  -8  -4  117.69    7.10
   8  -8   4 1250.97   39.30
  -8  -8  -4 1403.06   43.80
   8   8  -4 1433.66   39.50
   8  -8  -4 1381.36   34.90
   8  -8  -4 1440.66   40.50
   8  -8  -4 1369.46   35.30
  -8  -8   4 1291.47   40.30
 -10  -8  -4   92.29    9.30
  10  -8   4   88.29    8.90
  10   8  -4   95.09    8.00
  10  -8  -4   87.69    5.80
  10  -8  -4   99.89    8.80
 -10  -8   4  104.79   10.00
  10   8   4  101.29    3.30
  12  -8   4 1646.04   50.19
 -12  -8  -4 1462.75   48.50
  12   8  -4 1527.35   43.20
 -12  -8   4 1660.93   51.29
  12  -8  -4 1576.24   46.60
  12   8   4 1599.54   36.80
  14   8  -4   59.99    7.60
 -14  -8  -4   50.49    8.00
  14  -8   4   47.20    4.80
  14  -8   4   54.49    8.10
  14   8   4   63.09    4.80
 -14  -8   4   51.49    8.40
  14  -8  -4   55.49    8.10
  16  -8   4  619.14   28.30
  16   8  -4  762.12   27.30
 -16  -8  -4  692.23   31.50
 -16  -8   4  647.44   29.90
  16  -8  -4  692.63   29.60
  16  -8  -4  691.53   18.20
  16   8   4  612.64   18.70
 -18  -8  -4   14.90    6.70
  18  -8   4    8.40    5.60
  18   8  -4   18.00    5.90
  18  -8  -4   20.60    6.00
 -18  -8   4   22.50    7.50
 -20  -8  -4  954.70   40.40
  20   8  -4 1026.20   36.00
  20  -8   4 1023.20   41.00
 -20  -8   4 1033.60   42.50
  20   8   4 1034.90   30.00
 -20  -8   4 1011.60   36.60
  20  -8  -4 1007.20   39.80
  22   8  -4   29.50    8.70
  22  -8   4   35.70   10.20
 -22  -8   4   16.90    7.30
 -22  -8   4   23.60    8.10
  22  -8  -4   34.80    8.60
   0 -10   4   -3.80    2.00
   0 -10  -4    3.10    2.60
   0  10   4    0.20    2.60
   0 -10  -4    9.00    2.60
   0 -10   4    1.90    2.50
  -2 -10  -4 2113.79   57.19
  -2  10   4 2048.90   51.69
   2  10  -4 2191.38   55.99
   2 -10   4 2145.69   51.59
   2 -10   4 2169.58   57.49
  -2 -10   4 2184.58   55.79
   2  10   4 2056.19   48.10
   2 -10  -4 2111.39   52.09
  -2  10  -4 1994.00   51.69
   2 -10  -4 2163.18   54.99
   4 -10   4   57.59    4.60
   4 -10   4   64.89    7.20
   4  10  -4   49.50    6.10
  -4 -10  -4   53.19    7.20
   4 -10  -4   47.80    7.10
  -4  10  -4   46.60    5.00
   4  10   4   60.19    3.40
   4 -10  -4   58.39    5.90
  -4 -10   4   72.29    7.40
   4 -10  -4   46.30    5.40
   6  10  -4 1397.46   39.40
  -6 -10  -4 1431.36   44.10
   6 -10   4 1209.78   29.90
   6 -10   4 1433.86   42.50
   6 -10  -4 1348.07   36.20
   6 -10  -4 1393.06   39.50
  -6 -10   4 1454.15   42.90
   6 -10  -4 1272.87   35.40
   8 -10   4  141.39   11.30
  -8 -10  -4  141.39   12.00
   8  10  -4  127.69    9.20
   8 -10  -4  135.49   10.00
   8 -10  -4  109.69    7.10
  -8 -10   4  136.89   11.70
 -10 -10  -4 1410.66   46.70
  10 -10   4 1176.78   40.30
  10  10  -4 1354.66   40.60
 -10 -10   4 1249.88   42.30
  10 -10  -4 1419.86   43.10
  12 -10   4   23.10    5.50
  12  10  -4   28.60    5.40
 -12 -10  -4   23.80    6.90
  12 -10  -4   24.70    6.40
 -12 -10   4   40.70    7.40
  14 -10   4  992.50   30.60
  14 -10   4 1043.70   38.70
  14  10  -4 1207.58   37.60
 -14 -10  -4 1211.38   44.80
 -14 -10   4 1061.69   40.70
  14 -10  -4 1232.68   41.90
 -16 -10  -4    1.60    5.40
  16 -10   4    2.90    5.00
  16 -10   4   -1.90    3.50
  16  10  -4    1.90    4.30
 -16 -10   4    3.80    5.40
  16 -10  -4    1.40    4.30
 -18 -10  -4  530.25   29.10
  18 -10   4  463.35   26.10
  18  10  -4  538.45   23.70
  18 -10  -4  535.05   27.10
 -18 -10   4  505.65   28.20
 -20 -10  -4   25.50    9.10
  20 -10   4   14.90    7.70
  20  10  -4   21.60    7.80
 -20 -10   4   18.60    9.30
  20 -10  -4   13.30    7.30
 -22 -10  -4  412.96   27.20
  22 -10   4  376.36   24.40
 -22 -10   4  320.47   20.70
 -22 -10   4  368.56   25.80
   0 -12  -4  809.02   32.30
   0  12  -4  805.82   29.30
   0 -12  -4  852.21   24.90
   0 -12   4  626.94   22.80
   2 -12   4   24.30    5.60
   2  12  -4   53.09    7.00
  -2 -12  -4   41.80    6.90
   2 -12   4   39.30    5.50
   2 -12  -4   44.00    6.60
   2 -12  -4   40.10    5.40
   2  12   4   35.50    4.20
  -4 -12  -4 1447.76   45.70
   4 -12   4 1290.17   33.30
   4 -12   4 1297.97   41.40
   4  12  -4 1450.95   42.50
   4 -12  -4 1460.65   41.00
   4  12   4 1287.27   30.40
   4 -12  -4 1420.46   40.20
  -4 -12   4 1327.07   41.30
   6  12  -4   12.70    4.40
  -6 -12  -4    5.70    4.60
   6 -12   4    8.10    4.20
  -6 -12   4   12.50    4.80
   6 -12  -4   11.70    3.10
   6 -12  -4    5.10    3.40
   8 -12   4 1165.78   40.40
  -8 -12  -4 1282.47   44.70
   8  12  -4 1324.47   39.00
   8 -12  -4 1292.47   33.50
  -8 -12   4 1217.28   41.80
   8 -12  -4 1261.27   40.10
 -10 -12  -4   22.20    7.00
  10  12  -4   34.30    6.40
  10 -12   4   26.60    6.80
 -10 -12   4   26.50    7.00
  10 -12  -4   18.80    3.10
  10 -12  -4   25.70    3.70
  10 -12  -4   15.40    5.30
  12 -12   4  800.42   36.80
  12  12  -4  817.52   28.80
 -12 -12  -4  838.42   35.80
  12 -12  -4  799.42   31.80
 -12 -12   4  768.12   49.70
  14 -12   4    8.60    5.30
  14  12  -4   12.00    5.40
 -14 -12  -4   12.80    6.20
 -14 -12   4   14.80    6.40
  14 -12  -4   21.40    7.50
  16 -12   4  826.92   31.00
 -16 -12  -4  849.81   37.90
  16 -12   4  830.62   36.30
  16  12  -4  837.92   30.40
 -16 -12   4  877.31   38.30
  16 -12  -4  897.11   36.10
 -18 -12  -4   24.20    7.90
  18  12  -4   53.89    9.50
  18 -12   4   29.00    8.30
 -18 -12   4   49.10   10.80
   0 -14  -4   -7.60    4.20
   0 -14   4   -5.00    3.60
   0  14  -4    0.10    4.30
   2  14  -4  816.52   30.30
  -2 -14  -4  871.51   32.40
   2 -14   4  750.32   24.70
   2 -14  -4  821.32   29.30
   2  14   4  747.33   21.90
  -2 -14   4  746.43   28.10
   2 -14  -4  844.82   27.80
   4  14  -4    3.70    4.50
  -4 -14  -4    6.10    4.80
   4 -14   4    0.40    3.80
   4 -14  -4    6.10    4.10
   4 -14  -4    6.10    4.30
  -4 -14   4    6.40    4.70
   6 -14   4  943.91   35.80
  -6 -14  -4 1040.70   38.80
   6  14  -4 1020.40   33.80
  -6 -14   4  994.70   36.60
   6 -14  -4 1006.60   34.00
   8  14  -4   14.90    5.00
  -8 -14  -4    1.40   10.50
  -8 -14   4    6.30    5.40
   8 -14  -4    8.80    5.10
   8 -14  -4    3.80    3.70
 -10 -14  -4  568.24   29.10
  10 -14   4  552.04   26.80
  10  14  -4  613.84   24.10
 -10 -14   4  528.45   27.80
  10 -14  -4  588.24   26.40
  12  14  -4   25.50    9.40
 -12 -14  -4   37.70   10.10
  12 -14   4   16.30    7.10
 -12 -14   4   28.60    7.10
  12 -14  -4   23.20    7.20
  14  14  -4  479.95   21.60
 -14 -14  -4  484.05   28.30
 -14 -14   4  507.65   28.20
  14 -14  -4  514.85   26.10
  16 -14  -4   20.30    8.50
   0 -16  -4  826.62   32.10
   0  16   4  945.21   28.70
   0  16  -4  927.61   33.70
   2  16  -4    0.50    5.60
  -2 -16  -4   -0.70    5.80
   2 -16   4   -2.90    8.10
  -2 -16   4    3.30    5.70
  -2  16  -4   -2.30    5.80
  -4 -16  -4  689.03   33.00
   4  16  -4  698.43   27.60
   4 -16  -4  633.34   24.30
   4 -16  -4  675.43   26.20
  -4 -16   4  660.43   28.60
  -6 -16  -4   10.70    6.90
   6 -16   4   12.80    6.20
   6  16  -4   -2.10    5.80
   6 -16  -4    3.20    5.90
  -6 -16   4    3.90    6.40
   8 -16   4  586.14   28.30
   8  16  -4  543.85   28.10
  -8 -16  -4  590.54   29.40
  -8 -16   4  561.34   28.20
  10 -16   4   28.30   12.20
  10  16  -4   16.10    7.30
  10 -16  -4   22.90    8.00
   0  18  -4   -9.30    7.40
  -2  18  -4  670.93   30.50
   1   1  -5 1653.63   40.00
  -1  -1  -5 1674.53   38.00
   1  -1   5 1875.41   46.20
  -1   1   5 1890.91   43.10
  -1   1   5 1911.41   46.90
  -1  -1  -5 1658.33   40.20
   1   1  -5 1719.23   40.10
   1  -1   5 1933.51   44.20
  -1  -1   5 1954.90   45.10
   1  -1  -5 1695.43   40.30
   1   1   5 1872.31   46.70
  -1   1  -5 1705.83   39.80
  -1  -1   5 1841.72   44.00
  -1   1  -5 1694.53   39.60
   1  -1  -5 1732.63   39.00
  -1   1  -5 1639.74   39.60
  -3   1   5 3372.76   75.59
  -3  -1  -5 3462.15   76.49
  -3   1   5 3328.97   74.59
  -3  -1  -5 3475.45   73.59
   3  -1   5 3333.77   74.29
   3   1  -5 3388.56   76.49
   3  -1   5 3361.66   74.39
   3   1  -5 3424.86   75.79
   3   1  -5 3359.76   76.29
   3   1   5 3416.86   72.89
   3  -1  -5 3421.76   76.39
   3  -1  -5 3440.96   75.69
  -3   1  -5 3357.86   74.89
  -3  -1   5 3264.87   75.19
  -3   1  -5 3538.55   75.29
  -3  -1   5 3491.15   76.29
   3  -1  -5 3450.25   75.69
  -3   1  -5 3345.87   75.49
  -3  -1   5 3441.66   75.39
   3   1   5 3406.36   75.89
  -5  -1  -5 1983.70   47.30
   5  -1   5 1787.52   44.20
  -5   1   5 1890.41   45.10
  -5   1   5 1822.22   44.70
  -5  -1  -5 1972.10   47.90
  -5  -1  -5 1932.01   44.10
   5   1  -5 1882.81   47.40
   5   1  -5 1965.20   47.40
   5  -1  -5 1963.60   47.00
  -5  -1   5 1875.51   45.80
  -5   1  -5 1998.30   45.60
  -5  -1   5 1829.72   44.90
   5  -1  -5 1999.40   45.80
   5   1   5 1886.91   42.40
  -5  -1   5 1874.21   44.30
  -5   1  -5 1997.20   45.00
   5  -1  -5 1945.31   46.90
  -5   1  -5 1919.41   46.20
   7   1  -5 2737.33   64.69
  -7  -1  -5 2901.31   65.59
  -7   1   5 2829.72   65.59
   7  -1   5 2829.62   65.19
  -7  -1  -5 2732.13   64.39
   7   1  -5 2738.13   64.79
  -7  -1  -5 2712.23   61.19
  -7   1   5 2643.14   65.29
  -7  -1   5 2936.51   67.09
  -7   1  -5 2714.73   62.89
   7  -1  -5 2696.83   61.59
  -7   1  -5 2658.33   62.99
   7  -1  -5 2719.43   64.59
   7  -1  -5 2614.34   63.39
   7   1   5 2788.92   62.99
  -7   1  -5 2818.02   60.59
  -7   1  -5 2769.82   62.29
  -7  -1   5 2863.31   64.19
  -7  -1   5 2686.83   65.39
   9   1  -5 2491.35   59.89
  -9  -1  -5 2404.86   59.69
  -9   1   5 2559.74   61.49
   9  -1   5 2536.05   61.19
  -9  -1   5 2585.44   59.39
   9  -1  -5 2465.05   59.89
  -9  -1   5 2510.75   62.59
   9  -1  -5 2344.67   58.29
  -9   1  -5 2456.15   57.59
  -9   1  -5 2448.35   56.99
   9  -1  -5 2430.06   55.39
   9   1   5 2540.35   59.49
  -9   1  -5 2264.47   57.49
  -9   1  -5 2484.75   53.79
 -11  -1  -5 1244.28   33.80
  11   1  -5 1255.77   36.90
 -11   1   5 1193.28   34.70
  11  -1   5 1206.28   35.00
 -11  -1  -5 1300.97   37.00
  11   1   5 1211.58   33.40
 -11  -1   5 1267.77   32.40
 -11   1  -5 1302.67   34.80
  11  -1  -5 1273.07   37.20
 -11  -1   5 1255.77   36.50
  13   1  -5 1288.67   40.00
 -13   1   5 1249.47   37.00
 -13  -1  -5 1346.97   39.30
  13  -1   5 1265.57   37.40
  13  -1  -5 1368.66   41.00
 -13  -1   5 1239.78   38.20
 -13   1  -5 1343.37   36.90
  13   1   5 1278.37   35.90
 -13   1  -5 1372.16   37.30
 -13  -1   5 1324.17   33.50
  15  -1   5 1249.18   39.00
  15   1  -5 1201.78   38.00
 -15  -1  -5 1167.78   27.80
 -15   1   5 1263.77   38.20
 -15  -1  -5 1204.68   37.20
  15   1   5 1290.37   37.30
  15  -1  -5 1161.08   37.90
 -15  -1   5 1270.47   39.80
 -15   1  -5 1174.88   34.50
 -17   1   5 1022.90   33.40
  17  -1   5  987.60   33.90
  17   1  -5  937.91   33.80
 -17  -1  -5  983.90   33.10
  17  -1  -5  972.20   34.70
  17   1   5  984.70   32.30
 -17  -1   5  978.10   34.50
 -17   1  -5  963.10   30.80
  19   1  -5  895.21   33.90
  19  -1   5  747.83   29.50
 -19   1   5  784.02   29.10
 -19  -1  -5  924.21   32.70
  19  -1  -5  895.41   34.40
 -19  -1   5  760.82   30.60
  19   1   5  801.32   28.90
 -21   1   5  598.64   25.90
 -21  -1  -5  611.74   26.20
  21  -1   5  623.44   27.50
  21   1  -5  561.94   37.20
  21  -1  -5  600.14   27.90
  21   1   5  636.04   26.50
 -21   1  -5  572.74   23.60
 -21  -1   5  596.24   27.30
  23  -1   5  364.76   21.60
  23   1  -5  356.86   21.50
  23  -1  -5  340.27   21.60
  23   1   5  393.56   21.40
 -23   1  -5  377.46   19.30
 -25   1   5  387.96   22.50
  25  -1   5  374.46   22.80
 -25  -1  -5  346.17   20.90
  25  -1  -5  359.56   22.70
 -25   1  -5  312.97   19.10
  25   1   5  389.96   22.30
 -25  -1   5  349.47   21.90
  -1   3   5 2252.57   52.19
   1   3  -5 2145.69   50.49
  -1  -3  -5 2148.49   45.50
   1   3  -5 2126.69   50.19
  -1  -3  -5 2094.89   50.29
   1  -3   5 2176.98   51.69
   1   3  -5 2093.89   49.40
  -1   3   5 2192.08   49.10
   1  -3   5 2236.88   50.59
   1  -3  -5 2133.19   47.20
   1   3   5 2227.58   52.79
  -1  -3   5 2203.48   51.59
  -1   3  -5 2121.89   48.40
   1  -3  -5 2072.59   49.80
  -1   3  -5 2072.99   50.09
   1   3   5 2167.78   47.50
  -3  -3  -5 6158.88  127.79
  -3   3   5 5723.33  124.19
   3  -3   5 5757.52  126.49
   3  -3   5 5829.42  123.19
  -3   3   5 5858.91  125.49
   3  -3   5 5839.32  124.99
  -3  -3  -5 6096.69  135.79
  -3  -3  -5 6169.88  134.99
   3   3  -5 6171.28  134.39
   3   3  -5 6362.76  134.69
  -3  -3  -5 6359.66  127.79
   3  -3  -5 6314.17  132.49
  -3   3  -5 6116.29  134.49
   3  -3  -5 6065.69  133.29
  -3  -3   5 5569.34  125.69
  -3  -3   5 6031.60  126.79
  -3   3  -5 6210.38  131.19
  -5   3   5 3586.04   81.39
  -5  -3  -5 3771.72   79.49
   5   3  -5 3796.82   85.89
   5  -3   5 3627.14   78.49
   5  -3   5 3613.54   79.99
  -5   3   5 3664.63   81.39
   5   3  -5 3696.73   86.29
  -5  -3  -5 3724.43   86.79
   5  -3   5 3618.54   82.89
  -5  -3  -5 3834.22   87.79
   5  -3  -5 3901.71   84.69
   5  -3  -5 3801.82   84.89
  -5   3  -5 3823.02   81.49
   5   3   5 3706.53   76.19
  -5  -3   5 3539.45   82.09
  -5  -3   5 3659.13   83.59
  -5   3  -5 3754.52   85.69
   7   3  -5 1782.12   44.40
  -7  -3  -5 1766.62   46.10
  -7   3   5 1757.22   45.30
  -7   3   5 1843.72   44.30
  -7  -3  -5 1734.73   38.50
   7  -3   5 1774.02   42.10
   7  -3   5 1825.92   46.60
   7   3   5 1802.82   40.40
  -7   3  -5 1667.13   43.80
  -7   3  -5 1715.33   39.90
  -7  -3   5 1768.32   45.40
   7  -3  -5 1709.23   44.00
   7  -3  -5 1700.23   42.30
  -7  -3   5 1804.42   47.10
  -7   3  -5 1684.03   39.20
  -9   3   5  735.63   22.40
   9   3  -5  821.52   25.60
  -9  -3  -5  801.62   26.80
  -9  -3  -5  762.42   20.60
   9  -3   5  772.72   24.80
  -9  -3   5  688.53   24.70
  -9   3  -5  797.72   21.20
  -9  -3   5  724.93   22.70
   9  -3  -5  750.52   25.00
   9  -3  -5  792.92   25.50
 -11  -3  -5 1424.66   40.80
  11   3  -5 1352.06   38.50
 -11  -3  -5 1309.37   33.80
 -11   3   5 1208.28   33.60
  11  -3   5 1261.87   36.70
  11  -3  -5 1326.77   33.30
  11   3   5 1203.28   31.60
 -11  -3   5 1211.38   37.40
 -11   3  -5 1386.36   33.70
  11  -3  -5 1390.36   39.40
  11  -3  -5 1272.57   35.90
 -11  -3   5 1211.58   33.80
 -11   3  -5 1316.07   33.00
 -13  -3  -5  778.72   24.20
 -13  -3  -5  869.51   30.10
 -13   3   5  894.91   26.90
  13   3  -5  872.91   29.40
 -13  -3   5  845.92   25.90
 -13   3  -5  838.02   23.50
 -13  -3   5  850.41   30.40
  13  -3  -5  877.21   29.90
  13   3   5  806.82   24.90
 -13   3  -5  841.22   23.90
  13  -3  -5  835.12   22.40
  15  -3   5 1033.70   34.90
  15   3  -5 1075.59   35.50
 -15  -3  -5 1137.39   37.60
 -15   3   5 1030.50   31.30
 -15  -3   5  958.90   34.90
  15  -3  -5 1119.39   37.10
 -15  -3   5 1102.49   30.40
 -15   3  -5 1095.19   30.20
  15   3   5  993.00   30.30
 -17  -3  -5  975.40   35.10
  17   3  -5  991.60   34.50
 -17   3   5 1017.30   32.10
  17  -3   5 1010.10   35.90
 -17  -3   5 1000.40   36.50
 -17   3  -5  992.40   28.60
  17   3   5 1017.20   31.70
 -17  -3   5 1027.40   29.50
  17  -3  -5  922.01   35.00
 -17   3  -5 1045.10   37.90
  19  -3   5  836.32   32.90
 -19  -3  -5  874.71   33.40
 -19   3   5  852.21   29.20
  19   3  -5  806.42   31.70
 -19  -3   5  852.11   25.40
  19  -3  -5  868.81   34.00
  19   3   5  888.71   29.60
 -19  -3   5  822.02   33.30
 -19   3  -5  845.52   26.30
  21  -3   5  690.03   44.00
 -21   3   5  566.54   23.50
 -21  -3  -5  536.95   26.00
  21   3  -5  549.74   26.40
 -21   3  -5  532.95   19.90
  21  -3  -5  510.75   25.90
  21   3   5  554.84   23.70
 -21  -3   5  591.74   28.40
 -23  -3  -5  554.64   27.50
 -23   3   5  498.05   22.50
  23   3  -5  546.05   26.70
  23  -3   5  476.95   25.50
  23  -3  -5  488.45   26.30
 -23  -3   5  501.55   26.90
 -23   3  -5  538.25   21.90
  23   3   5  517.25   23.80
 -25   3   5  400.46   21.20
 -25  -3  -5  359.56   23.30
 -25  -3   5  417.06   25.00
  25   3   5  393.56   21.90
  25  -3  -5  451.15   25.90
   1   5  -5 1828.62   45.60
   1  -5   5 1831.52   43.60
   1  -5   5 1803.52   46.60
   1   5  -5 1903.31   46.90
   1   5  -5 1871.51   47.20
  -1  -5  -5 1867.11   40.60
  -1  -5  -5 1884.71   47.70
  -1  -5  -5 1867.81   47.00
  -1   5   5 1830.92   42.00
   1   5   5 1819.22   39.90
  -1  -5   5 1897.11   45.30
   1  -5  -5 1923.31   42.80
  -1   5  -5 1857.41   46.90
  -1   5  -5 1890.71   44.40
   1  -5  -5 1823.92   46.10
   3  -5   5 1788.32   46.20
   3   5  -5 1674.23   43.10
   3   5  -5 1710.83   43.40
  -3  -5  -5 1652.73   43.80
   3  -5   5 1838.82   41.60
  -3   5   5 1742.53   42.70
  -3   5   5 1834.02   44.50
   3   5  -5 1684.63   43.00
  -3  -5  -5 1691.83   44.90
   3  -5  -5 1691.03   40.60
  -3   5  -5 1641.64   43.30
  -3  -5   5 1757.52   45.40
   3  -5  -5 1697.73   41.90
  -3   5  -5 1677.53   39.10
   5   5  -5 1201.28   32.70
  -5   5   5 1217.68   32.90
   5  -5   5 1223.58   28.90
  -5   5   5 1290.97   32.80
   5  -5   5 1272.67   35.60
  -5  -5  -5 1157.98   34.60
   5  -5  -5 1136.69   30.60
  -5  -5   5 1206.68   33.80
   5  -5  -5 1183.88   31.70
  -5  -5   5 1263.77   35.60
   7  -5   5 1342.97   39.20
   7   5  -5 1379.76   37.80
  -7   5   5 1412.46   35.70
   7  -5   5 1357.86   35.10
  -7  -5  -5 1378.36   40.40
  -7  -5   5 1441.76   40.40
   7  -5  -5 1414.86   37.90
  -7   5  -5 1349.56   30.80
   9   5  -5 1853.91   48.40
   9  -5   5 1857.91   50.59
  -9  -5  -5 1820.72   40.60
   9  -5   5 1824.92   43.90
  -9  -5  -5 1864.71   51.79
  -9   5   5 1832.72   45.30
  -9   5  -5 1833.82   39.00
   9   5   5 1840.52   40.70
   9  -5  -5 1837.92   49.00
  -9   5  -5 1872.31   39.20
  -9  -5   5 1850.41   51.19
   9  -5  -5 1790.02   44.90
  11  -5   5 2497.85   65.29
 -11  -5  -5 2647.04   58.59
  11   5  -5 2634.14   65.79
 -11  -5   5 2416.16   65.59
  11  -5  -5 2536.45   61.79
 -11   5  -5 2630.74   54.79
  11   5   5 2466.25   61.49
 -11   5  -5 2657.53   54.89
 -13   5   5  853.21   25.40
  13  -5   5  831.72   30.50
 -13  -5  -5  749.53   29.00
  13   5  -5  750.02   29.70
  13  -5  -5  727.83   21.00
 -13  -5   5  857.21   31.90
  13   5   5  828.82   23.50
  13  -5  -5  738.23   27.50
  13  -5  -5  675.83   22.40
 -13   5  -5  728.93   16.70
 -15  -5  -5 1129.99   39.40
  15   5  -5 1148.09   36.40
 -15   5   5 1141.59   32.20
  15  -5   5 1080.69   37.90
 -15  -5  -5 1096.49   30.70
 -15   5  -5 1081.79   27.60
 -15  -5   5 1137.69   39.60
 -15  -5   5 1166.08   34.30
  15   5   5 1090.39   30.80
  15  -5  -5 1161.28   38.30
 -15   5  -5 1096.59   25.30
 -17   5   5  913.41   28.00
  17  -5   5  891.41   34.20
 -17  -5  -5  867.31   34.50
  17   5  -5  911.71   32.20
 -17  -5   5  898.31   29.10
  17  -5  -5  856.11   33.20
 -17   5  -5  861.21   20.80
 -17   5  -5  878.41   20.90
 -17  -5   5  898.11   35.10
  17   5   5  892.81   27.50
  19  -5   5  523.55   25.90
  19   5  -5  651.43   27.20
 -19   5   5  521.65   19.90
 -19  -5  -5  649.04   29.80
 -19   5  -5  621.94   15.90
  19   5   5  514.25   21.60
 -19  -5   5  519.45   26.30
 -21  -5  -5  371.26   22.70
  21  -5   5  371.86   22.00
  21   5  -5  365.96   23.70
 -21  -5   5  297.87   20.80
 -21  -5   5  374.66   16.30
  21  -5  -5  370.16   22.30
 -23  -5  -5  695.03   33.10
  23   5  -5  729.73   31.20
 -23   5   5  662.33   26.70
 -23  -5   5  685.63   32.80
  23  -5  -5  723.43   33.60
 -25  -5  -5  305.17   22.20
  25   5  -5  318.27   21.40
  25  -5  -5  274.57   20.60
  25   5   5  315.37   20.20
 -25  -5   5  319.27   24.90
  -1  -7  -5 1951.40   43.60
   1  -7   5 1911.11   50.49
   1  -7   5 1917.31   47.00
   1   7  -5 2101.99   51.59
  -1  -7  -5 1974.30   51.49
   1   7  -5 1920.71   49.20
   1  -7  -5 1874.21   49.20
  -1  -7   5 1982.70   48.80
   1  -7  -5 2005.00   50.69
   1   7   5 1956.10   43.10
   1  -7  -5 1979.00   45.70
  -1   7  -5 1905.91   47.60
   3   7  -5 2360.56   57.89
  -3  -7  -5 2338.17   59.69
   3  -7   5 2303.07   58.49
   3  -7  -5 2270.57   56.59
   3  -7  -5 2275.17   54.29
   3  -7  -5 2309.67   66.89
  -3   7  -5 2257.27   52.99
  -3  -7   5 2258.47   57.39
  -5  -7  -5 1406.66   42.00
   5  -7   5 1326.87   30.90
   5   7  -5 1430.26   39.40
   5  -7   5 1344.27   39.20
   5  -7  -5 1463.35   38.20
  -5   7  -5 1417.86   33.10
  -5  -7   5 1355.76   39.10
  -7   7   5  623.64   21.60
   7  -7   5  624.44   23.70
  -7  -7  -5  822.72   29.10
   7   7  -5  745.13   25.20
   7  -7  -5  750.52   25.10
  -7  -7   5  637.64   24.30
  -9  -7  -5 1488.25   45.30
  -9   7   5 1508.75   38.10
   9  -7   5 1486.55   44.50
   9   7  -5 1439.86   40.70
   9  -7  -5 1394.46   36.60
   9  -7  -5 1490.65   41.90
  -9  -7   5 1481.75   45.20
 -11   7   5 2247.88   53.59
  11   7  -5 2321.57   60.79
  11  -7   5 2271.87   53.79
  11  -7   5 2197.98   61.59
 -11  -7  -5 2433.36   66.39
  11  -7  -5 2309.67   62.29
 -11  -7   5 2210.88   62.79
  11   7   5 2264.77   47.80
  13  -7   5  692.93   20.10
 -13   7   5  709.33   21.40
 -13  -7  -5  666.63   18.40
  13  -7   5  716.43   28.70
  13   7  -5  698.33   25.70
 -13  -7  -5  719.43   29.70
 -13  -7   5  706.53   29.50
  13  -7  -5  710.13   27.50
  13   7   5  701.33   18.60
  15  -7   5  561.04   25.80
  15   7  -5  696.63   26.40
 -15  -7  -5  642.44   29.50
 -15   7   5  547.25   18.10
  15   7   5  545.05   16.80
  15  -7  -5  663.53   27.60
 -15  -7   5  556.94   26.60
  17  -7   5  500.45   24.70
 -17  -7  -5  521.45   26.10
  17   7  -5  501.15   22.00
 -17   7   5  481.85   16.70
 -17  -7   5  494.35   21.20
  17   7   5  448.36   16.20
 -17  -7   5  492.35   25.90
  17  -7  -5  443.06   23.00
  17  -7  -5  425.96   14.50
 -19   7   5  479.45   16.70
  19   7  -5  561.54   25.10
  19  -7   5  471.15   25.10
 -19  -7  -5  555.04   28.40
  19  -7  -5  555.74   27.30
 -19  -7   5  463.65   25.90
 -21  -7  -5  429.06   25.50
  21   7  -5  452.15   25.30
  21  -7   5  376.16   23.30
 -21  -7   5  369.56   18.70
 -21  -7   5  382.96   23.80
  21  -7  -5  431.36   24.30
  23  -7   5  603.64   31.00
  23   7  -5  661.13   29.90
 -23  -7   5  602.74   31.10
  23  -7  -5  672.93   32.20
   1  -9   5 1024.40   29.00
  -1  -9  -5 1123.69   34.30
   1   9  -5 1041.90   33.30
   1  -9   5 1014.20   32.30
  -1  -9  -5 1083.59   26.70
  -1   9   5  966.00   26.70
   1   9   5 1000.20   25.00
   1  -9  -5 1039.90   32.60
  -1  -9   5 1053.99   30.70
   1  -9  -5 1067.39   28.40
  -1   9  -5 1075.79   30.80
  -3  -9  -5 1767.22   50.39
  -3   9   5 1698.63   44.50
   3   9  -5 1785.42   48.50
   3  -9   5 1749.53   49.60
   3  -9   5 1849.52   43.50
   3  -9  -5 1824.22   45.10
  -3   9  -5 1773.32   43.90
   3  -9  -5 1762.52   47.10
   3   9   5 1814.72   38.50
  -3  -9   5 1816.02   48.80
   5  -9   5 1495.85   44.40
   5  -9   5 1550.94   35.20
  -5  -9  -5 1411.16   43.90
   5   9  -5 1464.85   41.00
  -5  -9   5 1462.75   43.90
   5  -9  -5 1478.05   39.00
  -5   9  -5 1379.56   33.70
   5  -9  -5 1463.55   39.30
   5  -9  -5 1345.97   37.50
  -7  -9  -5  624.64   25.80
   7  -9   5  536.85   22.90
   7   9  -5  606.84   22.40
   7  -9  -5  605.04   22.20
  -7  -9   5  541.25   23.20
   7  -9  -5  614.14   20.20
   7  -9  -5  539.35   21.10
  -9  -9  -5  954.40   35.40
   9  -9   5  986.00   34.50
   9   9  -5  961.60   31.10
   9  -9  -5  982.10   31.90
   9  -9  -5  942.61   27.00
  -9  -9   5  979.50   35.20
  11   9  -5  757.02   26.40
 -11  -9  -5  745.13   30.90
  11  -9   5  703.73   28.90
  11  -9  -5  692.03   21.00
 -11  -9   5  711.83   29.90
  11  -9  -5  711.43   27.30
  13  -9   5  664.93   29.00
  13   9  -5  628.04   24.50
 -13  -9  -5  675.93   30.00
  13  -9   5  686.73   21.90
 -13  -9   5  690.43   30.40
  13  -9  -5  663.63   26.90
  13  -9  -5  602.44   20.70
  13  -9  -5  611.84   18.20
  15   9  -5  800.62   28.50
 -15  -9  -5  724.03   32.30
  15  -9   5  695.53   30.50
  15  -9   5  715.23   20.90
  15  -9  -5  713.63   29.90
  15  -9  -5  686.43   19.20
 -15  -9   5  740.53   32.50
  17   9  -5  696.53   27.80
 -17  -9  -5  723.43   33.30
  17  -9   5  701.13   31.60
  17   9   5  715.93   20.90
  17  -9  -5  707.43   30.50
 -17  -9   5  679.63   32.70
 -19  -9  -5  475.85   27.30
  19  -9   5  480.05   26.70
  19   9  -5  461.95   22.80
  19  -9  -5  470.85   25.10
 -19  -9   5  484.05   27.20
  21  -9   5  391.86   24.10
 -21  -9  -5  350.86   23.90
  21   9  -5  324.47   20.20
 -21  -9   5  379.26   24.90
  21  -9  -5  387.96   23.30
 -21  -9   5  345.77   20.10
   1 -11   5  601.34   20.90
   1 -11   5  603.24   24.10
   1  11  -5  756.12   27.40
  -1  11   5  578.14   18.90
  -1 -11  -5  764.12   28.10
  -1 -11  -5  733.83   20.60
   1  11   5  581.64   17.30
   1 -11  -5  697.63   21.90
   1 -11  -5  700.43   26.10
  -1 -11   5  613.04   22.30
  -3 -11  -5  947.31   33.90
   3 -11   5 1016.10   34.20
   3 -11   5  957.80   27.50
   3  11  -5 1036.60   33.20
   3 -11  -5 1057.49   30.00
   3 -11  -5 1005.80   31.50
  -3  11  -5  921.81   28.20
   3  11   5  985.30   23.20
  -5 -11  -5  783.42   30.10
   5 -11   5  771.32   21.70
   5  11  -5  740.13   26.60
   5 -11   5  719.93   28.30
   5 -11  -5  702.73   24.10
  -5 -11   5  695.13   27.50
   5 -11  -5  707.53   24.80
  -7 -11  -5  940.01   35.10
   7  11  -5  948.81   31.10
   7 -11   5  830.12   31.70
  -7 -11   5  853.71   32.00
   7 -11  -5  893.51   30.30
   7 -11  -5  910.41   27.50
   9  11  -5 1353.96   40.90
   9 -11   5 1415.46   45.70
  -9 -11  -5 1387.46   46.60
  -9 -11   5 1378.56   46.00
   9 -11  -5 1385.86   42.30
   9 -11  -5 1332.27   35.50
 -11 -11  -5  567.74   28.20
  11  11  -5  605.84   23.60
  11 -11   5  599.94   27.40
 -11 -11   5  575.24   27.40
  11 -11  -5  565.94   17.10
  11 -11  -5  594.44   25.30
  13 -11   5  471.15   27.60
  13  11  -5  521.55   22.40
 -13 -11  -5  517.85   27.60
  13 -11  -5  607.84   26.40
 -15 -11  -5  678.73   32.80
  15  11  -5  692.13   27.00
  15 -11   5  644.64   30.00
  15 -11  -5  694.23   30.20
 -15 -11   5  633.44   31.00
  17  11  -5  828.92   30.60
  17 -11   5  771.32   34.60
 -17 -11  -5  762.52   36.00
 -17 -11   5  782.02   36.20
  17 -11  -5  771.82   33.70
  19  11  -5  511.75   27.40
 -19 -11  -5  481.95   28.60
  19 -11   5  509.05   28.50
 -19 -11   5  468.25   28.50
   1  13  -5  620.74   25.30
   1 -13   5  627.74   22.30
  -1 -13  -5  573.84   24.90
   1  13   5  576.64   18.40
  -1 -13   5  635.54   23.70
  -1  13  -5  619.94   25.70
   1 -13  -5  575.84   19.80
   1 -13  -5  571.94   23.80
   3 -13   5 1093.99   30.80
   3  13  -5 1148.59   38.10
  -3 -13  -5 1158.98   39.80
   3 -13   5 1083.59   37.70
   3  13   5 1086.39   25.60
  -3 -13   5 1094.59   36.40
   3 -13  -5 1199.38   34.60
   3  13   5 1106.89   25.70
   5 -13   5  952.80   25.40
   5 -13   5 1003.40   36.30
   5  13  -5  992.80   33.60
  -5 -13  -5  933.11   36.30
   5 -13  -5  974.90   30.90
   5 -13  -5 1071.99   32.70
  -5 -13   5 1048.10   36.20
   7  13  -5  743.33   27.80
  -7 -13  -5  712.73   31.40
   7 -13   5  681.33   29.20
   7 -13  -5  778.92   28.20
  -7 -13   5  665.93   28.70
   7 -13  -5  752.02   24.20
   9 -13   5  498.55   28.20
   9  13  -5  524.95   22.60
  -9 -13  -5  595.34   32.40
   9 -13  -5  555.54   24.10
  -9 -13   5  484.75   25.10
  11  13  -5  559.44   23.10
  11 -13   5  461.75   24.90
 -11 -13  -5  521.55   27.60
  11 -13  -5  510.15   24.20
 -11 -13   5  554.24   27.60
 -13 -13  -5  570.54   29.90
  13  13  -5  566.04   24.10
  13 -13   5  620.94   29.70
 -13 -13   5  597.64   30.30
  13 -13  -5  583.04   27.20
  15  13  -5  442.86   21.20
  15 -13   5  376.76   18.00
 -15 -13  -5  376.26   24.70
  15 -13   5  361.86   23.20
 -15 -13   5  353.76   24.40
  15 -13  -5  463.65   24.70
  17 -13   5  183.28   20.10
  17  13  -5  265.77   17.10
 -17 -13  -5  247.68   31.20
   1  15  -5  632.54   27.00
  -1 -15  -5  640.44   27.50
   1 -15  -5  599.54   25.60
   1  15   5  645.04   19.70
  -1 -15   5  641.34   25.30
  -1  15  -5  658.03   28.10
   3  15  -5  421.66   20.90
  -3 -15  -5  397.16   21.90
   3 -15  -5  390.36   17.80
  -3 -15   5  358.26   19.40
   5 -15   5  305.27   19.20
   5  15  -5  325.07   18.30
   5 -15  -5  348.17   17.70
  -5 -15   5  332.47   19.60
   7  15  -5  647.34   26.30
   7 -15   5  626.54   29.10
  -7 -15  -5  637.84   30.00
  -7 -15   5  617.24   29.00
   7 -15  -5  664.53   26.40
   7 -15  -5  589.94   21.30
   9 -15   5  370.46   22.60
  -9 -15  -5  413.56   25.00
   9  15  -5  419.46   20.20
  -9 -15   5  402.26   23.70
   9 -15  -5  418.86   21.50
  11  15  -5  355.76   19.30
  11 -15  -5  390.86   22.10
  13  15  -5  247.58   16.90
  13 -15  -5  227.98   17.90
   1  17  -5  460.05   24.40
  -1 -17  -5  489.35   28.10
  -1  17  -5  485.05   25.00
  -1 -17   5  355.66   20.50
  -3 -17  -5  419.26   23.70
   3  17  -5  373.16   21.70
  -3  17  -5  436.96   24.10
   3 -17  -5  394.36   20.40
  -5 -17  -5  563.44   28.70
  -5 -17   5  548.75   26.90
   5 -17  -5  617.84   25.40
  -7 -17  -5  427.56   29.30
   7 -17   5  416.06   24.80
  -7 -17   5  431.16   24.90
   7 -17  -5  457.65   23.40
   0   0  -6    3.30    1.50
   0   0   6   -1.00    0.90
   0   0  -6    0.30    1.10
   0   0   6    2.20    1.20
   2   0   6 5257.87  113.99
   2   0  -6 4863.31  108.19
  -2   0  -6 4878.41  108.29
  -2   0  -6 5105.99  107.49
   2   0  -6 4937.61  109.09
  -2   0   6 5140.99  113.19
  -2   0   6 5329.47  114.79
   2   0  -6 5001.50  108.59
  -2   0  -6 5121.69  108.59
  -2   0  -6 5018.30  107.29
   4   0  -6    1.90    1.70
  -4   0  -6    1.90    1.40
  -4   0   6   -0.10    1.30
  -4   0  -6    1.60    1.30
  -4   0   6    0.70    1.20
  -4   0  -6    4.10    1.50
   4   0   6    7.40    2.20
  -4   0   6    0.70    1.20
   4   0  -6    6.40    2.10
   4   0  -6    0.90    1.40
   4   0   6    0.80    1.20
  -6   0  -6 7795.22  166.48
   6   0  -6 7699.03  166.58
  -6   0   6 7410.76  162.58
   6   0   6 7561.84  160.78
   6   0  -6 7775.42  164.78
  -6   0  -6 7890.81  164.08
  -6   0  -6 7561.34  163.78
   6   0  -6 7661.63  166.48
  -6   0  -6 7678.43  165.38
  -6   0   6 7613.74  163.48
  -6   0   6 7564.34  161.48
   8   0  -6    1.30    1.90
  -8   0  -6    2.10    1.60
  -8   0  -6    2.40    1.80
   8   0  -6    1.50    1.60
  -8   0   6    1.30    1.30
   8   0   6    1.60    1.50
 -10   0  -6 3334.97   72.19
 -10   0  -6 3318.27   77.19
  10   0  -6 3331.17   78.59
 -10   0  -6 3087.19   74.89
 -10   0  -6 3185.78   76.09
  10   0   6 3527.75   82.09
 -10   0   6 3585.54   84.39
  12   0  -6   -1.50    1.80
 -12   0  -6   -1.70    1.90
  12   0   6   10.40    3.00
 -12   0  -6    1.80    1.80
 -12   0   6    1.20    2.00
  14   0  -6 3287.37   82.89
  14   0   6 3395.86   81.99
 -14   0   6 3380.36   83.79
 -14   0  -6 3341.07   80.59
 -14   0  -6 3302.27   71.69
 -16   0  -6   -1.10    2.80
 -16   0   6    3.40    3.30
  16   0  -6   -0.30    3.20
  16   0   6    5.40    3.60
  18   0  -6 1366.16   44.60
 -18   0  -6 1365.76   41.70
 -18   0   6 1359.66   43.70
  18   0   6 1426.76   43.40
  20   0   6    3.00    4.40
 -20   0  -6    1.50    4.10
 -20   0   6    2.20    3.80
  20   0  -6    5.20    4.50
 -22   0  -6  908.61   33.20
  22   0   6 1028.30   37.60
 -22   0   6 1074.29   39.00
  22   0  -6  948.01   37.60
  24   0  -6   -9.20    8.70
 -24   0  -6    0.30    6.20
  24   0   6   -2.40    6.20
   0  -2   6 6773.72  142.19
   0   2  -6 6440.56  140.39
   0  -2  -6 6512.15  137.39
   0  -2  -6 6533.05  140.79
   0  -2   6 6545.34  142.39
   0   2   6 6524.35  142.89
   0   2  -6 6463.15  139.59
   0   2  -6 6658.83  140.79
   0   2   6 6631.54  139.49
   2  -2   6  518.55   16.00
   2  -2   6  523.85   16.50
   2   2  -6  471.15   16.00
  -2   2   6  512.75   16.90
  -2  -2  -6  514.35   16.80
  -2  -2  -6  515.95   13.50
  -2  -2  -6  499.45   13.60
  -2   2   6  496.15   15.20
   2  -2   6  530.85   17.00
  -2   2  -6  497.95   15.20
  -2  -2   6  503.85   16.50
   2  -2  -6  501.95   16.40
   2   2   6  539.35   17.60
  -2   2  -6  483.25   16.10
  -2  -2   6  511.75   17.00
   2  -2  -6  499.75   15.20
  -2  -2   6  495.55   16.70
  -4  -2  -6 4462.05   96.49
  -4   2   6 4591.64  102.29
   4  -2   6 4619.44  103.39
  -4   2   6 4822.32  103.69
   4  -2   6 4699.93  102.09
   4   2  -6 4508.05  104.49
   4   2  -6 4623.84  101.69
  -4  -2   6 4773.42  103.79
   4  -2  -6 4582.64  100.19
  -4  -2   6 4692.13  104.29
  -4  -2   6 4474.45  103.49
  -4   2  -6 4522.85   98.79
  -4   2  -6 4650.94  101.09
   4  -2  -6 4583.34  101.09
  -6   2   6   49.80    4.80
  -6  -2  -6   48.30    5.10
   6   2  -6   50.49    5.00
   6   2  -6   52.29    4.90
  -6  -2  -6   39.30    4.80
   6  -2   6   50.89    4.70
  -6   2   6   49.99    4.70
   6  -2   6   38.90    3.50
  -6  -2  -6   43.30    3.20
   6  -2  -6   37.40    4.20
  -6   2  -6   44.70    3.80
  -6  -2   6   36.60    4.50
  -6  -2   6   38.20    4.00
  -6   2  -6   40.00    4.10
  -6  -2   6   49.50    5.20
   6   2   6   45.10    3.30
   6  -2  -6   41.80    4.10
  -8  -2  -6 4197.08   96.49
  -8   2   6 4554.74  102.19
  -8  -2  -6 4125.09   90.79
  -8  -2  -6 4302.77   97.49
   8  -2   6 4537.95  102.79
   8   2  -6 4295.27   96.49
   8  -2  -6 4152.58   95.79
  -8   2  -6 4209.18   91.99
   8  -2  -6 4161.28   94.49
  -8   2  -6 4305.07   93.09
  -8  -2   6 4604.04  104.59
  -8   2  -6 3996.30   94.59
  -8  -2   6 4556.04  101.49
   8   2   6 4387.16   98.19
   8  -2  -6 4099.09   92.49
  10  -2   6   55.49    5.70
 -10  -2  -6   39.50    4.10
 -10  -2  -6   56.19    6.20
  10   2  -6   52.19    5.50
 -10   2   6   52.29    5.30
 -10   2  -6   40.50    4.60
  10   2   6   47.00    4.40
 -10   2  -6   49.99    4.80
 -10  -2   6   50.49    5.10
  10  -2  -6   42.20    4.40
 -10  -2   6   48.30    5.80
  10  -2  -6   48.70    5.60
  10  -2  -6   48.70    6.50
 -12  -2  -6 2159.78   57.39
  12   2  -6 2230.58   57.29
  12  -2   6 2126.49   57.09
 -12   2   6 2261.87   56.49
 -12  -2  -6 2027.80   51.49
 -12  -2   6 2221.08   54.29
  12   2   6 2209.98   53.79
 -12  -2   6 2138.09   58.69
 -12   2  -6 2149.08   54.59
  14  -2   6  223.38   13.20
 -14  -2  -6  199.08   13.00
  14   2  -6  214.38   13.10
 -14   2   6  217.98   12.60
 -14  -2   6  248.78   14.80
 -14  -2   6  227.48   11.20
  14   2   6  216.18   11.50
 -14   2  -6  221.88   11.00
 -14   2  -6  186.58   10.50
  14  -2  -6  192.88   12.60
  16  -2   6 2263.77   62.09
  16   2  -6 2094.19   58.69
 -16  -2  -6 2111.59   58.99
 -16   2   6 2331.57   75.79
 -16  -2  -6 2046.90   48.70
  16  -2  -6 2088.79   59.39
  16   2   6 2235.58   58.69
 -16  -2   6 2303.87   56.19
 -16  -2   6 2328.67   64.19
 -16   2  -6 2117.39   53.49
 -18  -2  -6   28.50    3.80
 -18   2   6   31.40    6.40
  18  -2   6   34.00    7.30
  18   2  -6   19.00    5.30
 -18  -2  -6   14.00    5.00
  18   2   6   21.90    5.10
 -18  -2   6   18.90    5.60
 -18   2  -6   32.00    5.90
  18  -2  -6   15.80    5.40
 -20  -2  -6 1652.93   50.49
  20  -2   6 1539.65   48.60
 -20   2   6 1507.55   46.10
  20   2  -6 1590.34   50.89
  20   2   6 1523.85   45.30
 -20   2  -6 1567.84   44.60
 -20  -2   6 1446.96   49.10
  22  -2   6    0.00    5.30
 -22  -2  -6    1.70    5.20
  22   2  -6    3.20    5.70
 -22   2   6   10.80    5.30
  22   2   6    2.50    4.90
 -22   2  -6   -0.80    5.20
  22  -2  -6    5.10    5.20
 -22  -2   6    5.70    5.90
  24  -2   6  794.52   33.60
  24   2  -6  715.33   32.70
 -24   2   6  770.52   33.20
 -24   2  -6  720.73   26.80
  24   2   6  709.73   34.70
 -24  -2   6  720.33   33.10
   0   4  -6    1.60    1.60
   0   4  -6    1.50    1.70
   0   4   6    2.50    1.10
   0  -4  -6    0.80    0.80
   0  -4  -6    4.00    2.10
   0   4  -6    3.40    1.70
   0  -4   6    1.90    1.40
   0   4   6   -1.60    1.00
   2  -4   6 4549.14   98.89
  -2   4   6 4452.45  101.09
  -2  -4  -6 4427.06   90.89
   2   4  -6 4369.56   98.19
   2  -4   6 4564.34  102.49
   2   4  -6 4430.06   98.49
   2  -4   6 4513.95  100.99
  -2   4   6 4463.05   97.99
  -2  -4  -6 4315.87   98.69
  -2   4  -6 4259.67   94.99
  -2   4  -6 4361.56   98.29
   2  -4  -6 4447.65  100.19
  -2  -4   6 4657.13  101.69
   2  -4  -6 4297.37   94.49
  -4  -4  -6  412.76   16.50
   4   4  -6  415.86   15.90
  -4  -4  -6  430.66   17.20
  -4   4   6  411.26   14.50
   4  -4   6  415.26   15.00
   4  -4   6  436.46   16.60
   4   4  -6  424.76   16.00
   4  -4   6  438.66   13.50
  -4   4   6  446.26   15.60
  -4  -4   6  457.15   16.80
  -4  -4   6  420.56   15.90
  -4   4  -6  435.36   13.20
   4  -4  -6  436.86   14.80
   4  -4  -6  445.46   15.50
  -4   4  -6  428.96   16.10
  -6  -4  -6 3790.42   88.89
   6  -4   6 3779.82   81.89
   6  -4   6 3793.02   88.19
   6  -4   6 3718.93   84.39
  -6   4   6 3788.52   85.69
   6   4  -6 3752.02   86.49
  -6  -4  -6 3701.33   77.19
  -6  -4  -6 3664.43   77.09
  -6   4   6 3718.13   85.89
  -6  -4   6 3821.82   88.79
  -6   4  -6 3707.33   80.69
   6  -4  -6 3735.03   85.19
  -8  -4  -6  178.38   11.20
  -8  -4  -6  169.28    5.90
  -8   4   6  166.38    9.10
   8  -4   6  155.18   10.00
   8  -4   6  159.68    7.90
   8   4  -6  153.88    9.50
  -8  -4   6  178.18   11.20
   8  -4  -6  181.08   10.80
   8  -4  -6  172.68    9.80
  -8   4  -6  158.18    7.00
   8   4   6  176.18    6.20
  -8   4  -6  159.18    6.70
  10  -4   6 2604.74   59.99
  10   4  -6 2384.26   61.89
 -10  -4  -6 2434.06   54.59
  10  -4   6 2696.93   67.79
 -10  -4  -6 2460.95   64.79
 -10   4   6 2652.13   63.69
 -10  -4   6 2620.64   64.99
 -10   4  -6 2547.34   55.49
  10  -4  -6 2394.26   57.89
  10  -4  -6 2511.35   62.49
 -10  -4   6 2676.83   68.59
  10   4   6 2639.04   59.19
 -10   4  -6 2481.15   54.69
  10  -4  -6 2345.97   58.79
 -12  -4  -6   17.30    4.50
 -12   4   6   14.20    3.50
  12  -4   6   11.50    3.90
  12   4  -6   11.10    4.30
 -12  -4  -6   22.10    3.60
 -12  -4   6   19.40    4.10
 -12   4  -6   19.80    3.20
  12   4   6   19.50    3.30
  12  -4  -6   14.70    3.90
 -12  -4   6   23.60    5.60
  14   4  -6 2389.86   62.99
 -14  -4  -6 2403.46   65.39
 -14   4   6 2440.16   60.09
  14  -4   6 2419.16   64.79
 -14  -4  -6 2310.97   55.99
  14  -4  -6 2250.87   54.69
 -14   4  -6 2323.47   53.89
  14  -4  -6 2395.86   64.29
 -14  -4   6 2401.86   60.39
 -14  -4   6 2285.37   65.39
  14   4   6 2359.86   57.19
 -14   4  -6 2409.76   54.49
  16  -4   6   16.10    5.10
 -16   4   6   17.10    4.50
 -16  -4  -6   18.30    5.80
  16   4  -6   11.10    4.10
  16  -4  -6   14.60    4.80
 -16   4  -6   15.20    3.40
 -16   4  -6    9.80    3.00
 -16  -4   6   24.90    5.00
 -16  -4   6    5.90    4.30
  16   4   6   11.50    3.40
 -18  -4  -6 1498.35   49.00
  18  -4   6 1561.04   49.50
  18   4  -6 1553.54   47.40
 -18   4  -6 1495.15   37.80
  18  -4  -6 1440.46   48.00
 -18  -4   6 1551.84   42.60
 -18  -4   6 1511.25   50.29
  18   4   6 1535.35   42.80
  20  -4   6   14.50    6.70
  20   4  -6    4.20    5.20
 -20   4   6   11.20    5.20
 -20  -4  -6    4.70    5.00
  20   4   6    2.40    4.40
  20  -4  -6    5.10    4.90
 -20  -4   6    5.00    4.40
 -20  -4   6    8.90    9.00
  22   4  -6 1577.44   51.59
 -22   4   6 1708.43   48.90
  22  -4   6 1665.23   55.29
 -22  -4  -6 1614.44   53.39
  22   4   6 1718.23   48.90
 -22  -4   6 1657.83   55.99
  22  -4  -6 1616.94   54.09
 -24   4   6    0.00    6.80
 -24  -4  -6   -4.60    7.10
  24   4   6    4.60    7.00
  24  -4  -6   -0.90    6.60
   0  -6  -6 6128.39  134.69
   0  -6  -6 6113.19  126.79
   0  -6  -6 5770.72  132.69
   0   6  -6 6005.20  133.29
   0  -6   6 5907.11  130.29
   0   6   6 6005.80  125.69
  -2  -6  -6   60.39    2.30
   2   6  -6   54.29    5.50
   2  -6   6   72.59    6.70
  -2  -6  -6   71.29    6.80
   2   6  -6   60.29    5.80
   2  -6   6   61.99    4.80
  -2   6  -6   56.89    4.70
   2  -6  -6   54.19    4.20
  -2  -6   6   59.69    5.80
   2  -6  -6   65.99    5.90
  -4  -6  -6 2854.41   71.49
  -4   6   6 2912.01   69.49
   4  -6   6 3075.79   67.39
   4   6  -6 2897.41   69.39
  -4   6   6 3049.79   71.29
   4  -6   6 3035.10   74.19
  -4   6  -6 2790.82   63.49
   4  -6  -6 2894.81   66.29
   4  -6  -6 2798.42   66.99
  -4  -6   6 3099.49   73.69
   6   6  -6   79.69    6.70
   6  -6   6   90.89    4.40
  -6   6   6   92.49    6.60
  -6  -6  -6   89.79    8.20
   6  -6   6   79.09    7.20
  -6   6  -6   79.19    4.30
   6  -6  -6   85.69    6.60
  -6  -6   6   87.39    7.60
  -8   6   6 3828.22   86.99
   8  -6   6 3826.62   92.19
   8   6  -6 3780.32   89.39
  -8  -6  -6 3809.72   93.19
   8  -6   6 3743.93   86.49
   8  -6  -6 3846.42   88.89
  -8  -6   6 3855.31   93.09
   8  -6  -6 3646.54   85.39
  -8   6  -6 3768.92   79.19
  10  -6   6   77.29    5.70
  10   6  -6   78.09    7.70
 -10  -6  -6   75.59    8.20
  10  -6   6   95.29    8.50
  10  -6  -6   83.59    6.70
 -10  -6   6   72.89    8.30
 -12   6   6 2950.30   69.69
 -12  -6  -6 2804.82   76.59
  12  -6   6 2885.81   66.69
 -12  -6  -6 2865.61   62.39
  12  -6   6 2930.31   76.89
  12   6  -6 2881.41   72.49
  12   6   6 3013.50   64.29
 -12  -6   6 2930.51   78.09
  12  -6  -6 2942.61   74.19
  12  -6  -6 2805.22   67.69
  14  -6   6   18.80    4.70
 -14  -6  -6   19.70    3.30
  14   6  -6   23.50    5.30
 -14  -6  -6   17.00    5.60
 -14   6   6   19.40    4.20
 -14  -6   6   33.70    6.70
 -14  -6   6   20.10    5.30
  14   6   6   21.10    3.50
  14  -6  -6   26.40    6.00
 -16   6   6 1468.35   40.30
  16   6  -6 1387.86   43.30
 -16  -6  -6 1415.26   40.00
  16  -6   6 1456.75   48.00
 -16  -6  -6 1296.87   46.10
  16  -6  -6 1332.97   44.30
  16   6   6 1540.95   38.00
 -16  -6   6 1451.65   49.00
 -16  -6   6 1489.85   43.90
 -18   6   6   35.60    6.40
  18   6  -6   35.40    7.30
 -18  -6  -6   27.90    7.10
  18  -6   6   39.90    7.30
  18   6   6   32.10    5.80
 -18  -6   6   19.80    8.00
 -18  -6   6   40.50    6.80
  20  -6   6  818.52   34.90
  20   6  -6  865.91   33.70
 -20  -6  -6  888.11   37.30
 -20   6   6  835.02   27.10
 -20  -6   6  810.52   35.60
  20  -6  -6  831.62   35.60
 -20  -6   6  798.32   28.60
 -22  -6  -6    6.20    7.30
  22   6  -6   14.20    6.80
  22  -6   6    6.80    6.00
 -22  -6   6   22.80    8.30
  22  -6  -6   11.60    5.20
  22   6   6    5.00    5.80
 -22  -6   6    7.60    6.00
  24   6  -6  660.83   30.50
 -24  -6  -6  697.33   33.70
  24  -6  -6  614.24   31.00
   0   8  -6   -4.30    2.40
   0   8   6    0.30    1.40
   0  -8  -6   -4.20    1.80
   0  -8   6   -1.10    1.60
   0  -8  -6   -1.20    1.20
   2  -8   6 2602.14   65.79
  -2  -8  -6 2640.44   69.29
   2   8  -6 2662.63   68.29
   2  -8   6 2604.14   60.29
  -2  -8  -6 2777.92   57.89
  -2   8   6 2486.25   61.19
   2  -8  -6 2841.82   63.09
  -2  -8   6 2529.35   63.39
   2  -8  -6 2776.12   67.99
  -2   8  -6 2680.13   63.99
   4  -8   6  115.49    6.30
   4   8  -6  114.09    8.80
  -4   8   6  111.59    7.80
   4  -8   6  119.29    9.60
  -4  -8  -6  111.29    9.40
  -4  -8   6  114.99    8.90
   4  -8  -6  110.79    8.20
   4  -8  -6  112.69    7.40
  -4   8  -6  109.69    6.40
  -6  -8  -6 2660.33   69.49
   6   8  -6 2590.64   65.39
   6  -8   6 2622.94   68.19
   6  -8   6 2553.64   56.39
   6  -8  -6 2473.05   61.99
  -6   8  -6 2582.94   56.69
  -6  -8   6 2647.14   67.99
   6  -8  -6 2662.03   64.09
   8  -8   6   19.40    4.80
  -8  -8  -6   11.40    4.60
   8   8  -6   11.50    3.90
   8  -8  -6   21.20    4.60
  -8  -8   6   13.00    4.20
   8  -8  -6   12.00    3.60
  10  -8   6 1486.05   39.90
  10   8  -6 1521.95   43.60
 -10   8   6 1516.25   39.20
  10  -8   6 1430.56   45.50
 -10  -8  -6 1504.05   47.90
  10  -8  -6 1426.46   38.60
  10  -8  -6 1552.34   44.50
 -10  -8   6 1493.25   47.00
 -12  -8  -6   46.60    7.70
 -12   8   6   46.90    5.50
  12  -8   6   46.30    7.70
  12   8  -6   33.80    6.40
  12  -8   6   49.60    5.10
  12  -8  -6   39.30    6.30
 -12  -8   6   36.70    7.80
  14  -8   6 1832.32   56.69
  14  -8   6 1830.72   45.20
  14   8  -6 1932.71   53.99
 -14  -8  -6 1875.81   59.19
 -14   8   6 1919.91   46.90
 -14  -8   6 1896.71   58.59
  14  -8  -6 1903.71   56.19
  16  -8   6   25.60    7.40
 -16  -8  -6   20.70    6.80
  16   8  -6   27.20    6.60
 -16   8   6   18.90    4.20
  16  -8  -6   23.30    6.90
 -16  -8   6   34.50    8.10
  18  -8   6 1130.19   42.90
  18   8  -6 1148.49   38.50
 -18  -8  -6 1045.40   42.20
 -18   8   6 1145.99   31.00
 -18  -8   6 1136.89   38.30
 -18  -8   6 1159.88   44.30
  18   8   6 1165.48   31.60
  18  -8  -6 1103.99   41.20
  20   8  -6   26.00    7.50
  20  -8   6   22.40    8.00
 -20  -8  -6   28.50    8.70
  20  -8  -6   45.60    9.80
 -20  -8   6   18.90    7.70
  22  -8   6 1011.60   41.20
  22   8  -6  980.30   37.20
 -22  -8   6  936.01   33.80
 -22  -8   6  941.61   42.00
   0 -10  -6 3352.56   82.49
   0  10  -6 3360.56   83.09
   0  10   6 3340.37   75.39
   0 -10  -6 3215.78   73.49
   0 -10   6 3484.15   81.09
  -2  10   6   70.19    6.30
   2  10  -6   78.09    7.70
   2 -10   6   60.19    5.90
   2 -10   6   55.79    7.20
  -2 -10  -6   55.59    7.30
  -2 -10   6   62.69    6.90
  -2  10  -6   71.19    7.00
   2 -10  -6   61.39    5.60
   2 -10  -6   55.89    6.80
   2  10   6   67.59    3.60
   4 -10   6 2592.64   59.29
   4  10  -6 2317.37   61.29
  -4 -10  -6 2337.17   64.09
   4 -10   6 2540.85   68.29
  -4  10  -6 2232.28   54.29
   4 -10  -6 2348.57   57.39
   4 -10  -6 2323.87   59.39
   6  10  -6   75.19    7.80
   6 -10   6   67.79    8.20
  -6 -10  -6   55.29    7.80
   6 -10   6   69.19    3.80
  -6 -10   6   84.69    9.10
  -6  10  -6   64.39    4.20
   6 -10  -6   71.99    6.90
   6 -10  -6   84.19    7.40
   8 -10   6 2480.85   68.49
  -8 -10  -6 2338.07   67.79
   8  10  -6 2452.55   63.39
   8 -10  -6 2374.86   62.49
   8 -10  -6 2391.16   59.09
  -8 -10   6 2487.85   68.79
  10 -10   6   10.30    4.30
  10  10  -6    4.40    3.50
 -10 -10  -6   12.40    4.40
  10 -10  -6    4.20    3.10
 -10 -10   6    3.20    3.40
  10 -10  -6    7.60    4.30
  12  10  -6 1639.04   47.20
  12 -10   6 1688.33   53.49
 -12 -10  -6 1629.04   53.09
  12 -10   6 1670.83   45.40
  12 -10  -6 1561.34   39.90
  12 -10  -6 1541.45   48.00
 -12 -10   6 1710.03   54.79
  12 -10  -6 1522.55   40.40
 -14 -10  -6   28.20    9.20
  14 -10   6   60.29   10.60
  14  10  -6   41.30    7.90
  14 -10  -6   55.59    8.60
  16 -10   6 1120.89   30.10
  16 -10   6 1187.28   43.80
 -16 -10  -6 1312.57   48.20
  16  10  -6 1247.68   40.90
  16 -10  -6 1189.18   43.20
 -16 -10   6 1144.49   44.50
 -18 -10  -6    6.20    6.90
  18  10  -6   -1.60    5.60
  18 -10   6    4.80    4.80
 -18 -10   6    2.40    6.00
  18 -10  -6    9.40    5.90
  20  10  -6 1296.37   44.00
  20 -10   6 1321.77   50.29
  20 -10  -6 1343.37   48.60
 -20 -10   6 1360.16   51.89
 -20 -10   6 1348.57   45.00
   0  12  -6    1.20    3.60
   0 -12  -6   -0.80    3.30
   0 -12   6   -5.00    2.80
   0 -12  -6   -1.70    2.20
  -2 -12  -6 1310.57   43.30
   2 -12   6 1330.57   36.60
   2  12  -6 1368.26   42.90
   2 -12   6 1319.17   42.60
  -2 -12   6 1332.37   40.30
   2 -12  -6 1406.26   37.10
   2  12   6 1309.97   30.40
   2 -12  -6 1382.66   41.80
   4  12  -6    6.10    4.20
   4 -12   6    5.80    3.40
   4 -12   6    4.50    2.90
  -4 -12  -6    6.20    4.80
  -4 -12   6    5.00    4.00
   4 -12  -6    8.80    3.80
   4 -12  -6    3.80    3.70
  -6 -12  -6 1773.12   55.19
   6 -12   6 1441.66   47.70
   6  12  -6 1767.22   50.89
  -6 -12   6 1612.84   48.60
   6 -12  -6 1789.62   49.10
   6 -12  -6 1758.42   47.70
  -8 -12  -6   28.00    7.10
   8 -12   6   26.70    6.50
   8  12  -6   35.80    7.10
   8 -12  -6   22.80    5.00
  -8 -12   6   27.20    7.40
   8 -12  -6   23.70    5.90
 -10 -12  -6 1209.48   44.90
  10  12  -6 1251.87   39.60
  10 -12   6 1200.28   43.10
  10 -12  -6 1275.97   41.10
 -10 -12   6 1202.88   43.30
  12 -12   6   -2.20    4.00
  12  12  -6    4.30    5.00
 -12 -12  -6   -0.70    4.90
  12 -12  -6    3.30    4.20
  12 -12  -6   -0.70    4.40
 -12 -12   6   -1.50    4.90
  14 -12   6 1184.18   44.40
 -14 -12  -6 1152.78   45.90
  14  12  -6 1237.98   39.90
  14 -12  -6 1184.88   42.00
 -14 -12   6 1146.49   44.60
  16 -12   6   31.30    9.10
 -16 -12  -6   12.50    7.40
  16  12  -6   28.80    8.20
  16 -12  -6   15.10    6.90
 -16 -12   6   27.60    9.00
  18 -12   6  581.14   31.40
  18  12  -6  618.44   26.50
 -18 -12  -6  551.44   34.80
 -18 -12   6  594.04   32.10
   0 -14  -6 1370.56   44.50
   0  14  -6 1466.75   46.40
   0 -14   6 1394.76   41.30
   2  14  -6   27.10    6.50
  -2 -14  -6   14.20    5.80
   2 -14   6   30.70    5.70
  -2 -14   6   22.40    6.00
   2 -14  -6   29.70    6.40
   2 -14  -6   29.00    5.40
  -2  14  -6   12.00    5.80
   2  14   6   26.00    3.70
   4 -14   6 1891.41   57.99
  -4 -14  -6 1787.82   56.29
   4  14  -6 1917.91   54.99
   4 -14  -6 1858.31   50.09
   4 -14  -6 1811.72   51.19
  -4 -14   6 1976.90   56.79
  -6 -14  -6    9.90    6.00
   6  14  -6    7.10    5.20
  -6 -14   6   10.20    5.60
   6 -14  -6    7.50    5.80
   6 -14  -6    7.40    4.60
   8 -14   6 1265.77   45.10
  -8 -14  -6 1217.78   45.50
   8  14  -6 1245.18   40.50
   8 -14  -6 1226.68   35.20
   8 -14  -6 1263.27   40.20
  10 -14   6    3.10    6.10
 -10 -14  -6   14.10    7.80
  10  14  -6   11.20    5.90
  10 -14  -6   17.00    6.50
 -10 -14   6   -5.80    5.00
  12 -14   6  908.41   39.00
  12  14  -6  932.71   33.60
 -12 -14  -6  942.51   40.40
  12 -14  -6  966.30   36.50
 -14 -14  -6   11.80    7.30
  14  14  -6   13.00    6.60
  14 -14   6   21.10    8.30
  14 -14   6    5.70    6.60
  14 -14  -6    4.60    6.70
  16 -14   6 1104.99   44.70
 -16 -14   6 1114.59   46.30
  16 -14  -6 1013.40   40.10
   0  16  -6    7.30    6.10
   0 -16  -6    4.20    6.20
   0 -16   6    0.90    5.80
  -2  16  -6  963.70   37.30
   4  16  -6   38.00    8.60
  -4 -16  -6   25.60    8.10
   4 -16  -6   34.70    7.90
   4 -16  -6   19.10    6.50
  -4 -16   6   22.40    7.90
  -6 -16  -6  845.12   36.10
   6 -16   6  804.72   34.00
   6  16  -6  783.42   31.20
   6 -16  -6  773.52   29.80
   6 -16  -6  853.71   30.10
  -6 -16   6  778.42   33.10
  -8 -16  -6   -9.60   11.80
   8  16  -6    2.70    7.40
  -8 -16   6   -5.10    6.50
   8 -16  -6    3.20    6.40
  10 -16  -6  730.23   30.60
   1   1  -7 1941.91   47.60
  -1  -1  -7 1973.60   47.80
   1   1  -7 1885.91   47.20
   1  -1   7 2381.56   56.49
  -1   1   7 2329.87   54.69
  -1   1   7 2395.46   57.19
   1   1  -7 1969.70   47.50
   1  -1   7 2377.46   56.49
  -1  -1  -7 1942.41   45.40
   1   1   7 2419.86   57.19
  -1   1  -7 1924.61   47.00
  -1  -1   7 2292.17   55.69
  -1   1  -7 1892.11   46.90
  -1  -1   7 2446.86   57.09
  -1   1  -7 2002.10   47.10
   1  -1  -7 1924.91   47.40
   1  -1  -7 2040.80   46.30
  -1  -1   7 2457.65   57.19
   1  -1  -7 1966.40   47.90
  -1   1  -7 1997.00   47.40
   3   1  -7 2069.29   48.90
  -3  -1  -7 2024.20   46.00
   3  -1   7 2152.48   49.80
  -3  -1  -7 1946.21   50.49
   3  -1   7 2120.89   49.60
  -3  -1  -7 2014.20   46.00
  -3   1   7 2010.10   50.39
  -3   1   7 1940.91   48.70
   3   1  -7 1923.91   48.90
   3  -1  -7 1960.60   51.29
  -3  -1   7 2114.49   50.89
  -3  -1   7 1909.11   57.89
   3   1   7 2056.89   50.59
  -3   1  -7 1959.10   47.60
  -3  -1   7 2105.49   50.39
  -3   1  -7 1998.20   47.60
   3  -1  -7 1978.00   50.69
  -3   1  -7 2007.10   48.00
   3  -1  -7 1984.50   47.70
   5  -1   7 2526.85   59.09
  -5  -1  -7 2439.26   55.99
   5  -1   7 2448.35   58.99
   5   1  -7 2493.55   59.69
  -5   1   7 2520.15   60.49
   5   1  -7 2409.86   58.39
  -5   1   7 2471.55   59.39
  -5  -1  -7 2422.26   59.19
  -5   1  -7 2586.04   57.89
  -5  -1   7 2430.06   59.69
   5   1   7 2578.24   59.19
  -5  -1   7 2554.44   59.99
  -5   1  -7 2420.46   57.79
  -5   1  -7 2418.66   58.09
  -5  -1   7 2461.25   60.89
   5  -1  -7 2431.16   59.39
   5  -1  -7 2712.43   68.79
   5  -1  -7 2493.25   59.19
  -7  -1  -7  795.62   22.20
   7   1  -7  808.62   25.60
  -7  -1  -7  838.32   26.10
   7  -1   7  983.40   28.30
  -7   1   7  992.20   29.30
  -7  -1  -7  783.42   24.90
   7  -1  -7  808.12   25.20
  -7   1  -7  812.22   23.90
   7  -1  -7  828.92   25.30
   7   1   7  970.70   26.30
  -7  -1   7  990.10   30.10
  -7   1  -7  806.52   23.60
  -7  -1   7  978.30   28.30
   7  -1  -7  811.92   23.60
  -9  -1  -7 1733.03   46.30
   9  -1   7 1840.12   47.50
   9   1  -7 1780.52   46.50
  -9   1   7 1820.92   48.20
  -9  -1  -7 1595.84   43.60
  -9   1  -7 1725.63   45.30
   9   1   7 1803.22   45.30
  -9   1  -7 1743.93   41.30
  -9   1  -7 1670.43   44.10
   9  -1  -7 1702.33   45.90
  -9  -1   7 1853.81   49.40
  -9  -1   7 1862.91   46.80
  11  -1   7 1137.89   34.50
 -11  -1  -7 1145.49   34.50
 -11  -1  -7 1102.39   29.60
 -11  -1  -7 1050.99   30.30
  11   1  -7 1133.49   34.70
 -11   1   7 1204.08   35.80
 -11  -1   7 1202.18   33.10
  11  -1  -7 1150.88   34.70
 -11   1  -7 1113.39   31.70
 -11  -1   7 1172.78   36.30
 -11   1  -7 1090.79   28.20
  11   1   7 1175.98   32.90
 -11   1  -7 1108.49   32.30
 -13   1   7 2343.07   60.09
  13   1  -7 1982.40   55.29
 -13  -1  -7 2010.20   54.89
 -13  -1  -7 2069.59   48.40
  13  -1   7 2186.68   58.29
 -13  -1   7 2189.58   64.79
  13   1   7 2262.87   56.69
 -13   1  -7 2017.80   52.59
  13  -1  -7 2057.69   55.99
 -15   1   7  664.93   25.90
 -15  -1  -7  620.64   18.30
  15  -1   7  653.13   25.00
  15   1  -7  620.94   25.50
 -15  -1   7  678.13   27.00
  15   1   7  661.13   23.70
 -15   1  -7  652.13   23.40
  15  -1  -7  622.34   25.80
 -17  -1  -7  745.13   19.60
  17  -1   7  685.93   27.40
 -17  -1  -7  755.22   29.10
  17   1  -7  786.62   30.50
 -17   1   7  751.52   28.80
  17  -1  -7  822.12   31.00
 -17   1  -7  755.32   26.80
 -17  -1   7  771.42   30.10
  17   1   7  791.12   27.60
 -19   1   7  803.12   31.20
 -19  -1  -7  694.83   28.00
  19   1  -7  728.33   30.20
  19  -1   7  866.91   31.80
  19  -1  -7  741.43   30.70
 -19  -1   7  809.72   32.50
 -19   1  -7  691.53   26.10
  19   1   7  813.72   29.60
 -21   1   7  490.85   24.00
  21   1  -7  455.95   23.90
  21  -1   7  524.95   24.60
 -21  -1  -7  483.05   23.20
  21   1   7  498.95   23.20
  21  -1  -7  447.06   24.00
 -21   1  -7  478.25   21.30
 -21  -1   7  490.75   25.40
  23  -1   7  512.75   25.40
  23   1  -7  405.16   24.00
 -23  -1  -7  504.45   36.30
  23   1   7  466.25   23.70
 -23  -1   7  473.35   26.30
  23  -1  -7  493.65   26.00
 -23   1  -7  460.75   21.80
 -25   1   7  392.86   22.90
  25   1  -7  422.06   24.90
  25  -1   7  361.86   23.00
  25  -1  -7  343.57   26.80
  25   1   7  425.46   23.20
 -25  -1   7  418.76   25.10
  -1   3   7 3054.89   68.19
  -1   3   7 3120.29   72.19
   1   3  -7 3047.50   70.89
  -1  -3  -7 2918.31   69.59
   1   3  -7 2925.01   69.59
   1  -3   7 3088.59   70.59
  -1  -3  -7 3008.80   64.59
   1   3  -7 2991.00   69.49
   1  -3   7 3160.48   71.79
   1   3   7 2922.31   66.69
   1   3   7 3037.00   72.39
  -1  -3   7 3136.69   72.19
  -1   3  -7 3031.10   69.59
  -1   3  -7 2931.01   67.69
  -1  -3   7 3100.89   71.39
   1  -3  -7 2858.21   69.09
   3   3  -7 1941.01   48.40
   3   3  -7 1827.32   47.70
  -3  -3  -7 1934.51   48.70
  -3  -3  -7 1981.50   42.50
  -3  -3  -7 1940.11   42.50
   3  -3   7 1815.42   45.60
  -3   3   7 1852.11   44.40
   3  -3   7 1826.02   46.90
   3  -3   7 1864.51   44.60
  -3   3   7 1851.81   46.50
  -3   3  -7 1874.61   45.60
  -3  -3   7 1896.41   47.10
  -3  -3   7 1727.53   46.00
  -3   3  -7 1931.31   48.20
   3  -3  -7 1912.61   47.80
   3  -3  -7 1911.31   45.80
  -3  -3   7 1881.31   47.20
   5   3  -7 1826.32   46.30
  -5  -3  -7 1751.12   47.10
  -5   3   7 1844.32   46.80
  -5  -3  -7 1761.82   39.20
   5  -3   7 1891.21   45.40
  -5  -3  -7 1786.82   52.29
   5  -3   7 1845.12   46.30
  -5  -3  -7 1821.42   39.60
   5  -3   7 1920.51   48.70
  -5   3   7 1934.41   48.10
   5  -3  -7 1771.72   44.40
  -5  -3   7 1928.91   49.40
  -5  -3   7 1932.41   48.70
  -5   3  -7 1736.23   45.40
   5  -3  -7 1749.43   45.00
  -5   3  -7 1758.62   42.30
   7  -3   7 1111.49   29.60
  -7  -3  -7 1031.10   31.80
   7   3  -7 1006.70   30.00
  -7   3   7 1080.39   31.40
  -7  -3  -7  963.10   25.10
   7  -3   7 1073.69   32.30
   7  -3  -7 1047.00   29.60
   7  -3  -7  955.70   28.50
  -7  -3   7 1068.99   31.70
  -7  -3   7 1095.79   33.60
  -7   3  -7  927.11   25.60
   7   3   7 1152.28   26.80
  -9   3   7 2428.66   59.89
  -9  -3  -7 2280.37   59.29
  -9  -3  -7 2189.68   50.59
   9   3  -7 2190.98   57.29
   9  -3   7 2334.97   61.09
   9   3   7 2456.45   62.09
  -9   3  -7 2252.57   53.19
  -9  -3   7 2339.37   62.59
  -9  -3   7 2510.15   60.49
  -9   3  -7 2183.68   51.89
   9  -3  -7 2291.67   57.39
 -11   3   7  659.23   22.50
 -11  -3  -7  486.85   16.00
  11  -3   7  583.64   23.00
 -11  -3  -7  519.45   21.90
  11   3  -7  537.05   21.20
 -11  -3   7  626.54   21.90
 -11   3  -7  518.55   16.90
  11  -3  -7  563.14   29.90
 -11   3  -7  543.35   17.60
  11   3   7  626.94   19.00
  13   3  -7  589.04   23.60
  13  -3   7  752.12   27.70
 -13   3   7  745.23   25.70
 -13  -3  -7  561.74   24.00
 -13  -3  -7  553.54   21.00
 -13  -3   7  720.93   28.40
 -13   3  -7  613.14   19.60
  13  -3  -7  630.34   24.30
  13   3   7  769.52   23.20
  13  -3  -7  569.14   18.80
 -15   3   7  550.84   21.50
  15  -3   7  500.45   22.60
 -15  -3  -7  396.26   20.00
  15   3  -7  395.36   19.30
 -15  -3   7  546.75   24.50
  15   3   7  512.85   19.00
 -15  -3   7  530.25   20.00
  15  -3  -7  384.86   19.50
 -15   3  -7  394.06   15.40
 -15   3  -7  387.56   15.20
  17   3  -7  812.42   31.10
 -17  -3  -7  806.72   31.70
 -17   3   7  946.41   31.60
  17  -3   7  888.01   33.50
  17   3   7  940.01   29.50
  17  -3  -7  750.22   30.80
 -17  -3   7  916.71   29.00
 -17  -3   7  919.61   35.30
 -17   3  -7  850.41   25.70
 -19   3   7  619.14   25.30
 -19  -3  -7  580.74   26.80
  19  -3   7  637.24   27.90
  19   3  -7  562.64   26.20
 -19   3  -7  605.64   21.20
  19   3   7  658.73   24.40
 -19  -3   7  626.04   28.90
  19  -3  -7  568.54   30.20
  21  -3   7  520.05   25.50
 -21   3   7  463.75   22.00
 -21  -3  -7  462.95   24.20
  21   3  -7  472.35   24.20
 -21  -3   7  463.05   25.30
  21  -3  -7  441.06   24.70
  21   3   7  514.35   21.80
 -21   3  -7  433.56   18.10
  23  -3   7  221.08   17.60
 -23   3   7  224.48   16.50
 -23  -3  -7  183.18   16.60
  23   3  -7  206.68   16.60
  23   3   7  237.48   16.10
 -23  -3   7  228.98   18.50
  23  -3  -7  219.68   17.90
 -25  -3  -7  213.48   18.50
 -25   3   7  293.17   19.70
 -25  -3   7  309.87   22.10
  25  -3  -7  240.78   19.00
  -1  -5  -7 1405.36   31.30
  -1   5   7 1592.74   41.80
   1   5  -7 1404.06   38.50
  -1   5   7 1563.44   37.20
   1   5  -7 1335.77   36.40
   1  -5   7 1500.45   42.10
   1  -5   7 1478.65   39.10
   1  -5  -7 1384.56   37.60
  -1  -5   7 1623.34   41.00
  -1   5  -7 1341.87   35.30
   3  -5   7 1107.09   31.80
  -3  -5  -7 1023.20   31.20
   3  -5   7 1123.39   29.30
  -3   5   7 1135.49   32.10
   3   5  -7  976.20   29.50
   3  -5   7 1158.48   33.60
  -3   5   7 1080.29   29.30
   3   5  -7  943.81   30.40
   3  -5  -7  920.51   25.80
  -3  -5   7 1119.19   32.70
  -3   5  -7  954.00   25.80
   3  -5  -7  968.40   28.40
   5  -5   7 4108.79   93.19
   5   5  -7 3748.12   87.49
   5  -5   7 3989.70   95.69
  -5   5   7 4207.68   93.79
   5  -5   7 4031.30   91.49
  -5  -5  -7 3832.72   90.39
   5  -5  -7 3626.14   85.49
  -5   5  -7 3682.63   81.69
   5  -5  -7 3742.53   84.89
  -5  -5   7 4102.39   95.89
   7   5  -7 1327.67   38.80
   7  -5   7 1500.95   42.00
  -7   5   7 1402.16   38.50
  -7  -5  -7 1389.26   41.60
   7  -5   7 1432.06   37.70
   7  -5   7 1388.96   34.20
  -7   5  -7 1371.16   33.00
  -7  -5   7 1459.25   42.10
   7  -5  -7 1416.96   38.10
  -9  -5  -7  627.64   25.20
  -9  -5  -7  627.94   16.60
  -9   5   7  705.73   22.90
   9  -5   7  652.53   20.90
   9   5  -7  648.04   23.20
   9  -5   7  663.73   24.90
  -9  -5   7  648.34   24.00
  -9  -5   7  757.22   30.40
  -9   5  -7  618.84   17.30
  -9   5  -7  583.94   16.40
   9  -5  -7  587.34   22.10
  11  -5   7 1388.76   35.40
 -11  -5  -7 1356.86   31.90
 -11  -5  -7 1381.86   43.70
  11   5  -7 1422.86   41.40
  11  -5   7 1396.56   42.70
 -11   5   7 1397.96   38.50
 -11  -5   7 1369.06   43.40
  11  -5  -7 1372.46   41.00
 -11   5  -7 1355.96   32.60
  11   5   7 1420.56   32.60
 -11  -5   7 1355.66   40.30
 -11   5  -7 1361.66   32.20
 -13  -5  -7 2036.60   50.59
 -13   5   7 2209.58   56.19
  13   5  -7 2184.48   58.39
 -13  -5  -7 2158.38   61.29
  13  -5   7 2216.48   61.39
  13   5   7 2193.48   50.89
  13  -5  -7 2006.10   53.49
 -13   5  -7 2178.38   48.00
 -13   5  -7 2138.49   47.60
  13  -5  -7 2205.08   59.49
 -13  -5   7 2220.78   58.39
 -13  -5   7 2168.08   62.59
  15  -5   7  682.93   28.20
  15   5  -7  677.33   26.90
 -15  -5  -7  660.33   28.50
 -15   5   7  681.53   23.90
 -15  -5   7  694.73   29.30
  15   5   7  654.63   20.50
 -15   5  -7  633.04   17.30
  15  -5  -7  644.84   27.20
 -15   5  -7  661.93   17.50
 -15  -5   7  636.94   24.50
  17   5  -7  698.03   28.20
  17  -5   7  823.32   33.00
 -17   5   7  816.82   27.90
 -17  -5  -7  696.93   30.60
 -17   5  -7  701.23   18.50
 -17  -5   7  792.12   33.50
  17   5   7  821.32   25.10
  17  -5  -7  761.52   30.50
 -17  -5   7  813.82   28.40
 -17   5  -7  668.83   18.20
 -19  -5  -7  661.33   30.20
 -19   5   7  663.93   24.90
  19   5  -7  701.63   29.30
  19  -5  -7  645.04   29.40
 -19   5  -7  621.84   16.80
  19   5   7  692.13   23.40
 -19  -5   7  687.43   35.50
 -21  -5  -7  615.24   30.10
  21   5  -7  631.84   28.90
 -21   5   7  634.44   24.90
  21  -5   7  640.94   30.40
 -21  -5   7  622.54   23.90
  21  -5  -7  673.53   30.80
 -21  -5   7  668.83   31.80
 -23   5   7  264.67   16.40
  23  -5   7  295.27   21.70
  23   5  -7  237.88   18.20
 -23  -5  -7  253.37   19.70
  23  -5  -7  252.57   19.40
  23   5   7  247.98   15.90
 -23  -5   7  267.67   24.40
   1   7  -7 1800.12   49.20
  -1   7   7 1770.72   41.40
   1  -7   7 1737.13   48.40
   1  -7   7 1784.12   44.80
  -1  -7  -7 1803.92   40.10
  -1  -7  -7 1789.82   49.60
  -1  -7   7 1789.02   46.20
   1   7   7 1700.13   38.90
   1  -7  -7 1867.31   49.50
   1  -7  -7 1765.72   42.40
  -3  -7  -7  425.16   19.10
  -3   7   7  531.05   19.10
   3  -7   7  540.45   21.50
   3   7  -7  425.56   18.20
   3  -7   7  532.65   17.20
  -3  -7   7  531.05   20.30
  -3   7  -7  434.06   14.90
   3  -7  -7  430.36   15.00
  -5   7   7  848.22   26.90
   5   7  -7  676.83   24.30
   5  -7   7  895.51   30.00
  -5  -7  -7  709.33   26.70
  -5   7  -7  678.43   19.30
  -5  -7   7  841.72   28.80
   5  -7  -7  690.23   22.10
  -7   7   7 1154.28   32.40
   7   7  -7 1093.79   34.00
  -7  -7  -7 1078.79   36.40
   7  -7   7 1084.59   26.10
   7  -7   7 1072.79   35.60
   7  -7   7 1090.19   32.20
  -7   7  -7 1040.00   25.80
   7  -7  -7 1133.89   32.70
   9   7  -7  864.41   32.40
  -9   7   7  883.61   27.20
   9  -7   7  827.02   26.50
  -9  -7  -7  861.51   32.50
   9  -7   7  874.91   31.50
  -9  -7   7  953.70   32.70
   9  -7  -7  912.31   39.00
  11  -7   7  981.30   34.70
  11   7  -7  820.22   29.20
 -11  -7  -7  827.92   32.40
 -11   7   7  991.60   29.50
  11  -7   7  976.10   28.30
  11  -7  -7  859.01   29.70
 -11  -7   7  941.41   35.00
  13  -7   7  623.44   19.70
  13   7  -7  600.64   24.30
  13  -7   7  624.04   27.00
 -13  -7  -7  604.24   27.30
 -13   7   7  660.23   22.00
  13  -7  -7  582.64   24.70
 -13  -7   7  603.44   27.40
 -15   7   7  458.15   17.80
 -15  -7  -7  409.86   22.80
  15  -7   7  454.95   23.10
 -15  -7  -7  422.26   11.90
  15   7  -7  410.76   20.20
  15   7   7  447.96   12.30
  15  -7  -7  415.16   20.90
 -15  -7   7  441.36   20.50
 -15  -7   7  474.75   24.30
 -17  -7  -7  596.34   29.60
  17   7  -7  620.04   26.50
 -17   7   7  718.93   24.50
  17  -7  -7  594.84   37.20
 -17  -7   7  715.63   27.90
 -17  -7   7  808.12   49.80
  19  -7   7  439.76   24.60
  19   7  -7  370.36   20.70
 -19   7   7  410.76   17.50
 -19  -7  -7  337.37   22.00
  19   7   7  427.46   15.10
  19  -7  -7  345.97   21.30
 -19  -7   7  404.96   24.80
  21   7  -7  369.66   21.50
 -21  -7  -7  365.26   24.00
  21  -7   7  460.85   25.70
 -21  -7   7  414.66   20.50
  21  -7  -7  404.26   23.60
 -21  -7   7  385.26   24.50
  23   7  -7  127.09   14.50
  23  -7  -7  150.08   18.50
 -23  -7   7  195.88   26.40
  -1  -9  -7 1080.39   34.90
   1  -9   7 1028.80   29.70
  -1   9   7  967.70   26.20
   1   9  -7 1062.39   35.00
  -1  -9  -7 1032.00   24.90
   1  -9  -7 1011.70   33.50
  -1  -9   7 1001.40   31.00
   1  -9  -7 1028.80   27.30
   3   9  -7 1896.81   55.59
   3  -9   7 2030.80   56.19
   3  -9   7 2065.39   49.30
  -3  -9  -7 1871.41   53.39
  -3   9   7 1948.61   49.10
  -3   9  -7 1717.53   47.90
   3  -9  -7 1904.41   46.40
  -3  -9   7 1996.70   53.99
   3  -9  -7 1895.41   50.99
  -5  -9  -7 1040.20   35.80
   5  -9   7 1062.49   27.40
   5   9  -7  973.60   32.60
   5  -9   7 1067.49   36.00
   5  -9  -7 1010.20   31.50
   5  -9  -7 1022.80   29.90
  -5   9  -7  951.40   26.20
  -5  -9   7 1072.99   35.20
   7  -9   7 1134.09   38.20
   7   9  -7 1084.39   35.00
  -7  -9  -7 1098.29   38.50
   7  -9   7 1125.49   25.30
   7  -9  -7 1081.69   32.90
  -7  -9   7 1181.48   38.30
   7  -9  -7 1096.29   33.50
   9   9  -7  925.11   31.60
  -9  -9  -7  915.31   35.10
   9  -9   7  890.21   33.60
   9  -9   7  932.61   29.70
   9  -9  -7  891.31   30.70
  -9  -9   7  914.11   33.80
  11   9  -7  829.22   29.20
 -11  -9  -7  710.93   31.60
  11  -9   7  838.22   27.60
  11  -9   7  888.71   34.10
 -11  -9   7  908.41   34.60
  11  -9  -7  736.03   28.40
 -13  -9  -7  551.34   27.40
  13  -9   7  576.14   26.70
  13   9  -7  543.95   23.80
  13  -9   7  564.54   20.10
 -13  -9   7  575.54   27.60
  13  -9  -7  561.84   24.80
  15   9  -7  615.34   26.00
 -15  -9  -7  594.94   32.60
  15  -9   7  642.54   30.40
  15  -9  -7  617.04   27.40
 -15  -9   7  657.43   30.80
  17  -9   7  643.84   30.60
 -17  -9  -7  582.94   30.00
  17   9  -7  572.04   25.60
 -17  -9   7  630.04   27.30
  17  -9  -7  581.94   27.70
 -17  -9   7  596.74   30.60
 -19  -9  -7  289.97   21.70
  19   9  -7  347.57   19.70
  19  -9   7  376.96   23.60
  19  -9  -7  307.37   20.50
 -19  -9   7  362.96   23.60
  21  -9   7  808.52   37.00
  21   9  -7  856.01   34.60
 -21  -9  -7  829.12   38.90
 -21  -9   7  864.51   39.70
 -21  -9   7  788.72   32.00
   1  11  -7  555.74   24.10
  -1 -11  -7  613.04   25.30
  -1 -11  -7  594.14   16.00
   1 -11   7  576.94   21.20
   1 -11  -7  578.34   18.30
   1 -11  -7  599.74   24.40
  -1  11  -7  605.54   25.20
  -1 -11   7  627.24   23.40
   3 -11   7 1007.90   28.70
   3 -11   7 1006.70   35.10
  -3 -11  -7  858.91   32.30
   3  11  -7  889.81   31.40
  -3  11  -7  800.02   25.80
   3 -11  -7  850.71   25.90
  -3 -11   7  946.31   32.70
   3 -11  -7  827.22   29.60
   5 -11   7  580.04   26.10
   5 -11   7  615.24   18.00
  -5 -11  -7  584.94   26.40
   5  11  -7  522.15   23.20
   5 -11  -7  577.84   21.10
  -5 -11   7  649.43   26.10
  -5  11  -7  564.14   17.70
   5 -11  -7  610.24   22.80
   7 -11   7 1032.40   37.80
  -7 -11  -7 1037.70   38.70
   7  11  -7 1033.30   35.10
  -7 -11   7 1101.19   37.90
   7 -11  -7 1060.69   33.50
   7 -11  -7 1057.19   32.50
  -9 -11  -7  565.74   27.10
   9 -11   7  509.85   24.70
   9  11  -7  555.04   23.50
   9 -11  -7  519.45   22.50
  -9 -11   7  489.75   24.30
   9 -11  -7  530.15   20.10
 -11 -11  -7  492.75   25.60
  11  11  -7  471.25   21.80
  11 -11   7  483.15   20.70
  11 -11   7  544.25   26.30
  11 -11  -7  445.36   18.30
  11 -11  -7  480.85   22.10
 -11 -11   7  525.45   26.00
  13 -11   7  695.53   31.20
 -13 -11  -7  670.03   31.70
  13  11  -7  641.94   27.00
  13 -11   7  654.03   24.30
  13 -11  -7  675.43   28.30
 -13 -11   7  666.93   31.20
  15  11  -7  452.15   22.10
  15 -11   7  428.66   24.40
 -15 -11  -7  404.36   24.90
 -15 -11   7  392.66   24.20
  15 -11  -7  401.76   22.80
  17 -11   7  511.65   28.20
  17  11  -7  550.04   37.30
 -17 -11  -7  542.25   29.80
 -17 -11   7  522.35   29.30
  17 -11  -7  554.74   27.80
 -19 -11  -7  252.07   30.30
  19  11  -7  214.78   16.80
  19 -11   7  306.87   32.00
 -19 -11   7  288.87   28.70
 -19 -11   7  253.97   18.60
  -1 -13  -7  789.62   31.60
   1 -13   7  872.41   28.40
   1  13  -7  838.22   32.30
  -1  13  -7  872.71   33.30
   1 -13  -7  820.22   24.10
  -1 -13   7  919.51   30.90
   1 -13  -7  846.92   31.40
   1  13   7  862.71   21.40
   1  13   7  860.31   21.40
   3 -13   7  478.05   17.80
   3  13  -7  474.95   22.80
  -3 -13  -7  453.45   23.10
   3 -13  -7  450.15   17.80
  -3 -13   7  491.15   22.00
   3 -13  -7  517.55   22.00
  -5 -13  -7  355.36   21.00
   5 -13   7  297.47   18.50
   5  13  -7  364.96   19.40
  -5 -13   7  338.27   19.10
   5 -13  -7  345.17   17.70
   5 -13  -7  344.77   17.40
   7  13  -7  516.75   23.60
  -7 -13  -7  522.45   26.60
   7 -13   7  586.34   28.60
  -7 -13   7  623.04   27.90
   7 -13  -7  527.25   21.00
   7 -13  -7  591.34   23.20
  -9 -13  -7  551.14   28.10
   9 -13   7  645.74   29.90
   9  13  -7  564.64   25.00
  -9 -13   7  646.24   41.40
   9 -13  -7  550.04   23.70
  11  13  -7  369.96   19.70
 -11 -13  -7  420.56   25.20
  11 -13   7  456.05   25.10
  11 -13  -7  400.56   21.10
 -11 -13   7  483.75   26.00
  11 -13  -7  370.26   14.90
  13 -13   7  694.73   38.20
  13 -13   7  695.83   32.10
 -13 -13  -7  621.04   31.70
  13  13  -7  611.14   26.70
 -13 -13   7  607.34   31.10
  13 -13  -7  583.84   27.60
 -15 -13  -7  246.18   19.90
  15 -13   7  254.67   19.30
  15 -13   7  256.07   15.40
  15  13  -7  268.37   17.80
 -15 -13   7  255.97   20.10
  15 -13  -7  229.78   18.10
 -17 -13  -7  330.77   24.00
  17  13  -7  275.87   19.00
 -17 -13   7  293.07   23.30
  17 -13  -7  309.37   21.60
  -1 -15  -7  491.15   24.40
   1  15  -7  512.55   25.40
  -1 -15   7  608.54   25.00
   1 -15  -7  518.45   24.10
  -3 -15  -7  381.66   24.70
   3  15  -7  348.87   20.50
   3 -15   7  402.66   16.10
   3 -15  -7  377.06   16.40
  -3 -15   7  368.46   20.50
  -3  15  -7  354.26   21.80
   3 -15  -7  363.46   19.40
   5 -15   7  650.53   30.20
  -5 -15  -7  535.75   27.80
   5  15  -7  589.84   26.40
   5 -15  -7  610.74   23.50
  -5 -15   7  659.53   28.60
   7 -15   7  432.76   24.30
  -7 -15  -7  357.96   23.00
   7  15  -7  393.66   21.00
   7 -15  -7  365.76   19.10
  -7 -15   7  382.56   22.50
   7 -15  -7  378.76   17.60
   9  15  -7  394.66   23.70
  -9 -15   7  463.05   25.60
   9 -15  -7  442.06   21.70
  11  15  -7  254.67   17.40
  11 -15  -7  276.97   18.50
  13 -15   7  536.15   32.40
  13  15  -7  463.55   24.00
  -1 -17  -7  432.06   24.00
   1  17  -7  424.26   24.20
  -1  17  -7  379.16   23.30
  -1 -17   7  487.05   23.50
  -3 -17  -7  165.28   17.20
   3  17  -7  151.08   15.60
   3 -17  -7  179.08   16.10
  -3  17  -7  195.58   17.20
   5  17  -7  548.05   26.60
  -5 -17  -7  574.64   29.30
  -5 -17   7  607.04   36.10
   0   0  -8 2717.83   66.69
   0   0   8 3180.58   74.49
   0   0  -8 2680.63   63.79
   0   0  -8 2702.53   62.69
  -2   0  -8    0.40    1.90
   2   0  -8    4.00    2.10
  -2   0  -8    3.00    1.70
  -2   0  -8    2.40    1.50
  -2   0   8   13.30    3.40
   2   0  -8   -2.90    1.40
   2   0   8    1.80    1.40
  -2   0  -8    0.50    1.70
   2   0  -8    0.70    1.20
   4   0  -8 2869.81   67.09
  -4   0   8 2712.53   65.59
   4   0  -8 2827.02   66.69
  -4   0  -8 2910.31   66.59
  -4   0  -8 2772.32   66.59
  -4   0   8 2814.62   67.19
  -4   0  -8 2881.11   65.29
   4   0   8 2828.62   64.49
   4   0   8 2757.52   66.09
   4   0  -8 2762.42   67.39
  -6   0  -8   -0.20    2.00
  -6   0   8    0.30    1.60
   6   0   8    1.30    1.60
   6   0  -8    2.00    1.60
   6   0  -8    8.90    3.30
   8   0  -8 1826.52   50.79
  -8   0  -8 2087.69   51.39
   8   0  -8 2024.70   51.49
   8   0   8 2270.97   54.99
  -8   0   8 2234.78   57.79
  -8   0  -8 1914.81   47.90
  -8   0  -8 1936.21   49.50
 -10   0  -8    0.30    2.10
  10   0  -8    0.30    1.60
 -10   0   8    2.40    2.80
  10   0   8    0.20    1.60
  12   0   8 3286.67   78.79
 -12   0   8 3282.37   82.19
  12   0  -8 3351.16   83.39
 -12   0  -8 3362.66   81.79
  14   0  -8   -1.60    2.50
 -14   0  -8    0.50    3.00
 -14   0   8    1.00    2.70
  14   0   8    4.30    3.00
  16   0   8 1285.37   39.90
  16   0  -8 1116.69   38.30
 -16   0   8 1342.57   42.80
 -16   0  -8 1113.89   39.60
  18   0  -8   -0.60    3.90
 -18   0  -8   -1.80    4.00
 -18   0   8    3.10    3.70
  18   0   8    2.30    4.00
  20   0   8 1031.00   36.20
 -20   0   8 1040.30   38.50
  20   0  -8  944.61   36.80
 -20   0  -8  965.40   33.90
 -22   0   8    2.50   10.40
  22   0  -8   -0.70    5.00
 -22   0  -8    4.40    5.40
  22   0   8    3.60    5.70
  24   0  -8  415.26   24.40
 -24   0   8  444.56   24.80
  24   0   8  446.86   24.20
   0   2   8   -0.20    1.50
   0  -2   8    1.30    1.70
   0   2  -8    5.50    2.20
   0  -2  -8    2.10    2.20
   0  -2  -8    2.90    1.50
   0   2  -8    3.30    1.60
   0  -2   8    1.40    1.50
   0   2  -8    0.50    2.10
   0   2   8    3.60    1.60
   0   2  -8    0.10    1.50
   2   2  -8 2646.24   62.69
  -2  -2  -8 2574.44   60.49
   2  -2   8 3023.60   69.79
   2  -2   8 2963.70   70.09
  -2  -2  -8 2601.44   62.79
  -2  -2  -8 2614.34   58.69
  -2   2   8 3063.79   71.19
   2   2  -8 2622.94   62.49
  -2   2   8 2976.80   68.19
  -2  -2   8 3010.70   70.89
  -2  -2   8 3047.99   71.09
  -2   2  -8 2589.14   61.89
  -2   2  -8 2621.54   62.29
   2  -2  -8 2556.34   62.39
  -2   2  -8 2563.34   61.39
  -2   2  -8 2580.54   62.89
  -2  -2   8 2821.12   69.59
   2  -2  -8 2630.74   60.29
   2   2   8 2992.50   71.29
  -4   2   8   63.89    5.90
  -4  -2  -8   49.90    3.70
   4   2  -8   54.89    5.50
   4   2  -8   55.79    6.10
  -4  -2  -8   55.89    4.00
   4  -2   8   59.09    5.10
   4  -2   8   50.09    4.70
   4  -2   8   51.89    5.00
  -4   2   8   51.19    4.80
  -4  -2  -8   59.89    5.70
  -4  -2   8   57.29    5.50
  -4   2  -8   58.09    5.20
  -4  -2   8   52.39    8.10
  -4   2  -8   52.59    4.70
   4  -2  -8   51.99    5.50
   4  -2  -8   47.60    4.90
   4   2   8   52.99    5.60
   4  -2  -8   57.69    5.00
  -4  -2   8   56.29    5.50
  -4   2  -8   54.29    5.00
   6  -2   8 1422.76   37.60
  -6  -2  -8 1166.48   29.20
  -6   2   8 1495.35   40.00
   6  -2   8 1482.85   39.50
  -6  -2  -8 1193.18   35.30
   6   2  -8 1193.08   34.30
  -6   2  -8 1173.98   31.40
  -6  -2   8 1404.96   40.50
   6  -2  -8 1188.68   32.70
   6  -2  -8 1208.88   33.40
  -6   2  -8 1163.18   33.00
  -6  -2   8 1438.06   39.60
   8  -2   8  325.87   14.50
   8   2  -8  274.57   13.60
  -8  -2  -8  295.37   14.70
  -8  -2  -8  276.97   10.30
  -8   2   8  306.47   14.20
  -8  -2   8  328.97   14.30
   8  -2  -8  267.17   13.20
   8   2   8  300.77   11.50
  -8  -2   8  303.97   15.00
  10   2  -8 1351.96   39.60
 -10   2   8 1677.03   45.40
 -10  -2  -8 1305.67   39.90
  10  -2   8 1582.84   44.70
 -10  -2  -8 1351.76   36.40
  10   2   8 1590.74   40.90
 -10  -2   8 1649.04   47.10
  10  -2  -8 1348.57   39.30
  10  -2  -8 1305.27   36.60
 -10   2  -8 1366.06   36.80
 -10  -2   8 1665.13   44.20
 -10   2  -8 1332.97   35.60
 -12   2   8   31.10    5.40
  12  -2   8   18.30    4.30
 -12  -2  -8   28.20    4.90
  12   2  -8   32.90    5.30
 -12  -2  -8   26.00    5.80
  12  -2  -8   34.20    5.60
 -12  -2   8   40.10    6.20
 -12   2  -8   29.70    5.10
 -12  -2   8   30.90    5.00
  12   2   8   21.70    3.70
  14  -2   8  934.31   31.80
  14   2  -8  676.13   26.60
 -14  -2  -8  702.53   27.10
 -14   2   8  900.01   34.30
 -14   2  -8  684.23   23.40
  14   2   8  887.71   28.10
  14  -2  -8  660.83   26.80
 -14  -2   8  941.81   29.20
 -14  -2   8  953.40   33.90
 -16  -2  -8    7.60    3.90
  16  -2   8    8.00    4.50
 -16   2   8    6.30    3.80
  16   2  -8    4.00    3.80
  16  -2  -8    9.20    3.50
  16   2   8   13.70    3.90
 -16   2  -8    6.50    3.60
 -16  -2   8    7.50    4.30
 -18   2   8  622.24   25.50
  18   2  -8  575.24   26.40
 -18  -2  -8  605.74   26.50
  18  -2   8  590.54   26.10
 -18   2  -8  597.84   22.50
  18  -2  -8  595.34   27.10
 -18  -2   8  563.24   26.70
  18   2   8  609.04   23.40
  20   2  -8   24.20    6.70
  20  -2   8   27.70    7.20
 -20   2   8   29.80    7.20
 -20  -2  -8   23.70    6.10
  20  -2  -8   18.00    6.00
  20   2   8   29.20    6.60
 -20   2  -8   29.20    6.30
 -20  -2   8   33.30    8.20
  22   2  -8  622.04   29.20
  22  -2   8  705.83   31.00
 -22  -2  -8  572.44   27.50
 -22   2  -8  602.14   23.60
 -22  -2   8  755.22   32.90
  22   2   8  681.93   28.10
  22  -2  -8  591.64   29.50
 -24  -2  -8   28.00    9.80
  24  -2   8   34.00    8.80
 -24   2   8   22.50    8.30
  24   2   8   30.90    9.80
 -24  -2   8   17.50    9.00
  24  -2  -8   19.60    7.50
   0  -4  -8 1227.38   30.20
   0   4   8 1417.46   34.20
   0   4  -8 1248.78   35.50
   0   4  -8 1224.18   33.30
   0  -4   8 1412.36   38.00
   0   4   8 1440.56   39.70
   0  -4   8 1461.25   39.40
   2  -4   8  263.97   12.90
   2   4  -8  269.27   12.90
   2  -4   8  263.27   12.40
  -2   4   8  271.27   12.90
  -2  -4  -8  262.57    8.60
  -2  -4  -8  258.17    8.30
   2   4  -8  246.98   12.00
   2  -4   8  270.47   11.50
  -2   4   8  275.27   10.70
  -2   4  -8  253.67   12.10
  -2  -4   8  277.37   13.10
   2  -4  -8  254.77   13.60
   2  -4  -8  275.27   10.50
  -2  -4   8  262.17   12.50
  -4   4   8 3088.59   74.09
  -4  -4  -8 3437.56   71.19
   4  -4   8 2984.40   74.79
   4  -4   8 3125.29   71.19
  -4   4   8 3257.07   75.89
   4  -4   8 3122.99   73.29
  -4  -4  -8 3427.46   82.29
  -4  -4  -8 3275.87   71.09
   4   4  -8 3418.26   80.39
  -4  -4   8 3101.89   75.09
  -4  -4   8 3057.89   74.99
   4  -4  -8 3306.17   76.69
  -4   4  -8 3317.47   75.79
   6  -4   8  161.38    8.00
  -6   4   8  142.59    9.00
  -6  -4  -8  148.09    5.10
   6  -4   8  153.18    8.70
  -6  -4  -8  170.68   11.10
   6  -4   8  158.68   10.20
  -6  -4  -8  158.68    5.30
   6   4  -8  153.78    9.80
  -6  -4   8  157.68    9.90
   6  -4  -8  161.68    9.20
  -6  -4   8  126.99    9.30
  -6   4  -8  142.59    7.50
  -8  -4  -8 1622.64   36.50
   8  -4   8 1770.42   48.40
  -8  -4  -8 1634.84   47.40
  -8   4   8 1749.12   46.50
   8   4  -8 1664.13   45.60
   8  -4   8 1741.43   44.10
  -8  -4   8 1761.12   47.60
   8  -4  -8 1614.54   44.30
  -8   4  -8 1626.54   39.70
  -8  -4   8 1687.43   49.00
  10  -4   8  132.79   11.40
 -10   4   8  120.39    8.70
 -10  -4  -8  119.39    5.70
 -10  -4   8  120.19    9.00
 -10   4  -8  105.59    6.50
  10  -4  -8  120.39   10.80
 -10  -4   8   99.99    9.20
  10   4   8  108.29    5.70
 -10   4  -8  114.09    6.90
 -12   4   8 1510.25   42.10
  12   4  -8 1323.17   41.20
  12  -4   8 1502.45   44.80
 -12  -4  -8 1360.76   43.40
  12  -4  -8 1326.47   41.10
 -12  -4   8 1467.95   42.40
  12   4   8 1474.05   36.50
 -12   4  -8 1401.56   35.40
 -12  -4   8 1408.76   45.70
 -14   4   8   36.00    5.70
  14   4  -8   46.00    6.90
  14  -4   8   34.80    6.10
 -14  -4  -8   41.80    7.10
 -14  -4  -8   34.20    5.20
 -14  -4   8   32.90    5.80
 -14  -4   8   30.00    6.40
  14  -4  -8   35.20    6.10
  14   4   8   35.10    4.50
 -14   4  -8   44.50    5.90
 -14   4  -8   34.80    4.60
  16   4  -8 1344.07   43.50
 -16  -4  -8 1347.17   44.90
 -16   4   8 1441.56   42.20
  16  -4   8 1381.76   45.20
  16  -4  -8 1333.87   44.00
 -16  -4   8 1419.86   47.70
 -16  -4   8 1447.96   41.80
 -16   4  -8 1317.87   34.90
  16   4   8 1409.66   38.10
 -16   4  -8 1346.37   35.20
  18   4  -8   14.70    5.70
  18  -4   8    8.40    5.10
 -18   4   8   15.10    5.30
 -18  -4  -8   12.50    6.00
 -18  -4   8   10.70    5.00
 -18  -4   8   14.80    6.00
  18   4   8   14.00    4.70
 -18   4  -8    9.40    3.70
  18  -4  -8   11.60    4.60
  20  -4   8  732.53   32.20
 -20   4   8  790.52   29.00
  20   4  -8  701.13   30.30
  20  -4  -8  683.83   30.70
 -20  -4   8  762.92   34.10
 -20   4  -8  694.43   21.70
 -22   4   8   65.59   11.20
  22  -4   8   83.09   12.00
  22   4  -8   84.09   12.20
 -22  -4  -8   80.49   11.80
  22  -4  -8   73.79   11.00
 -22  -4   8   68.29   12.00
  22   4   8   75.99   11.40
 -24   4   8  650.23   27.90
 -24  -4  -8  567.84   30.10
   0  -6  -8    0.10    1.10
   0   6  -8   -0.50    1.70
   0   6   8    0.80    1.30
   0  -6   8    1.80    1.80
   0   6  -8   -2.30    2.30
   2  -6   8 1510.85   42.10
  -2   6   8 1580.34   42.60
  -2   6   8 1530.35   37.60
   2  -6   8 1488.95   43.10
  -2  -6  -8 1349.16   40.80
   2   6  -8 1344.67   39.70
   2  -6   8 1554.34   39.50
  -2  -6  -8 1388.26   30.30
  -2  -6   8 1423.56   41.10
   2  -6  -8 1413.86   34.70
   4  -6   8   13.10    2.90
  -4   6   8    9.80    3.30
   4  -6   8   12.00    3.40
  -4   6   8   17.40    3.80
   4  -6   8    9.40    3.20
   4   6  -8   10.70    3.40
  -4  -6  -8   10.30    3.40
  -4  -6   8   20.30    4.00
   4  -6  -8   24.10    3.70
  -4   6  -8   12.10    2.80
   6  -6   8 2083.39   56.89
   6  -6   8 2115.69   53.69
   6  -6   8 2096.49   49.20
   6   6  -8 1643.74   45.60
  -6  -6  -8 1605.44   47.80
  -6   6   8 2104.59   54.09
  -6   6  -8 1581.94   38.90
   6  -6  -8 1639.84   43.10
  -6  -6   8 2117.89   57.09
  -8   6   8   94.79    7.80
   8  -6   8  119.09    8.00
  -8  -6  -8   94.49    9.70
   8  -6   8  111.09    9.60
  -8  -6   8  126.29   10.30
  -8   6  -8  111.59    5.80
   8  -6  -8  114.69    8.50
  10   6  -8 1757.52   50.09
  10  -6   8 1691.53   43.60
  10  -6   8 1714.13   49.99
 -10  -6  -8 1865.21   53.99
 -10   6   8 1641.54   45.20
  10  -6  -8 1829.92   49.90
 -10   6  -8 1752.22   40.70
 -10   6  -8 1702.23   40.10
 -10  -6   8 1650.43   48.00
 -10  -6   8 1708.73   50.79
  12  -6   8   29.40    4.70
 -12   6   8   22.90    4.60
 -12  -6  -8   15.00    5.30
  12   6  -8   25.50    5.90
  12  -6   8   34.90    6.60
 -12  -6  -8   26.00    2.20
  12  -6  -8   21.50    5.50
 -12   6  -8   23.40    2.40
 -12   6  -8   23.00    2.60
 -12  -6   8   31.90    7.10
 -12  -6   8   27.40    5.80
 -14  -6  -8  779.52   32.70
  14  -6   8  913.41   34.40
 -14  -6  -8  804.82   20.30
  14   6  -8  836.32   30.60
 -14   6   8  915.21   29.50
 -14  -6   8  936.31   32.20
  14  -6  -8  767.12   30.10
  14   6   8  917.21   22.60
 -14  -6   8  879.91   35.00
  16   6  -8   22.00    5.60
  16  -6   8   11.90    5.70
 -16   6   8   14.90    5.40
 -16  -6  -8   10.90    5.40
 -16  -6   8   17.80    6.20
  16   6   8   11.30    3.20
  16  -6  -8   16.30    5.80
 -16  -6   8   13.90    4.90
  18   6  -8  867.71   33.80
  18  -6   8  974.30   39.30
 -18   6   8 1088.99   33.60
 -18  -6   8 1043.60   34.90
 -18  -6   8 1025.30   40.90
  18  -6  -8  877.41   34.80
 -20  -6  -8   16.40    7.00
  20   6  -8   -2.50    5.10
 -20   6   8   13.60    5.60
  20  -6   8   10.00    5.80
  20  -6  -8   14.50    5.70
 -20  -6   8   14.70    6.30
  20   6   8   11.00    4.90
 -20  -6   8   10.10    7.00
 -22   6   8  436.46   20.70
  22   6  -8  431.16   24.00
 -22  -6   8  468.85   27.80
  22  -6  -8  413.26   24.50
 -22  -6   8  468.45   21.70
   0   8  -8 1774.72   55.49
   0   8   8 1729.03   40.10
   0  -8  -8 1793.52   50.19
   0  -8   8 1747.13   46.30
   0  -8  -8 1715.03   40.70
   2  -8   8   23.30    4.10
  -2  -8  -8   24.20    4.70
   2  -8   8   18.40    4.80
  -2   8   8   28.80    4.00
  -2   8  -8   21.10    4.20
   2  -8  -8   27.50    3.60
  -2  -8   8   25.70    4.60
   2  -8  -8   21.00    5.10
   4  -8   8 2448.85   57.19
   4   8  -8 2329.97   62.69
  -4   8   8 2366.46   61.39
   4  -8   8 2412.36   64.99
  -4  -8  -8 2372.06   64.29
   4  -8  -8 2426.26   57.19
  -4  -8   8 2458.85   63.79
  -4   8  -8 2234.58   55.29
   6  -8   8   53.59    6.30
  -6  -8  -8   42.60    6.50
   6   8  -8   53.09    6.80
   6  -8   8   48.50    6.60
   6  -8   8   53.29    4.40
  -6  -8   8   44.60    6.60
  -6   8  -8   44.60    4.40
   6  -8  -8   43.00    5.50
   8  -8   8 1426.46   40.40
   8  -8   8 1398.86   44.30
   8   8  -8 1245.18   39.20
  -8   8   8 1398.36   39.60
  -8  -8  -8 1344.47   43.40
  -8  -8   8 1383.56   44.20
   8  -8  -8 1203.68   46.80
  -8   8  -8 1252.57   29.10
  10   8  -8   10.30    4.20
 -10   8   8   12.90    4.10
 -10  -8  -8    8.30    4.40
  10  -8   8   11.40    3.90
  10  -8   8    9.80    4.40
 -10  -8   8    3.30    3.10
  10  -8  -8    4.70    3.50
  12  -8   8  591.94   20.70
  12   8  -8  509.45   22.60
  12  -8   8  567.34   26.10
 -12  -8  -8  480.65   24.80
 -12   8   8  582.04   21.30
  12  -8  -8  502.65   22.30
 -12  -8   8  583.84   27.00
 -14   8   8   39.40    6.50
  14   8  -8   32.00    7.10
  14  -8   8   41.00    8.00
 -14  -8  -8   24.60    6.70
  14  -8   8   40.70    5.70
 -14  -8   8   38.20    6.80
 -14  -8   8   54.99    9.40
  14  -8  -8   41.50    7.60
 -16  -8  -8  754.72   34.40
  16  -8   8  852.81   35.10
 -16   8   8  858.51   27.50
  16   8  -8  822.82   31.90
  16  -8  -8  832.42   44.80
 -16  -8   8  787.92   31.50
 -16  -8   8  853.51   36.20
  18  -8   8   18.10    6.90
 -18  -8  -8   21.50    7.70
 -18   8   8    9.50    4.80
  18  -8  -8    6.80    4.90
 -18  -8   8   11.50    5.80
 -18  -8   8    6.90    6.30
  20   8  -8  267.47   18.10
 -20  -8  -8  234.78   19.40
  20  -8  -8  280.67   20.00
 -20  -8   8  375.96   24.50
 -20  -8   8  357.56   19.80
  22   8  -8   16.40    7.60
  22  -8  -8   25.00   13.00
 -22  -8   8    6.40    8.80
   0 -10  -8    1.40    3.10
   0  10  -8    1.90    3.20
   0 -10  -8   -0.60    2.60
   0 -10   8    2.20    2.40
  -2 -10  -8  614.84   26.30
   2  10  -8  651.63   26.10
   2 -10   8  689.43   23.10
   2 -10  -8  657.13   28.80
  -2 -10   8  702.73   25.80
   2 -10  -8  642.04   20.10
   4 -10   8    9.20    3.10
  -4 -10  -8   16.00    4.80
   4 -10   8    7.20    2.80
   4  10  -8    8.00    3.80
   4 -10  -8   11.40    3.40
  -4 -10   8   24.70    5.90
   4 -10  -8   17.90    4.70
  -4  10  -8    6.80    3.80
   6  10  -8  651.63   26.00
   6 -10   8  624.24   27.10
  -6 -10  -8  643.84   28.20
   6 -10  -8  693.23   25.00
   6 -10  -8  654.13   23.20
  -6 -10   8  703.33   27.60
  -6  10  -8  622.94   18.50
   8  10  -8   44.10    7.50
   8 -10   8   49.00    6.60
  -8 -10  -8   38.20    7.70
   8 -10  -8   47.90    6.50
   8 -10  -8   43.00    6.60
  -8 -10   8   41.80    7.50
  10 -10   8 1223.58   43.10
 -10 -10  -8 1151.58   42.50
  10  10  -8 1153.18   38.30
  10 -10   8 1237.18   37.90
  10 -10  -8 1183.08   37.70
 -10 -10   8 1262.07   43.60
  10 -10  -8 1107.09   34.30
  12 -10   8   26.30    7.50
 -12 -10  -8   19.60    6.80
  12  10  -8   29.60    5.90
  12 -10   8   23.40    6.20
 -12 -10   8   19.70    6.70
  12 -10  -8   25.90    6.40
  14  10  -8  879.31   33.00
 -14 -10  -8  845.22   37.20
  14 -10   8  965.00   38.50
  14 -10  -8  928.21   34.60
 -14 -10   8  979.30   39.50
 -16 -10  -8    6.70    6.90
  16 -10   8    2.60    5.40
  16  10  -8    0.20    4.70
  16 -10  -8   -6.50    4.60
 -16 -10   8   -0.10    6.60
 -16 -10   8   -6.70    5.20
  18 -10   8  859.51   37.70
 -18 -10  -8  911.41   40.40
  18  10  -8  964.60   36.20
 -18 -10   8  877.81   39.20
 -18 -10   8  899.01   35.60
  20  10  -8   -0.80    7.50
 -20 -10   8    4.40    8.20
   0  12  -8 1409.96   44.90
   0 -12   8 1427.76   41.70
   0 -12  -8 1346.27   43.50
   0 -12  -8 1293.97   32.80
   2  12  -8    2.30    5.20
  -2 -12  -8    6.60    5.10
   2 -12   8    8.10    4.10
  -2  12   8    6.70    6.10
  -2 -12   8   14.80    4.60
   2 -12  -8   11.20    3.30
   2 -12  -8   14.20    4.90
  -2  12  -8   14.40    5.40
   4 -12   8  949.60   36.80
   4  12  -8  935.41   34.00
   4 -12   8 1066.69   29.40
  -4 -12  -8  901.91   35.20
  -4  12  -8  877.71   27.40
   4 -12  -8  935.31   32.20
   4 -12  -8  956.30   28.90
  -4 -12   8 1118.99   36.80
   6  12  -8    4.30    4.90
   6 -12   8    2.50    3.90
  -6 -12  -8    9.30    5.20
   6 -12   8    5.30    2.30
   6 -12  -8    5.30    4.00
  -6 -12   8    4.40    4.20
   6 -12  -8   -1.20    3.40
  -6  12  -8    6.40    3.10
   8  12  -8  851.91   31.90
  -8 -12  -8  797.42   34.80
   8 -12   8  826.22   34.40
  -8 -12   8  900.21   34.80
   8 -12  -8  861.61   28.80
   8 -12  -8  843.22   29.90
  10  12  -8   30.80    7.30
  10 -12   8   40.40    7.90
 -10 -12  -8   27.30    7.90
  10 -12   8   38.80    9.00
  10 -12  -8   26.90    6.40
  10 -12  -8   39.20    7.80
 -10 -12   8   51.69   14.70
 -12 -12  -8  579.24   29.90
  12  12  -8  532.95   24.50
  12 -12   8  656.83   31.10
  12 -12   8  667.13   25.70
  12 -12  -8  533.45   24.90
  12 -12  -8  521.95   21.80
 -12 -12   8  626.74   30.50
 -14 -12  -8   -0.70    6.00
  14 -12   8   17.60    7.10
  14  12  -8   13.40    7.30
  14 -12  -8    5.80    6.10
 -14 -12   8   16.00    6.70
  16 -12   8  409.46   25.40
 -16 -12  -8  382.56   24.70
  16  12  -8  388.36   22.00
 -16 -12   8  422.46   26.30
  16 -12  -8  373.56   22.60
  18  12  -8   46.60   10.70
 -18 -12  -8   41.40   10.20
  18 -12   8   86.29   12.90
 -18 -12   8   50.49   11.20
 -18 -12   8   60.29   12.40
   0  14   8   -1.60    3.40
   0 -14  -8    7.20    5.40
   0  14  -8   -1.20    5.00
   0 -14   8    6.40    4.90
   2  14  -8  907.21   34.60
  -2 -14  -8  816.72   33.60
   2 -14   8  941.01   29.40
  -2  14  -8  828.22   35.10
  -2 -14   8  904.51   32.90
   2 -14  -8  843.22   32.10
   4  14  -8   21.60    6.80
  -4 -14  -8   38.50    8.00
  -4 -14   8   48.50    9.50
   4 -14  -8   39.30    7.60
   6  14  -8  615.74   26.70
   6 -14   8  609.44   29.10
  -6 -14  -8  501.35   27.10
   6 -14  -8  598.24   23.30
  -6 -14   8  619.14   27.90
   8 -14   8    9.30    7.10
   8  14  -8   10.10    6.10
  -8 -14  -8   15.50    6.80
   8 -14  -8    8.70    5.40
  -8 -14   8   12.10    6.50
  10 -14   8  682.23   32.10
  10 -14   8  673.23   28.70
 -10 -14  -8  661.43   33.00
  10 -14  -8  714.73   32.50
  10 -14  -8  612.74   26.90
 -10 -14   8  698.83   32.20
  12 -14   8   17.90    8.00
 -12 -14  -8    1.70    7.20
  12  14  -8    2.60    6.60
  12 -14   8   14.60    7.00
  12 -14  -8   15.40    6.60
  14 -14   8  477.65   22.70
  14  14  -8  468.35   24.20
  14 -14  -8  478.35   26.30
   0 -16  -8  376.16   25.10
   0  16  -8  397.66   22.90
   0 -16   8  371.86   19.30
  -2 -16  -8  132.99   14.00
   2  16  -8  100.09   12.80
   2 -16  -8  110.49   13.20
  -2  16  -8  125.29   14.40
   4  16  -8  429.06   23.50
  -4 -16  -8  389.46   24.30
  -4 -16   8  430.66   26.10
  -4  16  -8  384.86   23.40
   6  16  -8   11.20    7.40
   6 -16  -8    1.70    6.20
   6 -16  -8    0.30    7.30
  -6 -16   8   21.10    8.20
   8  16  -8  468.15   24.00
   8 -16  -8  451.75   22.70
  -8 -16   8  432.46   25.00
  10  16  -8   30.20    8.90
  10 -16  -8   45.90    9.90
  -1  -1  -9 1059.89   30.70
  -1  -1  -9 1059.39   28.50
  -1  -1  -9 1039.50   28.30
   1   1  -9 1118.19   30.60
  -1   1   9 1111.69   32.50
   1   1  -9 1071.79   30.80
  -1  -1  -9 1026.70   30.50
   1  -1   9 1113.49   31.90
  -1   1  -9 1069.09   30.40
   1  -1  -9 1077.99   29.20
  -1  -1   9 1143.09   32.30
  -1   1  -9  977.40   29.60
  -1   1  -9 1069.49   30.00
   1  -1  -9 1118.59   33.30
  -1   1  -9 1038.90   29.70
  -1  -1   9 1102.19   32.20
   1   1   9 1079.49   32.10
  -3   1   9  697.13   23.00
  -3  -1  -9  707.13   24.80
  -3   1   9  648.04   20.80
   3   1  -9  705.13   22.80
  -3  -1  -9  683.53   20.40
  -3  -1  -9  691.33   20.60
   3  -1   9  635.24   21.40
  -3   1  -9  711.73   22.40
  -3  -1   9  680.03   22.90
   3   1   9  652.03   22.30
  -3   1  -9  692.83   22.10
  -3  -1   9  638.14   22.00
  -3  -1   9  613.84   23.20
  -3   1  -9  693.33   22.10
   3  -1  -9  686.63   21.80
  -3   1  -9  677.93   21.70
  -5   1   9 1304.77   37.20
   5  -1   9 1275.27   35.40
   5   1  -9 1457.45   39.80
  -5  -1  -9 1407.86   36.10
  -5  -1  -9 1463.15   38.80
   5  -1   9 1313.27   35.90
  -5   1  -9 1435.46   38.20
  -5   1  -9 1423.26   38.00
   5  -1  -9 1467.05   39.20
  -5   1  -9 1436.86   38.10
  -5  -1   9 1276.57   36.40
   5   1   9 1318.87   37.30
  -5  -1   9 1269.57   37.30
  -7  -1  -9  418.36   14.70
   7  -1   9  508.35   18.50
  -7   1   9  492.15   19.60
   7   1  -9  439.36   17.80
  -7   1  -9  442.06   16.00
   7   1   9  494.55   16.80
  -7  -1   9  500.85   19.00
  -7  -1   9  491.45   19.90
   7  -1  -9  411.06   17.10
  -7   1  -9  423.96   16.30
   9  -1   9  657.63   23.00
  -9  -1  -9  643.84   21.50
  -9   1   9  681.63   24.70
  -9  -1  -9  689.73   24.60
  -9  -1  -9  634.44   20.20
   9   1  -9  643.04   23.80
  -9  -1   9  671.33   23.30
   9  -1  -9  670.63   24.00
  -9  -1   9  669.33   25.20
  -9   1  -9  648.04   20.70
  -9   1  -9  656.23   22.90
   9   1   9  677.53   21.50
  11  -1   9  971.00   31.10
  11   1  -9  952.30   31.70
 -11  -1  -9 1035.40   32.50
 -11  -1  -9  958.70   27.80
 -11   1   9 1030.70   33.00
 -11   1  -9  926.21   29.80
  11  -1  -9  889.21   31.10
 -11   1  -9  879.11   28.50
 -11  -1   9  999.90   33.90
  11   1   9  966.90   29.20
  13  -1   9  350.86   16.70
 -13  -1  -9  412.36   21.60
 -13   1   9  367.06   18.00
  13   1  -9  374.16   18.80
 -13  -1   9  331.07   18.00
  13  -1  -9  402.36   19.30
  13   1   9  380.16   15.80
 -13   1  -9  379.96   17.30
 -15   1   9  576.64   24.40
  15   1  -9  529.75   23.50
 -15  -1  -9  495.35   18.00
 -15  -1  -9  528.15   23.10
  15  -1   9  542.65   22.90
 -15  -1   9  609.24   26.00
  15   1   9  574.44   21.90
  15  -1  -9  537.85   24.10
 -15   1  -9  560.24   21.90
  17   1  -9  271.97   17.20
  17  -1   9  293.57   16.40
 -17  -1  -9  315.57   17.60
 -17   1   9  272.77   16.60
  17   1   9  250.47   14.20
  17  -1  -9  274.87   17.50
 -17  -1   9  276.47   17.30
 -17   1  -9  302.07   16.20
  19   1  -9  386.36   25.00
 -19  -1  -9  404.66   20.80
 -19   1   9  451.35   22.90
  19  -1   9  444.56   21.90
 -19  -1   9  462.15   24.00
  19   1   9  438.26   20.50
  19  -1  -9  365.66   21.10
 -19   1  -9  365.76   18.30
  21  -1   9  277.47   18.20
  21   1  -9  270.07   18.10
 -21  -1  -9  254.87   17.20
 -21   1   9  258.57   18.00
 -21   1  -9  266.57   16.10
  21  -1  -9  262.87   18.60
 -21  -1   9  282.47   26.50
  21   1   9  253.37   16.60
 -23   1   9  397.26   27.10
  23  -1   9  403.46   22.50
  23   1  -9  349.57   22.10
  23  -1  -9  337.77   22.40
 -23   1  -9  343.07   26.20
 -23  -1   9  377.56   23.70
   1   3  -9 1293.67   36.80
  -1   3   9 1222.98   35.10
   1  -3   9 1219.08   33.60
   1   3  -9 1227.88   35.30
  -1   3   9 1177.98   31.00
   1  -3   9 1160.28   34.10
  -1  -3  -9 1310.37   32.00
  -1   3  -9 1262.67   34.90
   1  -3  -9 1362.16   33.30
  -1   3  -9 1310.47   36.80
  -1  -3   9 1227.08   34.40
  -1  -3   9 1132.69   34.10
   1   3   9 1225.18   35.30
   3  -3   9 1640.24   44.50
  -3  -3  -9 1434.16   34.20
  -3   3   9 1698.03   44.30
   3   3  -9 1423.66   39.60
   3  -3   9 1727.53   43.90
  -3   3   9 1708.83   45.80
   3  -3   9 1738.83   46.00
  -3  -3  -9 1469.75   34.10
  -3  -3   9 1727.33   45.90
  -3   3  -9 1376.06   37.20
  -3  -3   9 1708.53   45.80
   3  -3  -9 1398.66   36.70
   3   3   9 1685.93   46.50
   5  -3   9 1059.59   32.20
  -5  -3  -9  929.41   23.40
   5  -3   9 1070.59   29.90
  -5  -3  -9  942.21   23.70
  -5   3   9 1081.99   32.40
   5   3  -9  947.41   29.70
   5  -3   9 1035.40   30.70
  -5  -3   9 1052.09   32.30
   5  -3  -9  948.41   27.80
  -5   3  -9  894.71   26.30
  -5  -3   9 1062.69   33.10
  -7  -3  -9  481.95   20.50
  -7   3   9  518.95   19.90
   7  -3   9  481.45   19.60
  -7  -3  -9  469.25   14.10
   7   3  -9  514.25   20.10
   7  -3   9  482.55   17.30
  -7  -3  -9  500.35   19.10
  -7  -3   9  486.85   20.50
  -7  -3   9  551.24   20.40
   7  -3  -9  478.05   18.50
  -9  -3  -9  675.03   19.50
  -9  -3  -9  721.53   27.00
  -9   3   9  729.03   25.50
   9  -3   9  719.73   25.80
  -9   3  -9  706.63   21.90
   9   3   9  734.23   20.70
  -9  -3   9  713.73   25.40
   9  -3  -9  754.22   25.60
 -11  -3  -9  767.92   22.30
  11   3  -9  842.82   29.10
  11  -3   9  860.21   41.40
 -11   3   9  876.11   29.50
 -11  -3  -9  800.92   29.60
  11   3   9  880.51   24.80
 -11  -3   9  907.11   32.20
 -11   3  -9  805.62   26.10
 -11  -3   9  873.21   29.20
 -11   3  -9  707.93   23.50
  11  -3  -9  835.92   28.70
  13   3  -9  842.02   30.30
  13  -3   9  824.52   30.00
 -13  -3  -9  772.32   23.60
 -13  -3  -9  808.82   30.90
 -13   3   9  848.62   32.90
 -13  -3   9  831.22   28.40
 -13  -3   9  822.02   31.70
  13  -3  -9  811.32   30.10
 -13   3  -9  837.22   26.00
  13   3   9  839.32   25.00
 -15   3   9  567.04   23.40
  15  -3   9  576.94   24.50
 -15  -3  -9  483.95   22.90
  15   3  -9  473.65   22.50
 -15   3  -9  460.05   18.00
  15  -3  -9  466.35   22.10
  15   3   9  582.94   20.10
 -15  -3   9  553.64   25.80
 -17  -3  -9  236.98   16.50
  17   3  -9  243.38   16.40
 -17   3   9  199.38   13.60
  17  -3   9  206.18   15.00
 -17  -3   9  219.68   16.00
  17  -3  -9  252.17   16.50
  17   3   9  202.68   11.80
 -17  -3   9  185.88   12.20
 -17   3  -9  272.97   13.50
 -19   3   9  290.47   17.20
  19   3  -9  372.46   23.90
  19  -3   9  245.48   17.40
 -19  -3  -9  367.16   21.70
  19   3   9  272.87   14.90
  19  -3  -9  397.96   21.90
 -19   3  -9  354.56   16.20
 -21   3   9  340.87   22.30
  21   3  -9  408.06   23.20
 -21  -3  -9  370.06   25.90
  21  -3   9  331.27   20.90
 -21   3  -9  327.77   23.60
  21  -3  -9  350.66   21.90
 -21  -3   9  358.66   22.40
 -23  -3  -9  304.77   21.20
  23  -3   9  332.37   21.80
 -23   3   9  330.47   24.90
  23  -3  -9  311.47   21.60
  23   3   9  336.07   18.80
   1   5  -9  607.84   22.60
  -1   5   9  633.64   23.10
   1  -5   9  643.04   21.50
  -1  -5  -9  615.44   16.50
  -1   5   9  608.84   18.80
   1  -5   9  660.43   23.10
  -1   5  -9  594.14   22.60
  -1   5  -9  586.44   20.10
   1   5   9  593.54   16.90
  -1  -5   9  619.24   21.80
   1  -5  -9  622.14   18.00
  -1  -5   9  652.33   23.30
   3  -5   9  648.74   23.50
   3   5  -9  796.52   27.20
  -3  -5  -9  781.82   18.80
  -3   5   9  677.23   21.90
   3  -5   9  697.53   22.10
   3  -5   9  708.03   25.30
  -3   5   9  743.23   24.80
  -3  -5  -9  806.62   19.10
  -3  -5   9  703.33   24.70
  -3  -5   9  722.13   25.40
   3  -5  -9  792.92   23.30
   5  -5   9  426.46   15.50
   5  -5   9  459.05   19.30
   5   5  -9  606.74   22.20
   5  -5   9  430.06   17.40
  -5   5   9  430.96   17.90
  -5  -5  -9  552.44   23.20
  -5  -5   9  471.05   19.50
  -5  -5   9  446.96   19.10
   5  -5  -9  540.05   19.20
   7  -5   9  877.41   31.00
  -7   5   9  936.91   29.40
   7  -5   9  879.51   25.10
   7  -5   9  873.71   27.50
   7   5  -9  915.81   30.90
  -7  -5   9  923.61   30.60
  -7   5  -9  882.71   25.00
  -7  -5   9  859.01   33.80
   7  -5  -9  937.11   28.90
  -9  -5  -9  852.61   18.80
  -9  -5  -9  867.01   18.80
   9  -5   9  879.81   27.10
   9   5  -9  828.82   29.50
  -9  -5  -9  888.61   32.10
   9  -5   9  864.01   30.90
  -9   5   9  883.31   28.90
  -9  -5   9  918.91   32.30
   9  -5  -9  863.41   32.20
  -9   5  -9  835.52   23.70
 -11   5   9  178.68   11.30
  11   5  -9  134.99   10.80
 -11  -5  -9  127.29   11.40
 -11  -5  -9  127.49    5.30
  11  -5   9  162.58   12.20
 -11   5  -9  138.19    7.60
 -11  -5   9  157.58   12.70
 -11   5  -9  128.39    7.30
  11  -5  -9  135.89   10.50
 -11  -5   9  174.18   11.90
 -13   5   9  531.45   21.60
  13   5  -9  673.53   26.70
  13  -5   9  489.45   22.90
 -13  -5  -9  680.13   28.50
 -13  -5  -9  656.43   17.90
 -13   5  -9  640.54   19.40
 -13   5  -9  602.44   18.50
 -13  -5   9  530.35   25.10
  13  -5  -9  618.94   25.60
 -13  -5   9  521.45   22.10
  15  -5   9  507.15   23.90
  15   5  -9  438.76   21.70
 -15  -5  -9  494.95   20.60
 -15   5   9  447.36   20.30
 -15  -5  -9  496.85   24.30
 -15   5  -9  475.35   15.30
  15   5   9  480.15   15.90
 -15  -5   9  523.45   22.00
 -15  -5   9  471.15   24.50
 -15   5  -9  440.26   14.90
  15  -5  -9  479.15   22.90
  17   5  -9  492.35   24.20
  17  -5   9  526.95   25.90
 -17  -5  -9  477.65   24.90
 -17   5   9  568.24   23.30
  17  -5  -9  510.55   24.80
 -17  -5   9  594.14   24.00
  17   5   9  542.95   18.60
 -17   5  -9  514.95   15.80
 -17  -5   9  566.04   28.20
  19   5  -9  198.18   15.30
 -19   5   9  230.58   14.40
 -19  -5  -9  240.68   18.40
  19  -5   9  246.78   17.50
  19  -5  -9  190.98   15.50
 -19  -5   9  253.37   19.40
 -21  -5  -9  327.27   21.50
  21  -5   9  293.77   20.60
 -21   5   9  301.57   17.70
  21   5  -9  375.76   22.10
  21  -5  -9  346.77   21.20
 -21  -5   9  295.57   16.50
 -21  -5   9  299.17   21.50
 -23   5   9  216.78   16.70
 -23  -5  -9  221.08   19.60
 -23  -5   9  242.08   28.60
  23  -5  -9  228.48   26.50
  -1  -7  -9  526.45   22.10
  -1  -7  -9  472.65   13.20
   1  -7   9  440.26   19.10
   1  -7   9  427.96   16.90
  -1   7   9  419.76   13.90
  -1  -7   9  448.76   18.30
   1  -7  -9  479.05   15.20
   1   7   9  407.16   11.90
  -1   7  -9  474.85   24.20
   3   7  -9  867.81   33.80
   3  -7   9  897.11   26.70
   3  -7   9  900.01   30.00
  -3   7   9  836.62   25.50
  -3   7   9  914.61   30.30
   3  -7   9  976.50   32.20
   3  -7  -9  784.52   23.60
  -3   7  -9  781.82   24.30
  -3  -7   9  911.31   30.10
   5  -7   9  970.00   31.30
  -5  -7  -9  896.51   32.70
   5  -7   9  962.20   33.30
  -5   7   9  978.10   31.30
   5  -7   9  980.80   27.20
   5   7  -9  888.41   30.70
   5  -7  -9  927.11   27.50
  -5   7  -9  854.11   26.50
   7  -7   9 1318.77   38.40
   7   7  -9 1369.06   41.70
  -7  -7  -9 1422.06   44.70
  -7   7   9 1366.46   39.10
   7  -7   9 1290.77   41.70
   7  -7   9 1289.17   33.10
  -7  -7   9 1328.77   41.60
   7  -7  -9 1372.56   39.10
  -7   7  -9 1324.77   34.00
  -7  -7   9 1349.47   42.30
   9   7  -9  479.95   21.20
  -9   7   9  389.06   17.30
   9  -7   9  382.26   16.50
   9  -7   9  385.16   20.00
  -9  -7  -9  426.26   22.20
   9  -7  -9  466.85   19.80
  -9  -7   9  387.66   20.20
  -9   7  -9  463.45   16.30
  -9   7  -9  457.75   13.70
  -9  -7   9  406.76   19.70
  11  -7   9  187.08   10.50
 -11  -7  -9  114.99   11.80
  11  -7   9  167.38   13.10
 -11   7   9  166.08   11.00
  11   7  -9  109.49   10.20
  11  -7  -9  105.69    9.80
 -11   7  -9  125.39    4.90
 -11  -7   9  179.28   14.10
 -11  -7   9  187.78   13.10
  13  -7   9  479.55   23.70
  13   7  -9  468.25   22.30
 -13  -7  -9  455.15   23.80
 -13   7   9  455.05   19.30
  13  -7  -9  478.35   22.00
 -13  -7   9  476.65   22.20
 -13  -7   9  465.55   24.10
  15   7  -9  491.75   23.20
  15  -7   9  460.85   24.30
 -15   7   9  500.15   20.60
 -15  -7  -9  506.45   26.20
 -15  -7   9  491.95   23.10
 -15  -7   9  490.65   25.30
  15  -7  -9  480.65   23.40
 -17  -7  -9  460.25   25.30
  17  -7   9  429.16   23.40
  17   7  -9  409.06   22.20
 -17   7   9  419.96   19.00
 -17  -7   9  433.26   21.50
  17  -7  -9  420.66   22.70
 -17  -7   9  403.26   24.20
  19   7  -9  277.67   18.00
  19  -7   9  291.17   20.20
 -19   7   9  290.87   16.30
 -19  -7  -9  286.17   20.60
 -19  -7   9  311.27   21.80
  19  -7  -9  248.88   18.40
  21   7  -9  295.37   22.00
 -21  -7  -9  295.27   23.40
 -21  -7   9  330.17   18.70
 -21  -7   9  320.67   23.10
  21  -7  -9  268.27   19.90
  -1  -9  -9  806.62   30.90
   1   9  -9  842.22   30.90
  -1   9   9  762.32   21.40
   1  -9   9  811.02   26.00
  -1  -9  -9  822.62   19.80
  -1  -9   9  759.32   26.70
  -1   9  -9  877.61   31.70
   1  -9  -9  821.32   22.80
   1  -9  -9  867.41   31.00
   1   9   9  755.12   19.40
  -3   9   9  202.08   10.70
  -3  -9  -9  219.48   14.90
   3   9  -9  246.88   14.90
   3  -9   9  220.28   14.50
   3  -9   9  244.48   11.70
  -3  -9   9  273.67   16.80
   3  -9  -9  242.48   10.90
   5  -9   9  240.28   13.80
   5  -9   9  195.38    9.70
   5  -9   9  221.28   14.90
  -5  -9  -9  256.27   16.50
   5   9  -9  223.68   14.30
  -5  -9   9  223.28   14.10
   5  -9  -9  246.88   12.30
   7  -9   9  830.82   28.90
   7  -9   9  765.82   30.90
  -7  -9  -9  873.21   34.00
   7   9  -9  869.41   31.40
   7  -9  -9  888.31   32.10
  -7  -9   9  829.82   31.30
  -7   9  -9  834.92   22.90
   9   9  -9  293.57   16.80
   9  -9   9  326.67   16.10
  -9  -9  -9  285.97   18.80
   9  -9   9  292.87   18.10
   9  -9  -9  285.27   15.30
  -9  -9   9  331.97   18.70
 -11  -9  -9  405.46   22.90
  11  -9   9  421.16   22.60
 -11   9   9  455.55   19.10
  11   9  -9  396.66   20.30
 -11  -9   9  467.55   23.80
  11  -9  -9  433.96   20.40
  13  -9   9  375.06   22.40
  13  -9   9  385.16   16.60
 -13  -9  -9  420.16   26.90
 -13   9   9  390.86   17.30
  13   9  -9  453.55   22.50
 -13  -9   9  389.46   21.00
 -13  -9   9  366.96   22.10
  13  -9  -9  484.25   22.70
  15   9  -9  417.66   21.40
  15  -9   9  409.96   23.50
 -15  -9  -9  367.66   23.60
 -15   9   9  414.66   19.80
 -15  -9   9  411.76   22.20
 -15  -9   9  393.26   23.90
  15  -9  -9  419.66   32.80
 -17  -9  -9  241.98   19.30
  17   9  -9  223.88   16.70
  17  -9   9  223.18   17.90
 -17  -9   9  236.78   18.80
  17  -9  -9  252.77   17.60
  19   9  -9  214.58   17.00
  19  -9   9  202.98   16.90
 -19  -9  -9  212.18   19.30
 -19  -9   9  151.18   17.40
  21   9  -9  288.37   20.10
  21  -9   9  243.38   20.70
 -21  -9   9  261.77   21.80
 -21  -9   9  237.28   18.60
  -1 -11  -9  719.73   29.30
   1  11  -9  720.33   29.10
   1 -11   9  734.63   25.70
  -1  11  -9  712.53   29.60
   1 -11  -9  679.73   28.10
  -1 -11   9  754.02   27.10
   1 -11  -9  724.03   20.50
  -3 -11  -9  309.57   18.70
   3  11  -9  294.57   17.80
   3 -11   9  332.27   14.40
   3 -11  -9  286.17   16.90
  -3 -11   9  343.97   17.90
   3 -11  -9  339.87   13.60
  -5 -11  -9  311.77   19.30
   5 -11   9  342.87   19.80
   5 -11   9  325.47   12.80
   5  11  -9  346.27   18.70
   5 -11  -9  364.46   18.30
  -5 -11   9  334.37   18.60
  -5  11  -9  309.47   14.30
   5 -11  -9  342.37   15.30
   7 -11   9  539.75   25.70
   7 -11   9  532.45   23.40
   7  11  -9  553.64   24.60
  -7 -11  -9  556.34   27.40
  -7  11  -9  515.35   14.60
  -7 -11   9  540.05   25.20
   7 -11  -9  562.94   23.10
   7 -11  -9  562.94   21.90
   9 -11   9  322.17   17.10
   9 -11   9  292.37   19.30
  -9 -11  -9  335.47   21.10
   9  11  -9  304.67   18.00
  -9 -11   9  351.86   20.20
   9 -11  -9  305.17   16.30
  11 -11   9  530.45   32.10
 -11 -11  -9  463.35   25.60
  11 -11   9  509.45   22.00
  11  11  -9  467.05   22.70
  11 -11  -9  463.15   19.80
  11 -11  -9  470.95   22.20
  13 -11   9  206.28   17.30
  13  11  -9  221.88   15.80
 -13 -11  -9  189.68   16.60
 -13 -11   9  201.88   17.10
  13 -11  -9  234.98   16.40
  13 -11  -9  188.78   18.20
 -15 -11  -9  356.36   24.00
  15  11  -9  347.97   20.40
  15 -11   9  384.96   23.40
  15 -11   9  358.66   16.90
  15 -11  -9  355.06   17.10
  15 -11  -9  371.76   20.80
 -15 -11   9  379.26   23.70
 -15 -11   9  374.26   21.80
  17  11  -9  164.48   15.80
 -17 -11  -9  215.78   19.40
  17 -11   9  214.08   18.10
 -17 -11   9  151.18   15.60
 -17 -11   9  179.48   17.40
  19 -11   9  194.48   17.90
 -19 -11  -9  123.19   16.80
  19  11  -9  142.79   15.30
 -19 -11   9  238.68   21.10
   1  13  -9  366.66   20.80
   1 -13   9  318.17   18.30
  -1 -13  -9  359.26   20.70
  -1  13  -9  384.66   21.40
   1 -13  -9  348.87   20.10
  -1 -13   9  331.27   17.00
   3  13  -9  338.97   19.70
   3 -13   9  377.06   16.10
  -3 -13  -9  309.87   19.90
  -3  13  -9  343.57   20.40
   3 -13  -9  368.56   19.30
  -3 -13   9  377.56   19.40
   3 -13  -9  321.87   14.20
  -5 -13  -9  381.16   22.20
   5 -13   9  344.07   13.00
   5  13  -9  351.96   20.20
   5 -13   9  338.07   21.30
  -5 -13   9  344.57   19.70
   5 -13  -9  349.47   18.80
  -7 -13  -9  202.48   17.10
   7  13  -9  230.48   16.60
   7 -13   9  198.78   16.20
   7 -13  -9  208.88   13.90
   7 -13  -9  223.58   19.00
  -7 -13   9  220.88   16.80
  -9 -13  -9  336.57   22.20
   9 -13   9  342.77   19.00
   9  13  -9  328.87   19.70
   9 -13   9  306.57   20.60
   9 -13  -9  313.07   17.50
  -9 -13   9  284.17   19.50
  11 -13   9  247.48   17.10
 -11 -13  -9  306.77   22.10
  11  13  -9  319.37   19.70
  11 -13   9  273.37   19.60
  11 -13  -9  303.77   18.90
 -11 -13   9  274.37   19.60
  13  13  -9  186.08   15.80
  13 -13   9  145.89   15.50
 -13 -13  -9  204.38   19.20
  13 -13  -9  189.88   15.60
  15  13  -9  224.68   18.20
  15 -13  -9  212.48   17.00
 -15 -13   9  226.88   20.30
   1  15  -9  294.37   20.10
  -1 -15  -9  272.17   28.70
   1 -15  -9  301.77   19.20
  -1  15  -9  279.87   19.40
   3  15  -9  274.07   19.50
  -3 -15  -9  326.97   21.30
   3 -15   9  283.67   15.40
  -3  15  -9  241.88   18.60
   3 -15  -9  301.57   19.00
  -3 -15   9  302.67   18.50
  -5 -15  -9  210.58   18.20
   5  15  -9  268.77   18.00
  -5  15  -9  234.88   19.20
  -5 -15   9  214.68   19.60
   5 -15  -9  244.18   14.20
   7  15  -9  143.49   14.60
  -7 -15   9   95.09   13.30
   7 -15  -9  141.69   12.60
   7 -15  -9  133.29   13.50
   9  15  -9  342.47   21.30
   9 -15   9  395.86   22.20
   9 -15  -9  396.86   20.40
  11  15  -9  210.18   17.30
  11 -15   9  257.97   18.60
  11 -15  -9  205.28   16.80
   1  17  -9  188.68   17.30
  -1  17  -9  193.48   17.80
   1 -17  -9  179.68   27.80
  -3 -17  -9  390.46   25.00
   3  17  -9  360.16   22.70
   0   0 -10    0.90    2.00
   0   0 -10    1.60    1.60
   0   0  10    4.00    2.50
  -2   0  10 1967.60   52.09
  -2   0  10 2143.39   54.79
   2   0  10 2210.38   54.59
   2   0 -10 2062.79   52.59
  -2   0 -10 2067.59   51.69
  -2   0 -10 2203.78   61.39
   4   0  10    0.10    1.80
  -4   0 -10    2.00    1.80
  -4   0  10    8.40    3.20
   4   0 -10    8.40    3.00
  -4   0 -10    1.40    2.30
   6   0  10 1544.65   41.00
  -6   0  10 1572.54   44.40
   6   0  10 1570.54   43.40
   6   0 -10 1556.64   42.30
  -6   0 -10 1463.35   39.20
   8   0 -10    2.40    2.40
   8   0  10   -2.00    1.60
  -8   0  10    0.40    2.40
  10   0 -10 1774.72   50.49
  10   0  10 1705.13   45.50
 -10   0 -10 1858.31   50.59
 -10   0  10 1698.13   49.30
 -12   0 -10    2.50    3.20
  12   0 -10    2.40    2.60
  12   0  10    1.10    2.30
 -12   0  10    0.40    2.60
  14   0  10 1210.48   37.40
 -14   0 -10 1233.68   39.00
  14   0 -10 1217.18   40.30
 -14   0 -10 1203.18   33.20
 -14   0  10 1203.18   40.20
 -16   0 -10    4.30    3.70
  16   0  10    6.40    3.50
  16   0 -10    3.00    3.20
 -16   0  10    2.00    3.90
 -18   0 -10 1123.89   37.80
  18   0 -10 1096.59   45.40
 -18   0  10 1100.49   40.10
  18   0  10 1142.69   37.30
  20   0  10    5.90    5.20
  20   0 -10    9.20    5.30
 -20   0  10   -3.10    5.40
 -20   0 -10    2.70    4.80
 -22   0 -10  886.71   33.70
 -22   0  10  834.52   35.20
  22   0  10  784.42   36.40
  22   0 -10  896.21   37.50
 -24   0  10    2.40    9.90
 -24   0 -10  -10.30    8.30
  24   0  10   -0.10    7.40
   0  -2  10 3158.08   76.69
   0   2  10 3183.48   77.19
   0  -2 -10 3400.16   77.69
   0  -2  10 3186.78   76.29
   0   2 -10 3438.76   81.19
  -2   2  10  140.39    9.40
  -2  -2 -10  143.19    7.40
   2  -2  10  139.99    9.00
   2   2 -10  140.69    9.10
   2  -2  10  121.59    8.40
  -2  -2 -10  141.89    7.60
  -2  -2  10  146.49    9.60
  -2  -2  10  134.59    9.20
   2  -2 -10  144.19    8.20
  -2   2 -10  140.99    8.90
   2   2  10  161.48   10.30
  -4   2  10 2735.83   67.59
  -4  -2 -10 2801.42   63.69
   4  -2  10 2654.33   65.19
   4   2 -10 2691.53   68.39
  -4  -2 -10 2800.22   63.79
  -4   2 -10 2819.22   69.19
   4  -2 -10 2790.52   66.89
   4   2  10 2687.33   67.49
  -4  -2  10 2697.43   67.59
  -4  -2  10 2610.04   66.69
   6   2 -10   39.60    5.00
  -6   2  10   38.60    5.30
   6  -2  10   35.80    5.10
  -6  -2 -10   37.70    4.00
  -6  -2 -10   38.10    4.20
   6  -2  10   46.30    5.20
  -6   2 -10   47.80    8.40
  -6  -2  10   40.70    5.20
  -6  -2  10   40.70    5.50
   6  -2 -10   37.70    4.80
  -8   2  10 1428.36   42.00
  -8  -2 -10 1500.25   44.20
  -8  -2 -10 1446.96   37.00
   8   2 -10 1489.55   43.70
   8  -2  10 1393.76   40.70
  -8  -2  10 1444.06   43.70
   8   2  10 1436.56   36.80
   8  -2 -10 1489.25   42.20
  -8  -2  10 1475.05   41.80
 -10   2  10   51.99    6.60
 -10  -2 -10   42.80    5.00
  10  -2  10   38.40    5.70
  10   2 -10   45.10    5.90
 -10  -2 -10   41.60    5.80
  10  -2 -10   45.90    6.30
 -10  -2  10   39.30    5.80
 -10  -2  10   46.80    6.80
 -10   2 -10   36.60    5.30
  10   2  10   54.49    5.20
  12  -2  10 2483.25   64.49
 -12   2  10 2466.25   65.29
  12   2 -10 2417.76   66.39
 -12  -2 -10 2557.14   67.59
  12   2  10 2455.85   59.69
  12  -2 -10 2511.55   66.69
 -12  -2  10 2381.56   63.09
 -12  -2  10 2439.66   67.29
 -12   2 -10 2488.25   63.19
 -14   2  10    8.10    4.20
 -14  -2 -10    3.10    3.50
  14   2 -10    1.00    3.40
  14  -2  10   -2.40    2.90
  14  -2 -10   -1.40    3.00
  14   2  10    2.00    2.60
 -14  -2  10    3.40    3.30
 -14   2 -10    2.90    3.40
 -16  -2 -10  623.04   26.80
  16   2 -10  653.23   27.30
  16  -2  10  625.84   25.50
 -16   2  10  559.94   24.90
  16   2  10  582.74   22.10
 -16  -2  10  599.94   27.40
 -16   2 -10  578.74   22.90
  16  -2 -10  576.54   26.50
 -18   2  10   34.40    7.70
  18   2 -10   16.90    8.50
  18  -2  10   13.40    5.10
 -18  -2 -10   23.30    6.70
 -18   2 -10   15.20    5.10
  18  -2 -10   22.50    7.20
 -18  -2  10   28.90    7.30
  18   2  10   27.00    5.40
 -20   2  10 1093.99   39.50
  20   2 -10 1094.39   40.70
 -20  -2 -10 1024.50   38.80
  20  -2  10 1118.49   39.60
  20  -2 -10 1017.90   40.00
 -20   2 -10 1075.39   34.40
 -20  -2  10 1080.19   42.10
  20   2  10 1078.79   35.50
  22   2 -10   12.60    6.30
  22  -2  10   12.60    6.80
 -22  -2  10   12.40    8.40
 -22   2 -10   27.10    7.00
  22  -2 -10   17.60    7.50
  22   2  10   19.50    6.80
 -24   2  10  535.85   27.20
  24  -2  10  504.45   26.60
 -24  -2 -10  499.95   26.90
 -24  -2  10  468.15   28.60
  24  -2 -10  564.44   29.60
   0   4  10    1.60    2.10
   0   4  10   -0.20    1.90
   0  -4  10    6.30    3.20
   0   4 -10   -0.10    1.70
   0  -4 -10    0.90    1.50
   0  -4  10    4.20    2.40
   2   4 -10 2218.38   58.29
  -2   4  10 2015.30   58.69
  -2   4  10 2122.09   55.99
  -2  -4 -10 2195.68   50.99
   2  -4  10 2198.88   55.69
   2  -4  10 2166.28   53.89
  -2  -4 -10 2266.37   51.49
  -2  -4  10 2158.58   55.49
  -2  -4  10 2044.90   55.49
  -2   4 -10 2294.87   58.69
   2   4  10 2094.49   56.49
   2  -4 -10 2195.18   53.39
  -4  -4 -10  310.57    9.90
  -4  -4 -10  322.47   10.20
   4   4 -10  290.67   14.70
   4  -4  10  305.87   13.40
  -4   4  10  320.57   15.20
   4  -4  10  311.77   15.40
   4  -4  10  300.87   14.20
  -4   4 -10  289.47   12.80
  -4  -4  10  334.87   15.90
  -4  -4  10  302.17   15.10
   4  -4 -10  310.27   13.10
   6  -4  10 2629.74   68.19
  -6   4  10 2698.43   67.79
   6  -4  10 2622.64   65.79
  -6  -4 -10 2737.83   71.19
  -6  -4 -10 2606.94   59.09
  -6  -4 -10 2792.62   59.49
   6   4 -10 2875.51   69.99
   6  -4  10 2716.63   64.29
  -6  -4  10 2637.34   69.29
   6  -4 -10 2692.43   66.19
  -6   4 -10 2594.14   64.19
  -6  -4  10 2719.83   68.59
   8   4 -10   67.49    7.30
   8  -4  10   84.89    6.90
  -8  -4 -10   82.59    8.60
  -8   4  10   81.89    7.90
  -8  -4 -10   70.39    4.20
   8  -4  10   62.29    5.80
  -8  -4 -10   63.49    4.10
  -8   4 -10   73.29    6.30
  -8  -4  10   92.09    8.50
  -8  -4  10   80.09    8.20
   8  -4 -10   79.59    7.10
 -10  -4 -10 1309.77   42.60
 -10   4  10 1393.46   41.10
  10  -4  10 1342.77   41.90
  10   4 -10 1334.07   41.30
 -10   4 -10 1313.07   36.40
 -10   4 -10 1330.57   35.40
 -10  -4  10 1291.77   40.60
  10  -4 -10 1342.77   40.30
 -10  -4  10 1418.16   44.00
 -12  -4 -10    5.30    4.10
  12  -4  10    5.60    3.60
  12   4 -10    6.50    4.10
 -12   4  10    4.20    3.30
 -12  -4 -10    5.60    2.80
  12   4  10    8.20    2.70
 -12  -4  10   11.90    4.50
 -12   4 -10   13.90    3.50
 -12   4 -10    7.30    3.70
 -12  -4  10   17.50    5.00
  12  -4 -10   15.70    4.40
  14  -4  10 1322.97   43.40
 -14  -4 -10 1357.56   45.80
 -14   4  10 1351.06   41.50
  14   4 -10 1419.56   44.60
 -14   4 -10 1395.06   37.80
 -14  -4  10 1323.97   45.20
 -14  -4  10 1336.47   41.30
  14  -4 -10 1355.96   43.90
  14   4  10 1358.96   35.10
 -16  -4 -10   39.10    8.70
 -16   4  10   32.10    7.00
  16  -4  10   38.50    7.50
  16   4 -10   32.90    7.60
 -16  -4  10   19.30    6.20
 -16   4 -10   36.10    5.50
  16  -4 -10   29.60    6.70
 -16  -4  10   34.70    6.60
  16   4  10   39.90    6.00
  18   4 -10  822.22   37.40
 -18   4  10  819.12   31.10
 -18  -4 -10  869.81   35.20
  18  -4  10  828.92   33.70
  18   4  10  838.12   26.80
  18  -4 -10  836.52   34.40
 -18  -4  10  847.52   35.80
 -18   4 -10  857.11   26.30
 -18  -4  10  885.31   30.70
 -20  -4 -10   40.20    9.70
  20  -4  10   45.80    9.40
  20   4 -10   39.80    9.20
 -20   4  10   45.60    9.20
 -20  -4  10   50.79    9.60
  20  -4 -10   53.49   10.30
 -20   4 -10   43.60    7.60
 -22  -4 -10  265.77   20.60
  22  -4  10  203.48   16.70
 -22   4  10  187.58   18.00
  22   4  10  231.88   14.60
 -22  -4  10  249.78   19.30
  22  -4 -10  281.37   19.60
   0  -6  10 1157.78   35.80
   0   6 -10 1290.77   49.99
   0   6  10 1082.59   28.20
   0  -6  10 1102.29   33.40
   0  -6 -10 1157.38   29.80
   2  -6  10   59.89    5.90
  -2  -6 -10   60.59    3.90
  -2   6  10   67.89    7.40
  -2  -6 -10   65.49    3.60
   2  -6  10   64.39    6.80
  -2  -6  10   73.19   11.50
   2  -6 -10   66.29    5.00
  -2   6 -10   61.59    8.50
  -2  -6  10   56.59    6.60
   4  -6  10 1560.44   40.80
  -4   6  10 1560.74   44.40
   4  -6  10 1584.44   44.20
   4   6 -10 1475.35   44.00
   4  -6  10 1477.95   45.30
  -4  -6 -10 1524.95   46.30
  -4   6 -10 1394.36   38.80
   4  -6 -10 1590.54   39.90
  -4  -6  10 1521.15   44.90
  -4  -6  10 1542.95   45.80
  -6  -6 -10   88.59    9.70
   6  -6  10   77.69    7.20
   6   6 -10   78.09    7.80
  -6   6  10   78.99    7.80
   6  -6  10   69.89    7.70
   6  -6  10   83.19    6.40
  -6  -6  10   77.29    8.40
   6  -6 -10   87.39    7.10
  -6  -6  10   82.49    8.60
  -6   6 -10   80.89    6.50
   8  -6  10 1383.06   43.90
  -8  -6 -10 1575.84   49.30
  -8   6  10 1488.25   42.00
   8  -6  10 1410.46   36.30
   8   6 -10 1578.24   46.90
   8  -6  10 1392.56   40.00
   8  -6 -10 1567.34   46.90
  -8  -6  10 1342.07   43.10
  -8  -6  10 1466.05   45.00
  10   6 -10   15.20    4.80
  10  -6  10   20.60    5.40
 -10  -6 -10    9.00    5.30
  10  -6  10   11.90    3.90
 -10   6  10    6.30    4.10
 -10  -6  10   17.20    4.90
 -10   6 -10   13.80    3.30
  10  -6 -10   16.80    4.40
 -10   6 -10   14.80    3.20
 -10  -6  10   19.30    5.60
 -12  -6 -10  920.61   35.30
  12   6 -10  880.71   32.50
  12  -6  10  853.81   33.10
 -12   6  10  877.11   29.90
 -12  -6  10  874.01   31.90
 -12   6 -10  844.52   23.30
 -12  -6  10  856.51   34.00
 -12   6 -10  863.21   23.90
  12  -6 -10  875.51   31.50
 -14   6  10   10.30    4.30
 -14  -6 -10    5.00    3.80
  14  -6  10   11.10    4.70
  14   6 -10    6.20    4.60
 -14  -6  10    8.70    4.40
 -14   6 -10    9.70    3.10
  14  -6 -10   16.60    5.40
 -14  -6  10    1.30    4.70
  16   6 -10 1167.58   40.80
 -16   6  10 1117.79   35.80
  16  -6  10 1067.19   40.10
 -16  -6 -10 1157.78   43.10
 -16   6 -10 1135.19   26.30
 -16  -6  10 1104.09   37.70
  16  -6 -10 1129.19   40.70
 -16  -6  10 1046.40   58.29
 -18   6  10    1.50    4.90
  18   6 -10   10.30    5.60
 -18  -6 -10    5.80    5.80
  18  -6  10   11.40    5.80
 -18  -6  10   11.00    5.70
  18  -6 -10    5.70    5.40
 -18  -6  10   12.00    6.20
  18   6  10    3.60    4.50
  20   6 -10 1110.39   41.70
  20  -6  10 1096.79   42.50
 -20   6  10 1156.58   48.00
 -20  -6 -10 1106.69   44.20
 -20  -6  10 1035.50   37.00
 -20  -6  10 1112.39   44.30
  20  -6 -10 1149.58   43.00
 -22   6  10  -10.20    7.10
  22  -6 -10   19.20    8.90
 -22  -6  10    3.90    6.90
   0  -8 -10   -3.10    2.60
   0  -8  10    2.00    3.10
   0  -8  10    0.80    2.30
   0  -8 -10   -1.00    1.70
   0   8 -10    1.90    3.20
   0   8  10    1.10    2.00
   2  -8  10 1916.71   54.69
   2  -8  10 1991.60   51.19
   2   8 -10 1996.00   56.79
  -2  -8 -10 2048.59   58.39
  -2  -8  10 1947.01   55.89
   2  -8 -10 1990.10   48.30
  -2  -8  10 1989.70   54.19
  -2   8 -10 1983.30   57.09
   4  -8  10   79.89    8.10
   4  -8  10   79.79    8.90
  -4  -8 -10   91.59    9.80
   4  -8  10   79.79    6.80
   4   8 -10   91.09    9.10
  -4   8 -10   92.29    8.70
   4  -8 -10   83.09    6.60
  -4  -8  10   95.59    9.40
  -4  -8  10   75.19    8.20
   6  -8  10 1939.51   56.59
   6   8 -10 1957.60   55.79
  -6  -8 -10 2005.30   59.09
   6  -8  10 1882.51   52.89
   6  -8  10 1910.91   47.10
  -6   8 -10 1894.01   48.00
  -6  -8  10 2014.90   56.79
  -6  -8  10 1871.31   55.09
   6  -8 -10 2054.99   51.99
   8  -8  10  116.49   10.70
   8   8 -10  126.59   11.00
  -8   8  10  115.39   11.00
   8  -8  10  109.29    9.10
  -8  -8 -10   83.09   10.40
   8  -8  10  113.49    6.50
   8  -8 -10   92.49    8.60
  -8  -8  10  110.69   10.70
  -8  -8  10  112.19   10.80
  -8   8 -10   96.39    6.40
  10  -8  10 1280.77   42.50
  10   8 -10 1268.77   41.50
  10  -8  10 1328.27   44.50
 -10   8  10 1321.47   39.80
 -10  -8 -10 1225.58   44.20
 -10  -8  10 1303.57   44.90
 -10   8 -10 1247.88   29.40
  10  -8 -10 1337.87   40.40
 -10  -8  10 1329.67   43.70
 -10   8 -10 1254.17   29.70
 -12   8  10   14.60    4.50
  12  -8  10   10.90    5.40
  12   8 -10    2.90    4.00
  12  -8  10    5.30    3.80
 -12  -8 -10   11.20    5.80
  12  -8 -10    7.30    3.70
 -12  -8  10    8.10    5.00
 -12  -8  10    7.80    4.60
  14   8 -10  930.71   35.40
 -14   8  10  901.41   30.70
 -14  -8  10  894.51   34.40
 -14  -8  10  907.51   54.19
  14  -8 -10  991.70   35.90
  16   8 -10    9.00    5.60
 -16  -8 -10   11.30    6.70
  16  -8  10    1.90    4.90
 -16   8  10   16.70    5.40
 -16  -8  10    1.00    4.60
  16  -8 -10    8.00    5.30
 -16  -8  10    4.10    5.20
  18   8 -10  762.02   32.10
 -18   8  10  739.63   27.00
  18  -8  10  668.83   32.30
 -18  -8 -10  740.63   35.20
 -18  -8  10  764.52   35.30
  18  -8 -10  716.03   32.10
  20  -8  10   24.00    7.70
 -20  -8 -10    0.50    8.00
 -20  -8  10   16.30    7.80
 -20  -8  10   25.90    9.20
   0  10 -10 1309.97   44.30
   0 -10  10 1143.69   35.60
   0 -10 -10 1346.27   32.70
   0 -10 -10 1483.45   45.90
   2 -10  10    0.60    2.60
   2  10 -10    4.00    4.00
  -2 -10 -10    1.80    3.70
   2 -10 -10    4.40    3.80
  -2  10 -10    0.30    4.10
   2 -10 -10    2.50    2.40
  -2 -10  10    6.00    3.90
   4 -10  10  717.23   27.80
   4 -10  10  649.83   28.50
   4 -10  10  695.53   22.50
   4  10 -10  742.63   30.20
  -4 -10 -10  790.12   32.20
   4 -10 -10  793.72   29.90
   4 -10 -10  790.32   24.70
  -4 -10  10  680.23   27.30
   6 -10  10   35.10    6.40
   6 -10  10   24.10    4.20
   6  10 -10   24.30    5.70
   6 -10  10   28.70    7.10
  -6 -10 -10   24.70    6.80
   6 -10 -10   31.80    5.50
  -6 -10  10   16.00    5.30
   6 -10 -10   19.60    5.80
   8  10 -10 1115.09   39.10
  -8 -10 -10 1121.09   42.10
   8 -10  10 1013.80   34.70
   8 -10  10 1045.40   38.70
  -8  10 -10 1122.19   27.30
   8 -10 -10 1206.88   36.60
  -8 -10  10 1032.70   38.10
 -10 -10 -10   27.30    7.60
  10  10 -10    8.10    5.00
  10 -10  10   11.80    5.90
  10 -10  10    6.60    4.30
 -10 -10  10    8.40    4.90
  10 -10 -10   10.10    4.40
 -10 -10  10    3.80    4.90
 -12 -10 -10  782.72   34.80
  12  10 -10  744.83   31.00
  12 -10  10  699.03   31.40
  12 -10  10  708.73   26.20
  12 -10 -10  777.62   30.30
 -12 -10  10  706.03   34.10
 -12 -10  10  721.43   32.40
  14  10 -10    6.70    8.60
  14 -10  10   -1.40    4.30
 -14 -10 -10    2.70    5.80
 -14 -10  10    3.20    5.40
 -14 -10  10    3.60    5.60
  14 -10 -10   11.90    5.50
 -16 -10 -10  879.51   38.50
  16 -10  10  741.83   34.50
  16  10 -10  856.91   34.10
 -16 -10  10  752.52   32.90
  16 -10 -10  796.42   33.80
 -16 -10  10  844.02   37.80
  18 -10  10   -5.10    5.70
  18  10 -10   21.60    8.70
 -18 -10 -10    8.50    8.00
 -18 -10  10    6.80    6.70
 -18 -10  10   18.20    7.90
   0 -12 -10   -4.30    4.00
   0  12 -10    2.40    4.70
   0 -12  10    2.60    3.90
   2  12 -10 1345.27   46.20
  -2 -12 -10 1431.06   47.70
   2 -12  10 1400.56   40.30
   2 -12 -10 1438.56   46.10
  -2  12 -10 1428.16   47.80
   2 -12 -10 1380.36   35.90
  -2 -12  10 1418.86   43.80
  -4 -12 -10    1.80    5.30
   4 -12  10    5.20    4.00
   4  12 -10    3.20    4.80
   4 -12 -10    0.90    4.30
   4 -12 -10    6.40    3.60
  -4 -12  10   10.80    5.10
   6 -12  10 1288.67   42.30
  -6 -12 -10 1236.58   46.00
   6  12 -10 1305.77   43.50
   6 -12 -10 1286.67   41.40
  -6 -12  10 1204.98   42.40
   8 -12  10   20.80    6.50
   8 -12  10   24.70    7.00
  -8 -12 -10   14.60    7.00
   8  12 -10   17.70    5.80
  -8 -12  10   10.00    5.70
   8 -12 -10   21.50    6.20
   8 -12 -10   18.40    5.60
 -10 -12 -10  844.82   37.20
  10 -12  10  776.02   34.20
  10  12 -10  911.41   39.10
  10 -12  10  772.12   30.10
 -10 -12  10  820.92   34.90
  10 -12 -10  831.22   31.20
  12  12 -10   29.20    8.60
  12 -12  10   20.80    6.70
  12 -12  10   34.70    7.70
 -12 -12 -10   19.20    8.40
 -12 -12  10   24.30    7.70
 -12 -12  10   20.30    7.30
  12 -12 -10   26.20    9.20
  14 -12  10  738.23   34.10
  14  12 -10  731.83   32.10
 -14 -12 -10  794.22   37.30
 -14 -12  10  705.83   34.10
  14 -12 -10  754.12   32.00
 -14 -12  10  720.93   33.10
  16  12 -10   -0.60    6.70
  16 -12  10   10.80   11.70
  16 -12 -10   -7.00    6.20
 -16 -12  10   -2.60    7.10
 -16 -12  10   -1.90    7.10
   0 -14 -10 1099.79   40.40
   0  14 -10 1084.29   41.20
   2  14 -10   12.50    6.00
  -2 -14 -10   18.00   12.60
  -2 -14  10   10.90    5.80
   2 -14 -10   17.60    6.70
  -2  14 -10   19.30    7.30
   4  14 -10  307.87   19.40
   4 -14  10  254.77   12.50
  -4 -14 -10  308.07   20.70
  -4 -14  10  224.38   16.60
  -4  14 -10  298.07   20.70
   4 -14 -10  310.97   14.60
   4 -14 -10  291.97   18.80
  -6 -14 -10    6.80    7.60
   6 -14  10   16.50    6.80
   6  14 -10   11.90    6.20
  -6 -14  10   16.20    6.60
   6 -14 -10   13.30    8.90
   6 -14 -10   26.00    5.90
   8 -14  10  533.65   26.20
   8 -14  10  566.04   28.90
  -8 -14 -10  675.63   45.70
   8  14 -10  608.24   28.10
  -8 -14  10  560.14   28.20
   8 -14 -10  553.74   24.30
  10 -14  10    6.10    7.50
  10  14 -10   12.90    6.40
 -10 -14 -10   24.70    8.30
  10 -14  10    6.80    7.50
  10 -14 -10    2.40    6.80
  10 -14 -10   12.50    7.40
 -12 -14 -10  589.34   31.90
  12 -14  10  559.74   37.30
  12  14 -10  608.44   28.50
  12 -14 -10  631.24   28.30
   0 -16  10   -7.40    7.40
   0 -16 -10    5.30    7.80
  -2 -16 -10  744.03   33.90
   2 -16 -10  765.62   32.30
   4  16 -10    9.80    7.40
  -4 -16 -10    8.90   12.40
  -4 -16  10   12.30    7.60
   6  16 -10  796.42   34.00
  -6 -16  10  867.91   37.80
   6 -16 -10  816.92   32.90
  -1   1  11 1249.47   36.30
   1   1 -11 1361.46   39.00
  -1  -1 -11 1422.76   37.30
  -1   1  11 1355.26   39.70
   1  -1  11 1454.35   39.70
  -1  -1 -11 1369.76   37.30
  -1  -1  11 1353.86   39.30
   1  -1 -11 1408.26   38.00
  -1   1 -11 1457.95   39.30
   1   1  11 1341.07   39.50
   3   1 -11 2408.06   60.89
  -3  -1 -11 2440.66   57.99
  -3   1  11 2378.76   61.89
  -3  -1 -11 2341.97   57.79
   3  -1  11 2403.36   60.79
   3   1  11 2422.36   61.79
   3  -1 -11 2412.56   59.69
  -3   1 -11 2420.06   59.89
  -3  -1  11 2319.87   61.49
  -5   1  11 1546.45   44.20
   5   1 -11 1352.06   39.10
   5  -1  11 1490.75   42.40
  -5  -1 -11 1349.36   35.60
  -5  -1 -11 1310.77   35.50
   5  -1 -11 1321.07   38.00
  -5  -1  11 1528.75   44.30
   5   1  11 1516.95   43.60
   7   1 -11 1363.86   40.20
  -7   1  11 1302.47   39.60
   7  -1  11 1260.57   36.80
  -7  -1 -11 1283.47   35.40
   7  -1  11 1255.97   37.80
   7  -1 -11 1402.66   39.80
  -7  -1  11 1307.37   43.90
   9   1 -11  694.23   26.40
   9  -1  11  822.32   27.40
  -9  -1 -11  698.93   27.00
  -9   1  11  783.32   29.10
   9   1  11  810.02   25.40
   9  -1 -11  755.12   26.80
  -9   1 -11  745.13   26.40
  -9  -1  11  842.92   30.20
  11   1 -11 1940.61   55.49
  11  -1  11 1892.21   51.79
 -11  -1 -11 2000.10   55.99
 -11   1  11 1833.42   54.19
 -11  -1  11 1938.51   55.49
  11  -1 -11 1967.70   55.59
 -11   1 -11 2005.60   54.39
  11   1  11 1960.40   49.99
 -13   1  11  692.63   28.00
  13  -1  11  695.83   26.00
 -13  -1 -11  635.64   26.30
  13   1 -11  638.44   26.70
  13   1  11  676.93   24.20
 -13   1 -11  655.43   25.00
 -13  -1  11  727.23   29.10
  13  -1 -11  684.93   27.30
 -15   1  11  706.33   28.70
  15  -1  11  663.13   26.20
 -15  -1 -11  637.24   26.80
  15   1 -11  616.24   27.10
  15  -1 -11  674.23   28.10
 -15   1 -11  606.44   24.90
 -15  -1  11  637.14   28.20
  17  -1  11  724.73   28.80
  17   1 -11  688.13   29.70
 -17  -1 -11  692.33   28.70
 -17   1  11  760.22   31.20
 -17  -1  11  722.23   31.40
  17   1  11  774.82   27.50
 -17   1 -11  707.33   27.30
  17  -1 -11  651.23   29.10
  19   1 -11  800.52   33.70
 -19   1  11  776.42   32.60
 -19  -1 -11  782.52   31.80
  19  -1  11  780.72   30.70
  19  -1 -11  773.52   33.20
  19   1  11  789.22   29.20
 -19   1 -11  766.62   29.40
 -19  -1  11  788.22   37.50
 -21   1  11  431.36   24.80
  21   1 -11  489.65   26.00
  21  -1 -11  459.15   25.20
 -21  -1  11  449.95   24.70
  21   1  11  438.96   21.90
 -21   1 -11  479.05   22.80
  23  -1  11  360.86   22.60
  23   1 -11  355.46   22.50
 -23  -1 -11  350.46   21.50
 -23   1  11  397.26   23.90
  23  -1 -11  324.57   22.40
  23   1  11  347.37   20.70
 -23  -1  11  351.96   23.20
 -23   1 -11  312.27   19.30
  -1   3  11 1339.97   40.00
   1  -3  11 1331.57   38.50
  -1   3  11 1253.27   40.60
  -1  -3 -11 1218.98   32.80
  -1  -3 -11 1285.77   32.60
   1  -3  11 1355.76   39.40
   1   3 -11 1216.78   36.90
  -1   3 -11 1262.17   37.10
  -1  -3  11 1374.96   39.90
   1  -3 -11 1196.58   33.10
  -1  -3  11 1439.66   39.80
   1   3  11 1277.27   39.60
   3  -3  11 2106.69   55.39
  -3  -3 -11 2308.37   53.79
  -3  -3 -11 2292.57   53.39
  -3   3  11 2143.59   56.89
   3  -3  11 2151.28   54.69
   3   3 -11 2232.28   59.29
   3  -3 -11 2273.97   56.19
  -3  -3  11 2073.79   56.39
   3   3  11 2077.29   56.99
  -3   3 -11 2312.77   59.49
  -3  -3  11 2170.28   56.89
  -5   3  11 1601.64   46.60
   5  -3  11 1736.53   45.10
  -5  -3 -11 1616.24   39.40
   5   3 -11 1614.44   46.10
  -5  -3 -11 1609.94   39.30
   5  -3  11 1661.63   46.70
   5  -3 -11 1666.33   43.90
  -5  -3  11 1670.03   47.70
  -5  -3  11 1630.74   47.00
   7  -3  11 1579.54   42.40
   7  -3  11 1467.85   44.10
  -7  -3 -11 1506.15   49.90
  -7   3  11 1603.14   45.40
  -7  -3 -11 1464.35   35.70
   7   3 -11 1417.86   42.60
  -7  -3 -11 1384.26   35.10
  -7  -3  11 1511.15   45.80
   7  -3 -11 1423.06   41.00
  -7  -3  11 1527.15   48.00
  -9  -3 -11  749.62   29.00
  -9  -3 -11  725.63   23.50
  -9  -3 -11  741.73   21.40
   9   3 -11  686.43   26.90
  -9   3  11  725.53   27.30
   9  -3  11  751.22   27.80
   9  -3 -11  754.12   26.70
  -9  -3  11  773.52   29.60
  -9  -3  11  724.93   27.10
 -11  -3 -11 1710.23   51.79
 -11   3  11 1709.53   49.90
 -11  -3 -11 1619.74   42.10
  11   3 -11 1748.43   51.19
  11  -3  11 1698.43   49.70
  11  -3 -11 1810.02   50.59
  11   3  11 1745.13   43.10
 -11  -3  11 1703.13   49.40
 -11  -3  11 1716.23   52.59
 -11   3 -11 1748.03   47.10
  13  -3  11  965.00   34.10
 -13   3  11  965.60   34.00
  13   3 -11 1002.60   35.40
 -13  -3 -11 1036.10   36.80
 -13  -3  11 1003.80   33.60
 -13   3 -11  982.40   31.30
 -13  -3  11  931.81   36.00
  13   3  11  992.50   28.40
  13  -3 -11  996.10   35.20
 -15  -3 -11  749.33   31.20
  15   3 -11  775.22   31.10
 -15   3  11  682.63   27.80
  15  -3  11  691.33   28.30
  15   3  11  704.23   23.30
  15  -3 -11  774.42   30.90
 -15   3 -11  766.62   26.50
 -15  -3  11  684.73   30.40
 -15  -3  11  711.13   27.00
  17   3 -11  454.65   26.70
  17  -3  11  427.46   21.90
 -17  -3 -11  436.26   23.50
 -17   3  11  436.76   21.60
 -17  -3  11  436.56   24.20
 -17   3 -11  461.95   19.20
  17   3  11  442.56   18.30
  19   3 -11  519.65   26.30
  19  -3  11  506.95   25.60
 -19  -3 -11  494.95   25.80
 -19   3  11  487.85   24.20
 -19  -3  11  504.75   27.30
  19  -3 -11  567.84   27.60
 -19   3 -11  528.75   22.70
 -21  -3 -11  312.77   21.00
  21   3 -11  364.66   22.40
  21  -3  11  335.47   21.10
  21   3  11  332.37   17.40
 -21   3 -11  335.47   16.70
  21  -3 -11  338.77   21.80
 -21  -3  11  304.37   22.00
 -23  -3 -11  488.65   27.20
  23  -3  11  492.95   27.20
 -23   3  11  498.65   26.30
  23  -3 -11  508.45   31.60
  23   3  11  574.14   36.20
  -1   5  11  851.21   29.70
   1  -5  11  840.12   27.70
  -1  -5 -11  854.41   23.10
   1  -5  11  818.92   28.90
   1  -5 -11  866.71   24.40
   1   5  11  864.11   33.60
  -1  -5  11  856.31   28.60
  -3  -5 -11 1460.35   34.60
  -3  -5 -11 1475.05   34.30
   3  -5  11 1494.35   43.10
  -3   5  11 1486.75   43.70
   3   5 -11 1460.55   43.70
   3  -5  11 1504.05   41.10
   3  -5 -11 1444.46   38.40
  -3  -5  11 1470.15   44.00
  -3  -5  11 1440.06   43.10
  -3   5 -11 1489.65   44.40
   5  -5  11  577.44   20.50
   5   5 -11  657.73   25.30
  -5  -5 -11  671.13   16.40
  -5   5  11  643.64   24.00
  -5  -5 -11  618.84   26.50
   5  -5  11  538.45   21.80
  -5  -5 -11  637.04   16.30
   5  -5  11  614.14   24.30
  -5  -5  11  576.24   23.90
  -5  -5  11  562.44   23.50
   5  -5 -11  683.03   22.50
  -7  -5 -11  690.73   28.40
  -7  -5 -11  697.43   16.30
   7   5 -11  716.83   26.90
   7  -5  11  754.92   24.10
   7  -5  11  774.62   28.90
   7  -5  11  744.63   26.10
  -7   5 -11  670.33   22.20
  -7  -5  11  751.12   28.30
  -7  -5  11  780.62   29.50
   7  -5 -11  716.93   24.70
  -9  -5 -11 1483.35   34.10
   9  -5  11 1474.65   46.20
  -9   5  11 1521.95   44.80
  -9  -5 -11 1509.05   48.20
   9   5 -11 1495.75   45.70
   9  -5 -11 1551.94   44.20
  -9  -5  11 1531.15   46.20
  -9  -5  11 1512.15   47.70
  -9   5 -11 1475.05   40.70
  11  -5  11  957.70   35.10
 -11  -5 -11  993.50   36.30
  11   5 -11  908.41   33.50
 -11  -5 -11  965.00   23.20
 -11   5  11 1009.40   33.80
 -11  -5 -11  949.90   22.20
  11  -5 -11  919.91   32.40
 -11  -5  11 1018.10   37.00
 -11   5 -11  968.90   28.40
 -11  -5  11 1010.30   34.80
 -11   5 -11  865.61   26.90
 -13  -5 -11  500.45   24.70
  13   5 -11  493.35   23.40
 -13   5  11  597.84   24.80
 -13  -5 -11  464.25   13.80
  13  -5  11  628.14   27.20
 -13   5 -11  474.15   17.30
  13  -5 -11  486.15   22.60
 -13  -5  11  665.13   26.80
 -13  -5  11  638.44   28.80
 -13   5 -11  485.05   17.50
  15   5 -11  966.20   35.90
  15  -5  11  952.80   36.30
 -15   5  11  968.90   34.00
 -15  -5 -11  928.91   37.20
  15  -5 -11  962.30   35.70
 -15  -5  11  969.80   34.40
 -15  -5  11  958.10   38.10
 -15   5 -11  965.60   27.60
  17  -5  11  622.64   33.10
 -17   5  11  646.94   26.50
  17   5 -11  652.13   29.20
  17   5  11  631.04   19.40
 -17  -5  11  586.24   29.70
  17  -5 -11  628.44   28.90
 -17  -5  11  627.94   26.40
 -17   5 -11  642.54   20.50
 -19   5  11  748.53   29.90
  19   5 -11  696.83   31.40
 -19  -5 -11  703.33   33.20
  19  -5  11  698.83   31.90
 -19  -5  11  741.43   34.70
  19  -5 -11  765.22   33.10
  19   5  11  784.12   23.40
 -21   5  11  465.55   23.90
 -21  -5 -11  382.16   24.20
  21  -5 -11  464.65   25.60
 -21  -5  11  474.45   27.90
   1  -7  11 1388.76   40.40
   1   7 -11 1434.36   43.40
  -1  -7 -11 1325.37   32.60
   1  -7  11 1457.65   43.60
  -1   7 -11 1359.56   42.90
   1  -7 -11 1348.97   34.50
  -1  -7  11 1389.16   41.30
  -1  -7  11 1390.56   43.50
   3  -7  11 1952.00   54.19
  -3   7  11 1886.21   50.39
   3  -7  11 1949.41   50.49
  -3   7  11 1976.30   54.49
  -3  -7 -11 1983.50   58.19
   3   7 -11 2046.60   57.09
  -3  -7  11 1863.21   55.09
  -3  -7  11 1952.90   54.39
   3  -7 -11 1944.41   49.20
   5  -7  11 1937.41   52.99
   5  -7  11 1962.90   48.90
   5   7 -11 2062.79   57.99
   5  -7  11 1830.82   54.79
  -5  -7 -11 2025.00   60.29
  -5   7  11 1908.31   53.49
   5  -7 -11 2077.19   52.69
  -5  -7  11 1866.91   54.39
  -5  -7  11 1871.51   55.09
   7  -7  11 1364.86   40.40
  -7   7  11 1352.36   41.10
   7   7 -11 1201.38   39.70
   7  -7  11 1274.47   35.40
   7  -7  11 1361.16   43.90
  -7  -7 -11 1288.47   43.10
   7  -7 -11 1153.08   38.80
  -7   7 -11 1175.28   32.60
  -7  -7  11 1356.76   43.40
  -7  -7  11 1302.17   43.00
   9  -7  11 1001.70   36.20
  -9  -7 -11 1120.29   40.20
  -9   7  11 1013.10   33.60
   9   7 -11 1062.29   37.20
  -9  -7  11  919.11   34.90
   9  -7 -11 1047.30   34.50
  -9  -7  11 1008.60   36.60
 -11   7  11  495.35   21.30
  11  -7  11  469.15   19.40
  11  -7  11  479.15   23.80
 -11  -7 -11  562.54   26.90
  11   7 -11  532.75   24.30
  11  -7 -11  574.94   23.50
 -11  -7  11  482.85   23.00
 -11   7 -11  549.45   17.00
 -11   7 -11  471.05   15.90
 -11  -7  11  495.05   24.60
 -13  -7 -11  502.75   25.90
 -13   7  11  522.85   22.40
  13   7 -11  496.95   23.70
  13  -7  11  551.64   26.10
 -13  -7  11  467.85   23.50
 -13   7 -11  487.85   13.80
 -13   7 -11  488.75   14.30
  13  -7 -11  505.65   23.30
 -13  -7  11  545.55   27.00
 -15  -7 -11  948.21   39.00
  15   7 -11 1023.10   38.10
 -15   7  11  947.21   32.60
  15  -7  11  931.21   41.90
 -15  -7  11  906.91   34.80
 -15  -7  11  932.61   38.50
  15  -7 -11  944.61   36.50
 -17  -7 -11  579.74   29.80
 -17   7  11  505.75   22.60
  17  -7  11  548.45   27.60
  17   7 -11  535.55   26.70
 -17  -7  11  514.65   28.00
 -17  -7  11  484.85   24.50
  17  -7 -11  569.24   27.40
  19   7 -11  577.94   27.90
 -19  -7 -11  519.15   28.80
  19  -7 -11  572.34   28.30
 -19  -7  11  522.55   29.10
  21  -7  11  261.27   20.30
 -21   7  11  308.57   23.90
 -21  -7  11  240.38   18.20
   1   9 -11  970.90   35.30
   1  -9  11  917.71   33.80
   1  -9  11  925.21   30.50
  -1  -9 -11  922.61   35.20
   1  -9 -11  961.40   35.00
  -1  -9  11  900.51   33.80
   1  -9 -11  918.11   25.30
  -1  -9  11  972.80   31.90
  -1   9 -11 1030.50   36.20
   3   9 -11  368.76   19.80
   3  -9  11  290.37   16.90
  -3  -9 -11  359.16   20.40
   3  -9  11  289.67   14.10
  -3   9 -11  355.36   19.60
   3  -9 -11  342.07   13.90
  -3  -9  11  298.37   16.90
  -3  -9  11  295.07   17.40
   5  -9  11  635.54   27.70
   5  -9  11  606.24   20.80
   5  -9  11  589.04   25.00
  -5  -9 -11  712.93   30.50
   5   9 -11  667.13   28.30
  -5  -9  11  679.03   27.10
  -5  -9  11  613.84   27.20
   5  -9 -11  730.93   24.10
   7  -9  11  935.91   33.20
   7  -9  11  973.80   36.70
  -7  -9 -11  947.01   36.60
   7   9 -11  852.51   33.00
   7  -9  11  956.60   26.90
  -7  -9  11  973.60   35.70
  -7  -9  11 1000.50   36.70
   7  -9 -11  969.00   30.10
  -7   9 -11  836.62   25.40
  -9  -9 -11  743.43   33.10
   9  -9  11  766.52   32.20
   9   9 -11  836.52   32.00
  -9   9  11  772.42   28.70
   9  -9  11  779.12   28.30
  -9  -9  11  759.42   31.80
  -9   9 -11  741.33   20.70
   9  -9 -11  796.22   28.20
  -9  -9  11  782.02   32.10
 -11   9  11  716.23   27.00
  11  -9  11  692.13   26.00
  11   9 -11  738.83   29.90
  11  -9  11  693.53   31.00
 -11  -9 -11  697.53   32.90
 -11  -9  11  657.93   29.80
  11  -9 -11  675.53   27.20
 -11  -9  11  721.93   31.80
  13  -9  11  565.74   22.40
  13  -9  11  597.44   28.70
 -13   9  11  557.44   23.50
 -13  -9 -11  523.65   28.20
  13   9 -11  542.95   25.90
 -13  -9  11  545.85   28.50
  13  -9 -11  553.64   25.00
 -13  -9  11  551.64   27.20
 -15   9  11  491.95   22.00
  15  -9  11  529.55   27.70
  15   9 -11  549.35   26.30
 -15  -9 -11  543.25   29.10
  15  -9 -11  508.75   25.30
 -15  -9  11  515.15   28.30
 -15  -9  11  494.75   25.30
 -17   9  11  360.76   18.90
  17   9 -11  404.16   22.60
  17  -9  11  378.86   25.50
 -17  -9 -11  441.66   26.40
 -17  -9  11  421.46   23.40
  17  -9 -11  370.36   22.20
 -17  -9  11  402.76   25.70
 -19  -9 -11  402.76   26.20
  19  -9  11  400.36   25.40
 -19  -9  11  345.07   21.60
   1  11 -11  913.81   35.40
   1 -11  11  817.02   33.10
  -1  11  11  816.02   22.70
  -1 -11 -11  943.61   35.90
   1 -11  11  885.01   29.80
  -1  11 -11  931.41   35.90
   1 -11 -11  846.72   34.00
  -1 -11  11  890.51   30.90
   1 -11 -11  901.01   23.80
  -1 -11  11  859.21   34.10
   3 -11  11  581.24   21.70
   3 -11  11  565.34   26.30
  -3 -11 -11  612.14   28.70
   3  11 -11  570.24   27.00
  -3 -11  11  655.73   26.60
   3 -11 -11  614.44   27.00
  -3  11 -11  625.54   28.50
   3 -11 -11  624.74   20.30
  -3 -11  11  595.84   27.60
   5 -11  11  580.14   26.10
   5 -11  11  587.54   19.90
  -5 -11 -11  615.74   29.30
   5  11 -11  590.84   26.90
   5 -11 -11  593.84   26.20
  -5 -11  11  608.14   26.50
  -5 -11  11  557.94   27.10
   5 -11 -11  580.74   21.30
   7 -11  11  536.45   24.30
  -7 -11 -11  552.54   28.10
   7  11 -11  595.44   26.80
  -7 -11  11  524.15   25.60
   7 -11 -11  568.64   22.40
   7 -11 -11  572.04   25.00
   9 -11  11  632.74   30.10
   9  11 -11  664.03   29.40
   9 -11  11  610.74   26.30
  -9 -11 -11  640.54   31.60
   9 -11 -11  659.63   26.50
  -9 -11  11  633.24   29.70
  -9 -11  11  685.03   33.50
   9 -11 -11  673.73   26.10
 -11 -11 -11  722.53   34.00
  11 -11  11  710.33   27.90
  11 -11  11  711.63   32.70
  11  11 -11  758.72   31.90
 -11 -11  11  737.33   32.80
  11 -11 -11  717.93   29.10
 -11 -11  11  742.23   33.30
  11 -11 -11  733.73   29.30
  13 -11  11  506.15   27.80
  13  11 -11  531.55   25.90
 -13 -11 -11  562.74   30.30
 -13 -11  11  524.75   27.60
 -13 -11  11  565.44   29.70
  13 -11 -11  512.65   24.60
  15  11 -11  541.75   27.10
  15 -11  11  565.54   29.80
 -15 -11 -11  559.54   30.80
  15 -11  11  567.24   22.90
 -15 -11  11  576.64   30.80
  15 -11 -11  547.85   26.60
  15 -11 -11  575.74   23.60
  17  11 -11  387.26   22.40
  17 -11  11  390.56   38.00
  17 -11 -11  385.36   22.50
 -17 -11  11  440.66   25.10
   1  13 -11  925.91   36.60
   1 -13  11  881.41   30.90
  -1 -13 -11  878.71   35.70
  -1 -13  11  904.21   32.30
  -1  13 -11  884.01   36.10
   1 -13 -11  872.51   35.30
   3 -13  11  637.24   29.30
   3 -13  11  683.83   28.50
  -3 -13 -11  726.43   47.80
   3  13 -11  733.93   32.30
   3 -13 -11  744.43   31.10
   3 -13 -11  725.43   23.90
  -3  13 -11  775.62   33.70
  -3 -13  11  680.13   28.60
   5  13 -11  610.94   28.10
   5 -13  11  614.94   27.60
  -5 -13 -11  564.74   29.30
   5 -13  11  515.25   20.10
  -5  13 -11  566.74   28.90
   5 -13 -11  555.74   26.00
   5 -13 -11  604.94   23.80
  -5 -13  11  557.74   26.30
   7 -13  11  605.94   30.50
   7  13 -11  670.53   29.50
  -7 -13 -11  643.24   31.80
   7 -13  11  658.13   34.20
  -7 -13  11  668.03   30.30
   7 -13 -11  618.14   24.30
   7 -13 -11  614.44   26.90
   9 -13  11  401.76   24.10
  -9 -13 -11  426.86   26.30
   9  13 -11  466.05   24.50
   9 -13 -11  449.26   25.50
   9 -13 -11  444.76   21.10
  -9 -13  11  417.76   24.60
  -9 -13  11  426.56   24.20
  11  13 -11  400.56   23.00
  11 -13  11  397.76   24.60
 -11 -13 -11  401.56   25.10
  11 -13  11  411.66   22.20
  11 -13 -11  365.66   19.70
  11 -13 -11  370.26   23.30
 -11 -13  11  392.86   24.20
 -13 -13 -11  231.78   20.20
  13  13 -11  237.18   18.80
  13 -13  11  175.38   17.60
  13 -13  11  183.48   16.30
  13 -13 -11  256.47   18.10
  -1 -15 -11  284.77   20.30
   1 -15  11  194.08   14.30
   1 -15 -11  285.07   19.80
  -3 -15 -11  515.85   27.50
   3 -15  11  444.66   25.30
   3  15 -11  475.55   25.90
   3 -15 -11  410.96   26.90
  -3 -15  11  432.86   25.50
   5  15 -11  370.26   23.30
   5 -15  11  381.76   23.10
  -5 -15  11  388.96   23.00
   7 -15  11  442.86   24.80
   7  15 -11  406.56   24.00
   7 -15 -11  404.66   21.90
  -7  15 -11  465.85   28.40
  -7 -15  11  439.96   25.50
  -9 -15 -11  341.67   25.60
   9 -15  11  282.67   20.70
   9 -15 -11  376.26   23.30
  -9 -15  11  354.56   24.10
   0   0 -12 2610.54   64.19
   0   0  12 2708.93   69.19
  -2   0 -12    3.00    2.30
  -2   0  12   -0.60    1.80
   2   0  12    2.00    2.20
   2   0 -12    0.50    1.70
  -4   0  12 3350.96   82.79
  -4   0 -12 3248.38   76.39
   4   0 -12 3165.38   77.99
   4   0  12 3270.37   81.59
   6   0  12    5.80    2.70
  -6   0 -12    0.20    2.10
  -6   0  12   -0.20    2.50
   6   0 -12   -0.80    2.30
   8   0 -12 1615.44   46.80
  -8   0  12 1792.42   51.79
   8   0  12 1750.32   47.40
 -10   0  12   -4.50    2.60
  10   0  12   -0.80    2.60
 -10   0 -12    2.10    3.10
  10   0 -12    2.90    2.80
  12   0 -12 1912.51   55.39
  12   0  12 2290.47   59.49
 -12   0 -12 1867.51   54.09
 -12   0  12 2242.98   63.99
 -14   0 -12   -1.20    3.50
 -14   0  12   -1.10    3.20
  14   0  12   -1.50    3.40
  14   0 -12    6.00    4.00
 -16   0  12 1664.83   53.49
  16   0 -12 1570.14   50.29
 -16   0 -12 1511.65   47.70
  16   0  12 1717.83   49.20
 -18   0 -12   -2.20    4.70
  18   0 -12    2.30    4.40
  18   0  12    2.90    4.90
 -18   0  12    6.60    5.20
  20   0 -12 1137.19   43.00
 -20   0  12 1232.48   45.60
  20   0  12 1279.77   42.00
 -20   0 -12 1068.89   38.80
 -22   0  12   -7.30    8.00
  22   0 -12    3.90    6.30
  22   0  12    4.80    7.40
   0  -2  12    1.90    2.30
   0  -2 -12    0.40    2.60
   0   2 -12    3.20    2.70
   0  -2 -12    1.70    1.90
   0   2  12    1.70    2.40
  -2   2  12 3028.90   75.99
   2   2 -12 2964.50   73.79
  -2  -2 -12 2956.60   69.59
   2  -2  12 2969.70   74.29
  -2  -2 -12 2966.80   69.99
   2   2  12 3100.99   76.49
  -2   2 -12 2958.90   73.49
  -2  -2  12 2957.80   75.29
   2  -2 -12 3028.00   71.39
  -2  -2  12 2920.91   75.09
  -4   2  12   11.00    3.90
  -4  -2 -12   16.30    3.60
   4   2 -12   10.40    3.50
  -4  -2 -12   14.60    3.20
   4  -2  12   10.80    3.70
  -4  -2  12   12.30    4.00
   4  -2 -12    6.50    3.10
  -4   2 -12    9.20    3.20
   4   2  12   11.60    4.20
  -4  -2  12    5.30    3.20
  -6  -2 -12 2784.62   67.49
   6  -2  12 3047.00   75.69
  -6   2  12 3084.59   78.39
  -6  -2 -12 2976.50   68.09
   6   2 -12 2908.61   74.09
   6  -2 -12 2982.90   72.59
  -6  -2  12 3109.79   78.89
  -6  -2  12 3063.89   78.29
  -8  -2 -12   14.30    3.60
   8   2 -12   16.40    4.10
  -8   2  12   20.70    5.10
   8  -2  12   19.90    4.70
  -8  -2 -12    9.80    3.80
  -8  -2 -12   11.60    3.60
  -8  -2  12   16.10    4.80
  -8  -2  12   21.40    5.00
   8  -2 -12   18.80    4.90
 -10   2  12 2524.95   68.59
 -10  -2 -12 2673.23   72.09
  10   2 -12 2719.93   71.49
  10  -2  12 2553.34   66.89
  10  -2 -12 2572.64   69.49
 -10   2 -12 2703.83   68.69
 -10  -2  12 2617.84   70.59
 -10  -2  12 2564.24   67.59
  12   2 -12    4.70    4.00
  12  -2  12    7.90    3.90
 -12  -2 -12   10.20    4.50
 -12   2  12    7.60    4.00
 -12  -2  12   16.90    4.80
  12   2  12   19.00    4.00
 -12   2 -12   14.00    4.40
  12  -2 -12    9.70    4.20
 -14  -2 -12 1675.73   52.79
  14  -2  12 1676.73   49.70
 -14   2  12 1681.43   51.19
  14   2 -12 1757.32   53.59
  14   2  12 1678.63   45.20
 -14  -2  12 1604.74   52.59
  14  -2 -12 1765.02   53.29
 -14   2 -12 1744.33   53.89
  16  -2  12   42.60    7.70
 -16  -2 -12   36.90    8.20
  16   2 -12   42.20    8.60
 -16   2  12   50.49    8.80
  16   2  12   43.70   10.50
 -16   2 -12   34.80    7.10
  16  -2 -12   62.19    8.80
 -16  -2  12   46.80    8.90
 -18  -2 -12 1112.69   40.90
  18   2 -12 1089.79   41.20
  18  -2  12 1156.68   40.40
 -18   2  12 1161.68   41.70
  18   2  12 1152.58   36.60
 -18  -2  12 1147.69   43.40
  18  -2 -12 1144.69   41.60
 -18   2 -12 1098.39   36.00
 -20   2  12   78.49   11.50
  20   2 -12   59.99    9.70
  20  -2  12   57.39   10.30
 -20  -2 -12   68.49   13.20
  20  -2 -12   70.09   10.70
 -20   2 -12   68.39   10.40
  20   2  12   44.70   11.60
 -20  -2  12   79.89   11.90
  22   2 -12  883.21   38.10
  22  -2  12  913.21   36.70
 -22   2  12  938.31   37.50
 -22  -2 -12  904.51   36.50
 -22   2 -12  885.61   34.30
  22   2  12  890.01   32.60
  22  -2 -12  937.91   39.00
   0   4  12 2137.59   54.39
   0   4  12 2335.87   62.29
   0  -4  12 2384.16   60.39
   0  -4 -12 2249.27   53.89
   2   4 -12  145.69   10.70
  -2  -4 -12  147.99    7.50
   2  -4  12  147.59   10.00
   2  -4  12  168.98   11.40
  -2   4  12  160.58   13.20
  -2  -4  12  145.39   10.70
   2  -4 -12  131.39    8.10
   2   4  12  157.58   11.70
  -2  -4  12  153.98   11.00
   4  -4  12 3024.60   74.29
   4  -4  12 2973.90   75.89
  -4   4  12 3045.70   77.39
  -4  -4 -12 2676.13   61.89
   4   4 -12 2682.63   70.39
  -4  -4 -12 2760.42   61.79
  -4  -4  12 3081.79   77.79
  -4  -4  12 3052.49   77.69
   4  -4 -12 2707.23   66.29
  -4   4 -12 2792.22   70.89
  -6  -4 -12   78.89    8.60
   6  -4  12   74.29    7.10
  -6  -4 -12   77.49    5.10
  -6  -4 -12   72.89    4.90
   6  -4  12   88.89    7.80
  -6   4  12   95.39    9.10
   6  -4  12   81.09    8.40
   6   4 -12   89.29    8.90
  -6  -4  12   63.89    8.20
  -6  -4  12   98.19    9.00
   6  -4 -12   78.29    7.40
   8  -4  12 2722.63   71.99
  -8  -4 -12 2608.14   70.89
   8   4 -12 2551.14   68.19
  -8  -4 -12 2523.75   57.49
  -8   4  12 2753.72   71.69
   8  -4  12 2735.83   67.49
   8  -4 -12 2520.15   65.49
  -8  -4  12 2749.02   72.29
  -8  -4  12 2728.33   73.59
  10  -4  12   74.19    8.80
 -10   4  12   98.29    9.70
 -10  -4 -12   87.39    5.60
  10   4 -12   86.19    9.00
 -10  -4 -12   87.39    9.60
 -10  -4 -12   90.69    5.80
  10  -4 -12   95.49    9.00
 -10  -4  12  114.29   10.40
 -10  -4  12   84.19    9.50
 -10   4 -12  100.99    8.40
  12  -4  12 1660.83   49.90
 -12  -4 -12 1500.95   37.70
  12   4 -12 1599.14   48.80
 -12   4  12 1612.84   48.90
 -12  -4 -12 1535.25   49.70
 -12  -4  12 1597.14   48.80
  12  -4 -12 1570.94   47.50
 -12  -4  12 1600.94   52.09
 -12   4 -12 1482.65   42.60
  14  -4  12   79.69   10.00
 -14   4  12   85.99    9.60
  14   4 -12   86.19   10.10
 -14  -4 -12   78.89   10.50
 -14   4 -12   78.89    8.10
 -14  -4  12   86.49   10.40
  14  -4 -12   65.89    9.30
 -14  -4  12   85.99    9.30
  16  -4  12 1517.95   49.20
  16   4 -12 1263.97   60.99
 -16   4  12 1508.95   47.60
 -16  -4 -12 1281.07   45.70
 -16  -4  12 1450.75   70.09
 -16   4 -12 1317.27   37.50
 -16  -4  12 1510.15   46.90
  16  -4 -12 1296.07   60.99
 -18   4  12    5.60    5.50
  18  -4  12    6.60    5.60
  18   4 -12    2.20    5.10
 -18   4 -12    2.10    4.60
 -18  -4  12   -4.20    5.80
  18  -4 -12    6.40    5.10
  20  -4  12  878.31   36.50
 -20  -4 -12  826.42   35.90
  20   4 -12  807.22   34.90
  20  -4 -12  841.42   36.10
 -20  -4  12  914.91   39.60
 -22   4  12   25.20    8.10
 -22  -4 -12   22.30    9.00
   0  -6  12   -0.70    2.40
   0   6 -12    1.00    3.00
   0   6  12   -1.00    2.50
   0  -6 -12    0.10    1.80
   0  -6  12   -0.70    2.80
   2  -6  12 2884.31   74.29
  -2   6  12 2720.83   67.39
  -2   6  12 2904.51   75.39
   2  -6  12 2939.11   71.99
  -2  -6 -12 2947.51   68.79
   2   6 -12 2956.10   77.19
  -2  -6  12 2928.31   77.69
  -2   6 -12 2920.11   77.09
  -2  -6  12 2919.81   75.59
   2  -6 -12 2999.30   69.29
  -4  -6 -12    9.00    3.90
  -4  -6 -12   11.00    2.00
  -4  -6 -12   14.60    2.10
   4  -6  12   23.70    6.00
   4   6 -12    8.10    3.80
  -4   6  12   15.10    4.30
   4  -6  12   16.60    4.00
   4  -6 -12    9.90    2.80
  -4  -6  12    6.30    3.60
  -4  -6  12    9.00    4.00
  -6  -6 -12 2142.19   62.19
   6  -6  12 1800.82   53.69
   6  -6  12 1823.82   51.29
   6  -6  12 1852.91   48.10
  -6   6  12 1837.62   52.69
   6   6 -12 2084.39   59.19
  -6  -6  12 1821.82   54.19
   6  -6 -12 2062.89   54.59
  -6  -6  12 1827.22   53.89
  -8   6  12   80.79    8.80
   8   6 -12   54.79    7.60
   8  -6  12   70.69    6.80
   8  -6  12   73.69    8.70
   8  -6  12   84.59    8.20
  -8  -6 -12   68.29    9.40
   8  -6 -12   70.99    7.30
  -8  -6  12   64.89    8.60
  -8  -6  12   74.89    9.00
  10  -6  12 1918.11   56.69
  10   6 -12 1665.63   50.79
 -10  -6 -12 1641.64   53.09
 -10   6  12 1876.61   53.59
 -10  -6  12 1847.02   57.39
  10  -6 -12 1645.04   48.10
 -10  -6  12 1862.21   55.69
  12  -6  12   12.00    5.50
 -12   6  12   16.90    4.70
 -12  -6 -12   12.40    5.60
  12   6 -12   22.90    6.00
 -12  -6  12   16.30    6.40
 -12  -6  12   14.20    6.10
  12  -6 -12    7.30    4.10
 -12   6 -12   11.40    4.60
 -12   6 -12    7.90    3.30
 -14  -6 -12 1644.14   54.49
  14  -6  12 1716.93   53.99
  14   6 -12 1690.33   52.09
 -14   6  12 1670.03   49.90
  14  -6 -12 1540.95   49.70
 -14  -6  12 1621.54   51.69
 -14   6 -12 1562.94   40.80
 -16  -6 -12    6.60    6.00
  16  -6  12   17.00    6.10
 -16   6  12    6.00    5.10
  16   6 -12    3.30    4.90
  16  -6 -12   17.10    6.50
 -16   6 -12    8.50    3.60
 -16  -6  12    2.30    5.00
 -16  -6  12   -2.60    4.90
  18   6 -12  866.81   36.00
 -18   6  12  862.21   33.30
 -18  -6 -12  928.01   39.10
  18  -6  12  874.81   37.20
 -18  -6  12  967.20   40.60
 -18  -6  12 1018.30   45.10
  18  -6 -12  894.31   36.60
 -20  -6  12   15.10    8.20
 -20  -6  12   33.80    8.60
  20  -6 -12   17.60    7.70
   0  -8 -12 2166.68   62.49
   0   8 -12 2127.99   61.19
   0  -8 -12 2093.19   48.90
   0  -8  12 2328.27   65.09
   2  -8  12   35.10    6.60
   2   8 -12   38.90    7.20
  -2  -8 -12   41.60    7.20
   2  -8  12   44.60    6.70
   2  -8 -12   37.50    4.60
  -2  -8  12   47.80    7.50
  -2  -8  12   39.30    6.70
  -2   8 -12   37.60    7.50
   4  -8  12 1505.35   45.70
   4   8 -12 1377.86   44.20
   4  -8  12 1438.66   41.00
  -4   8  12 1501.65   46.20
  -4  -8 -12 1347.07   45.90
  -4  -8  12 1500.95   46.20
  -4  -8  12 1412.76   46.80
   4  -8 -12 1306.57   37.00
   6   8 -12   64.59    8.40
   6  -8  12   78.79    9.30
   6  -8  12   62.59    6.60
  -6   8  12   72.49    8.70
  -6  -8 -12   59.79    9.00
   6  -8  12   67.09    8.00
  -6  -8  12   49.80    8.50
   6  -8 -12   55.69    6.70
  -6  -8  12   56.79    8.50
   8  -8  12 2039.70   61.19
  -8  -8 -12 2035.20   62.39
  -8   8  12 2050.19   57.89
   8  -8  12 2128.19   57.49
   8   8 -12 2084.69   59.49
   8  -8  12 1996.40   50.29
  -8  -8  12 1974.60   60.59
  -8   8 -12 1864.91   49.10
   8  -8 -12 2082.89   55.29
  -8  -8  12 2106.39   61.29
  10   8 -12   17.20    5.60
  10  -8  12   36.30    7.90
  10  -8  12   23.40    5.00
 -10   8  12   17.10    5.50
 -10  -8 -12   30.40    7.90
 -10   8 -12   17.40    3.80
 -10  -8  12   26.40    6.60
 -10   8 -12   14.80    6.50
 -10  -8  12   20.30    7.20
  10  -8 -12   20.00    5.30
  12  -8  12 1226.88   49.80
  12  -8  12 1210.38   37.40
  12   8 -12 1169.78   41.30
 -12   8  12 1218.78   39.70
 -12  -8  12 1237.08   43.30
  12  -8 -12 1221.28   40.10
 -12   8 -12 1142.29   31.60
  14  -8  12    7.70    6.00
  14   8 -12    5.40    5.70
 -14  -8 -12    3.00    5.10
 -14   8  12    3.70    5.10
  14  -8 -12   16.30    9.10
 -14  -8  12   11.40    6.60
 -14  -8  12    8.90    5.40
 -16  -8 -12 1229.18   47.40
  16   8 -12 1181.78   43.10
  16  -8  12 1139.99   43.80
 -16   8  12 1124.19   37.90
  16  -8 -12 1174.18   42.50
 -16  -8  12 1144.39   45.00
 -16  -8  12 1108.39   41.00
  18  -8  12   19.60    8.20
 -18  -8 -12   64.29   12.50
 -18  -8  12   31.80    9.00
 -18  -8  12   38.90   10.20
 -20  -8  12  617.74   32.80
 -20  -8  12  598.34   29.00
   0 -10  12   -1.50    4.60
   0 -10 -12   -3.80    4.40
   0 -10 -12    0.10    1.80
   0 -10  12    4.70    4.10
   0  10 -12    2.10    4.60
  -2  10  12 1502.45   42.00
   2 -10  12 1669.33   49.90
   2  10 -12 1781.82   54.89
  -2 -10 -12 1722.43   55.49
   2 -10  12 1674.43   51.69
  -2 -10  12 1743.23   53.49
  -2  10 -12 1729.53   54.79
  -2 -10  12 1682.63   49.40
   2 -10 -12 1751.92   54.39
   2 -10 -12 1713.73   42.90
   4 -10  12    4.80    3.60
   4  10 -12   15.50    5.50
  -4 -10 -12    1.50    4.00
   4 -10  12    5.00    4.50
   4 -10 -12   -4.80    3.80
  -4 -10  12    6.60    4.50
  -4 -10  12    2.00    4.60
   4 -10 -12    3.80    3.20
  -4  10 -12   -0.20    3.60
   6 -10  12 1837.62   47.00
   6 -10  12 1833.82   55.09
   6 -10  12 1822.22   58.09
  -6 -10 -12 1799.52   58.09
   6  10 -12 1727.83   54.59
   6 -10 -12 1827.32   48.80
  -6 -10  12 1948.11   59.09
  -6 -10  12 1862.51   56.79
  -8 -10 -12    1.00    5.10
   8  10 -12    9.20    5.20
   8 -10  12    3.00    4.50
  -8 -10  12    5.90    5.10
   8 -10 -12    0.30    3.60
  -8 -10  12    0.80    4.50
  10 -10  12 1486.65   46.10
 -10 -10 -12 1434.06   50.99
  10 -10  12 1479.55   51.49
  10  10 -12 1400.26   51.19
  10 -10 -12 1328.17   42.90
 -10 -10  12 1553.24   56.19
 -10 -10  12 1518.15   51.19
  12 -10  12   13.40    7.10
 -12 -10 -12   16.80    6.70
  12  10 -12   10.50    6.10
  12 -10  12   11.00    6.10
  12 -10 -12    9.30    5.40
 -12 -10  12   -0.30    5.30
 -12 -10  12    9.20    6.40
  14 -10  12 1077.69   42.40
 -14 -10 -12 1014.60   42.60
  14  10 -12  969.80   38.20
 -14 -10  12  974.70   41.40
  14 -10 -12  981.40   37.10
 -14 -10  12 1001.10   40.00
  16 -10  12   16.00    8.20
 -16 -10 -12   -5.80    6.70
 -16 -10  12    6.40    6.20
 -16 -10  12    2.30    6.70
  16 -10 -12   12.50    6.10
 -18 -10 -12  676.83   42.50
 -18 -10  12  799.12   35.30
 -18 -10  12  826.72   38.80
   0 -12  12 1495.85   50.29
   0 -12  12 1488.45   45.20
   0 -12 -12 1476.05   50.19
   0  12 -12 1561.64   56.79
   2 -12  12    4.40    4.70
  -2 -12 -12    9.10    5.70
   2  12 -12    0.50    8.90
  -2  12 -12    5.10    5.00
  -2 -12  12    6.30    5.10
   2 -12 -12    4.30    5.10
  -2 -12  12   -3.70    4.10
   4 -12  12 1145.09   42.80
  -4 -12 -12 1157.28   49.50
   4 -12  12 1116.89   34.20
   4  12 -12 1173.18   46.90
  -4 -12  12 1247.28   41.80
  -4  12 -12 1221.88   44.40
   4 -12 -12 1154.58   33.20
  -4 -12  12 1218.18   44.40
   4 -12 -12 1170.38   41.50
  -6 -12 -12   50.89   10.70
   6  12 -12   50.89    9.90
   6 -12  12   51.29    9.10
  -6 -12  12   42.30    9.00
  -6 -12  12   36.40    8.60
   6 -12 -12   56.89    7.70
   6 -12 -12   57.29   10.20
   8 -12  12  962.90   40.00
  -8 -12 -12  986.40   41.30
   8 -12  12 1053.49   37.80
   8  12 -12  957.60   37.90
  -8 -12  12 1076.09   41.60
   8 -12 -12 1041.20   37.20
   8 -12 -12 1033.60   43.50
  -8 -12  12 1014.70   39.60
  10 -12  12   48.30    9.20
  10  12 -12   17.70    6.70
 -10 -12 -12   33.40    8.90
  10 -12  12   23.80    6.90
  10 -12 -12   51.99    9.10
 -10 -12  12   41.60   10.20
 -10 -12  12   36.00    7.90
 -12 -12 -12  614.34   33.20
  12  12 -12  660.53   30.20
  12 -12  12  631.64   32.10
  12 -12  12  712.53   28.60
 -12 -12  12  620.64   35.60
  12 -12 -12  677.53   27.80
  14 -12  12  -10.90    6.80
  14 -12  12  -14.90    7.70
 -14 -12 -12  -14.50    6.80
  14 -12 -12   -1.60    6.70
 -14 -12  12   -2.00    7.20
   0 -14  12    4.40    6.20
   0  14 -12   -2.80    5.90
   0 -14 -12   -5.10    6.40
   2  14 -12  963.60   39.00
   2 -14  12  905.81   37.50
   2 -14  12  890.91   30.50
  -2 -14 -12  883.31   37.80
  -2  14 -12  906.31   38.20
   2 -14 -12  938.21   36.90
  -2 -14  12  993.60   39.80
  -2 -14  12  897.41   34.10
   4  14 -12   20.20    7.90
   4 -14  12   38.10    9.80
  -4 -14 -12   17.00    8.00
  -4  14 -12   18.00    8.00
   4 -14 -12   27.40    9.00
  -4 -14  12   30.40    8.60
   6  14 -12  791.32   34.00
   6 -14  12  808.52   34.40
  -6 -14  12  808.22   36.60
   6 -14 -12  713.63   30.60
   6 -14 -12  748.73   26.60
  -6  14 -12  803.32   36.20
  -6 -14  12  786.52   33.90
   8 -14  12   56.09   10.90
   8 -14 -12   78.69   11.40
  -8 -14  12   61.89   11.10
  -8 -14  12   66.89   12.00
  10 -14  12 1028.70   38.70
  10 -14  12 1029.20   63.39
  10 -14 -12  961.10   34.80
  10 -14 -12  950.10   34.70
   0 -16 -12  496.65   27.80
  -2 -16 -12   38.40   10.40
  -2 -16  12   44.70   11.40
   1  -1  13  936.31   31.50
  -1   1  13  952.00   34.80
  -1  -1 -13  954.60   28.60
   1   1 -13  906.21   29.80
   1  -1 -13  896.81   28.70
  -1  -1  13  847.32   34.00
  -1   1 -13  909.81   29.90
  -3   1  13 1498.35   45.00
   3   1 -13 1328.67   39.70
  -3  -1 -13 1296.07   36.70
   3  -1  13 1485.75   43.80
   3  -1 -13 1369.36   38.90
  -3   1 -13 1333.47   38.80
  -3  -1  13 1467.95   44.70
   5   1 -13 1473.55   44.20
   5  -1  13 1653.83   47.60
  -5   1  13 1683.33   49.40
  -5  -1 -13 1543.75   41.30
   5  -1 -13 1574.04   44.60
  -5   1 -13 1523.55   43.10
  -5  -1  13 1646.84   49.00
   5   1  13 1664.83   48.70
  -7  -1 -13  742.93   24.30
  -7   1  13  800.02   30.30
   7   1 -13  722.93   27.40
   7  -1  13  813.92   28.90
  -7   1 -13  748.43   26.20
  -7  -1  13  817.72   30.80
   7  -1 -13  774.82   27.40
  -9   1  13  735.03   29.30
   9   1 -13  656.53   26.60
   9  -1  13  811.02   27.80
  -9  -1 -13  643.84   27.10
  -9  -1 -13  651.93   22.80
  -9  -1  13  759.22   30.30
   9  -1 -13  727.53   27.00
 -11  -1 -13  527.75   24.40
 -11   1  13  644.94   27.10
  11   1 -13  558.74   24.50
  11  -1  13  631.74   24.40
 -11  -1  13  634.54   27.40
  11  -1 -13  545.55   24.10
  11   1  13  610.94   22.50
 -11   1 -13  572.64   24.00
 -13   1  13 1146.29   40.60
 -13  -1 -13 1076.89   37.90
  13  -1  13 1151.58   37.60
  13   1 -13 1046.20   38.00
  13   1  13 1169.28   35.50
 -13  -1  13 1161.28   41.30
  13  -1 -13 1057.99   37.60
 -13   1 -13 1078.89   36.30
 -15  -1 -13  348.47   19.70
 -15   1  13  315.37   19.50
  15  -1  13  350.46   18.20
  15   1 -13  342.37   20.10
  15  -1 -13  330.97   19.40
 -15   1 -13  334.47   18.50
  15   1  13  358.56   17.30
 -15  -1  13  355.86   21.40
  17   1 -13  659.63   29.20
  17  -1  13  774.52   30.10
 -17   1  13  763.02   32.80
 -17  -1 -13  547.25   26.60
  17  -1 -13  610.24   28.60
 -17  -1  13  796.42   34.20
 -17   1 -13  627.14   26.50
  17   1  13  747.43   28.00
 -19   1  13  488.45   26.40
 -19  -1 -13  521.65   25.70
  19   1 -13  516.55   26.70
  19  -1  13  512.85   24.60
  19  -1 -13  521.95   27.20
 -19  -1  13  475.35   26.90
  19   1  13  537.45   23.40
 -19   1 -13  526.95   24.00
  21   1 -13  381.66   23.50
 -21   1  13  389.46   24.20
  21  -1  13  332.57   21.00
  21   1  13  404.46   20.20
  21  -1 -13  362.26   23.10
 -21   1 -13  370.46   21.90
  -1   3  13  668.63   26.50
  -1  -3 -13  567.44   19.40
   1  -3  13  695.33   26.30
   1   3 -13  586.44   23.30
   1  -3  13  593.64   24.40
   1  -3 -13  573.24   20.20
  -1   3 -13  601.64   26.80
  -1  -3  13  695.83   26.30
   1   3  13  739.43   27.50
  -3  -3 -13  804.92   24.80
   3  -3  13  897.01   30.00
   3   3 -13  838.12   29.50
  -3   3  13  890.71   31.60
  -3  -3 -13  875.41   24.80
  -3   3 -13  812.72   31.70
   3  -3 -13  813.52   26.50
  -3  -3  13  819.52   30.60
   3   3  13  879.71   31.80
  -3  -3  13  901.31   31.30
  -5  -3 -13 1052.09   29.10
   5   3 -13 1021.50   34.70
   5  -3  13 1138.69   35.30
  -5  -3 -13 1083.79   29.00
  -5   3  13 1181.18   37.90
   5  -3 -13 1067.49   32.70
  -5   3 -13  994.50   33.80
  -5  -3  13 1121.29   37.60
  -5  -3  13 1061.59   36.70
  -7   3  13  962.30   33.50
  -7  -3 -13  958.20   35.40
   7   3 -13  972.50   33.60
  -7  -3 -13  948.91   26.90
   7  -3  13  947.61   30.90
   7  -3  13  912.21   32.10
   7  -3 -13  962.30   31.70
  -7  -3  13  856.81   32.20
  -7  -3  13  949.40   34.10
   9  -3  13  790.72   29.80
  -9  -3 -13  797.12   23.50
  -9   3  13  858.51   31.60
  -9  -3 -13  811.02   31.90
  -9  -3 -13  755.62   23.00
   9   3 -13  794.12   30.30
   9  -3 -13  825.32   29.40
  -9  -3  13  843.32   32.50
  -9  -3  13  846.72   31.20
  11   3 -13  623.84   26.80
 -11   3  13  749.42   29.90
 -11  -3 -13  629.84   20.40
 -11  -3 -13  628.04   27.80
  11  -3  13  714.33   28.50
 -11  -3  13  773.02   29.70
  11  -3 -13  614.54   25.70
 -11   3 -13  633.14   24.40
 -11  -3  13  822.92   32.30
  13  -3  13  655.43   27.30
 -13   3  13  638.44   27.60
 -13  -3 -13  586.54   27.00
  13   3 -13  606.74   26.90
  13  -3 -13  542.05   25.30
 -13  -3  13  664.83   29.50
  15   3 -13  371.86   24.30
 -15   3  13  350.86   20.30
  15  -3  13  371.76   20.00
 -15  -3 -13  385.36   22.10
  15  -3 -13  393.06   21.50
 -15  -3  13  321.67   20.70
  15   3  13  338.27   15.10
 -15   3 -13  407.16   18.80
 -17   3  13  494.85   24.50
 -17  -3 -13  387.16   22.80
  17   3 -13  372.56   22.20
  17  -3  13  453.15   23.60
 -17  -3  13  482.55   26.40
  17  -3 -13  448.86   23.60
 -17   3 -13  397.86   18.80
  17   3  13  453.85   25.00
  19  -3  13  586.74   28.00
  19   3 -13  514.15   26.20
 -19  -3 -13  468.35   25.60
 -19   3  13  558.94   27.60
  19   3  13  611.44   23.10
 -19  -3  13  603.94   30.60
  19  -3 -13  518.15   26.70
 -19   3 -13  471.35   21.30
 -21  -3 -13  397.76   24.30
 -21   3  13  453.15   24.40
  21   3 -13  346.77   22.60
  21  -3  13  420.46   23.90
  21  -3 -13  303.77   21.50
 -21  -3  13  434.56   30.50
   1   5 -13 1337.37   42.30
   1  -5  13 1329.87   42.20
   1  -5  13 1371.26   41.20
  -1   5  13 1432.76   43.70
  -1   5  13 1302.37   38.70
  -1  -5 -13 1367.06   34.60
  -1   5 -13 1371.76   42.60
  -1  -5  13 1383.66   43.10
   1   5  13 1369.06   43.60
  -1  -5  13 1382.16   41.80
   1  -5 -13 1277.27   35.60
   3   5 -13  862.61   31.80
  -3  -5 -13  902.71   23.90
  -3   5  13 1019.10   34.70
   3  -5  13  984.40   33.40
   3  -5  13  967.50   31.70
  -3  -5  13  922.31   33.30
  -3   5 -13  876.21   31.90
   3  -5 -13  890.01   27.30
  -3  -5  13  946.81   34.00
  -5   5  13 1089.49   37.20
   5  -5  13 1143.89   34.30
  -5  -5 -13 1091.89   38.80
  -5  -5 -13 1009.70   25.80
   5   5 -13  975.00   35.20
   5  -5  13 1066.89   35.90
  -5   5 -13 1078.59   36.10
  -5  -5  13 1093.39   38.10
   5  -5 -13 1042.50   31.80
  -5  -5  13 1170.48   38.40
   7  -5  13  785.32   30.20
   7  -5  13  786.32   28.40
  -7   5  13  791.82   29.90
   7  -5  13  794.42   26.60
   7   5 -13  717.53   28.80
  -7  -5 -13  712.53   18.50
  -7  -5 -13  764.42   31.20
  -7  -5 -13  743.03   18.70
   7  -5 -13  717.93   26.10
  -7  -5  13  772.92   30.60
  -7  -5  13  800.52   30.80
  -9   5  13  740.33   29.20
   9   5 -13  607.44   25.90
   9  -5  13  734.23   29.60
  -9  -5 -13  612.74   15.50
  -9  -5 -13  620.54   28.20
  -9  -5 -13  576.14   15.20
  -9  -5  13  775.92   30.50
  -9  -5  13  752.82   31.10
   9  -5 -13  580.94   23.80
  11   5 -13  905.91   34.50
 -11  -5 -13  894.61   21.80
 -11   5  13 1007.70   35.40
  11  -5  13  985.10   36.30
 -11  -5 -13  915.61   21.80
 -11  -5 -13  925.41   36.50
 -11  -5  13 1007.80   36.30
 -11   5 -13  903.71   29.50
  11  -5 -13  928.51   33.00
 -11  -5  13  941.01   37.30
  13  -5  13  862.11   33.60
 -13   5  13  804.22   31.30
  13   5 -13  691.93   29.70
 -13  -5 -13  705.33   31.50
 -13  -5 -13  692.43   18.30
  13  -5 -13  733.93   29.20
 -13  -5  13  855.71   35.30
 -13   5 -13  683.43   24.10
 -13  -5  13  793.82   32.00
 -15   5  13  548.45   25.50
  15  -5  13  549.95   26.60
 -15  -5 -13  459.05   18.50
  15   5 -13  514.95   25.20
 -15   5 -13  466.35   19.00
 -15  -5  13  597.24   30.00
 -15  -5  13  562.74   25.80
  15  -5 -13  449.46   34.40
 -17  -5 -13  329.17   21.80
  17   5 -13  272.97   19.50
  17  -5  13  368.66   21.90
 -17   5  13  370.56   20.40
 -17  -5  13  387.96   21.00
 -17  -5  13  343.17   23.00
 -17   5 -13  312.77   14.70
  17  -5 -13  306.17   19.70
  19   5 -13  536.65   27.70
  19  -5  13  547.45   28.10
  19  -5 -13  537.15   28.10
 -19  -5  13  580.24   31.00
 -21  -5 -13  354.66   24.00
 -21   5  13  398.26   23.00
   1  -7  13 1039.80   36.10
   1   7 -13  935.81   34.60
  -1  -7 -13  903.51   24.80
   1  -7  13 1042.80   37.50
  -1  -7 -13  941.81   24.50
  -1  -7  13  984.30   34.20
  -1   7 -13  912.41   34.20
  -1  -7  13  970.20   35.50
   1  -7 -13  955.70   26.50
  -3  -7 -13  503.45   25.00
   3  -7  13  573.04   22.80
  -3  -7 -13  497.15   13.00
   3  -7  13  693.23   26.70
   3   7 -13  520.45   24.10
  -3   7  13  583.04   25.40
  -3   7 -13  524.25   24.10
   3  -7 -13  499.95   18.20
  -3  -7  13  572.54   25.70
  -3  -7  13  581.14   24.90
   5  -7  13  595.64   21.90
  -5   7  13  567.04   24.70
   5   7 -13  518.45   23.70
   5  -7  13  582.74   24.30
  -5  -7 -13  497.95   25.10
   5  -7 -13  442.76   18.40
  -5  -7  13  566.04   25.10
  -5  -7  13  527.45   24.90
  -7   7  13  403.36   20.10
   7  -7  13  414.86   21.50
   7  -7  13  399.96   19.30
  -7  -7 -13  396.56   22.70
   7  -7  13  374.66   16.30
   7   7 -13  396.76   20.80
  -7  -7  13  392.26   21.10
   7  -7 -13  377.76   17.50
  -7  -7  13  403.76   21.30
   9  -7  13  642.44   25.40
  -9   7  13  669.03   27.30
   9   7 -13  584.84   26.50
   9  -7  13  630.64   28.50
  -9  -7 -13  566.24   27.80
   9  -7 -13  547.65   23.00
  -9  -7  13  697.43   29.30
  -9  -7  13  629.74   28.90
 -11  -7 -13  638.14   29.80
  11   7 -13  559.94   26.20
  11  -7  13  656.63   29.10
 -11   7  13  632.54   26.70
 -11   7 -13  571.94   20.10
  11  -7 -13  590.94   25.10
 -11  -7  13  645.14   29.80
 -11  -7  13  627.94   28.20
  13   7 -13  474.55   28.10
 -13  -7 -13  520.55   27.30
 -13   7  13  513.25   23.90
  13  -7  13  569.64   32.10
 -13  -7  13  512.15   27.50
 -13  -7  13  541.65   26.00
  13  -7 -13  473.65   23.20
  15  -7  13  390.86   23.20
 -15  -7 -13  415.16   25.30
 -15   7  13  484.65   23.00
  15   7 -13  438.86   23.80
 -15  -7  13  453.55   26.40
  15  -7 -13  432.86   22.90
 -17  -7 -13  324.77   22.60
  17   7 -13  287.37   20.00
  17  -7  13  335.47   21.70
  17  -7 -13  296.47   19.60
 -17  -7  13  300.17   20.20
 -17  -7  13  295.47   21.60
  19  -7  13  220.28   19.70
 -19  -7  13  193.18   19.20
 -19  -7  13  200.18   16.60
   1  -9  13  832.32   29.20
  -1  -9 -13  710.53   17.40
   1   9 -13  760.82   31.40
  -1  -9 -13  704.83   17.80
  -1  -9 -13  741.93   32.00
   1  -9  13  782.82   31.80
  -1  -9  13  788.62   32.40
   1  -9 -13  730.63   21.10
   1  -9 -13  723.93   31.30
  -1   9 -13  714.93   30.50
  -1  -9  13  810.12   30.00
  -3  -9 -13  682.53   31.20
   3  -9  13  719.53   29.70
   3   9 -13  713.53   30.60
   3  -9  13  699.43   27.30
   3  -9 -13  718.83   22.70
  -3   9 -13  750.92   31.10
  -3  -9  13  755.72   29.50
  -3  -9  13  752.12   31.40
  -5  -9 -13  559.94   28.10
   5   9 -13  571.14   26.50
   5  -9  13  570.14   25.70
   5  -9  13  593.64   21.90
   5  -9 -13  567.64   21.00
  -5   9 -13  612.34   27.80
  -5  -9  13  605.14   27.80
  -5  -9  13  626.24   27.20
  -7  -9 -13  599.14   29.60
   7   9 -13  662.43   29.10
   7  -9  13  649.14   29.50
   7  -9  13  644.94   26.90
  -7   9  13  618.74   26.90
   7  -9  13  640.04   21.60
  -7  -9  13  597.24   28.50
   7  -9 -13  626.34   23.80
  -7  -9  13  605.54   28.20
   9  -9  13 1028.00   35.90
   9  -9  13 1047.90   56.19
  -9   9  13 1028.30   36.60
  -9  -9 -13  987.20   58.59
   9   9 -13 1069.79   39.70
  -9  -9  13 1124.49   40.90
  -9  -9  13  970.80   42.80
   9  -9 -13 1089.09   35.60
  11   9 -13  477.65   24.70
 -11  -9 -13  442.96   25.70
 -11   9  13  547.35   24.50
  11  -9  13  535.95   27.70
  11  -9  13  564.24   23.80
 -11  -9  13  489.25   26.30
 -11  -9  13  589.64   29.10
  11  -9 -13  451.95   21.80
  13   9 -13  329.27   20.90
  13  -9  13  411.26   24.50
 -13   9  13  428.36   21.60
 -13  -9 -13  338.27   23.10
 -13  -9  13  423.46   23.60
  13  -9 -13  329.97   22.70
 -13  -9  13  403.66   24.60
  15   9 -13  354.16   21.90
  15  -9  13  365.16   23.50
 -15   9  13  387.06   20.70
 -15  -9 -13  346.27   24.10
  15  -9 -13  372.86   21.20
 -15  -9  13  387.86   22.80
 -15  -9  13  364.96   24.00
 -17   9  13  582.74   25.60
 -17  -9 -13  559.14   42.80
  17  -9  13  636.04   31.50
 -17  -9  13  548.35   31.30
 -17  -9  13  554.94   28.70
   1 -11  13  484.95   24.80
  -1 -11 -13  458.45   24.70
   1 -11  13  474.95   21.00
   1  11 -13  445.56   34.20
   1 -11 -13  455.35   24.50
  -1 -11  13  435.46   21.30
   1 -11 -13  396.46   17.40
   3 -11  13  491.35   20.50
  -3 -11 -13  458.25   25.40
   3 -11  13  455.15   23.80
   3 -11 -13  443.16   23.90
  -3  11 -13  501.65   25.90
  -3 -11  13  481.05   25.50
   3 -11 -13  456.45   16.90
  -3 -11  13  475.85   23.10
  -5 -11 -13  505.85   27.40
   5 -11  13  583.24   21.40
   5 -11  13  570.34   26.80
   5  11 -13  573.14   27.50
  -5 -11  13  627.24   29.70
   5 -11 -13  495.45   25.30
  -5 -11  13  602.94   27.40
  -5  11 -13  546.05   27.70
   7 -11  13  578.64   26.10
  -7 -11 -13  532.05   28.30
   7  11 -13  510.95   26.10
  -7 -11  13  494.15   37.30
   7 -11 -13  545.75   25.80
   7 -11 -13  524.75   27.40
  -7 -11  13  573.04   28.50
   9 -11  13  416.76   24.40
  -9 -11 -13  306.37   22.50
   9  11 -13  297.37   20.00
   9 -11  13  352.76   20.30
   9 -11 -13  323.67   17.30
  -9 -11  13  339.07   22.30
   9 -11 -13  335.17   19.80
  -9 -11  13  401.76   23.90
  11  11 -13  164.48   15.40
  11 -11  13  188.58   14.80
 -11 -11 -13  182.58   17.30
  11 -11  13  201.38   17.20
  11 -11 -13  159.48   13.30
 -11 -11  13  149.19   15.80
 -11 -11  13  144.79   15.50
  13 -11  13  533.75   29.30
 -13 -11 -13  421.46   27.20
 -13 -11  13  448.86   26.90
  13 -11 -13  449.95   23.10
  15 -11  13  275.27   31.10
  15 -11 -13  254.57   18.10
 -15 -11  13  273.87   21.60
   1  13 -13  609.24   30.30
  -1 -13 -13  657.03   31.10
   1 -13  13  647.84   31.00
  -1 -13  13  640.54   27.30
   1 -13 -13  661.03   30.50
  -1 -13  13  650.23   31.50
  -1  13 -13  601.54   30.10
   3 -13  13  296.17   20.20
   3  13 -13  220.58   18.10
  -3 -13 -13  277.47   20.30
  -3  13 -13  240.18   19.40
  -3 -13  13  289.97   18.80
  -3 -13  13  326.87   21.80
   5 -13  13  334.67   20.70
   5  13 -13  227.78   17.90
  -5 -13 -13  186.98   17.60
   5 -13  13  294.97   15.90
   5 -13 -13  212.58   17.50
   5 -13 -13  239.48   19.30
  -5 -13  13  300.07   20.00
  -5  13 -13  253.87   19.60
  -5 -13  13  299.37   21.00
   7 -13  13  615.84   28.80
  -7 -13 -13  599.94   31.80
   7  13 -13  577.64   29.10
  -7 -13  13  601.94   29.80
   7 -13 -13  585.94   23.30
   7 -13 -13  549.15   27.30
  -7  13 -13  572.64   30.30
  -7 -13  13  628.44   31.90
  -9 -13 -13  323.07   23.60
   9 -13  13  359.46   21.80
  -9 -13  13  327.87   22.10
   9 -13 -13  354.36   18.70
  -9 -13  13  349.07   23.30
  11 -13  13  277.17   19.50
  11 -13  13  335.27   33.00
 -11 -13 -13  256.07   22.20
  11 -13 -13  233.28   18.00
 -11 -13  13  306.07   22.30
  11 -13 -13  286.97   18.40
   1 -15  13  338.57   28.60
  -1 -15 -13  245.18   19.70
   1 -15 -13  248.88   20.30
  -1 -15  13  212.38   20.00
  -1  15 -13  244.48   20.40
  -3 -15  13  298.87   32.70
   3 -15 -13  206.98   19.00
  -3 -15  13  329.07   23.80
   5  15 -13  456.75   36.10
   5 -15 -13  463.55   25.70
  -5 -15  13  438.06   27.10
   0   0 -14    0.50    2.40
   0   0  14    1.70    2.90
  -2   0  14 1157.78   38.70
   2   0 -14 1277.77   38.20
   2   0  14 1242.28   39.20
  -2   0 -14 1251.77   37.10
  -4   0  14   -0.90    2.60
  -4   0 -14    0.30    2.10
   4   0 -14    3.10    2.60
   4   0  14    0.40    2.70
  -6   0  14 1493.35   46.60
  -6   0 -14 1371.36   39.80
   6   0  14 1480.95   45.20
   6   0 -14 1419.16   42.70
  -8   0  14   -2.00    3.40
  -8   0 -14    2.00    2.70
   8   0 -14    3.50    3.70
 -10   0 -14 1082.19   37.00
  10   0 -14 1006.10   36.00
 -10   0  14 1094.69   38.80
 -12   0 -14    3.00    3.80
  12   0  14    1.60    3.70
  12   0 -14    0.20    3.60
 -12   0  14    0.40    3.70
 -14   0 -14  788.52   31.40
  14   0  14  913.11   31.50
  14   0 -14  791.82   32.40
 -14   0  14  903.21   36.20
 -16   0  14    2.20    8.70
  16   0  14    6.90    4.80
 -16   0 -14   -1.50    5.00
  16   0 -14    2.30    4.70
 -18   0  14  954.10   38.90
  18   0  14  991.30   35.10
  18   0 -14  975.80   38.60
 -18   0 -14  874.51   44.00
  20   0  14  -16.10    6.00
  20   0 -14   -6.80    5.90
 -22   0  14  371.26   24.20
  22   0  14  335.37   28.10
  22   0 -14  251.77   19.60
 -22   0 -14  256.07   26.20
   0   2  14 1199.68   39.50
   0  -2 -14  900.21   28.50
   0   2 -14  921.91   31.20
   0  -2  14 1192.28   38.60
  -2   2  14   15.50    5.10
  -2  -2 -14   26.30    4.30
   2   2 -14   17.40    4.80
   2  -2  14   25.60    5.70
  -2   2 -14   23.40    5.10
   2  -2 -14   24.30    4.70
  -2  -2  14   30.40    6.40
   2   2  14   24.10    5.70
   4  -2  14 1843.92   53.19
  -4  -2 -14 1769.62   45.60
  -4   2  14 1959.20   55.49
   4   2 -14 1697.13   50.19
  -4   2 -14 1822.22   49.99
   4   2  14 1877.51   55.09
  -4  -2  14 1902.41   55.09
   4  -2 -14 1750.62   49.30
  -6  -2 -14   38.20    5.20
   6  -2  14   48.60    6.80
  -6   2  14   47.10    7.10
   6   2 -14   46.00    6.40
  -6   2 -14   51.49    7.00
   6  -2 -14   51.39    6.60
  -6  -2  14   49.99    7.20
  -8   2  14  816.92   31.80
   8  -2  14  842.62   30.10
  -8  -2 -14  733.73   23.60
   8   2 -14  744.83   28.90
  -8  -2 -14  728.63   30.30
   8  -2 -14  737.83   27.60
  -8  -2  14  841.22   32.60
 -10  -2 -14   24.40    4.90
  10  -2  14   20.10    5.50
 -10  -2 -14   25.60    6.10
  10   2 -14   26.10    6.00
 -10   2  14   19.80    5.50
 -10   2 -14   30.10    6.40
 -10  -2  14   15.30    6.30
  10  -2 -14   17.00    5.20
 -12   2  14  856.91   33.30
  12   2 -14  686.03   29.80
  12  -2  14  865.81   31.50
 -12  -2 -14  805.62   25.60
 -12  -2 -14  779.92   32.00
 -12  -2  14  809.52   33.70
 -12   2 -14  767.82   29.40
  12  -2 -14  749.92   30.10
 -14   2  14   56.29    9.00
  14   2 -14   48.80    8.50
 -14  -2 -14   40.30    8.20
  14  -2  14   50.99    8.40
  14  -2 -14   47.20    7.60
 -14  -2  14   39.70    8.60
 -14   2 -14   53.49    8.70
 -16  -2 -14  539.35   26.40
  16   2 -14  459.45   24.60
  16  -2  14  467.05   23.20
 -16   2  14  511.65   25.90
  16   2  14  491.15   23.30
 -16  -2  14  556.14   28.10
  16  -2 -14  506.45   25.30
 -16   2 -14  470.95   22.40
  18  -2  14    4.10    6.00
 -18  -2 -14    4.70    6.50
  18   2 -14    5.40    5.40
 -18   2  14    9.10    6.70
  18  -2 -14   11.90    6.40
 -18   2 -14    7.70    6.40
 -18  -2  14    6.00    6.30
  20  -2  14  527.25   25.80
  20   2 -14  396.26   23.70
 -20  -2 -14  437.16   24.30
 -20   2  14  497.45   27.40
 -20  -2  14  456.55   27.40
 -20   2 -14  358.56   21.60
  20   2  14  458.25   21.70
   0  -4  14   -0.70    3.00
   0  -4 -14    2.50    2.00
   0  -4  14    1.00    2.80
   0   4  14   -2.80    2.20
   0   4 -14   -0.80    2.40
  -2  -4 -14  910.61   26.60
   2   4 -14  958.60   33.30
  -2   4  14 1025.50   35.90
   2  -4  14 1006.00   33.70
   2  -4  14 1033.20   35.00
  -2   4 -14  919.81   32.60
   2  -4 -14  885.61   28.00
  -2  -4  14  960.60   34.90
   2   4  14  984.20   35.60
  -2  -4  14 1019.70   34.90
   4   4 -14   42.60    7.10
  -4  -4 -14   38.10    5.20
  -4   4  14   40.30    7.10
  -4  -4 -14   57.49    5.10
  -4  -4  14   48.90    6.90
  -4  -4  14   43.60    7.50
  -4   4 -14   46.30    7.00
   4  -4 -14   37.10    5.40
   6   4 -14  743.73   29.00
   6  -4  14  889.81   30.10
  -6  -4 -14  699.83   27.30
  -6  -4 -14  760.02   21.60
  -6   4  14  848.92   32.40
  -6  -4  14  834.92   32.30
   6  -4 -14  714.13   26.00
  -6   4 -14  719.53   28.30
  -6  -4  14  894.11   33.30
  -8  -4 -14  156.18   11.30
   8   4 -14  173.68   13.10
  -8  -4 -14  162.18    8.10
  -8  -4 -14  154.78   13.60
  -8   4  14  186.08   13.40
   8  -4  14  199.18   14.00
   8  -4  14  198.18   12.20
  -8  -4  14  168.68   13.80
   8  -4 -14  178.08   12.10
  -8  -4  14  166.08   13.10
 -10   4  14  987.80   35.80
  10   4 -14  993.30   36.70
  10  -4  14  985.40   35.70
 -10  -4 -14 1007.70   39.00
 -10  -4 -14 1026.90   27.30
 -10  -4  14  979.30   37.60
  10  -4 -14 1080.09   35.80
 -10  -4  14  995.50   36.30
  12  -4  14    9.90    5.40
 -12  -4 -14    3.10    4.60
  12   4 -14   17.00    5.50
 -12   4  14    5.10    4.30
 -12  -4 -14    7.00    2.80
  12  -4 -14   -2.00    4.00
 -12  -4  14   -8.40    4.40
 -12  -4  14    5.20    5.10
 -14   4  14  855.51   33.40
  14   4 -14  635.54   29.00
 -14  -4 -14  668.83   30.40
  14  -4  14  828.12   33.10
 -14   4 -14  676.03   25.20
  14  -4 -14  625.54   28.30
 -14  -4  14  786.92   31.90
 -14  -4  14  802.82   35.10
 -16  -4 -14   34.80    5.40
  16   4 -14   30.50    8.00
 -16   4  14   30.30    8.00
 -16  -4 -14   31.60    8.60
 -16   4 -14   28.70    6.30
 -16  -4  14   35.10    8.00
  16  -4 -14   36.50    7.50
  18  -4  14  691.23   31.40
 -18  -4 -14  651.03   31.00
 -18   4  14  696.33   30.90
  18   4 -14  665.43   31.40
 -18   4 -14  646.64   24.70
 -18  -4  14  679.03   33.40
  18  -4 -14  703.73   31.60
 -20   4  14   18.30    8.10
 -20  -4 -14   14.60    8.10
  20  -4  14   36.80    9.50
  20   4 -14   18.70    8.80
  20  -4 -14   18.10   10.00
 -20  -4  14   32.90    9.00
   0   6 -14 1906.41   55.99
   0  -6  14 1956.50   55.59
   0  -6 -14 1829.42   46.00
   0   6  14 2052.59   59.09
   0  -6  14 1922.71   57.29
   2  -6  14   50.99    7.10
  -2   6  14   58.69    8.10
  -2  -6 -14   48.70    5.50
   2   6 -14   58.89    8.20
   2  -6  14   60.59    7.50
  -2  -6 -14   50.39    4.70
  -2  -6  14   52.79    7.80
  -2  -6  14   61.29    8.00
  -2   6 -14   47.30    7.60
   2  -6 -14   55.39    5.70
   4  -6  14  892.11   32.40
  -4   6  14  859.41   32.70
  -4  -6 -14  961.90   37.10
  -4  -6 -14  901.11   23.40
   4   6 -14  903.61   34.20
  -4  -6  14  877.81   33.60
  -4   6 -14  992.90   35.30
  -4  -6  14  849.72   32.30
   4  -6 -14  935.11   29.30
   6  -6  14  103.99    8.90
  -6  -6 -14   97.29    3.40
  -6   6  14  117.59   10.80
   6  -6  14  113.89   10.00
   6   6 -14   91.99   10.00
  -6  -6 -14   98.39   11.70
  -6   6 -14   79.79    9.90
  -6  -6  14   76.89    9.20
  -6  -6  14  102.09   10.80
   6  -6 -14  102.29    8.70
   8  -6  14 1238.08   36.70
  -8   6  14 1228.98   41.40
  -8  -6 -14 1015.30   40.10
   8  -6  14 1225.98   42.50
   8   6 -14 1096.89   38.90
  -8  -6  14 1199.38   42.80
   8  -6 -14 1059.39   34.80
  -8  -6  14 1261.57   43.30
 -10   6  14   19.70    5.90
 -10  -6 -14    7.20    5.10
  10  -6  14   21.00    6.50
  10   6 -14   12.20    5.50
 -10  -6  14   17.10    6.10
  10  -6 -14   17.40    4.70
 -10  -6  14    7.10    5.20
 -12  -6 -14  960.60   42.60
  12  -6  14 1015.60   39.20
 -12   6  14 1061.29   37.70
  12  -6 -14  959.70   34.70
 -12   6 -14  904.81   29.70
 -12  -6  14 1065.79   39.40
 -14   6  14   25.50    6.90
  14  -6  14   16.40    6.50
 -14  -6 -14   12.60    7.20
  14   6 -14   21.40    7.20
  14  -6 -14   11.20    5.40
 -14  -6  14   21.60    6.30
 -14   6 -14   21.90    5.60
 -14  -6  14   23.10    7.60
 -16   6  14  457.05   23.80
  16   6 -14  436.46   24.60
  16  -6  14  512.25   27.00
 -16  -6 -14  448.66   26.40
 -16  -6  14  486.75   25.20
 -16  -6  14  509.35   28.80
  16  -6 -14  453.65   24.30
  18   6 -14   13.70    6.30
 -18   6  14   11.60    7.30
 -18  -6 -14   19.00    7.80
 -18  -6  14    4.20    7.60
 -18  -6  14   12.80    7.80
 -20   6  14  443.96   24.30
   0  -8 -14    0.50    2.30
   0   8 -14    2.90    3.70
   0  -8  14    1.40    4.10
   0  -8  14   -2.70    3.30
   2  -8  14  854.11   32.90
  -2  -8 -14  699.53   18.00
   2  -8  14  830.32   29.80
  -2  -8 -14  807.52   33.40
   2   8 -14  842.12   32.80
  -2  -8  14  854.01   33.70
   2  -8 -14  738.03   23.20
  -2   8 -14  724.53   30.70
  -2  -8  14  821.02   31.70
  -4   8  14   14.20    4.80
   4  -8  14   17.20    6.10
   4   8 -14   14.20    5.90
   4  -8  14   26.20    6.50
  -4  -8 -14   13.60    5.30
  -4  -8  14   16.10    5.40
   4  -8 -14   26.60    4.80
  -4  -8  14   32.60    7.90
  -4   8 -14   19.10    5.80
   6  -8  14  827.32   31.30
   6  -8  14  809.92   27.20
   6   8 -14  729.93   30.70
  -6  -8 -14  691.03   31.90
  -6   8  14  790.62   31.70
   6  -8 -14  661.43   24.60
  -6  -8  14  782.62   32.20
  -6  -8  14  818.02   33.60
  -6   8 -14  689.33   30.30
   8  -8  14  109.99   10.80
  -8   8  14   80.39   10.60
   8   8 -14   87.99   11.00
   8  -8  14   75.79    8.10
   8  -8  14  116.69   12.40
  -8  -8 -14   66.69   11.20
   8  -8 -14   77.99    8.90
  -8  -8  14   74.39    9.60
  -8  -8  14  103.79   11.50
 -10   8  14  470.65   23.10
  10  -8  14  441.96   24.30
  10   8 -14  510.85   29.80
  10  -8  14  424.26   21.00
 -10  -8 -14  570.64   28.90
 -10  -8  14  443.06   36.70
  10  -8 -14  464.05   22.10
 -12   8  14    3.30    5.50
  12   8 -14   -5.30    5.20
  12  -8  14    9.50    6.30
 -12  -8 -14    4.10    5.00
  12  -8 -14    5.80    5.20
 -12   8 -14   -0.90    3.80
 -12  -8  14    9.80    5.80
 -12  -8  14   -0.20    5.40
  14  -8  14  618.74   30.50
  14   8 -14  504.55   26.60
 -14  -8 -14  581.84   30.40
 -14  -8  14  598.44   29.30
  14  -8 -14  523.05   25.30
 -14  -8  14  590.14   31.30
  16  -8  14    3.20    6.20
 -16  -8 -14   -1.50    6.80
 -16  -8  14    2.60    7.70
 -16  -8  14    9.40    7.00
  18   8 -14  276.17   20.20
 -18  -8 -14  287.57   24.60
 -18  -8  14  297.77   34.40
 -18  -8  14  309.37   24.70
   0 -10  14 1258.87   41.20
   0 -10 -14 1127.09   42.80
   0 -10  14 1329.77   45.80
   0  10 -14 1170.38   43.80
   2  10 -14    6.20    6.40
   2 -10  14    4.00    4.70
   2 -10  14    2.80    4.70
  -2 -10 -14    4.50    5.70
  -2 -10  14    3.80    5.40
  -2 -10  14    4.80    4.30
  -2  10 -14   11.10    8.40
   2 -10 -14    7.60    3.30
   2 -10 -14    2.90    5.10
  -4 -10 -14  545.25   40.60
   4 -10  14  565.64   22.60
   4 -10  14  555.84   26.40
  -4 -10  14  565.74   28.40
  -4 -10  14  569.94   26.20
  -4  10 -14  581.14   28.80
   4 -10 -14  547.55   26.90
   6  10 -14   17.00    5.80
  -6 -10 -14    8.40    5.50
   6 -10  14   10.50    4.20
   6 -10  14   16.50    6.90
  -6  10 -14   12.20    7.20
  -6 -10  14   10.40    6.00
  -6 -10  14    7.80    6.00
  -8 -10 -14  920.71   39.40
   8 -10  14  993.90   36.30
   8  10 -14  916.11   36.70
   8 -10 -14  902.51   31.40
  -8 -10  14 1027.70   40.00
  -8 -10  14  913.41   38.00
 -10 -10 -14   11.50    7.50
  10 -10  14    6.20    6.30
  10 -10  14   15.70    7.20
  10  10 -14    8.80    6.30
 -10 -10  14   14.10    7.30
 -10 -10  14    5.00    5.80
  10 -10 -14   13.00    5.80
  12 -10  14  725.03   33.30
  12  10 -14  630.44   29.70
 -12 -10 -14  578.74   31.60
  12 -10  14  662.73   27.90
  12 -10 -14  646.04   27.70
 -12 -10  14  685.13   32.50
 -12 -10  14  725.83   34.30
  14  10 -14    5.70   10.40
 -14 -10 -14   10.50    8.00
 -14  10  14    3.10    7.10
  14 -10  14   -3.90    5.70
  14 -10 -14   10.70    7.50
 -14 -10  14    0.60    6.80
 -16 -10 -14  595.84   33.00
  16 -10  14  625.84   45.70
 -16  10  14  600.04   31.40
 -16 -10  14  600.14   36.40
  16 -10 -14  621.34   29.40
 -16 -10  14  607.74   30.90
   0 -12  14    7.40    6.40
   0 -12 -14    2.80    5.50
   0  12 -14    4.90    6.40
   0 -12  14    8.10    5.70
   2  12 -14  408.26   24.70
  -2 -12 -14  452.45   26.10
   2 -12  14  387.36   22.80
   2 -12 -14  413.36   27.00
  -2 -12  14  403.76   21.60
  -2 -12  14  400.76   23.90
  -2  12 -14  460.25   25.70
   4  12 -14    0.30    5.50
  -4 -12 -14    2.90    5.80
   4 -12  14    9.10    6.00
  -4 -12  14    2.20    5.60
  -4  12 -14    2.50    5.60
   4 -12 -14    3.20    4.50
  -4 -12  14   14.00    7.20
   6  12 -14  548.85   27.80
   6 -12  14  594.04   28.10
   6 -12  14  565.94   21.00
  -6 -12 -14  487.55   28.30
   6 -12 -14  464.35   25.90
  -6 -12  14  587.24   30.00
  -6 -12  14  669.83   30.00
  -6  12 -14  522.45   28.30
   6 -12 -14  482.45   20.00
   8  12 -14   16.70    7.30
   8 -12  14   24.50    7.80
  -8 -12 -14    6.00    6.90
  -8 -12  14    8.90    8.00
   8 -12 -14    8.90    5.80
   8 -12 -14   12.00    7.80
  -8 -12  14   24.90    7.40
 -10 -12 -14  239.08   20.60
  10  12 -14  266.47   21.90
  10 -12  14  283.27   20.00
  10 -12  14  261.57   20.50
  10 -12 -14  257.87   16.80
 -10 -12  14  281.47   21.20
  10 -12 -14  272.07   19.50
  12 -12  14   28.10   14.60
 -12 -12 -14   21.50   14.30
  12 -12 -14   10.70    7.00
 -12 -12  14   23.00    9.80
 -12 -12  14   19.20    9.10
   0 -14 -14  494.45   27.70
   0 -14  14  577.04   30.10
   2 -14  14   14.60    7.50
  -2 -14 -14    7.00   11.20
  -2  14 -14    9.90    8.00
  -2 -14  14   -8.00    8.00
   2 -14 -14    7.10    7.80
  -2 -14  14   -4.60    5.50
   4  14 -14  906.61   39.00
  -4 -14  14  918.51   39.90
  -4  14 -14  950.20   40.40
   4 -14 -14  910.81   37.90
  -4 -14  14  907.81   36.40
  -6 -14 -14   17.10   10.70
  -6  14 -14   12.80    8.30
   6 -14 -14   15.30    9.00
  -6 -14  14   38.80   15.10
  -6 -14  14   16.80    7.70
   8 -14  14  640.14   30.20
  -8 -14  14  562.54   43.40
  -8 -14  14  672.93   33.80
  -8  14 -14  591.54   31.20
  -1   1  15  443.16   21.70
   1  -1  15  455.75   21.50
  -1  -1 -15  527.65   20.50
   1   1 -15  498.35   21.30
  -1   1 -15  526.05   21.60
  -1  -1  15  450.95   21.40
   1  -1 -15  500.25   21.10
   1   1  15  465.95   22.20
  -3  -1 -15  548.45   20.50
   3   1 -15  551.74   23.00
  -3   1  15  506.75   23.60
   3  -1  15  546.25   23.50
   3   1  15  505.15   23.50
   3  -1 -15  522.85   21.70
  -3  -1  15  539.25   24.10
  -3   1 -15  549.15   22.20
  -5  -1 -15  590.04   21.50
   5   1 -15  527.95   23.10
  -5   1  15  515.25   23.80
   5  -1  15  488.55   22.40
   5  -1 -15  566.94   23.20
  -5  -1  15  535.45   24.40
   5   1  15  517.15   23.50
  -5   1 -15  561.54   22.60
  -7   1  15  729.23   29.80
   7  -1  15  703.13   27.90
   7   1 -15  607.04   25.60
  -7  -1 -15  582.74   22.00
  -7  -1  15  684.33   29.20
   7  -1 -15  647.44   25.60
  -7   1 -15  658.43   24.70
   9   1 -15  578.54   25.60
  -9  -1 -15  600.24   27.30
  -9   1  15  536.95   24.90
  -9  -1 -15  610.44   22.20
  -9  -1  15  490.05   24.20
  -9   1 -15  640.74   24.40
   9  -1 -15  586.64   25.30
  11   1 -15  298.57   18.20
 -11   1  15  447.96   23.20
 -11  -1 -15  318.77   19.10
 -11  -1  15  380.96   21.90
  11  -1 -15  297.07   17.80
 -11   1 -15  326.47   18.50
 -13   1  15  316.17   20.10
 -13  -1 -15  275.47   18.40
  13   1 -15  275.87   18.10
  13  -1  15  339.17   17.90
 -13  -1  15  371.06   21.80
 -13   1 -15  315.57   18.30
  13  -1 -15  304.57   18.80
  15  -1  15  380.06   20.00
 -15  -1 -15  391.26   22.50
 -15   1  15  381.06   25.60
  15   1 -15  421.96   22.90
 -15   1 -15  442.76   22.10
  15  -1 -15  397.96   22.40
 -15  -1  15  380.16   22.80
 -17  -1 -15  322.47   20.70
  17   1 -15  331.17   20.90
  17  -1  15  279.97   17.60
 -17   1  15  257.07   19.20
  17   1  15  285.87   17.90
 -17  -1  15  291.67   19.90
 -17   1 -15  303.27   18.90
  17  -1 -15  315.97   20.80
  19   1 -15  122.99   14.00
  19  -1  15  192.38   25.10
 -19  -1  15  176.98   17.40
 -19   1 -15  155.68   20.80
  19   1  15  191.98   15.00
  19  -1 -15  153.78   15.80
  21  -1  15  406.66   23.40
 -21  -1 -15  370.86   23.50
 -21   1  15  392.46   25.90
  21   1 -15  358.26   24.10
  21  -1 -15  397.86   24.40
  21   1  15  388.26   21.90
 -21   1 -15  322.47   21.80
  -1  -3 -15  406.66   16.70
   1  -3  15  429.46   20.70
   1   3 -15  387.46   19.40
  -1   3  15  444.76   22.00
   1   3  15  463.05   22.30
  -1   3 -15  425.16   20.10
   1  -3 -15  427.16   17.50
  -1  -3  15  458.15   21.70
   3   3 -15  704.93   27.80
  -3   3  15  779.72   31.20
  -3  -3 -15  684.03   22.80
   3  -3  15  848.72   30.40
  -3  -3  15  844.62   31.70
   3   3  15  783.22   31.40
  -3   3 -15  719.23   27.60
   3  -3 -15  690.93   28.10
   5  -3  15  404.16   19.50
   5   3 -15  407.06   20.30
  -5  -3 -15  407.26   15.90
  -5   3  15  399.56   20.80
  -5   3 -15  400.46   19.70
  -5  -3  15  403.36   20.90
   5  -3 -15  430.76   19.00
  -7   3  15  370.26   20.00
   7  -3  15  332.67   17.50
  -7  -3 -15  385.86   14.80
   7   3 -15  328.87   18.70
  -7  -3  15  317.47   19.10
  -7   3 -15  415.06   19.80
   7  -3 -15  381.86   18.60
  -9  -3 -15  469.95   24.40
  -9   3  15  453.85   22.70
  -9  -3 -15  420.66   16.10
   9   3 -15  398.96   21.10
   9  -3 -15  426.36   20.50
  -9  -3  15  395.96   22.00
 -11   3  15  328.47   20.00
  11  -3  15  361.76   19.40
 -11  -3 -15  359.26   14.80
 -11  -3 -15  378.86   22.00
  11   3 -15  366.16   20.60
 -11  -3  15  361.46   21.10
 -11   3 -15  407.56   19.90
  11  -3 -15  378.86   20.00
 -13  -3 -15  379.66   15.40
 -13   3  15  332.47   20.30
  13  -3  15  371.16   20.00
  13   3 -15  383.36   24.50
 -13  -3 -15  347.27   21.50
 -13   3 -15  360.96   19.00
  13  -3 -15  348.87   19.80
 -15  -3 -15  383.66   16.40
  15  -3  15  388.16   21.30
  15   3 -15  398.96   22.70
  15  -3 -15  380.46   22.00
 -15  -3  15  368.16   23.10
 -15   3 -15  374.16   19.50
 -17  -3 -15  386.66   23.70
 -17  -3 -15  372.76   18.40
 -17   3  15  371.96   22.80
  17  -3  15  416.16   22.70
  17   3 -15  390.76   23.10
 -17   3 -15  394.76   20.60
 -17  -3  15  360.06   24.00
  17  -3 -15  364.06   22.30
 -19   3  15  148.49   15.80
  19   3 -15  219.68   17.60
  19  -3  15  129.39   14.40
 -19  -3 -15  209.68   19.30
 -19   3 -15  182.38   14.60
 -19  -3  15  131.69   15.50
  19  -3 -15  157.18   14.80
   1  -5  15  808.72   30.30
   1   5 -15  995.20   35.40
   1  -5  15  847.12   32.10
  -1   5  15  814.62   32.30
  -1  -5 -15  924.51   27.30
   1   5  15  792.92   32.10
  -1   5 -15  907.11   34.30
   1  -5 -15  958.80   28.80
  -1  -5  15  817.22   32.00
  -1  -5  15  810.82   30.80
  -3   5  15  443.66   22.40
   3  -5  15  447.76   20.60
  -3  -5 -15  468.15   17.00
  -3  -5 -15  522.55   17.00
   3  -5  15  473.45   22.20
   3   5 -15  502.15   23.50
  -3  -5  15  448.86   22.00
  -3  -5  15  468.65   23.10
   3  -5 -15  525.55   19.90
  -3   5 -15  487.45   23.20
  -5  -5 -15  467.45   15.30
  -5   5  15  486.55   23.80
   5  -5  15  482.55   21.20
   5   5 -15  496.65   23.60
  -5   5 -15  467.55   23.00
  -5  -5  15  489.85   23.90
  -5  -5  15  493.55   23.80
   5  -5 -15  494.65   20.00
  -7  -5 -15  673.93   18.50
  -7  -5 -15  647.34   29.80
  -7   5  15  621.04   27.00
  -7  -5 -15  620.34   18.20
   7  -5  15  595.14   23.90
   7   5 -15  634.14   27.90
   7  -5 -15  670.03   25.50
  -7  -5  15  595.94   27.60
  -7  -5  15  633.34   28.10
  -7   5 -15  692.43   28.70
  -9   5  15  440.86   22.50
  -9  -5 -15  410.96   23.70
   9   5 -15  411.26   21.90
  -9  -5 -15  391.76   12.20
   9  -5 -15  392.46   19.40
  -9  -5  15  398.66   22.90
  -9  -5  15  440.06   22.80
 -11  -5 -15  335.87   21.10
  11   5 -15  308.37   19.70
 -11   5  15  301.77   19.00
  11  -5  15  299.27   18.80
 -11  -5  15  311.07   20.40
 -11   5 -15  299.77   16.30
  11  -5 -15  305.57   17.90
 -11  -5  15  330.47   19.80
 -13   5  15  301.67   19.10
  13   5 -15  314.97   19.80
  13  -5  15  321.47   20.10
 -13  -5 -15  333.07   21.70
 -13  -5  15  345.47   22.10
 -13   5 -15  325.97   16.90
 -13  -5  15  300.97   19.40
  13  -5 -15  313.07   21.00
 -15  -5 -15  167.98   16.50
  15  -5  15  202.78   16.50
  15   5 -15  218.98   17.10
  15  -5 -15  214.48   16.10
 -15  -5  15  222.38   16.80
 -15   5 -15  224.28   13.70
 -15  -5  15  207.98   18.20
  17   5 -15  368.06   22.40
 -17   5  15  370.16   22.10
  17  -5  15  364.76   22.80
 -17  -5 -15  356.96   24.00
 -17  -5  15  368.16   24.30
  17  -5 -15  333.77   24.30
  19   5 -15   86.09   12.00
 -19   5  15   90.39   12.30
 -19  -5 -15   70.79   18.60
   1   7 -15  262.57   17.40
  -1  -7 -15  319.37   11.90
   1  -7  15  346.37   18.10
   1  -7  15  315.87   18.70
  -1  -7  15  316.07   18.00
  -1  -7  15  308.27   18.70
  -1   7 -15  288.47   18.40
   1  -7 -15  313.47   13.20
   3  -7  15  256.27   14.90
  -3  -7 -15  236.08   17.60
  -3   7  15  222.38   15.80
   3   7 -15  221.98   16.10
  -3  -7 -15  211.28    8.30
   3  -7  15  218.38   15.20
  -3  -7  15  214.68   15.20
  -3  -7  15  185.88   14.90
   3  -7 -15  235.48   12.10
  -3   7 -15  200.18   15.00
  -5   7  15  249.78   16.60
   5  -7  15  251.97   14.50
   5  -7  15  233.08   15.70
  -5  -7 -15  200.58   16.70
   5   7 -15  180.28   14.80
  -5   7 -15  191.68   15.00
  -5  -7  15  252.07   16.70
  -5  -7  15  246.58   17.00
   5  -7 -15  195.48   11.70
  -7   7  15  197.18   14.60
   7   7 -15  183.38   15.20
   7  -7  15  168.68   13.20
  -7  -7 -15  159.18   15.20
   7  -7  15  150.38   12.80
  -7  -7  15  144.19   13.80
   7  -7 -15  145.79   11.10
  -7  -7  15  173.58   14.40
  -7   7 -15  174.38   14.70
  -9   7  15  533.65   25.60
   9  -7  15  572.34   27.30
   9  -7 -15  466.45   21.00
  -9  -7  15  474.35   25.90
  -9  -7  15  550.04   27.00
 -11   7  15  363.06   21.00
  11  -7  15  377.26   22.20
  11   7 -15  404.06   22.80
 -11  -7 -15  387.16   23.70
 -11   7 -15  358.26   17.10
  11  -7 -15  385.46   20.20
 -11  -7  15  361.66   21.70
 -11  -7  15  392.26   23.50
 -13  -7 -15  451.95   26.80
  13   7 -15  503.25   26.10
 -13   7  15  386.26   21.60
  13  -7  15  391.96   23.00
  13  -7 -15  465.45   23.30
 -13  -7  15  371.66   23.70
 -13  -7  15  350.46   22.00
 -13   7 -15  462.25   18.70
 -15   7  15  110.19   12.80
 -15  -7 -15  120.69   15.50
  15  -7  15  143.49   14.40
  15   7 -15  129.49   14.00
 -15  -7  15  139.49   15.00
  15  -7 -15  139.79   13.80
 -15  -7  15  122.69   14.70
  17   7 -15  252.17   19.50
  17  -7  15  275.17   20.60
 -17  -7 -15  272.07   25.70
 -17  -7  15  266.47   19.70
 -17  -7  15  260.27   20.80
   1  -9  15  548.35   23.80
  -1  -9 -15  531.85   27.40
   1  -9  15  551.24   26.60
   1   9 -15  547.15   27.20
  -1   9 -15  546.75   26.90
  -1  -9  15  514.95   25.90
   1  -9 -15  530.95   17.30
   1  -9 -15  500.25   26.50
  -1  -9  15  524.75   24.20
   3  -9  15  507.55   22.10
  -3  -9 -15  462.65   26.20
   3   9 -15  517.45   29.80
   3  -9  15  491.05   24.80
  -3  -9  15  506.95   36.00
  -3  -9  15  478.25   23.90
   3  -9 -15  484.85   18.00
   5  -9  15  394.66   18.50
  -5  -9 -15  408.36   27.60
   5   9 -15  410.26   23.20
   5  -9  15  350.76   20.80
  -5  -9  15  453.65   23.60
  -5   9 -15  396.16   22.70
  -5  -9  15  359.36   22.20
  -7  -9 -15  242.88   19.40
   7  -9  15  146.89   13.50
   7  -9  15  158.58   10.90
   7   9 -15  191.68   16.30
  -7   9  15  149.29   13.60
  -7  -9  15  142.99   14.40
   7  -9 -15  231.98   13.90
  -7   9 -15  188.48   16.90
  -9   9  15  608.34   28.20
   9  -9  15  626.44   27.70
  -9  -9 -15  756.62   35.10
   9   9 -15  661.83   31.20
  -9  -9  15  661.23   30.90
  -9  -9  15  633.54   30.40
   9  -9 -15  674.73   27.20
  11  -9  15  172.28   15.20
 -11  -9 -15  239.08   19.40
 -11   9  15  166.28   14.80
  11   9 -15  190.88   16.90
 -11  -9  15  163.58   16.30
  11  -9 -15  201.78   15.10
 -11  -9  15  142.79   14.50
  13   9 -15  300.67   20.10
  13  -9  15  272.67   20.70
 -13  -9 -15  276.17   22.00
 -13  -9  15  258.17   19.30
  13  -9 -15  248.28   18.10
 -13  -9  15  280.57   21.50
 -15  -9 -15  352.26   24.70
 -15   9  15  349.37   23.20
  15  -9  15  328.87   22.70
  15  -9 -15  323.17   20.80
 -15  -9  15  343.37   24.40
   1 -11  15  263.07   16.40
   1 -11  15  289.97   19.40
   1  11 -15  300.97   20.40
  -1 -11 -15  238.28   18.80
  -1 -11  15  270.47   17.50
   1 -11 -15  236.18   18.60
  -1  11 -15  230.98   18.10
  -1 -11  15  257.87   18.50
  -3 -11 -15  322.77   22.40
   3 -11  15  300.17   20.10
   3 -11  15  302.87   19.20
   3  11 -15  340.57   21.90
   3 -11 -15  333.67   23.80
  -3 -11  15  324.07   19.50
  -3  11 -15  345.47   22.50
  -3 -11  15  302.07   20.70
   3 -11 -15  324.57   13.80
   5 -11  15  492.55   25.50
   5  11 -15  587.64   29.20
  -5 -11 -15  544.05   29.60
  -5 -11  15  535.65   28.30
  -5  11 -15  557.14   29.00
  -5 -11  15  462.45   25.30
   5 -11 -15  547.45   20.70
   7 -11  15  221.28   13.10
  -7 -11 -15  242.68   19.30
   7 -11  15  263.07   18.20
   7  11 -15  178.38   16.80
  -7 -11  15  233.38   17.80
   7 -11 -15  202.38   13.60
  -7 -11  15  259.57   19.70
  -7  11 -15  194.48   17.60
   9 -11  15  369.56   21.40
  -9 -11 -15  408.86   26.70
   9  11 -15  384.86   23.60
  -9 -11  15  388.26   23.90
   9 -11 -15  425.96   20.80
  -9 -11  15  372.46   23.50
  11 -11  15   75.69   12.60
 -11 -11 -15   46.30   12.20
  11 -11  15   79.59   13.40
 -11 -11  15   97.69   13.60
  11 -11 -15   54.09   10.00
 -13 -11 -15  173.28   30.60
   1 -13  15  141.49   18.30
   1  13 -15  106.39   13.10
  -1 -13  15  116.29   13.70
   1 -13 -15  110.29   14.80
   3  13 -15  213.58   18.20
   3 -13  15  175.38   14.30
   3 -13  15  209.18   17.60
  -3 -13  15  207.58   18.30
  -3  13 -15  201.88   19.00
   3 -13 -15  201.58   17.90
  -3 -13  15  147.99   16.30
   5 -13  15  252.07   19.20
  -5  13 -15  261.37   20.80
   5 -13 -15  260.67   19.60
  -5 -13  15  261.97   20.10
  -5 -13  15  213.18   18.10
   7 -13  15  119.99   14.70
  -7 -13 -15  119.09   15.60
   7  13 -15  105.39   15.20
  -7  13 -15  139.49   16.20
  -7 -13  15  151.08   16.90
  -7 -13  15  166.08   16.90
   7 -13 -15  136.99   16.40
  -9 -13 -15  422.66   30.90
   9 -13  15  376.26   22.50
   9 -13 -15  427.76   35.70
   9 -13 -15  375.96   20.00
  -9  13 -15  320.57   24.70
  -9 -13  15  391.16   25.60
   0   0  16 1176.38   40.20
   0   0 -16 1488.95   44.00
  -2   0 -16   -2.60    2.60
   2   0 -16   -2.00    3.10
   2   0  16    0.60    3.10
  -2   0  16    0.60    2.90
  -4   0  16 2025.40   59.59
  -4   0 -16 2016.90   54.89
   4   0 -16 2031.40   56.79
   4   0  16 1986.90   58.49
   6   0 -16    1.20    3.50
  -6   0  16    4.20    4.20
  -6   0 -16   -0.90    3.00
   6   0  16    1.50    3.30
  -8   0 -16 1684.23   47.50
   8   0 -16 1653.23   50.79
  -8   0  16 1497.25   49.30
 -10   0 -16    3.90    4.10
  10   0 -16    0.60    4.00
 -10   0  16   -2.30    4.10
 -10   0 -16   -3.30    4.20
 -12   0 -16  850.51   29.70
  12   0 -16  791.72   32.90
 -12   0  16  786.02   33.70
 -12   0 -16  780.52   32.80
  14   0 -16    5.50    5.30
 -14   0 -16    4.70    5.50
 -14   0  16    1.10    5.30
  16   0 -16  616.14   29.20
 -16   0 -16  606.34   28.50
 -16   0  16  517.15   27.70
  18   0  16   -3.80    6.10
  18   0 -16   -1.00    6.10
 -18   0  16   -5.70    6.60
 -20   0 -16  600.04   29.20
  20   0 -16  627.44   31.50
   0  -2  16    0.30    3.10
   0   2 -16    4.00    3.00
   0  -2 -16   -2.80    2.90
   0   2  16    5.40    4.00
  -2  -2 -16 1320.87   38.80
   2  -2  16 1468.85   45.60
   2   2 -16 1339.97   42.80
  -2   2  16 1366.36   46.00
  -2  -2  16 1446.06   46.40
   2  -2 -16 1401.96   40.80
  -2   2 -16 1350.56   42.40
   2   2  16 1425.96   46.70
  -4  -2 -16   12.60    3.50
   4   2 -16   16.60    5.00
   4  -2  16   18.20    5.50
  -4   2  16   23.80    6.20
  -4  -2  16   21.50    5.70
   4   2  16   20.50    6.10
   4  -2 -16   21.20    5.00
  -4   2 -16   23.30    5.80
   6  -2  16 1122.69   38.10
   6   2 -16 1227.58   41.60
  -6   2  16 1086.09   39.60
  -6  -2 -16 1279.67   36.60
  -6  -2  16 1162.48   40.70
  -6   2 -16 1198.58   39.80
   6  -2 -16 1367.76   41.20
  -8   2  16   14.60    5.00
   8   2 -16   19.20    6.10
  -8  -2 -16   22.00    4.60
   8  -2  16   16.40    5.50
   8  -2 -16   19.30    5.40
  -8   2 -16   18.00    5.40
  -8  -2  16   15.20    5.60
 -10  -2 -16 1203.68   43.70
  10   2 -16 1245.58   42.70
 -10   2  16 1250.07   44.10
 -10  -2 -16 1189.68   35.20
 -10   2 -16 1200.08   39.80
 -10  -2  16 1272.67   45.00
  10  -2 -16 1179.08   40.90
  12   2 -16    0.20    9.00
 -12  -2 -16    2.50    5.20
 -12   2  16    3.90    4.10
  12  -2 -16   12.30    4.80
 -12   2 -16    8.40    5.20
  14   2 -16 1087.89   41.10
 -14  -2 -16 1048.50   33.30
 -14  -2 -16 1142.09   49.20
 -14   2  16 1053.69   40.40
  14  -2  16 1081.59   37.90
 -14  -2  16  999.20   41.10
  14  -2 -16 1119.19   40.80
 -14   2 -16 1067.79   38.50
 -16   2  16   39.50    9.70
  16   2 -16   31.80    9.10
 -16  -2 -16   30.20    6.60
  16  -2  16   34.10    7.80
 -16  -2 -16   26.10    8.20
 -16  -2  16   30.10    8.50
 -16   2 -16   34.80    8.00
  16  -2 -16   21.80    7.50
  18   2 -16  873.41   37.40
  18  -2  16  950.70   36.60
 -18  -2 -16  842.72   30.10
 -18   2  16  906.81   41.80
 -18  -2 -16  873.11   37.40
  18  -2 -16  821.22   36.70
 -18  -2  16  938.61   40.70
 -18   2 -16  901.11   48.40
  20   2 -16   25.30    8.80
 -20  -2 -16   15.90   10.10
 -20   2  16   29.90    9.50
  20  -2  16   24.00    9.10
  20  -2 -16   43.70   10.60
   0  -4  16 1846.62   54.99
   0   4  16 1848.62   56.69
   0  -4 -16 2107.69   53.79
   0   4 -16 2067.59   60.09
  -2  -4 -16   71.09    6.80
   2   4 -16   60.09    8.20
  -2   4  16   66.69    9.20
   2  -4  16   85.79    9.20
  -2   4 -16   67.49    8.70
  -2  -4  16   76.49    9.60
   2  -4 -16   75.39    8.80
  -2  -4  16   71.09    9.20
   2   4  16   84.09    9.60
  -4  -4 -16 1292.17   35.00
  -4   4  16 1172.98   41.40
   4   4 -16 1298.17   43.30
   4  -4  16 1189.58   38.90
  -4   4 -16 1292.37   42.40
  -4  -4  16 1094.79   40.30
  -4  -4  16 1198.38   41.20
   4  -4 -16 1249.57   38.50
  -6  -4 -16   57.69    8.20
  -6   4  16   50.69    8.40
  -6  -4 -16   43.30    5.20
   6   4 -16   42.80    7.40
   6  -4  16   54.39    8.00
  -6  -4  16   55.19    8.10
   6  -4 -16   63.49    7.90
  -6   4 -16   48.50    7.40
  -6  -4  16   57.09    8.60
   8  -4  16  800.92   29.60
  -8  -4 -16  975.10   39.20
  -8   4  16  788.82   32.80
   8   4 -16 1027.80   37.60
  -8  -4 -16 1007.70   27.80
  -8  -4  16  828.52   33.40
   8  -4 -16  941.91   33.80
  -8   4 -16 1030.10   36.60
  -8  -4  16  827.32   34.20
 -10  -4 -16    9.90    6.30
  10   4 -16   19.80    6.20
 -10   4  16   13.60    5.70
 -10  -4 -16   21.10    4.20
 -10  -4  16   23.50    7.00
  10  -4 -16   17.10    5.50
  12   4 -16 1140.19   42.00
  12  -4  16 1062.59   39.20
 -12   4  16 1042.80   39.40
  12  -4 -16 1086.59   39.60
 -12   4 -16 1156.48   38.30
 -12  -4  16 1074.69   41.90
  14   4 -16   10.50    5.90
 -14  -4 -16    6.70    4.00
 -14  -4 -16    5.60    6.30
 -14  -4  16    8.70    5.70
  14  -4 -16    4.10    5.60
 -14   4 -16    4.40    5.50
  16   4 -16  625.64   30.40
 -16   4  16  566.44   28.10
  16  -4  16  572.94   27.70
 -16  -4 -16  623.44   31.30
 -16   4 -16  629.54   26.00
  16  -4 -16  614.34   29.40
 -16  -4  16  564.24   30.00
 -18   4  16   39.90   10.00
  18  -4  16   43.60    9.70
 -18  -4 -16   38.10    9.60
  18   4 -16   34.80    9.40
 -18  -4  16   28.00   11.00
   0  -6  16    4.90    4.20
   0   6 -16    3.40    4.10
   0  -6  16    5.30    4.20
   0  -6 -16   -1.50    2.60
   0   6  16    3.90    4.00
   2   6 -16  994.10   37.30
  -2  -6 -16 1052.49   28.30
   2  -6  16 1064.69   36.60
  -2  -6 -16  992.60   34.80
  -2   6  16 1047.20   39.10
   2  -6  16 1076.99   38.70
   2  -6 -16 1021.00   30.90
  -2   6 -16 1010.20   37.90
  -2  -6  16 1032.40   37.50
  -2  -6  16 1025.70   38.70
  -4   6  16    3.80    4.70
  -4  -6 -16   14.40    3.20
   4  -6  16    5.90    5.00
  -4  -6 -16    5.10    3.40
   4  -6  16    9.40    4.40
   4   6 -16    3.20    3.90
  -4  -6  16    3.10    4.50
  -4   6 -16   13.00    5.40
   4  -6 -16    9.00    3.80
  -4  -6  16   16.30    5.40
  -6  -6 -16 1434.26   50.69
   6  -6  16 1520.75   45.70
  -6   6  16 1502.25   49.70
   6   6 -16 1419.16   47.90
  -6  -6 -16 1375.16   32.70
  -6   6 -16 1509.75   48.60
   6  -6 -16 1433.96   42.60
  -6  -6  16 1534.15   50.59
  -6  -6  16 1533.35   50.89
  -8  -6 -16   16.90    7.00
   8   6 -16   13.00    6.80
  -8   6  16   18.10    6.50
   8  -6  16   20.10    5.40
  -8   6 -16   16.90    6.70
  -8  -6  16   29.10    8.40
   8  -6 -16   24.50    5.80
  -8  -6  16   15.50    6.40
 -10   6  16 1056.39   38.90
 -10  -6 -16 1006.90   41.00
  10   6 -16  939.71   37.90
  10  -6 -16 1029.50   36.00
 -10  -6  16 1002.70   40.50
 -10  -6  16  979.10   43.30
  12   6 -16    4.80    4.90
 -12   6  16   10.70    9.30
 -12  -6 -16    5.10    6.00
  12  -6  16    6.60    5.60
 -12  -6  16    4.50    6.00
 -12  -6  16    7.90    6.20
 -12   6 -16    1.60    5.20
  14  -6  16  584.84   29.10
 -14   6  16  580.34   28.00
 -14  -6 -16  611.64   31.70
  14   6 -16  627.74   30.10
 -14  -6  16  541.05   29.60
  14  -6 -16  582.34   27.60
 -14   6 -16  591.14   23.30
 -14  -6  16  608.54   29.10
 -16   6  16    6.30    7.40
  16   6 -16    2.70    6.00
 -16  -6  16    5.90    7.70
  16  -6 -16    6.00    6.80
  18   6 -16  496.55   38.10
 -18   6  16  472.35   25.90
 -18  -6  16  558.84   31.00
   0   8 -16 1110.69   41.60
   0  -8 -16 1109.89   29.80
   0  -8  16 1057.39   36.90
   0  -8  16  962.20   38.00
   2  -8  16    7.10    4.70
   2  -8  16   -3.10    4.50
   2   8 -16    7.90    6.30
  -2  -8 -16   11.30    6.00
  -2  -8  16    2.10    4.90
   2  -8 -16    5.20    3.70
  -2  -8  16    0.50    4.40
  -2   8 -16   -0.20    4.60
   4  -8  16  843.42   34.10
   4   8 -16  948.81   42.80
  -4   8  16  893.41   35.60
   4  -8  16  870.21   31.30
  -4  -8  16  837.22   39.90
  -4  -8  16  892.11   35.20
   6   8 -16    4.90    4.40
   6  -8  16    4.20    5.50
   6  -8  16    2.50    4.20
  -6   8  16    2.10    4.90
  -6  -8 -16    1.60    4.70
  -6  -8  16    7.90    6.50
  -6   8 -16    2.70    5.90
  -6  -8  16    2.30    5.00
   6  -8 -16    6.40    4.40
  -8  -8 -16  974.90   40.90
   8  -8  16  870.11   34.90
   8  -8  16  914.11   34.70
   8   8 -16  903.41   37.20
  -8   8  16  875.51   35.80
  -8  -8  16  944.61   38.00
   8  -8 -16  938.01   32.80
  -8   8 -16  937.61   38.40
  -8  -8  16  906.31   37.70
 -10  -8 -16   10.20    6.40
  10   8 -16    3.10    5.60
 -10  -8  16   -4.80    6.00
  10  -8 -16   12.20    5.50
 -10  -8  16    3.20    6.40
 -12   8  16  860.81   34.80
  12  -8  16  836.72   37.10
 -12  -8 -16  973.20   42.00
  12   8 -16  970.40   39.40
  12  -8 -16  962.70   36.20
 -12  -8  16  829.62   36.60
 -12   8 -16  985.20   40.00
 -12  -8  16  879.01   38.30
  14   8 -16   10.30    7.50
 -14  -8 -16   10.10    8.30
 -14   8  16   16.40    7.30
 -14  -8  16   14.90    7.90
  14  -8 -16   13.70    7.10
 -16  -8 -16  835.92   54.59
  16   8 -16  795.82   41.60
 -16   8  16  741.43   33.10
  16  -8  16  789.42   36.50
 -16  -8  16  695.73   52.49
 -16  -8  16  808.32   35.60
  16  -8 -16  739.13   33.00
   0 -10  16   16.10    6.80
   0  10 -16   -0.80    5.00
   0 -10  16    9.20    5.40
   0 -10 -16   -1.50    6.10
   2  10 -16 1163.78   43.70
  -2 -10 -16 1154.78   45.50
   2 -10  16 1133.29   42.60
   2 -10  16 1070.19   37.30
  -2 -10  16 1113.99   42.80
   2 -10 -16 1121.19   43.70
   2 -10 -16 1100.39   30.70
  -2 -10  16 1101.29   39.70
  -2  10 -16 1175.38   44.30
   4  10 -16   -1.70    6.00
  -4 -10 -16   15.90    7.10
   4 -10  16   -3.70    5.00
   4 -10  16    5.90    6.20
  -4 -10  16    9.50    8.40
  -4 -10  16   -2.10    5.10
  -4  10 -16    8.20    6.90
   6  10 -16  699.43   32.40
  -6 -10 -16  695.73   34.50
   6 -10  16  624.94   28.80
  -6 -10  16  630.94   30.90
  -6 -10  16  613.74   29.50
  -6  10 -16  741.93   34.00
   6 -10 -16  717.33   26.10
   8 -10  16   18.00   10.50
   8 -10  16   26.10    8.50
  -8 -10 -16   21.00    8.80
   8  10 -16   31.00    8.90
   8 -10 -16   37.90    7.50
  -8  10 -16   32.70    8.30
  -8 -10  16   41.10   10.30
  -8 -10  16   13.90    6.90
 -10 -10 -16  521.95   30.30
  10  10 -16  459.25   26.20
  10 -10  16  466.45   24.30
  10 -10 -16  528.75   24.30
 -10 -10  16  504.25   28.00
  12  10 -16    7.80    7.40
 -12 -10 -16    0.00    7.80
 -12 -10  16    1.80    7.00
  12 -10 -16   10.30    6.60
 -14 -10 -16  510.65   30.80
 -14  10  16  502.15   27.00
  14 -10  16  527.15   29.80
 -14 -10  16  516.15   30.30
   0 -12 -16  505.85   30.90
   0 -12  16  554.24   28.90
   0 -12  16  487.95   24.30
   0  12 -16  492.25   28.30
  -2  12 -16   71.89   12.40
  -2 -12  16   59.89   11.60
   2 -12 -16   68.99   13.00
  -2 -12  16   30.90    8.40
   4  12 -16  623.14   30.90
   4 -12  16  584.04   24.30
  -4 -12  16  651.23   29.90
  -4  12 -16  543.25   30.10
   4 -12 -16  642.14   31.70
  -4 -12  16  548.05   30.10
   6 -12  16  118.19   13.80
   6  12 -16  106.49   14.30
  -6 -12 -16   98.29   14.70
   6 -12 -16   75.29   13.80
  -6  12 -16   82.19   13.60
  -6 -12  16   76.99   13.70
  -6 -12  16   90.99   13.60
  -8 -12 -16 1003.60   43.50
   8 -12  16  897.71   37.20
   8  12 -16  788.62   46.80
  -8  12 -16  974.80   41.70
   8 -12 -16  934.51   39.00
  -8 -12  16  924.11   40.40
   8 -12 -16  925.21   32.30
 -10 -12 -16    0.80    9.10
  10 -12  16    4.10   11.50
  10  12 -16   15.90   11.80
 -10  12 -16   -6.50    6.70
  10 -12 -16    1.70    7.30
   0  14 -16   -3.50    7.60
  -2 -14  16  470.55   25.60
  -2 -14  16  512.15   29.20
   2 -14 -16  533.65   29.50
  -2  14 -16  517.55   30.10
  -1  -1 -17  791.62   27.50
   1   1 -17  727.83   28.50
   1  -1  17  786.52   31.80
  -1   1  17  799.22   32.50
  -1   1 -17  728.13   28.00
   1  -1 -17  762.92   27.90
  -1  -1  17  822.22   32.60
   1   1  17  847.72   33.30
   3  -1  17  904.71   34.90
   3   1 -17  989.00   35.70
  -3  -1 -17 1069.59   33.60
  -3   1  17  947.21   36.30
  -3   1 -17 1027.00   34.80
  -3  -1  17  958.80   36.30
   3   1  17 1011.50   37.10
   3  -1 -17 1082.39   35.40
  -5   1  17  700.03   30.40
   5  -1  17  687.43   29.20
  -5  -1 -17  771.02   26.90
   5   1 -17  776.02   30.10
   5   1  17  708.73   30.20
  -5   1 -17  715.53   28.00
   5  -1 -17  810.42   29.90
  -5  -1  17  799.82   32.30
  -7  -1 -17  858.91   28.70
   7  -1  17  790.52   32.00
   7   1 -17  829.72   32.40
  -7   1  17  797.52   33.20
  -7   1 -17  804.22   29.70
   7  -1 -17  802.92   31.00
  -7  -1  17  816.72   33.70
  -9  -1 -17  751.82   32.40
  -9   1  17  682.83   30.60
   9   1 -17  766.12   31.10
  -9  -1 -17  734.93   26.10
   9  -1 -17  676.43   28.90
  -9   1 -17  682.13   27.10
  -9  -1  17  703.63   31.50
  11   1 -17  773.72   37.50
 -11  -1 -17  807.82   38.40
 -11  -1 -17  843.22   35.20
  11  -1 -17  835.02   34.40
 -11   1 -17  870.61   31.40
 -11   1 -17  846.22   34.00
 -11  -1  17  944.61   38.70
 -13   1  17  512.75   27.00
  13   1 -17  529.65   26.40
 -13  -1 -17  507.85   26.70
 -13  -1 -17  504.65   21.30
 -13   1 -17  476.75   24.80
 -13   1 -17  481.85   23.00
  13  -1 -17  509.05   25.80
 -13  -1  17  540.95   28.10
 -15  -1 -17  469.75   25.50
 -15  -1 -17  443.26   20.80
 -15   1  17  485.05   26.70
  15   1 -17  441.86   25.30
  15  -1 -17  513.25   25.90
 -15   1 -17  405.06   25.00
 -15  -1  17  533.75   28.50
 -17  -1 -17  374.86   19.60
  17   1 -17  368.56   23.20
 -17  -1 -17  387.46   24.20
 -17   1  17  307.37   21.90
 -17  -1  17  279.77   21.20
  17  -1 -17  395.96   23.80
  19   1 -17  443.46   25.50
 -19  -1 -17  421.96   30.00
  19  -1  17  463.45   24.30
 -19  -1 -17  393.66   24.40
  19  -1 -17  423.46   25.30
  -1   3  17 1246.98   43.70
  -1  -3 -17 1219.68   40.70
   1   3 -17 1251.77   41.90
   1  -3  17 1262.17   42.30
   1  -3 -17 1274.57   38.20
   1   3  17 1221.18   43.30
  -1   3 -17 1291.57   41.90
  -1  -3  17 1195.08   42.00
  -3  -3 -17  746.23   25.30
   3   3 -17  764.22   30.70
  -3   3  17  724.13   31.10
   3  -3  17  676.73   28.80
  -3  -3  17  748.13   30.90
   3  -3 -17  786.22   28.00
   3   3  17  770.92   31.90
  -3   3 -17  775.32   30.20
   5   3 -17  719.63   30.30
   5  -3  17  817.22   31.50
  -5  -3 -17  726.13   24.50
  -5   3  17  839.22   33.50
   5  -3 -17  767.72   27.90
  -5   3 -17  729.63   29.40
  -5  -3  17  765.32   32.50
   7  -3  17  969.40   34.90
  -7  -3 -17  816.42   26.30
  -7   3  17  959.30   37.20
   7   3 -17  860.51   33.70
  -7  -3  17  918.81   37.20
  -7   3 -17  873.01   32.60
   7  -3 -17  832.02   31.30
  -9  -3 -17  537.85   19.40
  -9  -3 -17  562.34   28.30
   9   3 -17  482.05   24.80
  -9   3  17  492.15   25.40
   9  -3 -17  559.24   24.80
  -9   3 -17  539.95   24.90
  -9  -3  17  520.05   29.60
  11   3 -17  650.83   29.70
 -11  -3 -17  634.94   21.90
 -11  -3 -17  685.43   45.20
 -11   3 -17  660.53   28.50
 -11  -3  17  612.24   30.30
  11  -3 -17  608.34   27.50
 -11   3 -17  658.53   28.60
  13   3 -17  643.54   30.10
 -13  -3 -17  612.14   30.40
 -13   3  17  685.23   31.50
 -13  -3 -17  594.44   21.20
  13  -3 -17  594.84   28.00
 -13   3 -17  582.54   26.80
 -13  -3  17  659.53   32.00
 -15  -3 -17  635.84   31.10
  15  -3  17  702.13   30.50
 -15   3  17  639.74   31.00
  15   3 -17  609.54   30.10
 -15   3 -17  611.04   27.10
 -15  -3  17  660.73   33.20
  15  -3 -17  606.24   29.20
 -17   3  17  578.04   29.90
  17  -3  17  595.44   28.60
  17   3 -17  612.64   31.00
 -17  -3 -17  648.54   32.40
 -17  -3  17  613.64   32.60
 -17   3 -17  596.04   28.20
  19   3 -17  491.55   27.90
  19  -3  17  457.85   30.20
 -19   3  17  471.75   27.80
 -19  -3 -17  429.76   27.30
  19  -3 -17  493.15   27.40
 -19  -3  17  448.26   27.90
  -1  -5 -17  496.15   18.40
   1   5 -17  500.15   24.60
  -1   5  17  505.95   25.90
   1  -5  17  485.55   23.40
   1  -5 -17  493.25   19.40
  -1  -5  17  508.65   24.50
  -1  -5  17  463.15   24.40
   1   5  17  496.55   25.20
  -1   5 -17  455.95   23.70
  -3   5  17  735.13   32.10
  -3  -5 -17  844.12   25.20
   3   5 -17  813.02   33.00
   3  -5  17  783.62   30.50
  -3  -5  17  768.62   32.50
   3  -5 -17  787.02   27.90
  -3  -5  17  755.52   31.70
  -3   5 -17  852.51   33.50
  -5  -5 -17  858.11   24.60
  -5   5  17  797.22   33.70
   5  -5  17  803.32   30.90
   5   5 -17  819.52   33.80
  -5   5 -17  846.52   33.60
  -5  -5  17  826.82   33.80
  -5  -5  17  780.62   33.20
   5  -5 -17  861.81   29.80
  -7  -5 -17  583.14   29.50
   7   5 -17  517.25   26.80
   7  -5  17  602.54   25.10
  -7   5  17  577.04   27.70
  -7  -5  17  580.14   28.40
  -7   5 -17  521.25   25.30
   7  -5 -17  533.75   22.80
  -7  -5  17  584.84   28.30
  -9  -5 -17  582.44   29.90
  -9   5  17  521.45   26.50
  -9  -5 -17  525.05   16.20
   9   5 -17  564.94   27.50
   9  -5 -17  549.45   24.40
  -9  -5  17  476.55   26.30
  -9   5 -17  547.45   26.50
  -9  -5  17  517.35   29.50
 -11   5  17  599.94   28.80
  11   5 -17  614.94   29.60
 -11  -5 -17  620.64   31.20
 -11   5 -17  600.24   28.50
 -11  -5  17  572.44   30.00
  11  -5 -17  602.44   30.60
 -11   5 -17  608.34   26.20
 -13   5  17  539.05   26.90
  13   5 -17  477.35   26.00
 -13  -5 -17  522.75   28.30
 -13   5 -17  478.85   23.00
  13  -5 -17  461.85   24.40
 -13  -5  17  480.45   27.90
  15  -5  17  320.27   21.70
 -15   5  17  294.97   20.80
  15   5 -17  356.36   22.20
 -15  -5 -17  302.27   22.50
 -15   5 -17  344.27   18.90
  15  -5 -17  346.07   21.40
 -15  -5  17  302.17   22.40
 -17   5  17  311.37   22.30
  17   5 -17  317.87   24.40
 -17  -5  17  286.77   33.30
   1  -7  17  850.81   33.10
   1   7 -17  855.01   39.60
  -1  -7 -17  859.41   25.00
   1  -7  17  868.31   35.30
  -1  -7  17  864.21   33.70
  -1  -7  17  829.72   35.80
   1  -7 -17  848.22   26.40
  -1   7 -17  825.52   35.50
   3  -7  17  554.34   25.00
   3  -7  17  566.94   27.10
   3   7 -17  608.74   41.90
  -3   7  17  592.74   28.30
  -3   7 -17  735.33   46.60
  -3  -7  17  542.95   26.40
  -3  -7  17  537.85   39.60
   5  -7  17  658.73   27.20
  -5   7  17  700.13   31.90
   5  -7  17  746.43   31.00
   5   7 -17  711.03   32.10
  -5  -7 -17  767.62   35.30
  -5  -7  17  725.23   32.30
  -5   7 -17  717.13   33.20
   5  -7 -17  744.53   26.80
  -5  -7  17  685.43   30.80
   7  -7  17 1068.99   35.40
   7   7 -17  993.90   39.70
  -7  -7 -17 1016.50   42.40
   7  -7 -17 1050.89   34.60
  -7  -7  17 1053.29   40.90
  -7  -7  17  982.90   40.20
  -7   7 -17 1001.00   39.30
  -9   7  17  709.43   31.90
  -9  -7 -17  793.62   36.20
   9   7 -17  757.92   33.40
   9  -7 -17  750.62   29.60
  -9  -7  17  767.62   34.10
  -9  -7  17  695.83   32.50
  -9   7 -17  694.03   32.60
 -11  -7 -17  574.04   31.40
 -11   7  17  509.55   26.90
  11   7 -17  629.94   30.50
 -11  -7  17  632.14   30.00
 -11   7 -17  610.74   25.00
 -11  -7  17  547.85   29.40
  11  -7 -17  638.34   27.90
 -13   7  17  420.86   24.10
  13   7 -17  417.66   24.80
 -13  -7 -17  416.46   26.80
 -13  -7  17  429.86   26.50
 -13  -7  17  423.36   25.30
  13  -7 -17  382.76   21.90
 -13   7 -17  407.66   20.30
  15   7 -17  472.25   27.00
 -15   7  17  454.55   25.40
 -15  -7 -17  497.85   29.50
 -15  -7  17  497.85   27.00
 -15  -7  17  453.85   28.30
  15  -7 -17  483.15   25.40
   1   9 -17  609.14   30.00
   1  -9  17  588.94   26.60
  -1  -9 -17  665.13   32.30
   1  -9  17  596.64   28.90
   1  -9 -17  609.24   31.20
  -1  -9  17  587.04   27.40
  -1  -9  17  583.84   29.00
   1  -9 -17  602.84   19.60
  -1   9 -17  616.64   29.80
   3   9 -17  445.36   24.80
  -3  -9 -17  482.35   27.70
   3  -9  17  467.65   22.20
   3  -9  17  458.05   25.00
  -3   9 -17  419.46   24.80
   3  -9 -17  487.55   18.70
  -3  -9  17  433.26   23.70
  -3  -9  17  421.86   25.10
   5   9 -17  616.54   30.00
   5  -9  17  560.34   24.30
  -5  -9 -17  606.54   31.90
   5  -9  17  586.94   28.00
   5  -9 -17  585.34   22.70
  -5  -9  17  589.14   28.80
  -5  -9  17  585.14   29.80
  -5   9 -17  566.54   29.00
  -7   9  17  559.84   28.70
   7  -9  17  589.44   28.20
  -7  -9 -17  512.15   29.30
   7   9 -17  556.44   28.60
  -7  -9  17  616.74   30.90
  -7   9 -17  556.34   29.10
   7  -9 -17  563.04   23.20
  -7  -9  17  572.74   29.00
  -9   9  17  130.19   14.60
   9   9 -17   97.89   13.30
  -9  -9 -17  130.89   15.20
  -9  -9  17  125.09   14.60
   9  -9 -17  112.09   11.90
  -9  -9  17  115.49   14.30
  -9   9 -17  102.19   13.10
 -11   9  17  359.96   22.80
 -11  -9 -17  391.86   26.30
 -11   9 -17  401.56   25.00
 -11  -9  17  361.16   24.40
 -11  -9  17  349.67   22.80
  11  -9 -17  399.76   21.30
 -13   9  17  481.55   26.00
  13   9 -17  559.34   29.70
 -13  -9 -17  552.64   35.10
 -13  -9  17  506.45   29.20
  13  -9 -17  531.95   26.80
   1 -11  17  543.65   25.30
   1 -11  17  536.65   28.80
  -1 -11 -17  479.25   32.20
   1  11 -17  489.65   27.80
  -1  11 -17  514.05   28.50
   1 -11 -17  528.15   29.40
  -1 -11  17  519.45   28.60
   3  11 -17  538.25   29.00
   3 -11  17  482.45   26.80
  -3 -11 -17  529.25   30.30
  -3 -11  17  522.05   26.10
  -3 -11  17  426.56   26.00
  -3  11 -17  563.54   29.70
   3 -11 -17  498.75   28.30
   5 -11  17  320.07   18.00
  -5 -11 -17  362.86   25.30
   5 -11 -17  349.47   19.30
   5 -11 -17  359.36   23.30
  -5  11 -17  381.76   24.20
  -5 -11  17  341.17   21.90
  -5 -11  17  336.37   23.20
   7 -11  17  529.45   27.60
  -7 -11 -17  535.75   30.50
   7  11 -17  535.35   33.50
   7 -11 -17  546.25   28.90
   7 -11 -17  541.35   23.00
  -7 -11  17  489.15   28.90
  -7 -11  17  523.35   29.30
  -7  11 -17  506.25   29.00
   9 -11  17  517.25   27.30
   9  11 -17  525.35   29.10
  -9 -11 -17  515.45   33.80
  -9 -11  17  510.75   29.50
  -9  11 -17  481.85   32.40
 -11 -11 -17  550.54   32.40
  11 -11 -17  481.05   24.40
 -11 -11  17  498.35   29.40
   1  13 -17  243.98   30.30
  -1  13 -17  266.37   31.90
  -1 -13  17  367.76   32.00
   3  13 -17  467.25   31.90
  -3  13 -17  473.75   28.10
  -3 -13  17  422.96   26.60
   0   0  18   -0.30    4.50
   0   0 -18    4.10    4.10
   2   0  18 1791.42   56.59
  -2   0 -18 1758.92   50.39
   2   0 -18 1706.93   51.19
  -2   0  18 1851.21   57.59
  -4   0 -18    5.90    4.00
  -4   0  18   -4.00    4.10
   4   0 -18    8.00    4.60
   4   0  18   -2.00    4.50
  -6   0 -18 1276.37   40.40
   6   0  18 1345.47   45.50
   6   0 -18 1340.07   43.80
  -6   0  18 1287.97   46.30
   8   0 -18    5.80    4.90
  -8   0 -18    3.80    4.00
  10   0 -18 1274.47   44.60
 -10   0  18 1353.26   48.70
 -10   0 -18 1237.18   45.40
 -10   0 -18 1242.28   39.60
  12   0 -18    5.80    5.90
 -12   0  18    4.50    5.30
 -12   0 -18    1.60    4.50
 -12   0 -18    0.80    5.70
 -14   0 -18  996.00   34.60
 -14   0  18 1118.89   44.70
 -14   0 -18  965.50   39.50
  14   0 -18 1014.40   39.90
 -16   0 -18    0.00    6.60
 -16   0 -18    2.70    7.00
  16   0 -18   -4.10    5.80
 -16   0  18    7.70    7.40
  18   0 -18  346.07   24.40
 -18   0 -18  392.96   24.60
 -18   0 -18  343.87   21.30
   0   2 -18 1803.62   53.79
   0   2  18 1746.93   56.39
   0  -2  18 1814.22   55.99
   0  -2 -18 1822.22   50.89
  -2  -2 -18   35.90    6.30
  -2   2  18   37.60    8.20
   2   2 -18   50.29    7.90
   2  -2  18   41.40    7.90
   2  -2 -18   44.30    6.70
   2   2  18   59.69    9.60
  -2  -2  18   43.90    7.80
  -2   2 -18   44.10    7.50
   4  -2  18 1165.98   41.50
   4   2 -18 1098.89   39.00
  -4   2  18 1199.88   43.40
  -4  -2 -18 1060.19   33.90
   4   2  18 1273.37   44.30
   4  -2 -18 1059.89   36.50
  -4  -2  18 1191.68   43.50
  -4   2 -18 1176.68   39.00
  -6  -2 -18   76.39    8.10
   6   2 -18   80.69   10.00
  -6   2  18   68.09   10.60
   6  -2  18   69.69    9.80
  -6   2 -18   89.59    9.90
   6  -2 -18   86.59    9.90
  -6  -2  18   78.79   10.60
   8   2 -18 1403.26   48.60
  -8  -2  18 1547.25   73.19
  -8   2 -18 1413.86   45.40
   8  -2 -18 1471.95   46.50
 -10   2  18   20.40    6.90
  10   2 -18   11.70    5.40
 -10  -2 -18   12.30    5.20
 -10   2 -18   20.40    5.80
  10  -2 -18   22.00    9.50
 -10  -2  18   16.00    6.20
  12   2 -18 1022.00   40.60
 -12   2  18 1220.98   45.30
 -12  -2 -18 1092.79   33.90
 -12  -2 -18 1075.79   42.90
 -12   2 -18 1077.49   38.90
  12  -2 -18 1150.78   41.20
 -12  -2  18 1167.38   45.50
 -12   2 -18 1111.99   40.90
 -14   2  18   16.30    7.40
 -14  -2 -18   17.50    8.10
 -14  -2 -18   11.70    5.50
  14   2 -18   14.40    7.40
  14  -2 -18   12.40    5.90
 -14  -2  18   16.70    7.60
  16   2 -18 1108.49   44.10
 -16  -2 -18 1245.68   44.70
 -16  -2 -18 1166.78   45.50
 -16  -2  18 1014.20   42.70
 -16   2 -18 1117.49   41.00
  18   2 -18   -7.70    6.60
 -18   2  18   -2.30    8.20
 -18  -2 -18    7.40   12.00
 -18   2 -18   12.50   13.50
 -18  -2  18   -7.80    7.60
  18  -2 -18    4.30    7.50
   0   4 -18   -1.30    3.80
   0  -4  18   -2.60    3.80
   0   4  18    3.80    4.00
   0  -4 -18    5.30    3.50
   2  -4  18 1804.82   54.99
   2   4 -18 1705.23   54.09
  -2   4  18 1712.13   56.19
  -2  -4 -18 1768.92   47.10
   2  -4 -18 1716.23   48.60
   2   4  18 1739.33   56.79
  -2  -4  18 1797.62   56.19
  -2   4 -18 1768.12   54.29
  -4  -4 -18    8.30    3.80
  -4   4  18    1.80    4.80
   4  -4  18   -0.50    4.50
   4   4 -18    2.30    4.30
   4  -4 -18    5.50    4.00
  -4   4 -18    3.50    4.90
  -4  -4  18    1.60    4.70
  -6  -4 -18 1518.85   40.40
   6  -4  18 1658.23   50.59
  -6   4  18 1599.74   54.19
   6   4 -18 1467.25   55.39
   6  -4 -18 1575.04   46.70
  -6  -4  18 1575.24   57.69
  -6   4 -18 1453.15   48.30
  -8  -4 -18  148.99   15.10
  -8  -4 -18  137.89    9.20
  -8   4  18  137.39   13.40
   8   4 -18  115.39   12.80
   8  -4  18  121.69   11.60
  -8  -4  18  147.19   14.20
  -8   4 -18  127.79   12.60
   8  -4 -18  139.19   12.20
  10   4 -18 1140.19   42.20
 -10  -4 -18 1073.69   43.50
 -10  -4 -18 1032.60   31.80
 -10   4  18 1146.09   43.60
 -10   4 -18 1084.99   53.39
 -10  -4  18 1212.08   45.70
  10  -4 -18 1097.19   47.50
 -12   4  18   -2.30    5.20
  12   4 -18   -2.60    5.60
 -12  -4 -18   -7.10    6.40
 -12   4 -18    1.10    5.60
 -12  -4  18    8.70    7.10
 -12   4 -18   -1.60    5.50
  12  -4 -18   -1.60    5.20
  14   4 -18  826.22   36.10
 -14  -4 -18  809.62   37.60
 -14  -4  18  874.51   39.40
  14  -4 -18  843.92   35.30
 -14   4 -18  856.81   33.40
 -14   4 -18  876.71   35.60
  16   4 -18    2.20    7.30
 -16   4  18  -12.30    6.40
 -16  -4  18    1.90    7.50
 -16   4 -18    9.80    8.00
   0   6  18  771.32   40.50
   0  -6  18  973.10   35.90
   2   6 -18    3.10    5.40
   2  -6  18    2.10    4.60
  -2  -6 -18    0.50    3.40
  -2  -6  18    3.70    5.10
  -2  -6  18    2.40    5.30
   4   6 -18 1202.88   44.40
   4  -6  18 1370.76   43.90
  -4   6  18 1265.77   46.70
  -4   6 -18 1262.77   55.29
  -4  -6  18 1273.17   46.70
   4  -6 -18 1251.67   38.30
  -4  -6  18 1264.87   45.60
   6   6 -18   18.90    6.60
  -6  -6 -18   19.20    3.50
  -6   6  18   23.30    7.50
   6  -6  18   14.50    6.70
  -6  -6 -18   20.20    7.90
  -6  -6  18   28.80    8.40
  -6   6 -18   14.60    6.50
   6  -6 -18   16.20    5.50
  -6  -6  18   16.80    7.70
  -8   6  18 1066.39   41.60
   8  -6  18 1099.79   37.20
   8   6 -18 1108.59   42.10
  -8  -6 -18 1043.30   44.00
  -8  -6  18 1097.19   42.80
  -8   6 -18 1165.38   42.60
  -8  -6  18 1121.99   43.30
   8  -6 -18 1106.49   38.10
 -10   6  18    0.10    5.90
  10   6 -18   -1.00    5.50
 -10  -6 -18    1.80    6.90
 -10   6 -18    9.20    6.30
 -10  -6  18    5.60    6.40
 -10  -6  18   12.70    7.20
 -12   6  18  740.33   33.20
  12   6 -18  744.53   33.70
 -12  -6 -18  693.73   34.80
 -12   6 -18  713.73   33.60
 -12  -6  18  746.13   35.80
  12  -6 -18  697.33   30.40
 -12   6 -18  712.63   28.40
  14   6 -18   24.50    8.10
 -14   6  18   20.50    8.00
 -14  -6 -18   11.10    7.80
 -14  -6  18   14.80    7.90
 -14   6 -18   10.00   10.60
  14  -6 -18   23.30    6.80
  16   6 -18  914.51   39.60
 -16   6  18  942.31   39.20
   0  -8  18    3.10    5.50
   0   8 -18   -3.00    5.10
   0  -8  18    1.90    5.50
   0  -8 -18    0.90    3.70
   2  -8  18 1182.88   44.30
   2   8 -18 1166.48   44.00
  -2  -8 -18 1171.58   46.80
   2  -8  18 1223.88   41.40
  -2   8 -18 1178.88   44.10
  -2  -8  18 1155.78   44.50
  -2  -8  18 1167.68   45.10
   2  -8 -18 1160.18   35.90
  -4  -8 -18  -10.10    5.60
  -4   8  18   -5.00    5.70
   4  -8  18    3.30    6.50
   4  -8  18   -0.60    5.60
   4   8 -18    3.00    5.70
   4  -8 -18    2.10    4.70
  -4  -8  18    0.30    5.30
  -4  -8  18    1.10    5.60
  -4   8 -18    3.80    5.70
  -6   8  18 1201.98   44.80
   6   8 -18 1099.79   43.20
  -6  -8 -18 1110.09   45.90
   6  -8  18 1197.48   39.90
  -6  -8  18 1186.38   44.70
  -6  -8  18 1178.28   45.70
   6  -8 -18 1116.69   36.10
  -6   8 -18 1085.49   42.70
  -8  -8 -18   10.80    7.70
   8   8 -18    8.80    6.80
   8  -8  18   17.40    7.10
  -8   8  18   23.00    8.00
  -8  -8  18   26.20    8.00
  -8   8 -18   24.40    8.60
   8  -8 -18   17.30    5.90
  -8  -8  18   12.40    7.20
  10   8 -18 1091.19   43.50
 -10  -8 -18 1092.29   46.20
 -10   8  18 1041.70   41.40
  10  -8 -18 1112.69   38.90
 -10  -8  18 1059.49   43.40
 -10   8 -18 1154.88   51.79
 -10  -8  18 1092.89   43.90
 -12  -8 -18   18.10    8.70
 -12   8  18    7.90    7.60
  12   8 -18   16.20    7.90
 -12  -8  18   15.70    7.10
  12  -8 -18   11.20    7.20
  14   8 -18  792.62   36.00
 -14  -8 -18  812.32   44.70
  14  -8 -18  708.43   32.30
 -14  -8  18  880.91   40.90
   0 -10  18  856.71   37.40
   0  10 -18  874.71   37.80
   0 -10 -18  828.62   38.80
   2 -10  18    5.40    6.40
  -2 -10 -18    0.60    6.80
   2 -10  18    0.90    7.20
   2  10 -18   11.30    7.20
  -2 -10  18   -2.70    5.70
   2 -10 -18    6.80    7.20
  -2  10 -18   -9.30    6.30
  -2 -10  18    7.20    6.70
  -4 -10 -18 1139.29   47.60
   4 -10  18 1083.89   42.90
   4  10 -18 1184.18   45.60
   4 -10 -18 1152.98   34.40
  -4 -10  18 1104.29   42.70
  -4 -10  18 1212.68   46.10
  -4  10 -18 1204.48   46.00
   6 -10  18   24.40    8.50
  -6 -10 -18   14.80    7.60
   6  10 -18    8.30    7.20
   6 -10 -18   20.50    6.80
  -6  10 -18   42.90    9.50
  -6 -10  18   17.20    8.30
  -6 -10  18   28.80    8.60
  -8 -10 -18  684.33   36.00
   8  10 -18  639.34   32.80
  -8 -10  18  806.12   37.00
   8 -10 -18  709.43   27.30
  -8  10 -18  706.33   34.60
  10 -10 -18    1.70    7.00
 -10 -10  18   19.60    8.70
   0 -12  18   12.90    8.20
   0 -12  18    0.80    7.80
   2 -12  18  936.71   40.50
  -2 -12 -18  847.52   40.00
  -2 -12  18  831.62   36.10
   4  12 -18   12.00   10.00
  -4 -12  18   -3.90    7.70
  -4  12 -18   18.40    9.20
  -4 -12  18   20.50    9.20
   6  12 -18  703.13   35.50
  -6 -12 -18  728.33   36.70
  -6  12 -18  710.63   35.60
   6 -12 -18  764.82   36.10
  -6 -12  18  683.13   35.30
  -6 -12  18  792.62   49.60
  -1  -1 -19  632.54   25.30
   1   1 -19  648.94   27.20
  -1   1  19  671.13   30.40
   1  -1  19  575.14   28.20
   1  -1 -19  592.64   25.10
   1   1  19  663.43   30.30
  -1   1 -19  612.84   26.30
  -1  -1  19  626.34   29.20
  -3  -1 -19  824.92   30.30
   3  -1  19 1063.19   40.00
   3   1 -19  902.21   33.70
  -3   1  19 1046.20   40.40
   3  -1 -19  906.51   32.70
   3   1  19 1061.99   40.40
  -3   1 -19  874.61   32.10
  -3  -1  19 1054.19   40.40
   5  -1  19  415.66   22.60
  -5  -1 -19  349.67   17.60
   5   1 -19  329.57   19.30
   5  -1 -19  366.46   19.70
  -5   1 -19  388.86   19.20
   5   1  19  402.46   23.10
  -7   1  19  311.27   22.30
   7  -1  19  348.87   20.60
   7   1 -19  334.87   28.90
  -7  -1 -19  338.27   16.90
   7  -1 -19  329.57   19.00
  -7  -1  19  280.27   19.90
  -7   1 -19  285.47   17.30
  -9   1  19  590.74   29.70
  -9  -1 -19  567.24   29.40
   9   1 -19  605.54   28.10
  -9  -1  19  598.54   30.20
  -9   1 -19  539.75   24.50
   9  -1 -19  556.24   26.40
 -11  -1 -19  464.85   29.60
 -11  -1 -19  471.75   21.20
 -11   1  19  571.04   29.40
  11   1 -19  483.05   25.50
 -11   1 -19  483.35   22.70
 -11  -1  19  519.05   28.70
  11  -1 -19  480.45   24.90
 -13  -1 -19  329.57   22.20
  13   1 -19  306.37   20.40
 -13   1  19  279.57   21.00
 -13  -1 -19  291.87   16.70
  13  -1 -19  290.07   19.90
 -13  -1  19  331.37   22.80
 -13   1 -19  253.47   17.00
 -13   1 -19  286.47   21.00
  15   1 -19  279.17   20.20
 -15  -1 -19  259.87   16.60
 -15  -1 -19  281.27   21.10
 -15  -1  19  272.87   21.20
 -15   1 -19  274.97   18.20
  15  -1 -19  272.97   23.60
 -15   1 -19  256.47   20.20
  17   1 -19  326.77   22.10
  17  -1 -19  278.57   21.00
 -17   1 -19  303.57   22.30
 -17   1 -19  295.67   19.80
  -1   3  19  253.07   27.00
  -1  -3 -19  294.17   15.60
   1  -3  19  275.17   18.40
   1   3 -19  315.47   19.00
  -1  -3  19  274.77   18.60
   1   3  19  264.77   21.20
  -1   3 -19  333.27   19.10
   1  -3 -19  284.97   16.10
   3   3 -19  407.16   21.90
   3  -3  19  381.66   22.00
  -3  -3 -19  385.56   17.80
  -3   3 -19  386.56   20.80
  -3  -3  19  393.56   22.80
   3  -3 -19  398.66   19.50
  -5   3  19  534.15   27.20
   5  -3  19  476.25   24.60
  -5  -3  19  499.55   26.70
   5  -3 -19  454.45   21.70
  -5   3 -19  498.85   24.10
  -7  -3 -19  336.47   16.30
   7  -3  19  344.27   20.30
  -7   3  19  362.66   22.30
   7   3 -19  368.06   21.40
  -7  -3  19  351.96   22.10
   7  -3 -19  357.56   19.50
  -7   3 -19  308.67   19.20
  -9  -3 -19  474.05   26.80
  -9  -3 -19  432.26   25.40
  -9   3  19  426.86   24.90
   9   3 -19  433.76   23.80
  -9   3 -19  412.06   22.30
   9  -3 -19  373.96   24.60
  -9  -3  19  449.36   25.70
 -11  -3 -19  533.35   26.60
 -11   3  19  563.54   29.20
 -11  -3 -19  522.75   29.00
  11   3 -19  448.06   25.60
 -11  -3  19  622.74   31.40
  11  -3 -19  475.75   24.70
 -11   3 -19  497.75   26.00
 -11   3 -19  505.95   25.20
  13   3 -19  399.76   24.00
 -13   3  19  425.16   25.60
 -13  -3 -19  423.16   28.60
 -13   3 -19  395.76   22.60
  13  -3 -19  353.86   22.40
 -13  -3  19  480.75   27.60
 -15  -3 -19  292.97   21.90
  15   3 -19  246.78   19.80
 -15  -3  19  244.18   21.00
 -15   3 -19  268.07   20.50
 -15   3 -19  237.08   18.30
  -1   5  19  722.93   33.60
   1  -5  19  753.12   32.00
   1   5 -19  618.34   28.60
  -1  -5  19  757.62   32.30
   1   5  19  726.93   33.90
  -1   5 -19  603.94   32.90
  -3   5  19  552.44   28.20
   3   5 -19  445.46   24.60
  -3  -5 -19  477.95   18.30
   3  -5  19  582.14   27.00
   3  -5 -19  478.95   20.80
  -3   5 -19  470.15   27.70
   5   5 -19  508.15   26.60
  -5   5  19  623.34   30.40
   5  -5  19  608.94   27.50
  -5  -5  19  619.24   30.20
  -5   5 -19  544.45   26.80
   5  -5 -19  563.14   23.70
  -7  -5 -19  396.96   15.00
  -7  -5 -19  439.56   26.40
  -7   5  19  455.45   25.70
   7  -5  19  426.86   22.40
   7   5 -19  428.46   24.10
   7  -5 -19  415.36   21.20
  -7   5 -19  422.96   23.30
  -7  -5  19  495.95   26.90
   9   5 -19  385.26   23.30
  -9   5  19  441.36   25.40
  -9  -5 -19  362.86   24.40
   9  -5 -19  344.87   29.70
  -9  -5  19  435.96   26.20
  -9   5 -19  371.76   22.00
 -11  -5 -19  226.88   20.10
  11   5 -19  219.88   18.10
 -11   5  19  313.97   21.30
  11  -5 -19  237.48   17.10
 -11  -5  19  268.17   20.80
 -11   5 -19  230.28   17.80
 -11   5 -19  272.87   19.00
  13   5 -19  191.28   16.40
  13  -5 -19  158.28   14.60
 -13   5 -19  154.68   16.30
 -13   5 -19  132.99   14.60
 -13  -5  19  198.48   18.90
 -15   5  19  308.07   22.60
  15   5 -19  273.47   21.10
 -15   5 -19  293.27   21.40
 -15  -5  19  288.47   23.00
   1  -7  19  371.96   21.60
   1   7 -19  314.37   20.60
  -1  -7 -19  300.67   13.60
   1  -7 -19  309.27   15.30
  -1  -7  19  367.96   23.40
  -1   7 -19  326.37   21.30
   3   7 -19  441.46   25.10
  -3   7  19  432.06   25.20
   3  -7  19  431.16   22.90
  -3  -7 -19  438.16   26.70
  -3  -7  19  451.05   24.60
  -3   7 -19  420.16   24.40
  -3  -7  19  419.16   24.70
   3  -7 -19  415.66   19.00
  -5   7  19  537.25   27.90
  -5  -7 -19  462.75   28.10
   5   7 -19  425.96   25.00
   5  -7  19  490.15   24.20
  -5  -7  19  517.95   27.10
   5  -7 -19  495.05   21.60
  -5  -7  19  542.45   28.90
  -5   7 -19  491.15   26.50
   7   7 -19  447.36   25.50
   7  -7  19  398.06   21.30
  -7  -7 -19  430.66   27.30
  -7   7  19  321.17   21.90
  -7   7 -19  433.86   24.90
  -7  -7  19  393.56   24.50
  -7  -7  19  408.46   24.60
   7  -7 -19  427.06   20.80
   9   7 -19  214.08   18.40
  -9  -7 -19  242.68   20.40
  -9   7  19  276.77   21.00
  -9  -7  19  299.87   21.60
  -9  -7  19  275.27   21.10
   9  -7 -19  234.48   16.20
 -11  -7 -19  332.07   24.70
 -11   7  19  443.26   28.50
  11   7 -19  402.06   24.60
 -11   7 -19  349.77   20.70
  11  -7 -19  351.76   20.70
 -11  -7  19  388.26   25.60
  13   7 -19  342.07   26.80
 -13   7  19  353.96   23.70
  13  -7 -19  340.57   21.50
 -13  -7  19  314.87   36.00
  -1  -9 -19  251.37   20.10
   1   9 -19  234.88   18.50
   1  -9  19  289.17   21.90
   1  -9  19  224.78   18.70
   1  -9 -19  235.08   20.20
  -1  -9  19  272.27   20.60
  -1   9 -19  241.48   19.20
  -1  -9  19  261.57   18.70
   3   9 -19  371.86   23.60
   3  -9  19  344.77   21.10
  -3  -9 -19  411.56   26.80
  -3   9 -19  400.76   24.40
  -3  -9  19  367.96   23.90
  -3  -9  19  392.76   23.20
   3  -9 -19  392.06   17.30
   5   9 -19  357.76   23.80
  -5  -9 -19  301.47   24.00
   5  -9  19  384.16   21.00
  -5   9 -19  365.36   23.50
  -5  -9  19  395.46   25.10
   5  -9 -19  330.17   17.10
  -5  -9  19  413.36   25.60
  -7  -9 -19  478.45   29.30
   7   9 -19  403.56   25.90
  -7   9 -19  462.35   26.70
  -7  -9  19  510.35   28.80
   7  -9 -19  402.06   20.40
  -9  -9 -19  252.47   25.00
   9   9 -19  220.48   19.80
  -9   9  19  416.86   25.30
  -9  -9  19  388.26   38.40
  -9   9 -19  325.47   22.10
   9  -9 -19  275.97   18.20
 -11   9  19  232.58   20.60
  11   9 -19  301.77   22.10
 -11  -9 -19  259.27   23.10
  11  -9 -19  240.18   18.20
   1  11 -19  385.76   33.50
   1 -11  19  377.86   22.40
  -1 -11  19  375.06   24.00
  -1 -11  19  387.96   25.30
  -1  11 -19  474.65   37.10
  -3 -11 -19  419.66   28.50
  -3 -11  19  485.25   26.90
   5  11 -19  143.79   17.70
   5 -11  19  198.58   22.70
  -5 -11 -19  169.08   20.70
  -5  11 -19  153.08   17.10
  -5 -11  19  155.28   17.70
   0   0 -20 1617.24   49.70
   0   0  20 1696.63   56.89
   2   0  20   -4.80    9.60
   2   0 -20    3.10    4.80
  -2   0 -20   -3.20    4.20
  -2   0  20   -2.70    4.50
   4   0 -20  384.66   20.90
  -4   0  20  469.45   25.70
   4   0  20  414.86   28.10
  -4   0 -20  366.46   19.30
  -6   0  20   -1.30    5.50
   6   0 -20   -1.80    7.30
   6   0  20    9.70    5.40
  -6   0 -20    0.40    4.40
  -8   0 -20  650.93   26.30
   8   0 -20  631.04   28.90
  -8   0  20  702.93   33.10
 -10   0 -20    6.60    6.90
  10   0 -20   -1.50    4.60
 -10   0  20    0.40    6.50
 -10   0 -20    2.70    5.50
 -12   0  20  685.53   34.10
 -12   0 -20  726.83   34.30
 -12   0 -20  725.13   28.80
 -14   0  20   -3.20    7.00
  14   0 -20    6.80    7.20
 -14   0 -20    6.60    8.10
 -14   0 -20    4.20    7.00
   0  -2 -20    6.80    4.50
   0   2  20   -8.10    4.80
   0   2 -20   10.80    5.60
  -2   2  20  395.26   23.80
   2  -2  20  386.66   25.70
  -2  -2 -20  452.95   20.60
   2   2 -20  443.36   23.20
   2  -2 -20  423.46   21.00
   2   2  20  396.46   23.60
  -2   2 -20  467.65   23.00
  -2  -2  20  415.16   23.50
   4   2 -20    4.80    5.50
   4  -2  20    4.00    6.20
  -4   2  20    6.00    5.90
  -4  -2 -20    0.00    4.30
  -4   2 -20    5.10    4.90
   4  -2 -20    5.30    4.80
   4   2  20    3.70    6.40
  -4  -2  20    7.80    5.70
   6  -2  20  574.14   31.70
   6   2 -20  553.44   27.00
  -6   2  20  608.44   30.00
  -6  -2 -20  565.04   24.40
  -6  -2  20  578.04   29.40
  -6   2 -20  595.34   26.10
   6  -2 -20  549.74   25.30
   8   2 -20   12.60    6.40
  -8  -2 -20   13.90    5.40
  -8   2  20    9.80    6.10
  -8   2 -20   10.50    5.60
   8  -2 -20   22.30    6.10
  -8  -2  20   13.20    7.20
 -10   2  20  328.07   22.30
  10   2 -20  302.97   20.70
 -10  -2 -20  360.56   17.50
 -10  -2 -20  334.77   23.10
  10  -2 -20  314.27   20.10
 -10  -2  20  286.37   21.40
 -12  -2 -20   22.30    6.80
  12   2 -20   15.60    7.20
 -12   2  20   24.30    8.50
 -12   2 -20   18.60    8.80
  12  -2 -20   23.20    7.50
 -12  -2  20   25.20    8.50
 -12   2 -20   25.30    7.60
 -14  -2 -20  422.06   26.70
  14   2 -20  375.56   24.40
 -14   2  20  534.25   38.80
 -14   2 -20  402.56   22.60
 -14  -2  20  470.65   28.20
 -14   2 -20  373.66   23.80
   0  -4  20  778.12   38.20
   0   4 -20  594.54   28.10
   0   4  20  804.22   36.00
   0  -4 -20  613.24   32.20
  -2   4  20    1.10    5.40
   2   4 -20    4.00    5.60
   2  -4  20    4.50    7.50
  -2  -4  20    1.90    4.70
  -2   4 -20    2.20    5.20
   2   4  20   -3.90    5.50
   2  -4 -20    0.30    4.50
   4   4 -20  648.14   30.40
  -4  -4 -20  650.43   23.70
   4  -4  20  715.23   31.30
  -4   4  20  701.83   33.10
  -4  -4  20  724.13   33.40
  -4   4 -20  655.73   29.80
   4  -4 -20  676.73   27.00
  -6   4  20   12.10    7.20
   6   4 -20    9.20    6.20
   6  -4  20   27.30    7.50
   6  -4 -20   19.50    6.90
  -6   4 -20    6.00    5.70
  -6  -4  20    2.40    6.20
  -8  -4 -20  711.43   34.90
  -8   4  20  816.82   36.50
   8  -4  20  808.92   33.50
  -8  -4 -20  739.93   24.00
   8   4 -20  735.93   33.50
   8  -4 -20  722.63   29.80
  -8  -4  20  817.22   37.00
  -8   4 -20  702.53   31.30
 -10   4  20   -6.30    6.30
 -10  -4 -20    1.00    6.80
  10   4 -20    0.70    5.70
 -10  -4  20   -1.80    6.40
  10  -4 -20    6.90    6.00
 -10   4 -20   12.70    6.80
  12   4 -20  372.96   23.90
 -12  -4  20  430.06   27.10
  12  -4 -20  421.56   23.20
 -12   4 -20  384.86   23.70
  14   4 -20   74.19   13.50
 -14  -4  20   75.89   13.70
 -14   4 -20   53.39   11.10
   0  -6 -20    0.40    4.60
   0  -6  20   -7.30    5.10
   0   6 -20   -0.10    5.50
  -2   6  20  505.25   28.10
  -2  -6 -20  488.15   18.90
   2  -6  20  532.25   39.20
   2   6 -20  524.65   27.40
  -2  -6  20  536.85   27.40
   2  -6 -20  513.75   21.40
  -2   6 -20  525.35   27.30
  -4   6  20    2.70    6.30
   4   6 -20    8.10    6.90
   4  -6  20    8.30    6.90
  -4  -6 -20   -2.90    6.30
  -4  -6  20    5.10    6.50
  -4   6 -20    6.80    6.90
   4  -6 -20   -3.60    5.00
  -6  -6 -20  399.16   26.00
   6   6 -20  406.16   24.60
   6  -6  20  363.36   21.70
  -6   6  20  387.66   23.90
  -6   6 -20  391.76   23.30
   6  -6 -20  415.26   20.40
  -6  -6  20  391.96   24.40
   8  -6  20   10.30    7.00
  -8  -6 -20   -5.80    6.80
   8   6 -20   -2.80    5.20
  -8   6  20    4.60    6.70
   8  -6 -20    3.60    6.30
  -8   6 -20    6.90    7.10
  -8  -6  20    8.70    6.80
 -10  -6 -20  363.56   25.70
  10   6 -20  370.26   24.20
 -10  -6  20  370.06   24.70
  10  -6 -20  380.76   21.90
 -12  -6 -20    5.30    9.50
 -12   6 -20   13.70    8.80
  12  -6 -20    0.70    6.80
   0   8 -20  422.76   25.30
   0  -8  20  388.86   24.20
   0  -8  20  424.76   23.40
  -2  -8 -20   20.40    7.60
   2   8 -20  -11.10    5.70
   2  -8  20   11.70    7.70
  -2   8 -20   29.40    7.90
   2  -8 -20    9.70    5.40
  -2  -8  20   -2.00    7.00
  -2  -8  20    7.50    6.60
   4   8 -20  516.55   28.70
  -4  -8 -20  509.55   30.10
   4  -8  20  531.85   34.70
  -4   8 -20  503.65   28.20
   4  -8 -20  538.05   22.10
  -4  -8  20  493.85   28.60
   6  -8  20   24.20   10.30
   6   8 -20   30.20    9.80
  -6  -8 -20   24.30    9.50
  -6   8  20   25.30    8.20
  -6  -8  20   29.20    9.80
   6  -8 -20   29.60    7.30
  -6   8 -20   31.90    8.60
  -8  -8 -20  360.86   25.90
   8  -8  20  418.56   25.90
   8   8 -20  387.66   24.10
  -8  -8  20  418.56   26.90
   8  -8 -20  367.76   20.50
  10   8 -20   17.40    8.20
 -10   8  20   25.60    9.20
 -10  -8 -20   21.00   10.40
 -10  -8  20   19.00   10.90
  10  -8 -20   10.80    8.40
   0  10 -20    2.80    9.80
   0 -10  20   -4.60    7.40
   0 -10  20    2.60    8.00
  -2 -10 -20  341.67   26.40
   2 -10  20  403.46   23.70
  -2 -10  20  409.26   38.30
   2 -10 -20  307.37   23.70
  -2 -10  20  419.76   25.40
   4  10 -20    2.80    8.60
  -4 -10  20   31.50   11.80
  -6 -10 -20  594.54   34.60
   6  10 -20  569.74   31.80
  -6  10 -20  596.34   32.00
  -1   1  21  436.16   25.00
  -1  -1 -21  455.85   21.40
   1  -1  21  400.86   24.30
   1   1 -21  394.56   30.90
   1  -1 -21  426.56   21.50
  -1  -1  21  349.07   22.60
   1   1  21  398.76   23.90
  -1   1 -21  419.26   22.30
  -3  -1 -21  172.28   13.30
  -3   1  21  139.19   15.40
   3  -1  21  151.98   15.20
   3   1 -21  172.58   14.70
  -3   1 -21  168.58   14.10
   3   1  21  150.48   15.40
  -3  -1  21  153.28   14.90
   3  -1 -21  153.88   13.30
   5  -1  21  452.85   25.30
   5   1 -21  409.06   22.40
  -5   1  21  370.66   23.70
  -5  -1 -21  347.47   18.50
   5   1  21  440.76   25.60
  -5  -1  21  432.26   25.80
   5  -1 -21  400.86   21.60
  -5   1 -21  366.76   20.30
   7   1 -21  270.47   19.00
  -7   1  21  265.07   20.70
  -7  -1 -21  305.27   17.10
  -7   1 -21  290.37   17.60
   7  -1 -21  278.27   18.60
  -7  -1  21  302.57   21.60
  -9  -1 -21  229.78   19.80
   9   1 -21  261.37   19.00
  -9  -1 -21  266.27   16.00
  -9   1  21  225.98   18.40
   9  -1 -21  226.38   17.40
  -9   1 -21  275.97   25.40
  -9  -1  21  226.58   18.90
 -11  -1 -21  171.88   13.70
 -11   1  21  131.09   16.00
 -11   1 -21  167.88   17.90
 -11   1 -21  181.58   14.80
  11  -1 -21  171.78   17.10
 -11  -1  21  188.68   18.30
 -13  -1 -21  240.58   15.80
 -13   1  21  240.98   23.10
  13   1 -21  258.37   29.20
 -13  -1 -21  259.07   21.50
 -13   1 -21  222.78   17.20
 -13   1 -21  209.68   20.10
  -1   3  21  257.37   19.50
   1   3 -21  315.47   20.20
  -1  -3 -21  297.07   20.20
   1  -3  21  295.77   20.50
  -1   3 -21  308.77   19.80
   1  -3 -21  357.26   18.40
   1   3  21  288.57   21.30
  -1  -3  21  376.66   22.90
  -3   3  21  214.68   18.30
   3   3 -21  231.98   17.30
   3  -3  21  213.88   17.20
  -3  -3 -21  222.78   14.10
  -3  -3  21  171.88   15.90
   3  -3 -21  217.68   15.40
   3   3  21  228.78   18.40
  -3   3 -21  217.48   15.90
   5   3 -21  162.58   15.00
  -5   3  21  140.99   14.40
   5  -3  21  140.09   14.50
  -5  -3 -21  156.28   12.10
  -5   3 -21  185.78   15.80
  -5  -3  21  118.29   14.20
   5  -3 -21  123.79   13.50
   7  -3  21  242.08   18.20
   7   3 -21  250.07   19.30
  -7  -3 -21  287.37   15.20
  -7   3  21  238.88   19.30
   7  -3 -21  254.57   17.90
  -7  -3  21  273.27   21.10
  -7   3 -21  261.97   18.60
  -9  -3 -21  423.66   27.90
  -9   3  21  442.86   26.90
   9   3 -21  407.26   24.70
  -9  -3 -21  425.36   18.90
  -9   3 -21  486.55   24.70
  -9  -3  21  454.45   26.90
   9  -3 -21  420.26   23.20
 -11   3  21  172.78   18.10
  11   3 -21  174.58   18.50
 -11   3 -21  196.78   17.30
 -11  -3  21  217.98   19.70
  11  -3 -21  201.98   16.40
 -11   3 -21  177.78   17.40
  13   3 -21  143.99   16.10
 -13   3 -21  123.09   17.00
 -13  -3  21  179.28   18.30
   1   5 -21  301.17   20.40
  -1   5  21  291.77   21.00
  -1  -5 -21  332.27   16.90
   1  -5  21  270.17   18.90
   1  -5 -21  323.77   17.30
  -1  -5  21  307.37   21.00
  -1   5 -21  330.87   20.90
   1   5  21  251.27   20.40
   3  -5  21  407.16   23.70
  -3  -5 -21  384.76   16.90
  -3   5  21  345.87   23.10
   3   5 -21  359.56   22.90
   3  -5 -21  366.56   18.80
  -3   5 -21  323.57   21.30
  -3  -5  21  392.96   23.70
   5  -5  21  272.97   19.70
   5   5 -21  333.07   21.90
  -5   5  21  312.37   21.70
  -5  -5  21  263.87   20.20
   5  -5 -21  329.37   18.10
  -5   5 -21  299.87   21.20
  -7   5  21  307.37   22.60
  -7  -5 -21  360.66   25.10
   7   5 -21  352.16   22.70
   7  -5  21  318.27   21.10
   7  -5 -21  330.07   19.00
  -7  -5  21  327.57   22.20
   9   5 -21  247.98   19.50
  -9   5  21  187.58   20.20
  -9  -5 -21  216.08   20.40
   9  -5 -21  232.28   18.00
  -9  -5  21  200.18   18.90
  -9   5 -21  214.48   18.20
 -11  -5 -21  159.58   18.40
 -11   5 -21  145.09   17.40
  11  -5 -21  146.79   15.10
 -11   5 -21  134.39   15.30
   1  -7  21  168.08   15.80
   1   7 -21  108.79   14.20
  -1  -7  21  115.49   14.70
  -1   7 -21  152.48   15.60
   1  -7 -21  150.08   12.00
  -3  -7 -21  232.28   21.20
  -3   7  21  213.58   19.20
   3  -7  21  227.68   17.70
   3   7 -21  270.77   20.10
   3  -7 -21  252.97   15.80
   5  -7  21  134.29   16.30
   5   7 -21  135.49   15.10
  -5  -7 -21  143.49   17.00
  -5   7  21  146.79   15.60
   5  -7 -21  143.49   12.90
  -7  -7 -21  158.88   18.10
   7  -7  21  169.88   16.00
   7   7 -21  140.79   16.50
   7  -7 -21  123.89   13.30
   9   7 -21  190.28   18.40
  -9  -7 -21  195.88   20.60
   9  -7 -21  170.48   16.00
   1  -9  21  238.38   19.60
  -1  -9 -21  203.58   29.80
   1  -9 -21  227.98   24.60
  -1  -9  21  242.78   30.10
  -1  -9  21  175.38   18.10
   3   9 -21  279.67   25.50
  -3   9 -21  359.26   37.40
  -3  -9  21  342.97   26.70
   5   9 -21  329.97   23.00
  -5  -9 -21  328.87   26.00
  -5  -9  21  286.87   22.70
  -5   9 -21  295.87   25.60
   0   0  22    5.10    5.80
   0   0 -22    1.40    5.60
  -2   0  22 1043.50   42.70
   2   0 -22  941.21   36.30
  -2   0 -22 1006.80   48.90
   2   0  22  990.90   41.40
  -4   0 -22    3.70    5.80
   4   0  22   -4.40    6.40
  -4   0  22   -4.80    6.10
   4   0 -22  -10.40    5.50
  -6   0 -22  716.83   30.00
  -6   0  22  694.73   33.90
   6   0 -22  754.72   32.40
  -8   0  22    8.50    6.70
  -8   0 -22    4.80    9.10
 -10   0 -22  669.63   28.50
 -10   0  22  659.03   33.40
 -10   0 -22  681.33   34.20
 -12   0 -22    9.60    8.90
 -12   0 -22   -2.40    7.50
 -12   0  22   -4.30    7.20
   0  -2  22  607.84   30.70
   0  -2 -22  700.43   27.80
   0   2  22  629.94   31.60
   0   2 -22  649.24   29.80
  -2   2  22   44.70    9.30
  -2  -2 -22   43.50    7.80
   2   2 -22   50.79   10.10
   2  -2  22   61.49   11.50
  -2   2 -22   71.09   10.50
  -2  -2  22   22.30    8.50
   2   2  22   45.00   10.20
   2  -2 -22   67.69   11.20
   4   2 -22  779.92   33.90
  -4   2  22  802.82   37.10
  -4  -2 -22  759.92   29.10
   4  -2  22  843.82   36.10
  -4   2 -22  783.12   32.40
   4  -2 -22  749.03   31.10
  -4  -2  22  779.52   36.50
   4   2  22  787.02   37.20
   6  -2  22    4.60    7.20
  -6   2  22    7.10    7.00
   6   2 -22   26.90   10.50
  -6  -2 -22    2.10    5.70
  -6  -2  22    0.40    6.90
   6  -2 -22   11.40    6.30
  -6   2 -22   14.00    7.00
  -8  -2 -22  734.73   28.10
  -8   2  22  764.92   35.50
   8  -2 -22  759.62   32.80
  -8   2 -22  776.22   31.80
  -8  -2  22  698.73   35.50
 -10  -2 -22   25.90    8.50
 -10   2 -22   29.80    9.30
 -10  -2  22   12.20    8.50
 -10   2 -22    8.90    6.80
  10  -2 -22   22.80    7.80
 -12   2  22  505.35   29.70
 -12  -2 -22  545.25   31.80
 -12   2 -22  528.45   27.30
 -12  -2  22  562.14   31.80
   0   4  22   -1.20    5.80
   0   4 -22   -0.80    5.70
   0  -4  22    0.70    7.10
   0  -4 -22   -6.20    5.40
   2  -4  22  637.24   31.40
  -2   4  22  621.64   32.70
  -2  -4 -22  675.83   26.00
   2   4 -22  729.83   45.40
   2  -4 -22  704.13   27.80
   2   4  22  634.14   33.50
  -2   4 -22  658.23   31.00
  -4   4  22    3.70    6.60
   4  -4  22   -0.60    7.00
  -4  -4 -22    2.00    5.80
  -4   4 -22   10.60    6.80
  -4  -4  22   -6.30    6.50
   4  -4 -22  -11.30    9.80
   6  -4  22  483.55   26.70
  -6   4  22  508.55   28.60
  -6  -4 -22  533.45   31.50
  -6   4 -22  555.14   27.50
  -6  -4  22  474.65   28.00
   6  -4 -22  552.24   26.00
  -8  -4 -22   19.80    9.70
   8   4 -22   23.80    8.20
  -8   4  22   26.50    8.90
   8  -4 -22   16.20    7.40
  -8   4 -22    8.30    7.50
  -8  -4  22    9.30    8.70
 -10   4 -22  679.43   31.60
  10  -4 -22  667.23   30.70
 -10  -4  22  666.33   38.60
   0  -6  22  896.61   38.90
   0  -6 -22  899.81   30.20
   2   6 -22    9.10    7.30
   2  -6  22   10.90    7.80
  -2   6  22   10.60    8.30
   2  -6 -22    1.30    6.50
   4  -6  22  806.32   35.00
   4   6 -22  837.32   39.50
  -4  -6 -22  887.51   41.30
   4  -6 -22  846.72   31.40
   6  -6  22   35.60   10.20
   6   6 -22   19.90   14.10
  -6  -6 -22   26.10   11.00
  -6   6  22   31.60    9.40
   6  -6 -22   29.40    8.40
   8   6 -22  587.44   31.40
  -8  -6 -22  629.34   35.00
   8  -6 -22  609.04   28.20
   0  -8  22   12.60    8.30
   2  -8  22  488.55   27.00
  -2  -8 -22  504.35   31.70
   2   8 -22  512.35   29.20
  -2   8 -22  414.36   31.70
  -4  -8 -22   11.90    9.80
   4   8 -22    9.40    9.20
  -1   1  23  553.04   30.40
  -1  -1 -23  540.45   24.60
   1  -1  23  541.45   30.30
   1   1 -23  492.45   25.20
  -1   1 -23  488.05   25.40
   1   1  23  518.75   28.60
   1  -1 -23  443.66   23.90
  -1  -1  23  498.05   29.00
  -3  -1 -23  274.37   17.30
   3   1 -23  242.68   17.80
  -3   1  23  196.98   18.70
  -3   1 -23  221.98   17.40
   3  -1 -23  259.27   18.40
  -3  -1  23  224.48   19.10
  -5   1  23  539.05   30.30
  -5  -1  23  539.15   30.10
  -5   1 -23  561.14   26.40
   5  -1 -23  527.65   26.60
  -7   1  23  520.95   29.90
  -7  -1  23  519.15   29.80
  -7   1 -23  519.95   25.00
   7  -1 -23  495.75   25.60
  -9   1  23  348.57   24.90
  -9  -1 -23  371.86   23.70
  -9   1 -23  396.36   22.40
   9  -1 -23  385.36   23.40
  -9  -1  23  392.56   26.70
  -1   3  23  652.03   33.40
  -1  -3 -23  613.04   26.10
   1   3  23  583.24   31.40
  -1   3 -23  669.93   31.10
   1  -3 -23  581.84   29.40
  -3   3  23  445.36   26.80
  -3  -3 -23  434.66   20.60
  -3   3 -23  361.66   22.60
  -3  -3  23  440.36   26.30
   3  -3 -23  387.26   21.50
  -5  -3 -23  478.15   22.00
  -5   3  23  482.45   29.10
   5  -3 -23  485.75   24.30
  -5  -3  23  484.05   28.60
  -5   3 -23  430.46   24.90
  -7  -3 -23  473.75   28.90
  -7   3 -23  460.95   25.40
   7  -3 -23  507.35   25.80
  -7  -3  23  532.85   43.50
  -9   3  23  438.76   31.20
   9  -3 -23  442.96   24.30
  -9  -3  23  451.15   27.90
  -1   5  23  341.17   25.10
  -1  -5 -23  345.77   19.10
   1  -5 -23  293.37   18.10
   3  -5 -23  400.36   20.90
   5  -5  23  222.98   20.50
  -5  -5 -23  263.37   27.70
   5  -5 -23  282.57   18.40
  -7  -5 -23  325.47   25.80
   7   5 -23  348.77   23.30
   7  -5  23  355.86   32.70
  -7   5 -23  286.87   22.00
  -7  -5  23  366.36   25.50
   7  -5 -23  352.26   20.90
   0   0 -24  530.15   26.50
   0   0  24  583.94   31.50
   2   0 -24    1.80    6.60
  -2   0 -24   -3.50    6.50
  -2   0  24   -4.70    6.60
   4   0 -24  486.55   26.60
  -4   0 -24  509.75   25.30
   4   0  24  561.64   31.00
  -6   0 -24   -5.10    7.20
   6   0 -24    0.00    7.20
  -6   0  24  -10.80    7.70
   0   2 -24   -0.90    6.70
   0  -2 -24    3.30    7.20
   0   2  24   -3.70    8.20
  -2  -2 -24  906.81   34.30
   2   2 -24  961.40   38.10
  -2   2 -24  938.31   37.30
   2   2  24  948.51   46.70
   2  -2 -24  856.51   34.70
  -2  -2  24  977.40   42.70
  -4   2  24   10.00    9.80
  -4  -2 -24   15.70    7.80
  -4   2 -24   -8.10    7.60
   4  -2 -24    1.20   10.60
  -6  -2 -24  945.51   34.20
  -6  -2  24 1025.20   44.60
   0   4  24  791.02   39.10
   0  -4 -24  746.93   29.80
  -2   4  24    9.60    7.70
   2  -4 -24    5.00    7.60
  -2   4 -24   -8.90    7.00
   0   0   0    0.00    0.00

_computing_structure_solution     'SHELXT 2014/5 (Sheldrick, 2014)'
;
_shelx_hkl_checksum   45321

