 
data_OAV-34_auto_b
 
_audit_creation_method            'SHELXL-2018/3'
_shelx_SHELXL_version_number      '2018/3'
_chemical_name_systematic         ?
_chemical_name_common             ?
_chemical_melting_point           ?
_chemical_formula_moiety          ?
_chemical_formula_sum
 'C H Eu N O' 
_chemical_formula_weight          194.99

loop_
 _atom_type_symbol
 _atom_type_description
 _atom_type_scat_dispersion_real
 _atom_type_scat_dispersion_imag
 _atom_type_scat_source
 'C'  'C'   0.0033   0.0016
 'International Tables Vol C Tables 4.2.6.8 and 6.1.1.4'
 'H'  'H'   0.0000   0.0000
 'International Tables Vol C Tables 4.2.6.8 and 6.1.1.4'
 'N'  'N'   0.0061   0.0033
 'International Tables Vol C Tables 4.2.6.8 and 6.1.1.4'
 'O'  'O'   0.0106   0.0060
 'International Tables Vol C Tables 4.2.6.8 and 6.1.1.4'
 'Eu'  'Eu'  -0.1578   3.6682
 'International Tables Vol C Tables 4.2.6.8 and 6.1.1.4'
 
_space_group_crystal_system       monoclinic
_space_group_IT_number            15
_space_group_name_H-M_alt         'I 2/a'
_space_group_name_Hall            '-I 2ya'
 
_shelx_space_group_comment
;
The symmetry employed for this shelxl refinement is uniquely defined
by the following loop, which should always be used as a source of
symmetry information in preference to the above space-group names.
They are only intended as comments.
;
 
loop_
 _space_group_symop_operation_xyz
 'x, y, z'
 '-x+1/2, y, -z'
 'x+1/2, y+1/2, z+1/2'
 '-x+1, y+1/2, -z+1/2'
 '-x, -y, -z'
 'x-1/2, -y, z'
 '-x+1/2, -y+1/2, -z+1/2'
 'x, -y+1/2, z+1/2'
 
_cell_length_a                    12.3348(4)
_cell_length_b                    6.9262(2)
_cell_length_c                    16.6247(5)
_cell_angle_alpha                 90
_cell_angle_beta                  95.439(3)
_cell_angle_gamma                 90
_cell_volume                      1413.91(8)
_cell_formula_units_Z             20
_cell_measurement_temperature     150(2)
_cell_measurement_reflns_used     ?
_cell_measurement_theta_min       ?
_cell_measurement_theta_max       ?
 
_exptl_crystal_description        ?
_exptl_crystal_colour             ?
_exptl_crystal_density_meas       ?
_exptl_crystal_density_method     ?
_exptl_crystal_density_diffrn     4.580          
_exptl_crystal_F_000              1700
_exptl_transmission_factor_min    ?
_exptl_transmission_factor_max    ?
_exptl_crystal_size_max           ?
_exptl_crystal_size_mid           ?
_exptl_crystal_size_min           ?
_exptl_absorpt_coefficient_mu     21.874
_shelx_estimated_absorpt_T_min    ?
_shelx_estimated_absorpt_T_max    ?
_exptl_absorpt_correction_type    ?
_exptl_absorpt_correction_T_min   ?
_exptl_absorpt_correction_T_max   ?
_exptl_absorpt_process_details    ?
_exptl_absorpt_special_details    ?
_diffrn_ambient_temperature       150(2)
_diffrn_radiation_wavelength      0.71073
_diffrn_radiation_type            MoK\a
_diffrn_source                    ?
_diffrn_measurement_device_type   ?
_diffrn_measurement_method        ?
_diffrn_detector_area_resol_mean  ?
_diffrn_reflns_number             10528
_diffrn_reflns_av_unetI/netI      0.0142
_diffrn_reflns_av_R_equivalents   0.0208
_diffrn_reflns_limit_h_min        -16
_diffrn_reflns_limit_h_max        16
_diffrn_reflns_limit_k_min        -9
_diffrn_reflns_limit_k_max        9
_diffrn_reflns_limit_l_min        -22
_diffrn_reflns_limit_l_max        22
_diffrn_reflns_theta_min          2.461
_diffrn_reflns_theta_max          29.113
_diffrn_reflns_theta_full         25.242
_diffrn_measured_fraction_theta_max   0.907
_diffrn_measured_fraction_theta_full  1.000
_diffrn_reflns_Laue_measured_fraction_max    0.907
_diffrn_reflns_Laue_measured_fraction_full   1.000
_diffrn_reflns_point_group_measured_fraction_max   0.907
_diffrn_reflns_point_group_measured_fraction_full  1.000
_reflns_number_total              1736
_reflns_number_gt                 1551
_reflns_threshold_expression      'I > 2\s(I)'
_reflns_Friedel_coverage          0.000
_reflns_Friedel_fraction_max      .
_reflns_Friedel_fraction_full     .
 
_reflns_special_details
;
 Reflections were merged by SHELXL according to the crystal
 class for the calculation of statistics and refinement.
 
 _reflns_Friedel_fraction is defined as the number of unique
 Friedel pairs measured divided by the number that would be
 possible theoretically, ignoring centric projections and
 systematic absences.
;
 
_computing_data_collection        ?
_computing_cell_refinement        ?
_computing_data_reduction         ?
_computing_structure_solution     'SHELXT 2018/2 (Sheldrick, 2018)'
_computing_structure_refinement 'SHELXL-2018/3 (Sheldrick, 2018)'
_computing_molecular_graphics     ?
_computing_publication_material   ?
_refine_special_details           ?
_refine_ls_structure_factor_coef  Fsqd
_refine_ls_matrix_type            full
_refine_ls_weighting_scheme       calc
_refine_ls_weighting_details
'w=1/[\s^2^(Fo^2^)+(0.0476P)^2^+1.1833P] where P=(Fo^2^+2Fc^2^)/3'
_atom_sites_solution_primary      ?
_atom_sites_solution_secondary    ?
_atom_sites_solution_hydrogens    mixed
_refine_ls_hydrogen_treatment     mixed
_refine_ls_extinction_method      none
_refine_ls_extinction_coef        .
_refine_ls_number_reflns          1736
_refine_ls_number_parameters      123
_refine_ls_number_restraints      0
_refine_ls_R_factor_all           0.0390
_refine_ls_R_factor_gt            0.0343
_refine_ls_wR_factor_ref          0.0918
_refine_ls_wR_factor_gt           0.0882
_refine_ls_goodness_of_fit_ref    1.070
_refine_ls_restrained_S_all       1.070
_refine_ls_shift/su_max           0.001
_refine_ls_shift/su_mean          0.000
 
loop_
 _atom_site_label
 _atom_site_type_symbol
 _atom_site_fract_x
 _atom_site_fract_y
 _atom_site_fract_z
 _atom_site_U_iso_or_equiv
 _atom_site_adp_type
 _atom_site_occupancy
 _atom_site_site_symmetry_order  
 _atom_site_calc_flag
 _atom_site_refinement_flags_posn
 _atom_site_refinement_flags_adp
 _atom_site_refinement_flags_occupancy
 _atom_site_disorder_assembly
 _atom_site_disorder_group
O001 O 0.65061(6) 0.55784(13) 0.71997(5) 0.0177(2) Uani 1 1 d . . . . .
H001 H 0.7158(11) 0.506(2) 0.7528(6) 0.027 Uiso 1 1 calc R U . . .
O002 O 0.76967(7) 0.60838(14) 0.62836(5) 0.0218(2) Uani 1 1 d . . . . .
N1 N 0.41852(8) 0.75632(15) 0.55068(6) 0.0164(2) Uani 1 1 d . . . . .
N2 N 0.48129(8) 0.69893(15) 0.61407(6) 0.0156(2) Uani 1 1 d . . . . .
N3 N 0.41665(8) 0.88045(15) 0.28186(6) 0.0165(2) Uani 1 1 d . . . . .
H1 H 0.4250(12) 0.885(2) 0.2293(10) 0.025 Uiso 1 1 d . U . . .
N003 N 0.48145(7) 0.76180(13) 0.48794(5) 0.0127(2) Uani 1 1 d . . . . .
N4 N 0.31838(8) 0.91280(15) 0.30838(6) 0.0167(2) Uani 1 1 d . . . . .
C008 C 0.58371(9) 0.67059(16) 0.59232(6) 0.0131(2) Uani 1 1 d . . . . .
C009 C 0.67751(9) 0.60957(16) 0.64858(6) 0.0136(2) Uani 1 1 d . . . . .
C00A C 0.43621(9) 0.81501(16) 0.40995(6) 0.0129(2) Uani 1 1 d . . . . .
C00B C 0.58460(9) 0.70953(16) 0.51156(7) 0.0140(2) Uani 1 1 d . . . . .
H00B H 0.644339 0.701463 0.479600 0.017 Uiso 1 1 calc R U . . .
C00C C 0.32934(9) 0.87337(17) 0.38713(7) 0.0156(2) Uani 1 1 d . . . . .
H00C H 0.273220 0.883370 0.422292 0.019 Uiso 1 1 calc R U . . .
C00D C 0.48998(9) 0.81930(17) 0.34106(7) 0.0164(2) Uani 1 1 d . . . . .
H00D H 0.563823 0.785814 0.336436 0.020 Uiso 1 1 calc R U . . .
 
loop_
 _atom_site_aniso_label
 _atom_site_aniso_U_11
 _atom_site_aniso_U_22
 _atom_site_aniso_U_33
 _atom_site_aniso_U_23
 _atom_site_aniso_U_13
 _atom_site_aniso_U_12
O001 0.0149(4) 0.0268(4) 0.0113(4) 0.0043(3) 0.0004(3) 0.0035(3)
O002 0.0135(4) 0.0351(5) 0.0169(4) 0.0046(4) 0.0016(3) 0.0021(3)
N1 0.0144(4) 0.0245(5) 0.0104(4) 0.0023(4) 0.0018(3) 0.0023(4)
N2 0.0141(4) 0.0214(5) 0.0110(4) 0.0015(4) 0.0000(3) 0.0015(4)
N3 0.0170(5) 0.0225(5) 0.0100(4) 0.0020(4) 0.0007(4) 0.0003(4)
N003 0.0122(4) 0.0159(4) 0.0097(4) 0.0007(3) 0.0003(3) 0.0005(3)
N4 0.0156(4) 0.0213(5) 0.0129(5) 0.0019(4) -0.0010(4) 0.0016(4)
C008 0.0138(5) 0.0140(5) 0.0113(5) 0.0003(4) 0.0004(4) -0.0002(4)
C009 0.0141(5) 0.0155(5) 0.0110(5) 0.0000(4) 0.0003(4) 0.0006(4)
C00A 0.0137(5) 0.0142(5) 0.0105(5) 0.0009(4) -0.0012(4) -0.0006(4)
C00B 0.0117(5) 0.0174(5) 0.0128(5) 0.0006(4) 0.0003(4) 0.0009(4)
C00C 0.0140(5) 0.0207(6) 0.0118(5) 0.0011(4) -0.0001(4) 0.0018(4)
C00D 0.0154(5) 0.0209(6) 0.0129(5) 0.0022(4) 0.0010(4) 0.0010(4)
 
_geom_special_details
;
 All esds (except the esd in the dihedral angle between two l.s. planes)
 are estimated using the full covariance matrix.  The cell esds are taken
 into account individually in the estimation of esds in distances, angles
 and torsion angles; correlations between esds in cell parameters are only
 used when they are defined by crystal symmetry.  An approximate (isotropic)
 treatment of cell esds is used for estimating esds involving l.s. planes.
;
 
loop_
 _geom_bond_atom_site_label_1
 _geom_bond_atom_site_label_2
 _geom_bond_distance
 _geom_bond_site_symmetry_2
 _geom_bond_publ_flag
O001 C009 1.3120(13) . ?
O002 C009 1.2156(14) . ?
N1 N2 1.3089(13) . ?
N1 N003 1.3585(13) . ?
N2 C008 1.3608(14) . ?
N3 C00D 1.3407(15) . ?
N3 N4 1.3474(14) . ?
N003 C00B 1.3451(14) . ?
N003 C00A 1.4110(14) . ?
N4 C00C 1.3316(15) . ?
C008 C00B 1.3705(15) . ?
C008 C009 1.4789(15) . ?
C00A C00D 1.3772(15) . ?
C00A C00C 1.3965(15) . ?
 
loop_
 _geom_angle_atom_site_label_1
 _geom_angle_atom_site_label_2
 _geom_angle_atom_site_label_3
 _geom_angle
 _geom_angle_site_symmetry_1
 _geom_angle_site_symmetry_3
 _geom_angle_publ_flag
N2 N1 N003 106.81(9) . . ?
N1 N2 C008 108.85(9) . . ?
C00D N3 N4 112.18(10) . . ?
C00B N003 N1 111.21(9) . . ?
C00B N003 C00A 128.26(10) . . ?
N1 N003 C00A 120.52(9) . . ?
C00C N4 N3 106.08(9) . . ?
N2 C008 C00B 109.01(10) . . ?
N2 C008 C009 124.30(10) . . ?
C00B C008 C009 126.69(10) . . ?
O002 C009 O001 124.87(10) . . ?
O002 C009 C008 121.53(10) . . ?
O001 C009 C008 113.60(9) . . ?
C00D C00A C00C 106.52(10) . . ?
C00D C00A N003 126.16(10) . . ?
C00C C00A N003 127.32(10) . . ?
N003 C00B C008 104.11(10) . . ?
N4 C00C C00A 109.38(10) . . ?
N3 C00D C00A 105.82(10) . . ?
 
_refine_diff_density_max    0.283
_refine_diff_density_min   -0.256
_refine_diff_density_rms    0.052

_shelx_res_file
;
TITL OAV-34_auto_b.res in I2/a
    OAV-34_auto_b.res
    created by SHELXL-2018/3 at 16:17:56 on 28-Feb-2023
REM Old TITL OAV-34_auto in I2/a
REM SHELXT solution in I2/a: R1 0.130, Rweak 0.025, Alpha 0.014
REM <I/s>   0.840 for  125 systematic absences,  Orientation as input
REM Formula found by SHELXT:  C10 N O2
CELL  0.71073  12.3348   6.9262  16.6247   90.000   95.439   90.000
ZERR   20.000   0.0004   0.0002   0.0005    0.000    0.003    0.000
LATT  2
SYMM 1/2-X, Y, -Z
SFAC C H N O EU
UNIT 20.00 20.00 20.00 20.00 20.00
ACTA
TEMP -123
L.S. 10
BOND
LIST 6
FMAP 2
PLAN 20
WGHT    0.047600    1.183300
FVAR       0.36377
O001  4    0.650611    0.557838    0.719967    11.00000    0.01487    0.02680 =
         0.01132    0.00428    0.00036    0.00348
AFIX 148
H001  2    0.715844    0.506314    0.752786    11.00000   -1.50000
AFIX   0
O002  4    0.769665    0.608377    0.628358    11.00000    0.01348    0.03511 =
         0.01694    0.00458    0.00164    0.00207
N1    3    0.418523    0.756324    0.550685    11.00000    0.01440    0.02450 =
         0.01040    0.00232    0.00179    0.00233
N2    3    0.481294    0.698931    0.614069    11.00000    0.01409    0.02136 =
         0.01104    0.00153   -0.00005    0.00153
N3    3    0.416649    0.880454    0.281856    11.00000    0.01697    0.02246 =
         0.01001    0.00203    0.00074    0.00034
H1    2    0.425004    0.884592    0.229293    11.00000   -1.50000
N003  3    0.481452    0.761796    0.487940    11.00000    0.01223    0.01594 =
         0.00975    0.00067    0.00032    0.00051
N4    3    0.318375    0.912804    0.308383    11.00000    0.01558    0.02130 =
         0.01291    0.00193   -0.00101    0.00162
C008  1    0.583714    0.670593    0.592317    11.00000    0.01377    0.01399 =
         0.01134    0.00033    0.00040   -0.00015
C009  1    0.677512    0.609567    0.648584    11.00000    0.01415    0.01554 =
         0.01103    0.00002    0.00034    0.00064
C00A  1    0.436208    0.815014    0.409955    11.00000    0.01374    0.01419 =
         0.01046    0.00095   -0.00116   -0.00060
C00B  1    0.584603    0.709531    0.511557    11.00000    0.01169    0.01738 =
         0.01279    0.00055    0.00025    0.00093
AFIX  43
H00B  2    0.644339    0.701463    0.479600    11.00000   -1.20000
AFIX   0
C00C  1    0.329342    0.873368    0.387127    11.00000    0.01396    0.02072 =
         0.01177    0.00111   -0.00012    0.00183
AFIX  43
H00C  2    0.273220    0.883370    0.422292    11.00000   -1.20000
AFIX   0
C00D  1    0.489984    0.819295    0.341059    11.00000    0.01536    0.02091 =
         0.01286    0.00218    0.00098    0.00102
AFIX  43
H00D  2    0.563823    0.785814    0.336436    11.00000   -1.20000
REM #####
AFIX   0
HKLF 4




REM  OAV-34_auto_b.res in I2/a
REM wR2 = 0.0918, GooF = S = 1.070, Restrained GooF = 1.070 for all data
REM R1 = 0.0343 for 1551 Fo > 4sig(Fo) and 0.0390 for all 1736 data
REM 123 parameters refined using 0 restraints

END

WGHT      0.0477      1.1836

REM Highest difference peak  0.283,  deepest hole -0.256,  1-sigma level  0.052
Q1    1   0.3849  0.8307  0.4027  11.00000  0.05    0.28
Q2    1   0.6289  0.6461  0.6183  11.00000  0.05    0.28
Q3    1   0.4751  0.8428  0.3841  11.00000  0.05    0.26
Q4    1   0.4654  0.7696  0.3765  11.00000  0.05    0.24
Q5    1   0.5980  0.7239  0.5573  11.00000  0.05    0.24
Q6    1   0.5887  0.6477  0.5499  11.00000  0.05    0.22
Q7    1   0.5370  0.7463  0.4982  11.00000  0.05    0.20
Q8    1   0.3232  0.8817  0.3461  11.00000  0.05    0.19
Q9    1   0.4607  0.7924  0.4478  11.00000  0.05    0.19
Q10   1   0.2673  0.9304  0.2810  11.00000  0.05    0.19
Q11   1   0.4618  0.6752  0.6571  11.00000  0.05    0.18
Q12   1   0.4558  0.8245  0.3089  11.00000  0.05    0.18
Q13   1   0.5423  0.7030  0.6080  11.00000  0.05    0.17
Q14   1   0.4762  0.7406  0.6566  11.00000  0.05    0.17
Q15   1   0.3612  0.6941  0.5379  11.00000  0.05    0.15
Q16   1   0.6206  0.6787  0.4542  11.00000  0.05    0.15
Q17   1   0.2864  0.6464  0.5600  11.00000  0.05    0.14
Q18   1   0.5461  0.7483  0.3096  11.00000  0.05    0.14
Q19   1   0.2611  0.9394  0.4034  11.00000  0.05    0.12
Q20   1   0.7863  0.6846  0.5909  11.00000  0.05    0.12
;
_shelx_res_checksum   14732

_shelx_hkl_file
;
   0   0  -2    2.47    0.23
   0   0   2    1.93    0.22
   0   0   2    2.55    0.28
   0   0  -2    2.09    0.24
   0   0  -2    2.50    0.23
   0   0   2    2.28    0.23
   0   0  -4  522.23    6.69
   0   0   4  491.25    6.63
   0   0  -4  494.10    6.64
   0   0   4  510.46    6.66
   0   0  -4  493.16    6.93
   0   0   4  507.11    6.99
   0   0  -6    2.53    0.45
   0   0   6    1.59    0.39
   0   0  -6    1.70    0.36
   0   0   6    2.05    0.52
   0   0  -6    2.38    0.47
   0   0   6    1.81    0.43
   0   0   8  732.12   10.35
   0   0  -8  740.89   10.34
   0   0  -8  720.48   10.32
   0   0   8  728.58   10.35
   0   0   8  715.62   10.88
   0   0  -8  735.26   10.97
   0   0 -10  551.34    7.48
   0   0  10  571.36    9.15
   0   0 -10  583.92    9.14
   0   0  10  568.09    9.14
   0   0 -10  563.61    9.12
   0   0 -10  595.00    9.92
   0   0  10  559.87    9.74
   0   0 -12  112.32    2.40
   0   0  12  105.15    3.53
   0   0  12  115.18    3.86
   0   0 -12  107.81    3.52
   0   0  12  109.97    3.55
   0   0 -12  106.36    3.32
   0   0 -12  113.28    3.61
   0   0 -12  112.90    4.01
   0   0 -14   87.42    2.07
   0   0  14   82.61    3.57
   0   0  14   80.75    3.27
   0   0 -14   87.32    3.39
   0   0  14   86.23    3.38
   0   0 -14   77.74    3.03
   0   0 -14   89.43    3.42
   0   0 -14   84.97    2.04
   0   0 -16   65.22    3.47
   0   0 -16   62.55    1.56
   0   0  16   57.39    3.21
   0   0 -16   54.13    2.89
   0   0 -16   58.54    2.77
   0   0  16   61.02    3.05
   0   0 -16   62.23    1.57
   0   0 -18  135.58    5.56
   0   0  18  141.10    5.08
   0   0 -18  149.33    5.16
   0   0  18  145.44    5.57
   0   0 -20   13.58    1.95
   0   0  20   19.63    2.16
   0   0 -20   17.95    1.90
   0   0  20   18.32    1.94
   0  -1  -1   75.63    1.49
   0   1   1   75.41    1.49
   0   1  -1   78.35    1.61
   0  -1  -1   77.36    1.27
   0  -1   1   71.73    1.58
   0  -1  -1   77.88    1.64
   0  -1   1   72.30    1.38
   0   1   1   75.42    1.61
   0   1  -1   76.39    1.40
   0   1   1   74.05    1.43
   0  -1  -1   76.87    1.43
   0   1   3    3.60    0.39
   0  -1  -3    3.73    0.42
   0  -1  -3    3.61    0.43
   0  -1   3    4.67    0.52
   0   1  -3    4.96    0.55
   0   1   3    4.95    0.58
   0  -1  -3    4.05    0.37
   0  -1  -3    3.55    0.45
   0  -1   3    4.02    0.30
   0   1  -3    4.74    0.31
   0  -1  -3    4.70    0.45
   0   1   3    4.31    0.44
   0  -1   3    4.09    0.52
   0  -1  -5  134.41    2.96
   0  -1   5  138.26    1.95
   0   1  -5  137.92    3.14
   0   1   5  140.68    3.09
   0  -1  -5  133.64    3.01
   0  -1  -5  137.79    2.44
   0  -1   5  141.68    3.17
   0   1   5  133.46    2.69
   0  -1  -5  138.00    2.68
   0  -1   5  140.53    3.11
   0   1  -5  135.56    3.07
   0  -1  -5  136.51    3.03
   0   1   5  137.93    3.07
   0   1  -5  139.42    3.09
   0  -1  -5  133.85    3.00
   0  -1  -7  216.89    4.46
   0   1  -7  222.55    4.64
   0   1   7  222.23    4.56
   0  -1  -7  217.64    3.81
   0  -1   7  220.11    4.61
   0   1   7  212.94    3.80
   0  -1  -7  217.07    4.43
   0  -1   7  217.58    4.55
   0   1   7  218.57    4.08
   0  -1  -7  211.75    4.06
   0   1  -7  216.69    4.54
   0   1  -7  216.45    4.65
   0   1   7  223.12    4.61
   0  -1  -7  215.35    4.58
   0  -1  -9  121.72    3.50
   0  -1   9  113.78    3.45
   0   1   9  113.97    3.44
   0   1  -9  122.78    3.55
   0   1   9  122.63    2.98
   0  -1  -9  120.71    2.95
   0  -1   9  114.24    3.40
   0   1   9  111.37    3.05
   0  -1  -9  118.70    3.38
   0  -1  -9  115.75    3.07
   0   1  -9  118.73    3.46
   0   1  -9  124.61    3.71
   0   1   9  119.79    3.61
   0  -1  -9  119.97    3.61
   0  -1 -11  294.20    6.46
   0  -1  11  282.86    6.45
   0   1  11  287.97    5.60
   0  -1 -11  297.31    5.65
   0   1  11  289.15    6.42
   0   1 -11  296.60    6.46
   0  -1  11  284.05    6.28
   0   1  11  294.60    5.87
   0   1 -11  295.16    6.39
   0  -1 -11  289.14    6.17
   0  -1 -11  288.92    5.86
   0   1 -11  310.00    6.84
   0   1  11  293.12    6.64
   0  -1 -11  309.78    6.76
   0  -1 -13   64.06    3.00
   0   1 -13   61.20    2.92
   0   1  13   64.85    3.01
   0  -1  13   63.08    2.97
   0   1  13   61.10    2.51
   0  -1 -13   62.25    2.51
   0   1 -13   66.08    2.97
   0  -1  13   61.42    2.87
   0  -1 -13   62.28    2.63
   0   1  13   60.96    2.62
   0  -1 -13   64.55    2.83
   0   1  13   63.11    3.09
   0  -1 -15    3.18    0.58
   0  -1 -15    3.40    0.84
   0   1  15    2.37    0.66
   0  -1 -15    1.84    0.56
   0   1  15    1.70    0.71
   0   1 -15    2.46    0.72
   0  -1 -15    1.75    0.61
   0   1  15    2.72    0.72
   0   1 -15    1.80    0.58
   0  -1 -15    2.52    0.64
   0  -1  15    3.64    0.89
   0  -1 -17    0.10    0.57
   0  -1 -17    0.62    0.42
   0   1 -17    1.27    0.72
   0  -1 -17    0.24    0.48
   0   1  17    1.25    0.76
   0   1  17    0.47    0.47
   0   1 -17    0.41    0.43
   0  -1  17    0.72    0.65
   0  -1 -19    2.17    0.97
   0   1  19    1.02    0.87
   0  -1  19    5.14    1.24
   0   1 -19    1.46    0.74
   0  -1 -19    2.21    0.74
   0   1  19    2.40    0.81
   0  -1  19    3.87    1.03
   0  -1 -21   -1.00    0.83
   0  -1  21    0.28    0.71
   0  -1  21   -0.89    0.81
   0   1 -21    0.10    0.81
   0   1  21    0.33    0.78
   0  -2   0 2497.36   28.20
   0   2   0 2454.24   28.14
   0  -2   0 2496.50   27.92
   0   2   0 2470.69   27.95
   0   2   0 2538.39   28.23
   0  -2   0 2488.16   28.18
   0  -2  -2 3816.92   41.71
   0   2   2 3753.78   41.69
   0   2  -2 3788.18   42.06
   0  -2   2 3743.49   42.06
   0  -2  -2 3687.23   40.92
   0   2   2 3837.37   42.22
   0   2  -2 3781.21   41.36
   0  -2   2 3727.47   41.33
   0  -2  -2 3777.62   42.18
   0   2   2 3789.77   41.45
   0  -2   2 3822.75   41.70
   0  -2  -4   16.88    0.97
   0   2   4   18.62    0.99
   0   2  -4   17.64    1.15
   0  -2   4   17.07    1.11
   0   2   4   16.54    1.14
   0  -2  -4   18.89    1.16
   0   2  -4   18.96    0.82
   0   2   4   17.88    1.00
   0  -2  -4   18.79    1.00
   0  -2   4   18.40    0.86
   0   2   6   57.90    2.05
   0  -2  -6   59.03    2.07
   0   2  -6   60.55    2.33
   0  -2  -6   56.59    1.41
   0  -2   6   62.45    2.37
   0  -2  -6   59.30    2.21
   0   2  -6   56.79    1.56
   0  -2  -6   61.77    1.91
   0  -2   6   56.47    2.25
   0  -2  -6   58.26    2.25
   0  -2  -6   58.73    2.09
   0  -2   6   56.21    1.45
   0   2   6   60.98    2.14
   0  -2  -8  113.39    3.25
   0  -2   8  114.59    2.00
   0   2  -8  110.57    3.54
   0  -2  -8  109.09    3.39
   0  -2   8  111.63    3.56
   0  -2  -8  113.29    2.43
   0  -2  -8  113.67    2.91
   0  -2  -8  110.40    3.46
   0  -2   8  112.52    3.52
   0  -2  -8  111.17    3.36
   0   2   8  111.17    3.35
   0   2  -8  112.41    3.45
   0  -2 -10   23.18    1.56
   0  -2  10   21.41    1.69
   0  -2 -10   23.55    1.17
   0   2 -10   24.26    1.76
   0  -2 -10   24.16    1.42
   0  -2 -10   25.04    1.71
   0  -2  10   21.93    1.62
   0   2 -10   21.33    1.61
   0   2  10   21.36    1.59
   0  -2 -10   21.84    1.60
   0  -2 -12  151.02    4.59
   0  -2  12  155.32    4.91
   0  -2 -12  153.11    3.63
   0   2 -12  147.84    4.76
   0  -2 -12  153.53    4.69
   0  -2  12  154.87    4.81
   0  -2 -12  151.14    4.07
   0   2  12  149.62    4.75
   0  -2 -12  156.76    4.84
   0  -2 -14   29.25    2.11
   0   2 -14   23.91    2.02
   0  -2 -14   28.34    1.61
   0  -2 -14   27.19    1.79
   0  -2  14   25.86    2.06
   0   2  14   27.28    1.78
   0   2  14   27.38    2.17
   0  -2 -16    2.21    0.63
   0  -2 -16    0.90    0.63
   0  -2 -16    1.60    0.54
   0   2 -16    2.08    0.77
   0   2  16    0.50    0.46
   0   2 -16    1.69    0.51
   0  -2 -16    0.57    0.52
   0   2  16    2.27    0.83
   0  -2  16    0.95    0.58
   0  -2 -18   36.78    2.80
   0  -2  18   31.93    2.60
   0  -2 -18   34.69    2.07
   0   2 -18   36.51    2.84
   0  -2 -20   59.95    3.79
   0   2 -20   53.84    3.65
   0  -2  20   59.69    3.79
   0  -2  22    2.02    1.09
   0  -3  -1   16.63    1.09
   0   3  -1   16.57    1.09
   0   3   1   18.19    1.10
   0  -3  -1   19.07    1.00
   0   3  -1   16.90    1.06
   0  -3   1   17.32    1.08
   0   3   1   16.87    0.94
   0   3   1   16.15    1.13
   0  -3   1   18.00    1.09
   0  -3  -1   16.34    1.12
   0   3  -1   16.94    1.06
   0   3   3   87.69    2.55
   0  -3  -3   92.10    2.63
   0   3  -3   87.62    2.76
   0  -3  -3   89.26    2.08
   0  -3   3   85.45    2.75
   0   3  -3   93.40    2.85
   0  -3  -3   90.61    2.88
   0   3   3   92.84    2.90
   0   3  -3   86.06    2.33
   0  -3   3   84.33    2.30
   0   3   3   88.24    2.42
   0  -3   3   91.14    2.60
   0  -3  -5  203.11    4.37
   0   3   5  189.09    4.25
   0  -3  -5  200.66    3.26
   0  -3   5  201.63    4.83
   0   3  -5  205.02    4.84
   0   3   5  200.83    4.83
   0   3  -5  199.37    3.74
   0  -3  -5  202.65    4.86
   0  -3  -5  197.80    4.29
   0  -3   5  202.22    4.01
   0   3   5  192.70    4.20
   0  -3  -7  278.01    5.63
   0   3   7  270.12    5.55
   0  -3  -7  271.73    4.08
   0  -3   7  276.61    6.27
   0  -3  -7  272.62    6.00
   0   3  -7  275.50    6.22
   0  -3   7  278.31    6.22
   0  -3  -7  274.42    6.18
   0   3  -7  274.40    4.62
   0  -3  -7  268.99    5.23
   0   3   7  273.98    5.64
   0  -3  -7  273.86    5.66
   0  -3   7  271.14    4.71
   0  -3  -9    8.15    0.97
   0   3   9    6.17    0.86
   0  -3   9    7.74    1.08
   0  -3  -9    7.80    1.02
   0  -3  -9    6.69    0.53
   0   3  -9    8.49    1.15
   0   3  -9    8.86    0.72
   0  -3  -9    7.90    1.06
   0  -3  -9    8.15    0.84
   0  -3   9    7.86    0.61
   0  -3   9    7.98    1.08
   0  -3  -9    7.12    0.90
   0   3   9    8.77    1.02
   0   3  -9    7.40    0.97
   0  -3 -11    5.08    0.81
   0  -3  11    6.21    0.42
   0   3 -11    7.46    1.14
   0  -3 -11    7.60    1.10
   0  -3 -11    6.00    0.56
   0   3 -11    6.82    0.67
   0  -3 -11    6.71    0.99
   0  -3  11    5.60    1.03
   0  -3 -11    6.01    0.83
   0   3 -11    7.77    1.10
   0   3  11    6.60    1.01
   0  -3 -13   38.15    2.38
   0  -3 -13   40.40    1.63
   0   3 -13   37.81    2.62
   0  -3 -13   39.97    2.11
   0   3 -13   41.17    1.68
   0  -3  13   43.62    2.74
   0   3  13   39.41    2.54
   0  -3 -15   25.67    2.15
   0  -3 -15   29.27    1.51
   0   3 -15   28.78    2.45
   0   3 -15   32.88    1.58
   0  -3  15   29.44    2.41
   0  -3 -15   28.10    1.90
   0   3  15   31.05    2.42
   0  -3 -15   32.25    2.14
   0   3 -17    4.43    1.13
   0  -3 -17    5.24    0.98
   0  -3 -17    4.13    1.06
   0   3  17    6.08    1.27
   0  -3  17    5.57    1.28
   0   3 -19   19.58    2.25
   0  -3 -19   22.83    2.33
   0  -3  19   22.11    2.38
   0   4   0  256.28    5.46
   0  -4   0  265.51    5.53
   0  -4   0  252.41    5.15
   0   4   0  257.86    5.15
   0   4   0  257.72    5.46
   0  -4   0  259.45    5.50
   0   4   2  800.16   11.71
   0  -4  -2  795.83   11.72
   0   4  -2  781.43   11.93
   0  -4   2  792.73   11.84
   0  -4  -2  786.11   10.85
   0   4  -2  797.45   11.88
   0  -4   2  777.57   11.41
   0   4   2  788.17   12.11
   0  -4  -2  807.07   12.20
   0   4  -2  789.52   11.46
   0   4   2  797.41   11.09
   0  -4   2  780.06   11.92
   0   4   4  743.96   11.37
   0  -4  -4  751.78   11.35
   0   4  -4  763.77   11.96
   0  -4   4  754.40   11.95
   0   4  -4  763.66   11.98
   0  -4  -4  749.40   10.00
   0  -4  -4  753.17   12.09
   0   4   4  757.20   12.12
   0   4  -4  747.89   10.77
   0  -4   4  750.69   10.80
   0   4   4  757.28   10.93
   0  -4   4  764.07   11.38
   0  -4  -6   37.04    1.94
   0   4   6   38.65    1.97
   0  -4  -6   37.76    1.29
   0   4  -6   39.12    2.25
   0  -4   6   38.15    2.22
   0  -4   6   42.83    2.38
   0  -4  -6   39.98    2.28
   0   4  -6   38.77    1.66
   0   4   6   36.67    1.86
   0  -4   6   39.03    1.83
   0   4   8   19.11    1.48
   0  -4  -8   21.67    1.57
   0   4  -8   17.42    1.61
   0  -4  -8   18.42    0.83
   0  -4  -8   19.44    0.84
   0  -4  -8   19.36    1.62
   0  -4   8   16.51    1.62
   0   4  -8   18.66    1.13
   0  -4  -8   18.73    1.36
   0  -4   8   19.02    1.18
   0  -4  -8   20.14    1.53
   0   4   8   16.45    1.36
   0   4  10    4.59    0.83
   0  -4  10    3.99    0.54
   0  -4 -10    4.47    0.82
   0  -4 -10    4.39    0.38
   0   4 -10    4.52    0.95
   0  -4 -10    4.60    0.41
   0  -4 -10    3.77    0.68
   0   4 -10    3.91    0.55
   0   4  10    9.26    1.14
   0   4 -10    4.06    0.83
   0  -4 -10    6.23    0.94
   0  -4  10    3.61    0.86
   0  -4  12   52.34    1.61
   0  -4 -12   53.39    2.81
   0  -4 -12   57.93    1.51
   0   4 -12   55.96    3.28
   0   4 -12   53.42    1.95
   0  -4  12   52.70    3.18
   0  -4 -12   53.98    2.49
   0   4  12   51.78    2.85
   0  -4 -14    7.52    1.24
   0  -4 -14    5.22    1.03
   0   4 -14    6.50    1.31
   0   4 -14    5.86    0.66
   0  -4  14    5.39    1.22
   0   4  14    8.02    1.30
   0  -4 -14    6.94    1.06
   0  -4 -16   31.55    2.50
   0   4 -16   32.27    2.84
   0  -4  16   33.14    2.82
   0   4  16   32.15    2.62
   0  -4 -16   31.36    2.40
   0   4 -18   21.30    2.48
   0  -4 -18   17.83    1.91
   0  -4 -18   15.18    1.89
   0  -4  18   17.23    2.21
   0   4  18   15.53    1.98
   0  -4 -20    7.90    1.46
   0  -5   1    0.90    0.44
   0  -5  -1    1.34    0.63
   0   5  -1    0.04    0.36
   0  -5   1   -0.60    0.45
   0  -5  -1    0.09    0.43
   0   5  -1    1.10    0.49
   0   5   1    0.71    0.34
   0  -5  -1    0.62    0.42
   0   5   1    2.16    0.67
   0  -5  -1    1.83    0.59
   0   5  -1    0.98    0.54
   0  -5   1    0.61    0.38
   0   5   1    1.10    0.41
   0   5   3   19.36    1.53
   0   5  -3   15.85    1.45
   0  -5  -3   16.71    1.41
   0  -5  -3   18.42    1.20
   0   5  -3   17.51    1.50
   0  -5   3   19.06    1.54
   0  -5   3   18.65    1.39
   0   5   3   17.48    1.60
   0  -5  -3   17.29    1.54
   0   5  -3   20.66    1.49
   0   5   3   19.99    1.36
   0  -5   3   18.77    1.54
   0   5   5   35.50    2.04
   0  -5  -5   32.61    1.98
   0   5  -5   32.46    2.16
   0   5  -5   32.21    2.16
   0  -5   5   37.12    2.29
   0  -5  -5   35.20    1.52
   0  -5   5   35.54    1.85
   0   5  -5   35.39    1.86
   0   5   5   35.52    2.33
   0  -5   5   35.78    2.04
   0   5   5   33.84    1.86
   0  -5  -7  105.20    3.76
   0   5   7  108.26    3.75
   0  -5  -7  112.81    2.57
   0   5  -7  107.82    4.27
   0   5  -7  106.10    3.21
   0  -5   7  105.80    4.29
   0   5   7  107.46    3.62
   0  -5   7  111.25    3.58
   0   5   9  180.33    5.31
   0  -5  -9  182.73    5.35
   0   5  -9  189.45    6.10
   0  -5  -9  204.26    3.23
   0  -5  -9  200.28    3.23
   0   5  -9  200.76    4.50
   0  -5   9  189.73    6.19
   0  -5  -9  191.72    5.16
   0   5   9  190.78    5.35
   0  -5   9  194.53    4.76
   0  -5 -11   70.75    3.33
   0   5 -11   70.48    3.80
   0   5 -11   75.49    2.48
   0  -5 -11   73.60    3.08
   0  -5  11   66.28    3.73
   0   5  11   69.67    3.31
   0  -5  11   75.90    2.61
   0  -5 -13  146.95    5.18
   0   5 -13  147.59    5.94
   0  -5  13  145.07    5.89
   0  -5 -13  138.63    5.41
   0   5  13  150.38    5.31
   0   5 -15   -0.22    0.83
   0  -5 -15    0.31    0.76
   0   5  15    0.80    0.77
   0  -5  15   -0.95    0.98
   0  -5 -17   35.47    2.88
   0  -5 -17   36.34    2.96
   0   5  17   38.87    3.04
   0  -5 -19    6.94    1.60
   0   6   0   95.35    3.79
   0  -6   0   90.90    3.42
   0   6   0   96.39    3.83
   0  -6   0   96.95    4.10
   0   6   0   98.69    3.33
   0  -6   2    2.50    0.80
   0  -6  -2    1.28    0.72
   0   6  -2    3.20    0.77
   0  -6  -2    1.83    0.54
   0  -6   2    2.93    0.75
   0   6   2    2.56    0.64
   0  -6  -2    2.70    0.72
   0   6   2    2.61    0.81
   0   6  -2    3.02    0.77
   0  -6   2    2.36    0.55
   0   6   2    2.69    0.62
   0   6   4  169.82    5.10
   0  -6  -4  159.45    5.00
   0  -6  -4  161.85    4.09
   0   6  -4  162.99    5.29
   0   6   4  151.72    5.33
   0  -6   4  161.63    4.73
   0   6  -4  167.33    4.82
   0   6   4  167.55    4.60
   0  -6   4  171.63    5.32
   0  -6  -4  171.51    5.79
   0  -6  -6   96.61    3.83
   0  -6  -6   97.29    2.77
   0   6  -6   97.61    4.25
   0   6  -6   98.53    3.49
   0  -6   6   99.05    4.42
   0  -6  -6   96.03    4.40
   0  -6   6  103.64    3.91
   0   6   6   99.79    3.60
   0  -6   8    0.35    0.44
   0  -6  -8    0.27    0.65
   0   6  -8    0.23    0.62
   0  -6  -8    1.20    0.68
   0   6  -8    0.77    0.43
   0  -6   8   -0.27    0.75
   0   6   8    0.38    0.42
   0  -6  10    7.07    0.96
   0  -6 -10    8.41    1.50
   0  -6 -10    7.26    1.14
   0   6 -10    8.85    1.56
   0   6 -10    7.04    0.92
   0  -6  10    6.64    1.35
   0   6  10    5.61    1.04
   0  -6 -12  110.28    4.58
   0   6 -12  124.13    5.63
   0  -6  12  115.68    5.46
   0   6  12  106.98    4.49
   0  -6 -12  119.69    5.35
   0  -6 -14   19.74    2.29
   0  -6 -14   25.30    2.31
   0   6 -14   28.55    2.81
   0  -6  14   28.29    2.82
   0   6  14   27.74    2.45
   0  -6 -16   76.97    4.19
   0   6  16   72.56    4.15
   0  -6 -16   79.28    4.55
   0  -7  -1    4.60    1.15
   0  -7   1    3.71    1.07
   0  -7  -1    2.95    0.75
   0   7  -1    4.15    0.97
   0   7   1    4.32    1.08
   0   7  -1    3.84    0.82
   0   7   1    3.33    0.73
   0  -7   3    0.19    0.53
   0  -7  -3    0.77    0.63
   0   7  -3    0.32    0.52
   0  -7  -3    0.01    0.40
   0   7  -3    0.95    0.56
   0   7   3   -0.12    0.85
   0   7   3    1.10    0.54
   0  -7  -5   -0.15    0.90
   0  -7   5    0.94    0.56
   0  -7  -5    0.14    0.55
   0   7  -5    1.43    0.79
   0   7  -5   -0.13    0.53
   0   7   5    0.21    0.47
   0  -7  -7    0.99    0.74
   0  -7   7   -0.14    0.52
   0   7  -7    0.27    0.78
   0  -7  -7    0.54    0.54
   0   7  -7   -0.14    0.45
   0  -7   7    0.40    0.71
   0   7   7    0.90    0.47
   0  -7  -9  116.17    4.76
   0   7  -9  122.46    5.53
   0  -7   9  127.09    5.76
   0  -7   9  123.49    4.59
   0   7   9  115.20    4.45
   0  -7  -9  129.44    5.80
   0  -7 -11   28.75    2.46
   0   7 -11   33.70    3.02
   0  -7  11   32.13    2.98
   0   7  11   31.37    2.44
   0  -7 -11   37.61    3.21
   0  -7 -13    0.23    0.76
   0   7  13   -0.95    0.76
   0  -8   0   -0.65    0.78
   0   8   0    0.20    0.61
   0   8   0   -0.20    0.40
   0  -8   2    6.43    1.40
   0  -8  -2    3.20    1.02
   0   8  -2    4.78    1.17
   0   8   2    6.98    1.06
   0   8  -2    7.47    1.11
   0  -8  -4    9.02    1.62
   0  -8   4   14.61    1.91
   0   8  -4   11.62    1.53
   0   8   4   10.68    1.26
   0  -8  -6   21.02    2.51
   0  -8   6   16.03    1.93
   0   8  -6   13.79    1.81
   0  -8  -6   14.87    1.77
   0   8  -6   15.83    1.68
   0  -8   6   18.00    2.21
   0  -8   8    9.31    1.49
   0   8  -8    4.64    1.32
   0  -8  -8    9.20    1.58
   0  -8 -10   32.51    2.80
   0  -9   3    1.41    0.75
   0  -9   5    6.00    1.50
   1   0 -21   -0.26    0.76
  -1   0  21    1.05    0.76
   1   0 -19   -0.40    0.83
  -1   0  19    0.38    0.60
  -1   0  19    0.43    0.70
   1   0 -19    0.63    0.55
   1   0 -17    0.47    0.70
  -1   0  17    0.51    0.60
   1   0 -17   -0.60    0.56
  -1   0  17    0.91    0.61
   1   0 -15   -0.21    0.54
   1   0 -15    0.17    0.22
  -1   0  15   -0.37    0.44
  -1   0  15   -0.29    0.49
   1   0 -15   -0.11    0.47
   1   0 -15    0.08    0.42
  -1   0  15    0.76    0.52
  -1   0  13    0.00    0.52
   1   0 -13    0.30    0.46
  -1   0  13   -0.08    0.33
   1   0 -13    0.00    0.22
   1   0 -13   -0.03    0.36
  -1   0  13    0.32    0.39
  -1   0  13   -0.22    0.45
  -1   0  11    0.47    0.40
   1   0 -11    0.21    0.32
   1   0 -11    0.00    0.24
  -1   0  11    0.22    0.39
  -1   0  11   -0.03    0.45
   1   0 -11    0.16    0.28
   1   0 -11    0.42    0.45
   1   0  -9    0.06    0.31
  -1   0   9    0.46    0.36
   1   0  -9   -0.21    0.26
  -1   0   9    0.01    0.31
  -1   0   9    0.55    0.40
   1   0  -9    0.40    0.33
   1   0  -9   -0.33    0.40
   1   0  -7    0.23    0.30
  -1   0   7    0.73    0.32
   1   0  -7    0.02    0.20
  -1   0   7    0.34    0.47
  -1   0   7    0.02    0.28
   1   0  -7    0.45    0.39
   1   0  -7    0.19    0.27
  -1   0   5   -0.09    0.23
   1   0  -5    0.32    0.24
   1   0  -5    0.08    0.20
  -1   0   5    0.49    0.28
  -1   0   5    0.13    0.33
   1   0  -5    0.49    0.22
   1   0  -5    0.46    0.33
  -1   0   3    0.26    0.19
   1   0  -3    0.32    0.20
   1   0  -3   -0.06    0.20
  -1   0   3    0.05    0.18
   1   0  -3   -0.03    0.23
  -1   0   3    0.07    0.27
   1   0  -1    0.86    0.14
   1   0   1    0.23    0.18
  -1   0  -1    0.03    0.14
   1   0   3    0.27    0.13
  -1   0  -3    0.15    0.13
  -1   0  -3    0.28    0.26
   1   0   3    0.25    0.23
   1   0   3    0.06    0.17
  -1   0  -3    0.21    0.16
  -1   0  -3    0.35    0.27
   1   0   3    0.37    0.30
  -1   0  -5    0.17    0.14
   1   0   5    0.22    0.30
  -1   0  -5    0.58    0.34
  -1   0  -5    0.00    0.22
  -1   0  -5    0.13    0.30
   1   0   5   -0.37    0.39
  -1   0  -5    0.08    0.28
  -1   0  -7    0.34    0.17
  -1   0  -7    0.86    0.43
   1   0   7   -0.04    0.34
  -1   0  -7   -0.04    0.25
  -1   0  -7    0.35    0.29
  -1   0  -7    0.34    0.36
   1   0   7    0.16    0.35
  -1   0  -9    0.94    0.22
   1   0   9    0.34    0.37
  -1   0  -9   -0.21    0.38
  -1   0  -9   -0.01    0.31
  -1   0  -9   -0.22    0.39
  -1   0  -9    0.52    0.42
   1   0   9    0.93    0.49
  -1   0 -11    0.38    0.16
   1   0  11   -0.18    0.37
  -1   0 -11   -0.39    0.43
  -1   0 -11    0.05    0.28
  -1   0 -11   -0.22    0.48
   1   0  11    0.62    0.50
  -1   0 -11    0.13    0.36
  -1   0 -13   -0.10    0.16
  -1   0 -13    0.24    0.20
   1   0  13   -0.31    0.43
   1   0  13    0.28    0.56
  -1   0 -13   -0.17    0.39
  -1   0 -13    0.30    0.35
  -1   0 -13    0.32    0.39
   1   0  13    0.06    0.53
  -1   0 -15    0.06    0.10
  -1   0 -15   -0.06    0.11
   1   0  15    0.10    0.46
  -1   0 -15   -0.37    0.50
   1   0  15    0.70    0.55
   1   0  15   -0.17    0.64
  -1   0 -15    0.01    0.52
  -1   0 -17    0.67    0.75
  -1   0 -17   -0.28    0.48
   1   0  17    0.86    0.58
  -1   0 -17    0.32    0.57
   1   0  17    1.45    1.02
  -1   0 -19    0.18    0.71
   1   0  19    0.13    0.59
  -1   0 -19    0.00    0.58
   1   0  19    0.51    0.79
  -1   0 -21   -0.53    0.85
  -1   0 -21   -0.25    0.71
   1   0  21   -0.75    0.70
   1   1 -22    0.22    0.78
  -1   1  20    4.31    1.06
  -1  -1  20    0.32    0.65
   1   1 -20    2.76    1.03
   1  -1 -20    1.32    0.70
   1   1 -20    1.32    0.73
  -1  -1  20    1.18    0.70
   1  -1 -18   12.98    1.80
   1  -1 -18   14.77    1.47
  -1   1  18   14.62    1.78
  -1  -1  18   13.21    1.68
   1   1 -18   12.57    1.62
  -1   1  18   12.24    1.37
  -1  -1  18   12.78    1.55
   1  -1 -16   38.69    2.70
   1  -1 -16   37.66    1.86
  -1   1  16   33.96    2.05
  -1   1  16   35.29    2.45
   1  -1 -16   33.31    2.03
   1   1 -16   34.12    2.37
  -1  -1  16   39.83    2.51
   1  -1 -16   35.76    2.12
  -1   1  16   35.66    2.15
  -1   1  16   38.59    2.75
   1  -1 -14  397.11    8.73
  -1  -1  14  388.13    8.38
   1   1 -14  389.94    8.33
  -1   1  14  369.69    7.26
  -1   1  14  384.22    8.33
   1  -1 -14  388.86    7.39
  -1  -1  14  381.57    8.10
   1  -1 -14  389.07    8.20
  -1   1  14  398.08    7.56
   1  -1 -14  379.68    7.44
   1   1 -14  405.41    5.23
  -1   1  14  393.92    8.88
   1  -1 -12   21.58    1.71
   1   1 -12   21.06    1.61
  -1   1  12   20.94    1.34
   1  -1 -12   24.24    1.41
  -1  -1  12   21.94    1.66
  -1   1  12   23.31    1.68
   1  -1 -12   23.14    1.65
   1  -1 -12   23.14    1.41
  -1   1  12   23.54    1.43
  -1  -1  12   22.07    1.59
   1   1 -12   24.17    0.91
   1  -1 -12   22.73    1.77
  -1   1  12   23.22    1.81
   1   1 -12   24.50    1.83
   1  -1 -10  107.28    3.51
  -1  -1  10  112.06    3.47
  -1   1  10  104.50    3.31
   1   1 -10  103.82    3.37
   1  -1 -10  107.23    2.79
  -1   1  10  107.13    2.79
  -1  -1  10  109.66    3.34
   1  -1 -10  104.15    2.84
  -1   1  10  105.87    2.85
   1   1 -10  108.75    2.15
   1  -1 -10  106.16    3.56
   1   1 -10  106.66    3.56
  -1   1  10  109.65    3.61
   1  -1  -8  406.66    7.15
  -1   1   8  395.93    5.95
   1  -1  -8  401.20    5.96
   1   1  -8  405.40    7.05
  -1   1   8  401.78    6.84
  -1  -1   8  389.16    7.00
  -1   1   8  404.38    6.10
   1  -1  -8  394.14    6.08
  -1  -1   8  405.21    6.88
   1   1  -8  396.80    5.41
  -1   1   8  401.89    7.20
   1   1  -8  401.64    7.14
   1  -1  -8  402.98    7.21
   1  -1  -6  261.20    4.84
  -1  -1   6  254.98    3.77
  -1  -1   6  258.12    4.84
   1   1  -6  257.32    4.83
   1  -1  -6  258.49    3.79
  -1   1   6  251.66    3.79
  -1   1   6  258.67    4.61
   1  -1  -6  253.35    4.58
  -1   1   6  257.27    3.97
  -1  -1   6  261.18    4.72
   1  -1  -6  250.65    3.93
   1   1  -6  254.67    4.77
   1   1  -6  249.33    3.73
  -1   1   6  258.36    4.91
   1  -1  -6  257.53    4.89
   1  -1  -4 1114.73   13.56
  -1   1   4 1082.31   13.49
  -1  -1   4 1081.16   13.60
   1  -1  -4 1079.07   13.19
   1   1  -4 1096.86   13.62
   1  -1  -4 1090.12   12.38
  -1  -1   4 1103.68   12.66
   1   1  -4 1075.58   12.67
  -1   1   4 1116.80   13.58
   1  -1  -4 1097.07   13.54
   1   1  -4 1090.97   13.33
   1   1  -2    1.03    0.32
  -1  -1   2    1.70    0.34
  -1  -1   2    1.33    0.27
   1   1  -2    1.20    0.27
   1  -1  -2    1.14    0.32
  -1   1   2    1.35    0.31
   1  -1  -2    1.28    0.28
  -1   1   2    1.37    0.37
   1   1  -2    0.98    0.22
   1   1   0    2.76    0.35
  -1  -1   0    3.12    0.35
   1  -1   0    2.87    0.37
   1  -1   0    2.94    0.28
  -1   1   0    2.90    0.29
  -1   1   0    2.76    0.33
   1   1   0    2.92    0.25
   1   1   0    3.35    0.40
   1  -1   0    2.29    0.27
  -1  -1   0    2.64    0.34
  -1  -1  -2   11.00    0.47
  -1   1  -2   12.42    0.74
   1  -1   2   11.16    0.68
   1   1   2   10.33    0.68
  -1  -1  -2   10.39    0.65
  -1   1  -2   10.55    0.70
   1  -1   2   12.28    0.74
  -1  -1  -2   11.03    0.51
  -1  -1  -2   11.44    0.66
   1   1   2   10.58    0.51
  -1  -1  -4  410.98    5.69
  -1   1  -4  415.23    6.32
   1   1   4  417.22    6.29
   1  -1   4  400.71    6.27
  -1  -1  -4  403.89    6.21
  -1  -1  -4  405.72    5.98
   1  -1   4  408.54    6.29
   1   1   4  411.44    6.03
   1   1   4  405.13    6.07
  -1  -1  -4  401.36    6.03
  -1   1  -4  395.11    6.24
  -1  -1  -4  407.19    5.89
   1   1   4  406.00    5.90
  -1  -1  -4  405.28    5.82
  -1  -1  -6   47.73    1.68
   1   1   6   52.21    1.97
  -1   1  -6   48.25    1.92
   1  -1   6   46.51    1.91
  -1  -1  -6   49.02    1.61
   1   1   6   49.61    1.77
   1  -1   6   47.27    1.89
  -1   1  -6   50.96    1.95
  -1  -1  -6   46.03    1.73
  -1  -1  -6   48.70    1.73
  -1  -1  -6   49.07    1.81
   1   1   6   45.75    1.79
  -1  -1  -8  190.54    4.19
  -1   1  -8  181.78    4.42
   1  -1   8  190.36    4.52
   1   1   8  186.02    4.48
  -1  -1  -8  184.25    3.86
  -1  -1  -8  183.02    4.11
  -1   1  -8  185.80    4.46
   1  -1   8  181.92    4.41
   1   1   8  184.54    4.14
  -1  -1  -8  179.62    4.10
  -1  -1  -8  183.75    4.38
  -1   1  -8  191.11    4.60
   1   1   8  185.98    4.40
  -1  -1 -10    1.46    0.33
  -1  -1 -10    2.69    0.61
  -1   1 -10    2.73    0.67
   1  -1  10    1.94    0.55
   1   1  10    1.81    0.64
  -1  -1 -10    2.61    0.53
   1   1  10    2.15    0.56
  -1   1 -10    1.46    0.33
  -1  -1 -10    1.97    0.49
  -1   1 -10    1.35    0.57
   1  -1  10    1.18    0.50
  -1   1 -10    1.82    0.56
   1   1  10    2.73    0.65
  -1  -1 -10    2.10    0.53
  -1  -1 -10    1.86    0.49
  -1  -1 -12    1.05    0.55
  -1  -1 -12    1.69    0.40
  -1  -1 -12    1.40    0.49
  -1   1 -12    2.58    0.72
   1  -1  12    1.98    0.60
   1   1  12    0.93    0.54
   1   1  12    1.64    0.59
  -1   1 -12    1.08    0.35
  -1  -1 -12    1.56    0.52
  -1   1 -12    2.37    0.74
  -1  -1 -12    2.18    0.55
  -1  -1 -12    1.20    0.50
   1  -1  12    1.67    0.54
  -1  -1 -14    9.67    1.25
  -1  -1 -14   11.32    1.20
   1   1  14   12.53    1.49
  -1   1 -14    8.80    1.24
   1   1  14    9.77    1.20
  -1   1 -14    9.83    0.93
  -1  -1 -14   10.00    1.16
  -1  -1 -14    9.94    1.15
   1  -1  14   11.08    1.34
  -1  -1 -14   11.96    0.93
  -1  -1 -16   95.01    4.17
  -1   1 -16   95.06    4.16
   1   1  16   93.36    4.25
  -1  -1 -16   97.29    3.75
   1  -1  16   98.41    4.21
  -1   1 -16   92.98    3.14
   1   1  16   96.23    3.91
  -1  -1 -16  105.55    2.85
  -1  -1 -18   17.81    1.97
  -1  -1 -18   17.14    1.64
  -1   1 -18   16.17    1.86
   1   1  18   16.51    1.94
   1  -1  18   16.97    2.00
   1   1  18   16.71    1.74
   1  -1  18   15.92    1.81
  -1  -1 -20   11.64    1.75
  -1  -1 -20    9.63    1.37
   1   1  20   13.31    1.86
   1  -1  20    8.81    1.52
  -1   1 -20   10.24    1.61
   1   1  20   12.42    1.64
   1  -1  20   10.87    1.63
  -1   1 -22   24.23    2.52
   1  -1  22   25.60    2.55
  -1  -2  21    0.86    0.76
   1   2 -21    1.75    1.17
  -1  -2  21    1.60    0.79
   1   2 -19    3.17    1.08
   1  -2 -19    1.30    0.69
  -1  -2  19    3.41    1.12
   1  -2 -17   43.73    3.01
   1  -2 -17   43.25    2.15
   1   2 -17   44.40    3.01
  -1  -2  17   45.29    2.93
  -1   2  17   43.04    3.06
   1  -2 -15   54.24    3.07
   1   2 -15   53.06    3.08
   1  -2 -15   54.06    2.22
   1  -2 -15   55.90    2.49
  -1  -2  15   51.78    2.96
  -1   2  15   48.19    3.00
   1  -2 -13   37.46    2.33
   1  -2 -13   32.75    1.53
   1   2 -13   34.69    2.32
  -1  -2  13   33.46    2.20
   1  -2 -13   31.87    1.73
  -1   2  13   31.10    2.21
   1  -2 -11  265.07    6.27
  -1  -2  11  279.19    6.60
   1   2 -11  285.61    6.62
   1  -2 -11  269.38    4.68
  -1  -2  11  268.75    6.32
   1  -2 -11  274.26    6.47
   1  -2 -11  268.05    5.19
   1   2 -11  273.98    4.05
  -1   2  11  263.14    6.38
   1   2 -11  276.58    6.47
   1  -2 -11  281.04    6.58
  -1  -2   9  654.31    8.44
   1  -2  -9  650.73   10.56
   1   2  -9  650.59   10.86
   1  -2  -9  650.84   10.43
   1  -2  -9  674.69    8.48
  -1  -2   9  656.31   10.91
   1  -2  -9  674.39   10.88
  -1  -2   9  661.26   10.71
   1  -2  -9  637.39    9.18
   1   2  -9  670.30   10.69
   1  -2  -9  678.10   10.83
   1   2  -9  657.36    8.47
  -1   2   9  639.87   10.63
   1  -2  -7  109.40    3.19
  -1   2   7  110.81    3.18
   1  -2  -7  107.34    3.10
   1   2  -7  109.44    3.36
  -1  -2   7  109.97    3.35
   1  -2  -7  112.22    1.87
  -1  -2   7  110.24    3.31
   1  -2  -7  108.26    2.47
   1  -2  -7  113.04    3.39
  -1   2   7  110.78    3.22
   1   2  -7  109.76    3.13
  -1  -2   7  108.94    2.34
   1   2  -7  106.65    2.36
   1  -2  -7  107.98    3.22
   1  -2  -5    0.61    0.34
  -1  -2   5    1.63    0.34
   1   2  -5    1.58    0.33
  -1   2   5    0.65    0.34
  -1  -2   5    1.73    0.49
   1   2  -5    1.36    0.43
   1  -2  -5    1.31    0.28
   1   2  -5    0.55    0.27
   1  -2  -5    0.55    0.34
   1  -2  -5    1.76    0.43
  -1   2   5    1.21    0.43
   1   2  -5    0.85    0.34
   1  -2  -3 2742.64   30.65
  -1   2   3 2680.20   30.61
   1   2  -3 2691.61   30.92
  -1  -2   3 2588.10   30.79
   1  -2  -3 2690.47   30.85
   1   2  -3 2654.63   30.12
   1   2  -3 2629.86   30.21
  -1  -2   3 2687.52   30.25
  -1   2   3 2710.47   30.51
   1  -2  -3 2658.60   30.50
   1   2  -1   90.85    2.13
   1  -2  -1   90.93    2.32
  -1   2   1   90.34    2.31
  -1  -2   1   90.10    2.28
  -1   2   1   94.03    1.85
   1  -2  -1   85.02    1.79
   1   2  -1   90.35    2.30
  -1  -2   1   91.01    2.24
   1   2  -1   85.18    2.20
  -1   2   1   88.67    2.23
   1  -2  -1   88.54    2.23
  -1  -2   1   91.16    2.34
  -1   2  -1 9428.37  104.22
  -1  -2  -1 9886.96  103.46
   1  -2   1 9964.86  104.41
   1   2   1 9999.00  103.47
   1  -2   1 9386.79  103.84
  -1  -2  -1 9273.30  103.63
  -1   2  -1 9491.79  103.87
  -1  -2  -1 9838.48  104.34
   1   2   1 9768.25  104.37
   1  -2   1 9727.27  103.47
  -1   2  -1 9758.51  103.47
   1   2   1 9353.47  102.95
  -1  -2  -1 9988.58  104.48
  -1  -2  -3  967.51   11.74
   1   2   3  951.72   11.70
   1  -2   3  955.12   12.56
  -1   2  -3  953.56   12.59
   1  -2   3  943.70   11.15
  -1  -2  -3  961.65   12.63
   1  -2   3  953.50   12.69
   1   2   3  957.13   12.67
  -1   2  -3  975.21   11.18
   1   2   3  973.99   11.67
  -1  -2  -3  931.81   11.64
  -1  -2  -3  959.75   12.60
   1   2   5    4.36    0.50
  -1  -2  -5    4.19    0.52
  -1   2  -5    5.18    0.72
  -1  -2  -5    4.44    0.62
   1  -2   5    3.83    0.65
  -1  -2  -5    5.12    0.60
  -1   2  -5    5.14    0.35
  -1  -2  -5    5.50    0.71
   1   2   5    3.51    0.61
   1  -2   5    5.79    0.45
  -1  -2  -5    4.19    0.51
   1  -2   5    5.79    0.77
   1   2   5    4.74    0.57
  -1  -2  -7  140.42    3.37
  -1  -2  -7  142.08    2.99
  -1  -2  -7  143.99    3.89
  -1   2  -7  141.22    3.94
   1  -2   7  144.57    3.97
  -1  -2  -7  140.88    3.48
  -1   2  -7  138.44    2.35
  -1  -2  -7  144.75    3.83
   1  -2   7  140.03    3.93
  -1  -2  -7  138.65    3.55
   1  -2   7  138.37    2.16
   1   2   7  139.15    3.54
  -1  -2  -9  140.47    3.78
  -1   2  -9  138.01    4.24
   1  -2   9  150.30    4.41
  -1  -2  -9  152.28    3.37
  -1  -2  -9  144.21    4.10
  -1  -2  -9  144.30    3.76
   1  -2   9  138.71    4.22
  -1  -2  -9  145.82    4.05
   1   2   9  144.27    4.02
  -1   2  -9  151.36    4.34
  -1  -2 -11    5.43    0.78
  -1  -2 -11    4.65    0.72
  -1  -2 -11    6.77    0.73
  -1   2 -11    6.26    1.01
   1  -2  11    4.50    0.88
   1   2  11    5.41    0.90
  -1  -2 -11    4.89    0.78
  -1   2 -11    5.53    0.88
   1  -2  11    6.40    0.98
   1   2  11    4.72    0.84
  -1  -2 -11    5.64    0.89
  -1  -2 -11    6.11    0.80
  -1  -2 -13   10.60    1.24
   1   2  13   10.11    1.31
  -1  -2 -13   10.71    1.04
  -1   2 -13   10.14    1.31
  -1   2 -13   11.98    0.87
   1   2  13   10.10    1.13
  -1  -2 -13   12.59    1.30
   1   2  13   12.05    1.37
  -1  -2 -13   12.69    1.16
   1  -2  13   12.86    1.49
  -1  -2 -13   10.53    1.16
  -1  -2 -15  191.77    5.85
  -1   2 -15  203.94    6.37
  -1  -2 -15  216.93    5.29
   1   2  15  216.60    6.52
  -1  -2 -15  216.57    5.78
  -1   2 -15  199.48    4.27
   1  -2  15  202.08    6.33
   1   2  15  210.57    5.73
  -1  -2 -15  212.16    5.16
  -1  -2 -17  122.88    4.91
  -1   2 -17  128.38    5.28
  -1  -2 -17  125.87    4.17
   1  -2  17  122.41    5.12
  -1  -2 -17  129.82    3.94
  -1   2 -19    6.29    1.38
  -1  -2 -19    5.70    1.26
   1  -2  19    4.48    1.07
  -1   2 -21   14.44    2.04
  -1  -2 -21   16.68    2.08
   1  -2  21   15.32    2.01
   1   3 -20    0.33    0.66
   1  -3 -20    0.83    1.06
  -1  -3  20    0.69    0.90
   1   3 -18    2.51    0.94
   1  -3 -18    3.64    1.12
  -1  -3  18    1.69    0.81
  -1   3  18    1.21    0.79
   1  -3 -16  119.39    4.93
   1   3 -16  135.52    5.43
  -1  -3  16  125.53    5.10
  -1   3  16  129.17    5.30
   1  -3 -14   35.87    2.48
   1  -3 -14   35.12    1.38
   1   3 -14   36.92    2.65
   1  -3 -14   32.33    1.80
  -1  -3  14   31.77    2.39
  -1   3  14   38.87    2.61
  -1  -3  12   11.07    0.69
   1  -3 -12   12.04    1.35
   1  -3 -12    9.49    0.60
   1   3 -12   12.32    1.46
   1  -3 -12   11.25    1.00
   1   3 -12    9.71    0.93
  -1   3  12   12.16    1.40
  -1  -3  12    9.50    1.28
  -1  -3  10  189.40    3.66
  -1   3  10  189.86    5.11
   1  -3 -10  188.01    5.10
  -1  -3  10  193.14    5.57
   1   3 -10  185.50    5.41
   1  -3 -10  192.21    5.17
   1  -3 -10  194.68    2.83
   1  -3 -10  188.39    4.12
  -1  -3  10  186.29    5.34
   1   3 -10  186.59    4.11
   1  -3 -10  191.02    5.44
   1  -3 -10  199.65    5.31
   1   3 -10  185.52    5.10
  -1   3  10  186.64    5.15
  -1   3   8   27.90    1.69
   1  -3  -8   27.51    1.71
  -1  -3   8   26.22    1.81
   1   3  -8   27.60    1.88
   1  -3  -8   29.05    1.78
   1  -3  -8   28.62    1.36
   1  -3  -8   28.85    1.89
   1   3  -8   29.09    1.40
  -1  -3   8   30.74    1.93
   1   3  -8   26.15    1.63
   1  -3  -8   29.25    1.79
  -1   3   8   27.79    1.74
  -1  -3   8   27.38    1.29
   1  -3  -6   -0.10    0.35
  -1  -3   6    0.12    0.30
  -1   3   6    0.33    0.36
   1   3  -6   -0.38    0.40
  -1  -3   6    0.07    0.37
   1   3  -6    0.22    0.28
   1  -3  -6    0.51    0.40
  -1   3   6   -0.09    0.39
   1  -3  -6   -0.28    0.36
   1  -3  -4   11.11    0.99
  -1   3   4   10.42    0.94
   1   3  -4    9.74    0.98
  -1  -3   4    8.80    0.94
   1  -3  -4    9.67    0.49
   1   3  -4    9.62    0.82
   1  -3  -4   11.43    1.05
  -1   3   4   10.25    0.91
  -1  -3   4   10.94    0.90
   1  -3  -2  131.89    3.39
   1   3  -2  131.41    3.27
  -1   3   2  129.20    3.32
   1  -3  -2  133.66    2.64
  -1   3   2  136.02    2.66
  -1  -3   2  131.24    3.39
   1   3  -2  136.86    3.47
  -1   3   2  133.74    3.43
  -1  -3   2  127.50    3.17
   1  -3  -2  131.59    3.41
   1   3  -2  128.03    3.19
  -1   3   2  135.08    3.23
  -1  -3   2  135.56    3.42
  -1   3   0  139.06    3.51
   1  -3   0  152.09    3.61
   1   3   0  146.40    3.25
  -1   3   0  148.73    3.20
   1  -3   0  145.53    3.16
  -1  -3   0  146.49    3.35
  -1   3   0  143.07    3.33
   1  -3   0  143.82    3.36
  -1  -3   0  145.08    3.54
   1   3   0  143.02    3.52
  -1  -3   0  146.22    3.69
   1   3   2   83.95    2.29
  -1  -3  -2   82.87    2.30
  -1   3  -2   81.25    2.67
  -1   3  -2   86.06    2.59
   1  -3   2   82.61    2.56
  -1  -3  -2   84.22    2.27
   1   3   2   87.01    2.78
  -1  -3  -2   85.56    2.75
   1  -3   2   84.12    2.23
  -1   3  -2   84.17    2.25
   1   3   2   86.89    2.08
  -1  -3  -2   84.28    2.79
   1   3   4  263.38    4.87
  -1   3  -4  275.20    5.72
  -1  -3  -4  273.04    4.93
   1  -3   4  266.48    5.56
  -1   3  -4  276.07    5.62
  -1   3  -4  270.83    4.41
  -1  -3  -4  272.91    5.72
   1   3   4  276.59    5.74
   1  -3   4  268.05    4.37
   1  -3   4  275.19    5.74
   1   3   4  267.09    4.75
  -1  -3  -4  268.24    4.79
   1   3   6   31.21    1.51
  -1  -3  -6   31.04    1.53
  -1   3  -6   31.71    1.87
  -1  -3  -6   30.87    1.82
   1  -3   6   31.82    1.87
   1   3   6   30.46    1.83
  -1  -3  -6   29.03    1.57
   1  -3   6   32.03    1.91
  -1   3  -6   29.89    1.09
  -1  -3  -6   31.26    1.87
   1  -3   6   30.46    1.30
   1   3   6   30.34    1.54
  -1  -3  -6   29.43    1.49
   1   3   8  236.07    5.07
  -1  -3  -8  237.53    5.11
  -1  -3  -8  231.27    4.25
  -1   3  -8  231.21    5.83
  -1  -3  -8  234.32    5.74
   1  -3   8  241.64    5.98
  -1   3  -8  230.49    3.71
   1  -3   8  231.32    5.85
  -1  -3  -8  236.11    5.19
  -1  -3  -8  239.71    5.87
   1  -3   8  233.06    3.93
   1   3   8  230.59    5.20
  -1  -3  -8  236.05    5.25
   1  -3  10  306.50    4.03
  -1  -3 -10  291.82    6.27
  -1   3 -10  295.34    7.18
  -1  -3 -10  303.64    5.32
  -1  -3 -10  317.42    7.21
   1  -3  10  291.21    7.11
  -1  -3 -10  289.18    6.21
  -1  -3 -10  304.56    7.06
  -1   3 -10  298.38    4.52
   1   3  10  287.63    6.50
  -1  -3 -10  296.32    6.60
  -1  -3 -10  302.05    6.62
  -1  -3 -12   67.23    2.97
  -1  -3 -12   65.52    2.26
  -1   3 -12   66.53    3.35
  -1   3 -12   60.74    1.68
   1  -3  12   66.49    3.35
  -1  -3 -12   67.37    2.85
  -1  -3 -12   60.43    2.81
   1   3  12   65.41    3.09
  -1  -3 -14  459.57    9.52
  -1   3 -14  454.99   10.41
  -1  -3 -14  482.09    8.02
  -1   3 -14  465.70    6.69
   1  -3  14  448.05   10.28
  -1   3 -14  476.07    6.72
  -1  -3 -14  454.62    9.06
  -1  -3 -14  461.06    9.22
   1   3  14  453.56    9.93
  -1  -3 -16   11.14    1.07
  -1   3 -16    7.74    1.43
  -1  -3 -16   10.89    1.47
  -1  -3 -16   12.32    1.36
   1  -3  16   12.99    1.77
   1   3  16   10.88    1.54
  -1   3 -18    5.25    1.29
  -1  -3 -18    2.12    0.80
   1  -3  18    1.74    0.93
  -1  -3 -20    7.61    1.48
   1  -3  20    4.24    1.24
   1  -4 -19    0.93    0.78
  -1  -4  19    1.83    0.97
   1   4 -17    0.66    0.99
   1  -4 -17   -0.64    0.75
  -1   4  17    0.63    0.79
  -1  -4  17    0.20    0.71
   1  -4 -15   54.57    3.29
   1   4 -15   60.83    3.74
   1   4 -15   60.42    2.36
  -1  -4  15   62.43    3.70
  -1   4  15   59.14    3.48
   1  -4 -13  138.51    4.96
  -1  -4  13  149.41    3.13
   1   4 -13  145.76    5.53
  -1  -4  13  139.23    5.31
   1   4 -13  144.31    3.77
   1  -4 -13  141.36    4.00
  -1   4  13  133.58    4.95
  -1  -4  11   50.79    1.92
   1  -4 -11   48.99    2.71
   1   4 -11   49.49    2.98
   1  -4 -11   51.27    2.20
   1   4 -11   48.90    2.05
  -1  -4  11   50.65    2.98
  -1   4  11   45.81    2.62
   1  -4  -9   11.02    1.22
  -1   4   9   11.13    1.24
   1   4  -9   12.37    1.45
   1  -4  -9   14.41    1.44
   1   4  -9   10.29    0.93
   1  -4  -9   12.32    1.05
  -1  -4   9   12.23    1.00
   1   4  -9   13.03    1.29
  -1   4   9   11.67    1.26
  -1  -4   9   13.40    1.49
   1  -4  -9   11.87    1.27
   1  -4  -7  175.05    4.76
  -1   4   7  179.68    4.77
  -1  -4   7  172.01    5.10
   1   4  -7  171.79    5.10
   1  -4  -7  178.29    5.22
   1   4  -7  169.31    4.02
  -1   4   7  171.92    4.61
  -1  -4   7  169.21    4.16
  -1   4   5   11.38    1.11
  -1  -4   5   10.05    1.13
   1  -4  -5    9.74    1.07
   1   4  -5   11.58    1.24
   1   4  -5   10.70    0.98
   1  -4  -5   10.43    1.16
  -1   4   5   10.48    1.04
  -1  -4   5   11.24    1.06
  -1   4   3   64.04    2.57
   1   4  -3   64.21    2.59
   1  -4  -3   66.88    2.62
  -1  -4   3   67.95    2.73
   1  -4  -3   76.73    2.05
   1   4  -3   65.60    2.68
  -1   4   3   66.35    2.73
   1   4  -3   65.41    2.46
   1  -4  -3   63.44    2.67
  -1  -4   3   64.73    2.43
  -1   4   3   67.86    2.47
  -1  -4   3   61.59    2.53
  -1   4   1   50.27    2.24
   1  -4  -1   44.51    2.12
   1   4  -1   47.82    2.06
   1   4  -1   47.41    2.11
   1  -4  -1   44.23    1.77
  -1  -4   1   46.24    2.08
  -1   4   1   47.20    1.84
   1  -4  -1   48.95    2.16
   1   4  -1   46.90    2.13
  -1  -4   1   50.37    2.21
  -1   4   1   48.69    2.16
  -1  -4   1   47.11    2.26
  -1   4  -1   70.84    2.74
   1   4   1   65.43    2.37
  -1  -4  -1   67.89    2.41
  -1  -4  -1   70.45    2.40
  -1   4  -1   66.24    2.42
   1  -4   1   68.09    2.47
  -1  -4  -1   69.32    2.72
   1  -4   1   69.18    2.44
   1   4   1   67.16    2.66
  -1   4  -1   69.42    2.45
   1   4   1   67.84    2.06
  -1  -4  -1   69.98    2.85
  -1  -4  -3 1844.09   22.77
  -1   4  -3 1824.34   23.95
   1   4   3 1841.46   22.81
   1  -4   3 1834.66   23.60
  -1   4  -3 1864.91   23.61
  -1  -4  -3 1836.86   22.35
   1   4   3 1869.87   24.07
   1  -4   3 1824.05   22.44
  -1  -4  -3 1890.46   24.17
  -1   4  -3 1854.52   22.47
  -1  -4  -3 1868.93   24.24
   1   4   3 1843.31   22.14
   1   4   5  313.09    6.05
  -1  -4  -5  323.30    6.12
  -1   4  -5  331.38    7.06
  -1   4  -5  309.55    6.82
   1  -4   5  320.39    6.91
  -1  -4  -5  315.47    5.42
   1  -4   5  312.63    6.99
  -1   4  -5  320.71    5.48
   1  -4   5  313.10    5.45
  -1  -4  -5  340.94    7.17
   1   4   5  318.49    7.03
   1  -4   5  327.42    6.12
  -1  -4  -5  312.46    6.95
   1   4   5  317.59    5.83
   1   4   7   18.14    1.31
  -1  -4  -7   18.93    1.36
   1  -4   7   19.47    1.64
  -1  -4  -7   17.30    1.00
  -1  -4  -7   18.10    1.58
  -1   4  -7   21.58    1.75
  -1  -4  -7   18.01    1.40
  -1   4  -7   18.35    1.02
   1  -4   7   19.21    1.70
   1   4   7   16.03    1.56
  -1  -4  -7   17.25    1.54
   1   4   7   17.33    1.29
  -1  -4  -7   18.26    1.56
   1  -4   7   19.66    1.24
  -1  -4  -7   18.06    1.31
  -1  -4  -9    6.88    1.05
  -1  -4  -9    7.29    0.95
   1   4   9    7.19    0.92
  -1  -4  -9    7.02    0.66
  -1   4  -9    7.94    1.18
  -1   4  -9    7.79    0.63
  -1  -4  -9    9.78    1.09
  -1  -4  -9    9.05    1.05
   1  -4   9   10.20    1.41
   1  -4   9    8.29    0.74
   1   4   9    9.11    1.04
  -1  -4 -11  111.25    3.90
  -1  -4 -11  111.62    2.81
  -1   4 -11  112.46    4.58
  -1   4 -11  113.48    2.42
  -1  -4 -11  114.14    3.86
   1  -4  11  107.56    4.49
  -1  -4 -11  110.28    4.02
  -1  -4 -11  114.88    4.28
   1  -4  11  111.57    2.48
   1   4  11  107.99    3.96
  -1  -4 -13  306.72    7.44
  -1  -4 -13  333.22    5.67
  -1   4 -13  313.25    8.54
  -1  -4 -13  307.72    7.13
   1  -4  13  325.45    8.65
  -1   4 -13  323.95    4.67
   1   4  13  299.52    7.64
  -1  -4 -13  318.02    7.84
  -1   4 -15    0.15    0.80
  -1  -4 -15    0.31    0.53
  -1  -4 -15    1.58    0.73
   1  -4  15    0.15    0.66
   1   4  15    0.01    0.56
  -1   4 -17    6.62    1.42
  -1  -4 -17    6.62    1.30
  -1  -4 -17    5.41    1.10
   1   4  17    5.86    1.29
   1  -4  17    4.55    1.30
  -1  -4 -19    1.65    0.98
   1  -5 -18  103.20    5.09
   1  -5 -18  105.12    5.00
  -1   5  18   99.71    5.16
   1   5 -16    5.51    1.28
   1  -5 -16    8.51    1.50
   1  -5 -16    4.67    1.22
  -1  -5  16    5.57    1.35
  -1   5  16    4.25    1.16
   1  -5 -14   24.49    2.24
   1   5 -14   26.29    2.54
  -1  -5  14   24.72    2.49
  -1   5  14   26.98    2.33
   1  -5 -12   46.44    2.87
   1   5 -12   48.35    3.26
   1   5 -12   51.67    2.25
  -1  -5  12   46.40    3.18
   1  -5 -12   45.83    2.29
  -1   5  12   43.42    2.77
  -1  -5  12   54.09    2.21
  -1  -5  10    3.15    0.63
   1  -5 -10    3.33    0.86
   1   5 -10    2.65    0.96
   1   5 -10    3.54    0.68
   1  -5 -10    3.07    0.66
  -1   5  10    5.13    0.95
  -1  -5  10    3.60    0.99
   1  -5  -8   53.05    2.76
  -1   5   8   53.99    2.77
   1   5  -8   53.18    3.06
   1   5  -8   55.19    2.38
  -1  -5   8   55.68    3.14
  -1   5   8   53.36    2.66
  -1  -5   8   51.18    2.42
   1  -5  -6  122.52    4.12
   1   5  -6  114.74    4.17
  -1   5   6  112.81    3.99
   1   5  -6  120.89    4.41
   1  -5  -6  118.44    2.48
   1   5  -6  115.23    3.59
  -1   5   6  117.12    3.84
  -1  -5   6  120.14    3.88
   1  -5  -4   48.82    2.47
  -1   5   4   49.66    2.53
   1   5  -4   54.62    2.65
   1  -5  -4   50.70    1.81
   1   5  -4   50.11    2.66
  -1  -5   4   51.02    2.64
   1   5  -4   54.78    2.45
  -1  -5   4   49.29    2.34
   1  -5  -4   58.39    2.84
  -1   5   4   49.66    2.32
  -1  -5   4   47.80    2.47
   1  -5  -2  173.73    4.89
  -1   5   2  175.04    4.90
   1   5  -2  177.39    4.86
  -1  -5   2  186.48    5.00
   1  -5  -2  176.24    4.09
   1   5  -2  172.26    4.85
   1  -5  -2  187.11    5.09
   1   5  -2  173.00    4.75
  -1   5   2  172.58    4.93
  -1  -5   2  177.32    4.80
  -1  -5   2  178.77    5.08
  -1   5   2  180.18    4.56
  -1  -5   0    4.51    0.89
   1  -5   0    4.01    0.68
  -1   5   0    4.46    0.78
  -1  -5   0    5.46    0.86
  -1   5   0    4.48    0.70
   1   5   0    4.88    0.78
  -1   5   0    4.70    0.81
   1   5   0    4.41    0.80
   1  -5   0    5.47    0.85
  -1  -5   0    6.11    0.95
  -1  -5  -2   -0.02    0.61
  -1   5  -2    0.66    0.47
  -1   5  -2    1.04    0.52
   1   5   2    0.70    0.40
   1  -5   2    0.62    0.41
  -1  -5  -2    0.52    0.38
  -1  -5  -2    0.57    0.41
  -1  -5  -2    0.55    0.46
   1  -5   2    0.21    0.44
  -1   5  -2    0.58    0.45
   1   5   2    0.57    0.44
   1   5   2    0.52    0.34
   1   5   4    4.07    0.68
   1  -5   4    5.56    0.88
  -1  -5  -4    5.74    1.06
  -1  -5  -4    5.41    0.70
   1  -5   4    7.56    1.04
  -1  -5  -4    4.88    0.78
  -1   5  -4    4.23    0.83
  -1   5  -4    3.84    0.81
   1  -5   4    4.84    0.73
   1   5   4    4.53    0.89
  -1   5  -4    4.61    0.72
   1   5   4    5.52    0.72
   1  -5   6    1.58    0.50
  -1  -5  -6    1.26    0.66
   1   5   6    0.73    0.46
  -1   5  -6    1.79    0.63
  -1  -5  -6    1.54    0.53
  -1  -5  -6    1.71    0.40
  -1   5  -6    1.54    0.47
   1   5   6    2.06    0.72
   1  -5   6    2.07    0.79
   1   5   6    2.54    0.52
   1  -5   8    1.22    0.48
  -1  -5  -8    1.70    0.67
   1   5   8    1.73    0.64
  -1   5  -8    1.76    0.76
  -1  -5  -8    1.56    0.37
  -1  -5  -8    2.82    0.67
  -1   5  -8    1.04    0.37
  -1  -5  -8    0.74    0.45
   1  -5   8    1.79    0.84
   1   5   8    1.30    0.48
  -1  -5 -10   63.18    2.97
   1   5  10   62.22    2.92
  -1  -5 -10   68.50    2.03
  -1   5 -10   66.23    3.62
  -1  -5 -10   65.70    2.01
  -1   5 -10   64.54    2.06
  -1  -5 -10   63.62    2.99
   1  -5  10   58.42    3.45
  -1  -5 -10   59.26    2.91
   1  -5  10   62.43    2.38
   1   5  10   61.97    2.94
  -1  -5 -10   67.06    3.54
  -1  -5 -12  137.61    4.71
  -1   5 -12  136.33    5.56
   1  -5  12  134.06    5.54
   1  -5  12  131.34    3.15
  -1  -5 -12  131.22    5.18
   1   5  12  132.45    4.74
  -1   5 -14    0.54    0.78
  -1  -5 -14    0.79    0.66
  -1  -5 -14    1.00    0.76
   1   5  14    0.49    0.69
   1  -5  14    0.96    0.93
  -1  -5 -16   98.67    4.46
  -1   5 -16  109.39    5.48
   1  -5  16  104.65    5.37
  -1  -5 -16   94.98    4.64
   1   5  16  100.05    4.71
  -1  -5 -18    0.71    0.80
  -1  -5 -18    1.85    0.81
   1   5  18    3.44    1.18
   1  -6 -17    8.86    1.56
   1  -6 -15   19.25    2.20
   1  -6 -15   20.02    2.27
  -1   6  15   19.33    2.12
   1   6 -13   14.34    2.03
   1  -6 -13   17.80    2.02
  -1  -6  13   15.94    2.13
  -1   6  13   15.21    1.76
  -1  -6  11    1.45    0.56
   1   6 -11    0.77    0.98
   1  -6 -11    0.38    0.68
   1   6 -11    1.50    0.59
  -1   6  11    0.36    0.60
  -1  -6  11    0.30    0.71
  -1  -6   9    4.11    0.82
   1  -6  -9    4.10    0.96
   1   6  -9    2.74    0.95
   1   6  -9    3.59    0.69
   1  -6  -9    1.56    0.59
  -1   6   9    1.92    0.70
  -1  -6   9    3.23    1.01
   1  -6  -7   22.97    1.95
   1  -6  -7   21.38    0.94
   1   6  -7   19.37    1.96
   1   6  -7   21.02    1.63
  -1  -6   7   20.97    1.76
  -1   6   7   21.79    1.79
   1  -6  -5   62.87    3.12
   1  -6  -5   61.72    2.13
   1   6  -5   64.52    3.34
  -1  -6   5   59.38    2.82
   1   6  -5   65.32    2.96
  -1  -6   5   60.10    3.05
  -1   6   5   59.95    2.83
  -1  -6   3   10.84    1.34
   1  -6  -3   11.05    1.35
   1  -6  -3   11.28    1.08
   1   6  -3   11.76    1.41
  -1  -6   3   12.38    1.34
   1   6  -3    9.92    1.24
  -1   6   3   13.69    1.33
   1   6  -1   39.09    2.33
   1  -6  -1   35.87    2.02
  -1  -6   1   36.55    2.24
   1   6  -1   39.63    2.44
  -1   6   1   37.65    2.38
  -1   6   1   39.92    2.20
  -1  -6   1   37.09    2.55
   1  -6   1    1.49    0.69
  -1  -6  -1   -0.66    0.78
   1  -6   1    0.44    0.39
  -1  -6  -1    1.00    0.50
  -1   6  -1    1.38    0.59
   1   6   1    0.92    0.46
  -1   6  -1    0.60    0.55
   1   6   1    0.41    0.48
   1  -6   1    0.09    0.50
   1   6   1    1.23    0.43
  -1  -6  -3  272.72    6.56
   1   6   3  274.06    6.51
  -1  -6  -3  269.74    6.00
  -1   6  -3  276.92    6.90
   1   6   3  270.11    7.25
  -1   6  -3  274.42    6.39
   1  -6   3  274.92    6.35
  -1  -6  -3  281.67    7.64
   1   6   3  272.89    5.78
   1  -6   3  283.58    7.08
  -1  -6  -5   37.49    2.25
   1   6   5   38.08    2.25
  -1  -6  -5   38.84    1.92
  -1   6  -5   36.39    2.49
   1  -6   5   37.10    2.04
   1   6   5   39.98    2.77
  -1   6  -5   42.48    2.20
   1  -6   5   42.36    2.83
   1  -6   5   37.91    2.37
   1   6   5   40.92    2.09
  -1  -6  -5   38.00    2.71
   1   6   7   56.41    2.81
  -1  -6  -7   56.44    2.80
  -1   6  -7   59.35    3.36
  -1  -6  -7   58.11    2.17
  -1   6  -7   55.11    2.37
   1   6   7   57.94    3.41
   1  -6   7   62.37    3.56
   1   6   7   59.65    2.69
   1  -6   7   61.61    2.94
  -1  -6  -7   58.94    3.48
  -1  -6  -9   -0.02    0.67
   1  -6   9    0.90    0.44
  -1  -6  -9   -0.34    0.51
  -1   6  -9    0.57    0.81
  -1   6  -9   -0.23    0.37
   1  -6   9    0.77    0.69
   1   6   9    0.36    0.45
  -1  -6 -11   68.55    3.39
  -1   6 -11   70.91    4.13
   1  -6  11   66.40    4.09
   1  -6  11   72.31    2.82
  -1  -6 -11   80.92    4.39
   1   6  11   70.78    3.40
  -1  -6 -13  137.30    5.09
  -1   6 -13  145.89    6.26
   1  -6  13  142.04    6.28
  -1  -6 -13  139.33    5.95
   1   6  13  129.99    5.03
  -1  -6 -15   -1.01    0.65
  -1  -6 -15    0.65    0.69
   1   6  15    1.12    0.86
  -1  -6 -17    6.28    1.58
   1   6  17    6.18    1.34
   1  -7 -14    5.68    1.35
  -1   7  14    3.99    1.12
   1  -7 -12   84.90    4.39
  -1   7  12   86.14    4.24
   1  -7 -12   88.41    4.94
   1   7 -10    5.19    1.27
   1  -7 -10    5.55    1.24
   1  -7 -10    5.00    1.25
  -1  -7  10    6.24    1.05
  -1  -7  10    8.51    1.71
  -1   7  10    5.64    1.13
  -1  -7   8   14.06    1.64
   1  -7  -8   10.82    1.74
   1  -7  -8   11.17    1.55
   1   7  -8   14.82    1.95
   1   7  -8   15.38    1.53
  -1   7   8   16.01    1.67
  -1  -7   8   13.64    1.98
   1  -7  -6   30.27    2.38
   1   7  -6   32.07    2.62
   1   7  -6   29.86    2.19
  -1  -7   6   28.05    2.30
  -1   7   6   25.16    1.98
   1  -7  -6   29.04    2.62
   1  -7  -4   77.69    3.84
   1   7  -4   81.96    3.73
   1  -7  -4   82.75    4.34
  -1  -7   4   84.28    4.04
  -1   7   4   88.35    3.61
   1  -7  -2    5.93    1.31
  -1  -7   2    0.89    0.64
   1  -7  -2    1.73    0.67
   1   7  -2    0.97    0.62
  -1   7   2    1.45    0.58
   1  -7   0   11.78    1.64
  -1  -7   0    9.94    1.55
   1  -7   0   12.07    1.37
   1   7   0    9.63    1.38
  -1   7   0    9.04    1.35
  -1   7   0   12.23    1.39
   1   7   0    9.89    1.04
   1  -7   2    0.00    0.65
  -1  -7  -2    1.58    0.79
  -1   7  -2    0.45    0.45
  -1  -7  -2    1.10    0.52
  -1   7  -2    0.48    0.46
   1   7   2   -0.31    0.78
   1   7   2    1.05    0.44
  -1   7  -4   37.34    2.66
   1   7   4   36.72    2.78
   1  -7   4   38.40    2.86
  -1   7  -4   43.16    2.50
   1   7   4   37.84    2.10
   1  -7   4   40.83    2.78
  -1  -7  -4   40.55    3.08
   1  -7   6    5.65    1.13
  -1  -7  -6    5.03    1.26
  -1  -7  -6    4.75    0.92
  -1   7  -6    5.35    1.13
  -1   7  -6    5.26    0.88
   1   7   6    4.17    1.15
   1   7   6    5.06    0.84
   1  -7   6    4.51    1.21
  -1  -7  -8  185.96    5.85
  -1   7  -8  187.72    6.79
   1  -7   8  196.89    7.16
   1   7   8  184.49    5.38
  -1  -7  -8  190.96    7.10
   1  -7   8  187.76    5.80
  -1  -7 -10  240.15    6.88
  -1   7 -10  256.38    8.34
   1  -7  10  242.17    8.35
   1   7  10  245.12    6.64
  -1  -7 -10  244.10    8.32
  -1  -7 -12   28.00    2.34
  -1  -7 -12   25.88    2.70
   1   7  12   24.64    2.16
   1  -8 -11   32.98    2.93
   1  -8  -9   14.98    1.98
  -1  -8   7   -0.37    0.76
   1  -8  -7    1.51    0.84
   1   8  -7    0.89    0.72
  -1   8   7   -0.49    0.52
  -1  -8   5   20.49    2.23
   1  -8  -5   20.05    2.43
   1  -8  -5   16.77    1.97
   1   8  -5   18.55    1.90
  -1   8   5   16.35    1.69
   1  -8  -3    1.06    0.77
  -1  -8   3    1.19    0.79
   1   8  -3    1.47    0.87
  -1   8   3    2.06    0.70
  -1  -8   1    7.72    1.47
   1  -8  -1    5.22    1.26
   1   8  -1    6.36    1.34
  -1   8   1    9.00    1.27
  -1  -8  -1   20.68    2.35
   1  -8   1   24.85    2.51
   1   8   1   19.78    2.14
  -1   8  -1   21.86    1.97
   1  -8   3   17.80    2.51
  -1  -8  -3   15.36    2.12
  -1   8  -3   18.09    1.95
   1   8   3   22.64    2.40
   1  -8   3   17.05    2.08
  -1   8  -5    7.32    1.38
   1  -8   5    8.85    1.51
  -1  -8  -5    9.08    1.63
   1  -8   5    9.75    1.69
  -1  -8  -7   34.29    2.60
  -1   8  -7   33.29    2.92
   1  -8   7   35.62    3.19
   1  -8   7   33.22    2.64
  -1   8  -9   10.48    1.88
  -1  -9   6    1.24    0.98
   1   9  -4   -0.63    0.83
   1   9  -2   11.31    1.71
   1   9   0    1.87    0.94
   1  -9   4    0.37    0.71
   1  -9   6   10.51    1.72
  -2   0  22   -0.16    0.72
   2   0 -20   62.04    4.02
  -2   0  20   60.49    3.21
  -2   0  20   58.33    3.54
   2   0 -20   66.94    3.55
   2   0 -18   40.75    3.09
  -2   0  18   36.54    2.62
   2   0 -18   39.21    2.52
  -2   0  18   34.35    2.25
  -2   0  16   -0.03    0.51
   2   0 -16    0.15    0.44
  -2   0  16   -0.05    0.36
   2   0 -16   -0.40    0.70
   2   0 -16    0.45    0.26
  -2   0  16    0.13    0.39
   2   0 -14  297.87    7.45
   2   0 -14  271.56    5.29
  -2   0  14  293.44    6.78
  -2   0  14  292.78    6.50
   2   0 -14  292.06    6.47
  -2   0  14  294.29    6.27
  -2   0  14  293.32    7.40
   2   0 -12  560.72   10.38
   2   0 -12  552.39    8.37
  -2   0  12  558.88    9.34
   2   0 -12  564.79    9.35
  -2   0  12  563.26    9.66
  -2   0  12  575.98    9.14
   2   0 -12  577.05   10.49
  -2   0  12  550.10   10.33
   2   0 -10  534.47    9.37
   2   0 -10  526.49    7.82
   2   0 -10  531.29    8.44
  -2   0  10  507.67    8.35
  -2   0  10  528.41    8.09
   2   0 -10  537.63    9.36
  -2   0  10  522.27    9.27
   2   0  -8 1081.24   14.80
   2   0  -8 1048.81   13.47
   2   0  -8 1070.98   13.86
  -2   0   8 1050.03   13.82
  -2   0   8 1085.58   13.47
   2   0  -8 1080.27   14.74
  -2   0   8 1089.36   14.74
   2   0  -6  193.79    3.57
   2   0  -6  197.54    4.11
  -2   0   6  187.16    3.57
   2   0  -6  195.79    3.62
  -2   0   6  191.41    3.29
   2   0  -6  194.26    4.02
  -2   0   6  194.13    4.06
   2   0  -4   99.51    2.10
  -2   0   4   95.13    2.08
   2   0  -4   96.87    2.37
   2   0  -4   97.41    2.18
  -2   0   4   96.33    2.32
   2   0  -4   99.20    2.34
  -2   0   2 7957.29   83.40
  -2   0   2 7712.28   83.18
   2   0  -2 7937.28   83.19
   2   0  -2 7947.21   83.37
   2   0  -2 7499.97   83.08
  -2   0   2 7578.50   83.10
  -2   0   0 1300.08   14.56
   2   0   0 1270.32   14.07
  -2   0   0 1272.28   14.07
   2   0   0 1249.25   14.53
   2   0   0 1243.65   14.40
  -2   0   0 1243.95   14.38
  -2   0  -2   62.10    1.39
  -2   0  -2   63.36    1.66
  -2   0  -2   59.71    1.29
   2   0   2   65.50    1.70
   2   0   2   63.29    1.31
   2   0   2   60.90    1.38
  -2   0  -4 2295.51   26.21
   2   0   4 2325.49   26.31
   2   0   4 2298.44   25.16
  -2   0  -4 2288.20   26.29
  -2   0  -4 2180.47   25.12
   2   0   4 2234.68   24.96
  -2   0  -4 2309.91   25.00
   2   0   6  159.20    3.66
  -2   0  -6  166.62    3.71
   2   0   6  169.54    3.81
  -2   0  -6  157.42    2.97
  -2   0  -6  160.77    3.74
  -2   0  -6  165.52    2.62
  -2   0  -6  164.99    3.74
   2   0   8 1242.52   16.75
  -2   0  -8 1271.69   16.77
   2   0   8 1272.18   16.93
  -2   0  -8 1283.24   16.99
  -2   0  -8 1220.74   15.51
  -2   0  -8 1260.04   17.03
  -2   0  -8 1293.54   14.52
  -2   0 -10    3.28    0.63
   2   0  10    4.77    0.78
  -2   0 -10    3.95    0.54
  -2   0 -10    4.58    0.37
   2   0  10    4.64    0.80
  -2   0 -10    4.62    0.82
  -2   0 -10    4.34    0.74
   2   0  12  102.14    3.69
   2   0  12  104.44    3.91
  -2   0 -12  107.37    3.71
   2   0  12  103.88    3.83
  -2   0 -12  104.12    3.77
  -2   0 -12  103.26    3.06
  -2   0 -12  107.03    1.94
  -2   0 -12  107.55    3.96
  -2   0 -14  389.30    7.29
   2   0  14  391.11    8.55
  -2   0 -14  390.20    8.40
   2   0  14  376.70    8.83
   2   0  14  399.79    8.47
  -2   0 -16  366.15    7.41
   2   0  16  363.50    8.70
   2   0  16  377.63    9.23
  -2   0 -16  370.83    8.58
  -2   0 -18  216.04    7.04
   2   0  18  219.63    6.92
   2   0  18  228.05    7.40
  -2   0 -18  220.50    6.79
  -2   0 -20    0.72    0.78
  -2   0 -20    1.55    0.88
   2   0  20   -1.06    0.75
   2   0  20    2.58    0.92
   2   0  22    9.09    1.72
  -2   1  21    4.87    1.19
   2   1 -21    2.92    1.04
  -2  -1  21    4.08    1.12
   2   1 -19    0.30    0.76
   2  -1 -19    1.32    0.85
   2  -1 -19    0.14    0.45
  -2   1  19    1.75    0.90
   2   1 -19    0.09    0.52
  -2  -1  19    1.99    0.99
  -2   1  19    1.46    0.52
  -2  -1  19   -0.33    0.66
   2  -1 -17    0.74    0.80
   2  -1 -17   -0.25    0.46
  -2   1  17    0.90    0.63
  -2   1  17   -1.90    0.59
   2   1 -17    0.90    0.64
  -2   1  17    0.03    0.35
  -2   1  17    0.68    0.62
  -2  -1  17    0.59    0.57
   2  -1 -15   80.01    3.76
   2  -1 -15   72.75    2.75
   2  -1 -15   77.92    2.90
  -2   1  15   73.85    3.33
  -2   1  15   73.68    2.84
   2   1 -15   79.55    3.48
  -2  -1  15   73.49    3.20
  -2   1  15   73.49    2.80
  -2   1  15   77.85    3.79
   2   1 -15   77.77    2.10
   2  -1 -13  138.21    4.69
  -2  -1  13  134.14    4.33
  -2   1  13  130.26    4.18
   2   1 -13  134.42    4.34
  -2   1  13  133.45    3.63
   2  -1 -13  142.19    3.71
  -2   1  13  145.04    3.69
   2  -1 -13  136.81    3.59
  -2  -1  13  136.04    4.14
  -2   1  13  138.02    4.71
   2   1 -13  139.57    3.03
   2  -1 -11   51.17    2.55
  -2   1  11   52.18    2.30
  -2  -1  11   52.81    2.42
   2  -1 -11   53.31    1.94
  -2   1  11   50.73    1.92
   2   1 -11   46.03    2.26
  -2   1  11   51.08    1.87
  -2  -1  11   48.66    2.21
   2  -1 -11   48.30    1.82
  -2   1  11   50.45    2.55
   2  -1 -11   50.69    2.57
   2   1 -11   50.64    1.67
  -2  -1  11   49.64    2.48
   2   1 -11   50.70    2.51
   2  -1  -9   32.70    1.85
  -2   1   9   36.14    1.70
   2  -1  -9   33.92    1.35
  -2   1   9   33.81    1.34
   2   1  -9   35.20    1.82
  -2  -1   9   34.18    1.79
  -2   1   9   33.97    1.30
  -2  -1   9   35.33    1.71
   2  -1  -9   32.79    1.29
  -2   1   9   35.07    1.92
   2  -1  -9   36.23    1.95
   2   1  -9   32.67    1.81
   2   1  -9   33.43    1.30
  -2  -1   9   32.59    1.81
  -2  -1   7   81.44    2.05
   2  -1  -7   73.25    2.55
  -2   1   7   82.37    2.31
   2  -1  -7   80.38    1.83
  -2  -1   7   77.88    2.52
   2   1  -7   79.58    2.53
  -2   1   7   78.41    1.83
  -2   1   7   76.81    1.71
  -2  -1   7   79.39    2.38
   2  -1  -7   76.85    1.71
   2  -1  -7   77.46    2.61
   2   1  -7   77.39    2.00
   2   1  -7   78.58    2.53
  -2   1   7   79.02    2.65
  -2  -1   7   81.57    2.57
  -2  -1   5   28.92    1.13
  -2   1   5   27.05    1.33
   2  -1  -5   29.09    1.38
  -2  -1   5   27.01    1.30
  -2   1   5   28.10    0.81
   2  -1  -5   25.51    1.07
   2   1  -5   27.12    1.32
  -2   1   5   27.28    0.67
   2  -1  -5   27.64    0.67
   2  -1  -5   30.22    1.40
  -2   1   5   27.63    1.35
   2   1  -5   27.87    1.10
  -2  -1   5   25.58    1.20
   2   1  -5   27.67    1.23
  -2  -1   3   64.60    1.90
   2   1  -3   68.94    1.95
  -2   1   3   68.17    1.92
   2  -1  -3   69.31    1.97
   2   1  -3   67.72    1.75
  -2  -1   3   68.89    1.60
  -2  -1   3   67.91    1.77
   2   1  -3   66.02    1.58
  -2   1   3   67.46    1.96
   2  -1  -3   67.09    1.92
  -2   1   1  165.32    3.02
   2  -1  -1  168.17    3.05
  -2   1   1  163.13    2.55
   2   1  -1  163.01    3.02
  -2   1   1  161.41    2.46
   2  -1  -1  168.26    2.47
  -2  -1   1  162.59    3.02
   2   1  -1  165.28    3.04
   2   1   1    6.56    0.58
  -2  -1  -1    7.10    0.61
  -2   1  -1    5.80    0.56
   2  -1   1    5.57    0.51
  -2   1  -1    6.53    0.55
   2  -1   1    6.89    0.59
  -2  -1  -1    5.36    0.52
   2   1   1    5.89    0.57
   2  -1   1    7.11    0.59
  -2   1  -1    6.50    0.53
   2  -1   3  411.73    5.36
  -2  -1  -3  417.97    5.24
   2   1   3  416.82    6.27
  -2  -1  -3  408.13    6.22
   2  -1   3  410.95    6.36
  -2   1  -3  417.30    6.39
   2   1   3  412.03    6.14
   2  -1   3  432.95    6.41
  -2  -1  -3  414.68    6.11
  -2   1  -3  410.55    6.34
  -2  -1  -3  418.84    6.31
  -2  -1  -3  414.61    6.06
  -2  -1  -3  423.23    5.68
   2   1   3  412.91    6.06
   2  -1   5   54.22    1.03
  -2  -1  -5   53.10    1.77
  -2   1  -5   56.07    2.07
   2   1   5   55.94    2.02
   2  -1   5   54.41    2.02
  -2  -1  -5   52.36    1.90
   2   1   5   58.72    2.00
   2   1   5   54.70    1.82
   2  -1   5   55.78    2.05
  -2   1  -5   55.50    2.05
  -2  -1  -5   52.60    1.78
  -2  -1  -5   52.49    1.65
  -2  -1  -5   55.83    1.78
   2   1   7   86.21    2.85
  -2   1  -7   86.45    2.84
   2  -1   7   82.95    2.81
  -2  -1  -7   87.44    2.54
  -2   1  -7   84.52    2.83
  -2  -1  -7   83.69    2.71
  -2  -1  -7   79.32    2.43
   2  -1   7   83.96    2.84
   2   1   7   80.53    2.47
  -2   1  -7   81.91    1.60
   2   1   7   82.02    2.68
  -2  -1  -7   82.17    2.22
  -2  -1  -7   85.38    2.65
  -2   1  -9   71.21    2.81
   2   1   9   69.12    2.82
  -2  -1  -9   73.61    2.53
   2  -1   9   70.91    2.82
  -2   1  -9   71.06    1.77
  -2  -1  -9   67.49    2.44
  -2   1  -9   72.84    2.86
   2   1   9   70.89    2.69
   2  -1   9   70.73    2.83
  -2  -1  -9   69.42    2.64
  -2   1  -9   72.39    2.88
  -2  -1  -9   71.05    2.72
  -2  -1  -9   70.63    2.12
  -2  -1 -11  497.13    8.76
  -2  -1 -11  497.90    8.59
  -2   1 -11  493.80    9.31
   2   1  11  480.52    9.33
   2  -1  11  494.71    9.33
  -2  -1 -11  482.53    8.46
   2   1  11  475.61    8.88
  -2   1 -11  476.92    7.10
  -2   1 -11  509.65    9.44
  -2  -1 -11  500.11    9.05
   2  -1  11  487.08    9.30
  -2  -1 -11  502.80    9.31
  -2  -1 -11  485.40    7.46
  -2   1 -11  509.81    9.57
  -2  -1 -13   67.71    3.01
  -2   1 -13   69.85    3.23
  -2  -1 -13   67.96    2.86
   2   1  13   66.34    3.24
  -2   1 -13   65.96    2.18
   2  -1  13   67.21    3.23
  -2  -1 -13   71.57    2.89
  -2  -1 -13   66.68    3.04
   2   1  13   69.71    3.10
  -2  -1 -13   67.99    2.19
  -2  -1 -15  113.89    4.34
  -2   1 -15  111.78    4.46
   2   1  15  119.90    4.76
  -2  -1 -15  116.07    4.14
   2  -1  15  120.36    4.63
  -2   1 -15  112.80    3.18
  -2  -1 -15  111.80    3.95
   2   1  15  109.14    4.23
  -2  -1 -15  121.24    3.03
  -2  -1 -17   65.05    3.50
   2  -1  17   63.07    3.55
   2   1  17   59.66    3.30
  -2  -1 -17   60.06    3.13
  -2   1 -17   61.82    3.54
   2   1  17   55.80    3.49
  -2  -1 -19    0.12    0.68
   2   1  19   -0.18    0.66
   2  -1  19    0.26    0.76
  -2  -1 -19   -0.09    0.60
   2   1  19    1.13    0.76
   2  -1  19   -1.67    0.87
  -2   1 -19   -1.36    1.03
  -2  -1 -21    8.93    1.62
  -2   1 -21   10.13    1.68
   2  -1  21    7.76    1.48
   2   1  21    7.07    1.42
   2   2 -20    4.77    1.18
   2  -2 -20    3.45    1.19
  -2  -2  20    4.91    1.16
   2  -2 -18   76.84    4.16
   2   2 -18   74.79    3.99
  -2  -2  18   70.83    3.73
  -2   2  18   78.26    4.35
   2  -2 -16   74.08    3.80
   2  -2 -16   72.64    2.57
   2   2 -16   68.45    3.57
  -2  -2  16   70.86    3.48
   2  -2 -16   68.44    2.66
  -2   2  16   65.40    3.67
   2  -2 -14  141.26    4.97
   2  -2 -14  146.25    3.45
   2   2 -14  140.95    4.94
   2  -2 -14  137.76    3.61
  -2  -2  14  141.42    4.74
   2   2 -14  143.42    2.86
  -2   2  14  137.97    5.00
   2  -2 -12  207.55    5.73
  -2  -2  12  212.72    5.83
   2   2 -12  206.05    5.72
   2  -2 -12  215.30    3.96
  -2  -2  12  214.55    5.60
   2  -2 -12  215.23    5.85
   2  -2 -12  204.40    4.23
   2   2 -12  210.44    5.71
   2   2 -12  211.55    3.89
  -2   2  12  205.11    5.76
   2  -2 -10   15.38    1.37
  -2  -2  10   14.62    0.90
   2   2 -10   16.58    1.46
   2  -2 -10   17.72    0.80
  -2  -2  10   17.51    1.47
  -2  -2  10   15.89    1.35
   2  -2 -10   17.08    1.46
   2  -2 -10   14.87    0.88
   2   2 -10   15.87    0.92
   2  -2 -10   16.68    1.45
  -2   2  10   19.89    1.57
   2   2 -10   16.86    1.40
  -2  -2   8  144.45    3.10
   2  -2  -8  142.29    3.99
  -2   2   8  140.14    4.00
  -2  -2   8  138.81    4.02
   2  -2  -8  141.59    3.65
   2   2  -8  138.74    4.03
   2  -2  -8  145.16    2.15
   2  -2  -8  142.42    2.71
  -2  -2   8  144.17    3.92
  -2   2   8  147.13    4.06
   2  -2  -8  139.52    3.98
   2   2  -8  139.85    3.07
   2   2  -8  140.84    3.77
   2  -2  -6  113.64    3.25
  -2   2   6  114.23    3.23
  -2  -2   6  115.65    3.33
   2   2  -6  111.99    3.31
   2  -2  -6  109.54    2.91
   2  -2  -6  108.89    2.05
   2   2  -6  109.77    2.87
  -2  -2   6  108.68    2.64
  -2   2   6  112.77    3.20
   2  -2  -6  111.15    3.22
   2   2  -6  111.87    2.67
   2  -2  -4  109.56    2.95
  -2   2   4  111.51    2.95
  -2  -2   4  104.92    2.97
   2   2  -4  114.14    3.09
   2   2  -4  112.51    2.75
   2   2  -4  106.35    2.62
  -2  -2   4  109.65    2.67
  -2   2   4  105.31    2.88
   2   2  -4  107.23    2.41
   2  -2  -4  110.86    2.93
   2  -2  -2  101.73    2.67
  -2   2   2   98.47    2.62
  -2   2   2   99.56    1.79
   2  -2  -2   95.99    1.78
  -2  -2   2   95.13    2.60
   2   2  -2   95.79    2.51
   2  -2  -2  100.53    2.55
  -2  -2   2   96.68    2.50
   2   2  -2   97.45    2.57
  -2   2   2   99.22    2.60
  -2  -2   2   95.88    2.54
   2   2  -2   96.72    1.79
   2   2   0 4292.71   48.28
  -2   2   0 4454.16   49.56
   2  -2   0 4572.49   49.60
  -2   2   0 4486.35   48.78
   2  -2   0 4471.68   48.78
   2   2   0 4520.60   49.58
   2  -2   0 4497.92   48.98
   2  -2   0 4345.16   48.78
  -2  -2   0 4548.10   49.54
   2   2   0 4444.91   49.66
  -2  -2   0 4524.15   49.68
  -2  -2  -2  562.29    6.95
  -2   2  -2  551.20    8.22
   2   2   2  558.32    6.94
  -2   2  -2  547.32    8.04
   2  -2   2  541.52    8.02
   2   2   2  550.46    8.26
   2  -2   2  554.44    8.14
   2  -2   2  544.75    6.96
  -2  -2  -2  564.51    8.27
  -2  -2  -2  558.01    6.82
  -2  -2  -2  568.22    8.33
   2   2   2  547.86    8.23
   2   2   2  562.54    6.82
   2   2   4  197.26    3.34
  -2  -2  -4  201.74    3.38
   2  -2   4  199.81    4.36
  -2   2  -4  204.26    4.39
  -2  -2  -4  198.19    4.31
  -2   2  -4  204.80    4.41
   2  -2   4  199.25    4.38
  -2  -2  -4  203.14    4.26
   2   2   4  210.71    4.38
  -2  -2  -4  190.34    4.25
  -2  -2  -4  196.14    3.54
  -2  -2  -4  200.91    4.25
   2   2   4  200.78    3.57
  -2  -2  -6  708.89    9.48
  -2  -2  -6  710.24   10.76
   2  -2   6  694.40   10.87
  -2   2  -6  698.69   10.85
   2  -2   6  707.16   10.88
  -2   2  -6  701.43   10.86
  -2  -2  -6  702.86   10.53
  -2  -2  -6  702.09   10.41
   2   2   6  684.32   10.50
  -2  -2  -6  685.41    9.83
  -2  -2  -6  704.43   10.31
   2   2   6  705.44    9.92
  -2  -2  -8   87.52    2.59
  -2  -2  -8   89.55    3.22
  -2  -2  -8   83.05    2.53
  -2   2  -8   81.04    3.10
   2  -2   8   88.57    3.25
  -2  -2  -8   78.22    2.90
  -2   2  -8   83.60    3.15
   2   2   8   83.78    2.97
  -2  -2  -8   86.05    2.93
   2  -2   8   84.44    3.16
  -2  -2  -8   82.67    2.78
  -2  -2  -8   81.19    2.69
   2   2   8   81.38    2.78
  -2  -2 -10  167.29    4.24
  -2   2 -10  162.74    4.87
   2   2  10  170.81    4.92
  -2  -2 -10  162.79    4.02
   2  -2  10  168.99    5.01
  -2  -2 -10  162.52    4.55
  -2  -2 -10  167.76    4.56
  -2   2 -10  163.92    2.54
   2  -2  10  168.57    4.95
  -2   2 -10  172.53    4.99
  -2  -2 -10  167.30    4.59
  -2   2 -10  176.52    5.01
  -2  -2 -10  167.52    4.21
   2   2  10  167.27    4.59
  -2  -2 -12   65.37    2.79
   2   2  12   67.19    3.23
  -2   2 -12   72.03    3.33
  -2  -2 -12   64.48    2.58
   2   2  12   67.18    2.94
  -2  -2 -12   64.27    2.88
   2  -2  12   63.23    3.14
  -2  -2 -12   68.55    3.00
  -2   2 -12   64.91    1.63
  -2  -2 -12   71.35    2.68
  -2  -2 -12   69.67    3.11
  -2  -2 -14  113.21    4.10
  -2  -2 -14  119.64    3.84
   2   2  14  113.15    4.60
  -2   2 -14  118.80    4.69
   2  -2  14  114.93    4.62
  -2   2 -14  115.82    2.56
   2   2  14  110.62    4.13
  -2  -2 -14  119.11    4.23
  -2  -2 -14  117.98    3.62
  -2  -2 -16   49.21    2.89
  -2  -2 -16   46.61    2.54
  -2   2 -16   48.08    3.13
   2   2  16   54.36    3.36
   2  -2  16   47.88    3.14
   2   2  16   48.97    2.89
  -2  -2 -16   48.75    2.28
  -2   2 -18    2.88    1.07
  -2  -2 -18    3.36    0.82
  -2  -2 -18    2.93    1.09
   2  -2  18    3.07    1.11
  -2   2 -20   13.86    1.93
  -2  -2 -20   14.21    1.95
   2  -2  20   13.96    1.95
  -2  -3  21    3.56    1.16
   2   3 -19   18.86    2.21
   2  -3 -19   20.63    2.32
  -2   3  19   21.33    2.36
  -2  -3  19   19.89    2.15
   2  -3 -17  125.20    5.29
   2   3 -17  131.29    5.49
  -2  -3  17  134.31    5.33
  -2   3  17  133.36    5.60
   2   3 -15   -0.02    0.64
   2  -3 -15    0.57    0.66
  -2   3  15    0.39    0.62
  -2  -3  15    0.11    0.71
   2  -3 -13   18.43    1.75
   2   3 -13   20.49    1.92
   2  -3 -13   21.41    1.27
  -2   3  13   22.17    1.92
  -2  -3  13   21.13    1.99
   2  -3 -11    5.58    0.82
   2   3 -11   10.68    1.33
   2  -3 -11    7.56    1.11
   2   3 -11    7.22    0.70
  -2  -3  11    9.66    0.81
  -2   3  11    6.88    1.04
  -2  -3  11    7.41    1.17
   2  -3 -11    7.12    0.68
   2   3 -11    7.77    1.01
  -2   3   9  207.31    5.39
   2  -3  -9  209.08    5.41
  -2  -3   9  200.99    4.21
   2   3  -9  209.11    5.62
   2  -3  -9  202.91    5.09
  -2  -3   9  204.52    5.63
   2   3  -9  204.02    4.58
   2  -3  -9  206.11    3.86
  -2  -3   9  207.17    5.45
   2  -3  -9  206.78    5.58
   2   3  -9  207.97    5.05
  -2   3   9  204.78    5.33
   2   3  -9  203.37    4.25
   2  -3  -9  212.39    5.50
   2   3  -7    7.61    0.74
  -2  -3   7    7.28    0.77
  -2   3   7    7.63    0.95
   2  -3  -7    8.70    1.02
  -2  -3   7    6.21    0.87
   2   3  -7    8.14    1.05
   2  -3  -7    6.76    0.84
   2  -3  -7    8.07    1.01
   2   3  -7    8.32    0.86
   2  -3  -7    7.73    0.63
  -2   3   7    9.16    1.00
   2  -3  -7    8.81    1.01
   2   3  -7    8.24    0.88
   2  -3  -5  120.78    3.53
  -2   3   5  120.55    3.53
  -2  -3   5  117.36    3.63
   2   3  -5  120.89    3.67
   2  -3  -5  121.89    3.65
   2   3  -5  116.20    3.14
  -2  -3   5  122.41    3.22
   2   3  -5  120.93    2.96
  -2   3   5  122.29    3.47
   2   3  -5  116.85    3.17
   2  -3  -3  256.78    5.26
  -2   3   3  249.36    5.22
   2   3  -3  247.43    5.27
  -2  -3   3  245.87    5.25
  -2   3   3  248.32    3.71
   2  -3  -3  246.43    3.71
  -2  -3   3  246.23    4.97
   2  -3  -3  249.44    5.20
   2   3  -3  246.70    4.97
  -2   3   3  252.19    5.09
   2   3  -3  248.39    5.03
  -2  -3   3  254.87    5.09
   2  -3  -1  282.56    5.60
   2   3  -1  283.30    4.94
  -2   3   1  286.40    5.62
  -2   3   1  291.19    4.72
  -2  -3   1  284.41    5.46
   2  -3  -1  282.46    4.70
  -2  -3   1  285.00    5.49
   2  -3  -1  284.12    5.29
   2   3  -1  291.54    5.57
  -2  -3   1  297.55    5.67
   2   3   1  159.52    3.22
  -2   3  -1  165.64    4.06
   2  -3   1  163.40    4.04
  -2  -3  -1  164.69    3.71
  -2   3  -1  161.09    3.64
   2  -3   1  162.23    3.65
   2   3   1  161.07    4.00
   2  -3   1  166.69    3.86
   2  -3   1  163.57    3.41
  -2  -3  -1  165.49    4.03
  -2  -3  -1  161.38    4.09
   2   3   1  169.50    2.72
   2   3   3    1.59    0.34
  -2  -3  -3    2.07    0.59
   2  -3   3    1.70    0.49
  -2   3  -3    4.22    0.72
  -2   3  -3    1.24    0.46
  -2  -3  -3    1.78    0.36
  -2   3  -3    1.22    0.32
   2   3   3    1.14    0.53
   2  -3   3    1.59    0.33
  -2  -3  -3    2.51    0.57
   2  -3   3    1.09    0.54
   2   3   3    1.59    0.29
  -2  -3  -3    2.20    0.31
  -2   3  -5   21.19    1.50
  -2  -3  -5   23.22    1.16
   2   3   5   21.44    1.13
   2  -3   5   23.56    1.58
  -2   3  -5   22.54    1.57
  -2  -3  -5   21.83    1.52
   2  -3   5   22.92    1.59
  -2  -3  -5   22.14    1.55
   2   3   5   21.17    1.51
   2  -3   5   21.34    0.82
  -2   3  -5   21.77    0.83
   2   3   5   21.97    1.15
  -2  -3  -5   22.71    1.53
  -2  -3  -5   23.63    1.19
  -2  -3  -7  186.99    4.04
   2   3   7  183.47    4.03
  -2  -3  -7  186.63    4.99
  -2   3  -7  181.69    5.00
   2  -3   7  185.22    5.08
   2  -3   7  189.71    5.13
  -2   3  -7  184.17    2.56
   2   3   7  176.96    4.85
  -2  -3  -7  186.31    4.67
  -2  -3  -7  183.73    4.93
   2  -3   7  187.88    3.48
  -2  -3  -7  180.13    4.20
   2   3   7  182.98    4.23
  -2  -3  -7  187.47    4.83
  -2  -3  -9   71.22    2.56
  -2  -3  -9   69.79    3.10
  -2   3  -9   66.99    3.10
   2  -3   9   68.68    3.17
  -2  -3  -9   69.44    2.34
   2   3   9   67.37    3.01
  -2  -3  -9   69.24    2.83
  -2  -3  -9   70.75    3.06
   2  -3   9   64.31    3.08
  -2  -3  -9   67.75    2.69
   2   3   9   64.95    2.63
   2  -3   9   67.72    1.54
  -2  -3  -9   68.01    2.86
  -2  -3 -11  121.92    3.80
  -2   3 -11  115.91    4.48
  -2  -3 -11  129.64    3.52
   2  -3  11  118.56    4.51
  -2  -3 -11  122.79    4.05
  -2  -3 -11  126.38    4.11
  -2  -3 -11  121.53    4.08
   2   3  11  123.15    4.09
  -2  -3 -13  233.29    5.97
  -2  -3 -13  233.64    5.30
  -2   3 -13  235.94    7.01
  -2  -3 -13  241.96    6.24
   2  -3  13  229.95    6.88
   2   3  13  234.00    6.39
  -2  -3 -13  240.84    6.06
  -2  -3 -15    1.42    0.49
  -2   3 -15    2.17    0.86
  -2  -3 -15    1.36    0.51
  -2  -3 -15    1.51    0.55
   2  -3  15    1.03    0.67
  -2   3 -17   -0.30    0.68
  -2  -3 -17    0.66    0.57
  -2  -3 -17    0.14    0.71
   2  -3  17    2.15    1.04
  -2   3 -19   31.64    2.92
  -2  -3 -19   28.11    2.48
   2  -3  19   26.91    2.70
   2  -4 -18   60.67    3.85
   2   4 -18   59.58    3.97
  -2  -4  18   58.10    3.79
  -2   4  18   52.70    3.67
   2  -4 -16  216.16    7.10
   2   4 -16  234.93    7.75
   2   4 -16  227.54    5.51
  -2  -4  16  218.59    7.26
  -2   4  16  212.15    7.13
  -2  -4  14   13.72    0.96
   2  -4 -14   14.85    1.77
   2   4 -14   13.63    1.82
   2   4 -14   16.60    1.39
  -2  -4  14   16.83    1.98
  -2   4  14   12.32    1.62
   2  -4 -12    0.50    0.66
  -2  -4  12    0.06    0.32
   2   4 -12    0.06    0.50
   2   4 -12   -0.25    0.47
  -2   4  12    1.00    1.08
   2  -4 -12    0.02    0.30
  -2  -4  12    0.57    0.60
   2  -4 -10    0.51    0.49
  -2  -4  10    0.07    0.30
   2   4 -10    0.60    0.61
   2  -4 -10    0.17    0.45
   2  -4 -10    0.02    0.24
   2   4 -10   -0.01    0.33
   2   4 -10   -0.22    0.43
  -2  -4  10    0.24    0.66
  -2   4  10    0.54    0.56
   2  -4  -8  273.30    6.52
  -2   4   8  274.42    6.56
   2   4  -8  276.04    6.91
   2   4  -8  277.88    5.77
   2  -4  -8  278.58    5.18
  -2   4   8  267.13    6.35
  -2  -4   8  276.14    5.72
   2   4  -8  269.96    5.93
  -2   4   6   48.03    2.41
   2  -4  -6   51.69    2.49
  -2  -4   6   50.34    2.59
   2   4  -6   47.47    2.54
   2   4  -6   54.83    2.27
   2  -4  -6   51.03    2.60
  -2   4   6   48.38    2.34
  -2  -4   6   50.52    2.24
   2  -4  -4   45.30    2.28
  -2   4   4   45.13    2.26
   2  -4  -4   46.27    1.37
  -2  -4   4   47.37    2.37
   2   4  -4   45.90    2.36
   2  -4  -4   47.80    2.36
   2   4  -4   44.19    2.08
  -2   4   4   46.83    2.19
  -2  -4   4   47.40    2.21
  -2   4   2   22.98    1.60
   2  -4  -2   20.93    1.51
   2   4  -2   23.68    1.42
  -2   4   2   24.03    1.18
  -2  -4   2   24.15    1.61
   2  -4  -2   20.90    1.10
  -2  -4   2   20.73    1.44
   2  -4  -2   21.79    1.50
   2   4  -2   20.98    1.46
  -2  -4   2   22.67    1.57
  -2   4   2   22.06    1.45
   2   4   0  744.04   10.79
   2  -4   0  737.30   11.76
  -2   4   0  774.02   11.92
   2  -4   0  740.72   10.76
  -2   4   0  759.60   10.82
  -2  -4   0  739.38   11.31
   2   4   0  746.61   11.70
   2  -4   0  749.32   11.12
  -2  -4   0  756.68   11.74
  -2  -4   0  763.55   12.05
   2   4   0  750.71    9.67
  -2   4  -2 1070.67   15.42
   2   4   2 1009.43   13.78
  -2  -4  -2 1041.57   13.86
  -2   4  -2 1056.56   14.65
   2  -4   2 1043.30   14.64
  -2  -4  -2 1053.23   14.30
   2  -4   2 1051.60   15.05
   2  -4   2 1037.09   13.86
  -2   4  -2 1045.65   13.87
   2   4   2 1041.55   15.31
  -2  -4  -2 1061.91   15.37
   2   4   2 1038.43   12.94
  -2  -4  -2 1059.35   15.54
   2   4   4   68.82    2.33
  -2  -4  -4   72.30    2.37
  -2   4  -4   75.37    3.09
  -2   4  -4   78.30    3.02
   2  -4   4   80.25    3.06
  -2  -4  -4   75.17    2.47
   2  -4   4   76.89    3.11
   2   4   4   78.71    3.15
  -2   4  -4   77.61    2.23
  -2  -4  -4   76.35    3.12
   2  -4   4   73.36    2.17
   2   4   4   75.30    2.21
  -2  -4  -4   74.67    3.12
  -2   4  -6  217.89    5.80
   2   4   6  209.32    4.58
  -2  -4  -6  217.54    4.65
  -2   4  -6  216.96    5.68
   2  -4   6  226.85    5.84
   2  -4   6  214.78    5.77
  -2   4  -6  216.71    3.85
   2   4   6  216.26    5.74
  -2  -4  -6  221.58    5.91
   2   4   6  221.74    4.65
  -2  -4  -6  207.00    4.55
  -2  -4  -6  222.10    5.80
   2  -4   6  211.05    4.59
  -2  -4  -8   37.03    1.88
   2   4   8   37.73    1.87
  -2   4  -8   36.90    2.37
   2  -4   8   38.13    2.47
  -2  -4  -8   36.87    2.15
   2   4   8   39.27    2.44
  -2   4  -8   38.08    1.14
  -2  -4  -8   37.15    2.31
   2  -4   8   37.62    1.63
   2   4   8   34.67    1.86
  -2  -4  -8   36.08    1.90
  -2  -4 -10    3.32    0.63
  -2  -4 -10    3.89    0.88
   2  -4  10    3.58    0.47
  -2   4 -10    3.79    0.89
  -2  -4 -10    4.03    0.63
  -2  -4 -10    3.74    0.78
   2   4  10    2.44    0.67
  -2  -4 -10    4.25    0.77
   2  -4  10    3.26    0.90
  -2  -4 -12   59.26    2.81
  -2   4 -12   53.11    3.26
  -2  -4 -12   59.32    2.30
  -2  -4 -12   57.85    2.92
   2  -4  12   55.70    3.35
  -2  -4 -12   59.26    3.13
   2   4  12   57.21    2.92
  -2   4 -14    9.90    1.56
  -2  -4 -14   15.26    1.20
  -2  -4 -14   13.06    1.54
  -2  -4 -14   11.27    1.34
   2  -4  14   14.81    1.86
   2   4  14   13.00    1.54
  -2   4 -16   16.10    2.11
  -2  -4 -16   15.28    1.68
   2  -4  16   14.67    1.97
  -2  -4 -16   16.82    1.76
  -2  -4 -18   46.87    3.12
   2  -4  18   50.37    3.76
   2  -5 -19    9.42    1.65
   2  -5 -17   29.17    2.68
  -2  -5  17   26.37    2.69
  -2   5  17   25.14    2.51
   2   5 -15   -0.54    0.81
   2  -5 -15    0.44    0.73
  -2  -5  15    0.10    0.83
  -2  -5  13    4.41    0.72
   2  -5 -13    5.47    1.21
   2   5 -13    7.03    1.37
   2   5 -13    3.10    0.70
  -2   5  13    3.88    0.96
  -2  -5  13    5.24    1.30
  -2  -5  11    1.18    0.48
   2  -5 -11    0.21    0.51
   2   5 -11    0.10    0.60
   2  -5 -11   -0.04    0.38
   2   5 -11    0.19    0.43
  -2   5  11   -0.41    0.64
  -2  -5  11   -0.45    0.78
   2  -5  -9   41.52    2.60
   2   5  -9   44.54    2.88
   2   5  -9   39.68    2.14
   2  -5  -9   45.33    2.07
  -2   5   9   44.86    2.61
  -2  -5   9   40.61    2.21
   2   5  -9   42.50    2.33
   2  -5  -7   60.32    2.99
   2   5  -7   68.34    3.38
   2   5  -7   60.98    2.68
  -2  -5   7   60.23    2.72
  -2   5   7   63.52    2.95
   2   5  -7   59.18    2.52
  -2   5   5    9.04    1.13
  -2  -5   5    7.66    1.05
   2  -5  -5    9.21    1.19
   2   5  -5    9.63    1.14
   2  -5  -5    8.89    0.64
   2   5  -5    9.75    1.26
   2   5  -5    9.45    1.13
  -2   5   5    8.61    1.03
  -2   5   3   44.24    2.43
   2  -5  -3   40.39    2.36
   2   5  -3   44.21    2.27
  -2  -5   3   45.50    2.47
   2  -5  -3   40.60    1.67
   2  -5  -3   43.07    2.39
   2   5  -3   48.06    2.40
  -2  -5   3   44.19    2.33
  -2  -5   3   42.20    2.37
  -2   5   3   45.33    2.29
   2  -5  -1   91.32    3.53
  -2   5   1   90.91    3.55
   2   5  -1   93.83    3.23
  -2  -5   1   86.25    3.30
  -2   5   1   93.08    2.95
   2  -5  -1   93.01    2.93
   2   5  -1   95.88    3.56
  -2  -5   1  100.19    3.61
   2  -5  -1   90.06    3.35
  -2  -5   1   93.15    3.68
  -2  -5  -1    2.41    0.79
   2   5   1    3.14    0.58
   2  -5   1    4.29    0.73
  -2   5  -1    4.09    0.73
  -2  -5  -1    3.41    0.68
  -2   5  -1    2.88    0.69
   2  -5   1    3.73    0.71
  -2  -5  -1    3.73    0.78
   2   5   1    2.87    0.75
   2   5   1    3.71    0.51
  -2  -5  -3    1.45    0.64
   2   5   3    1.43    0.51
   2  -5   3    2.36    0.59
  -2   5  -3    2.26    0.65
  -2   5  -3    3.43    0.83
  -2  -5  -3    1.46    0.50
  -2  -5  -3    1.98    0.52
  -2   5  -3    1.26    0.45
   2   5   3    1.36    0.60
   2  -5   3    2.02    0.49
   2  -5   3    2.27    0.74
   2   5   3    2.18    0.44
   2   5   5  123.48    3.63
  -2  -5  -5  121.71    3.63
   2  -5   5  133.86    4.51
  -2   5  -5  124.33    4.34
  -2  -5  -5  124.93    3.55
   2  -5   5  127.15    3.34
  -2   5  -5  130.89    3.38
   2   5   5  123.58    4.51
   2  -5   5  132.36    4.66
   2  -5   5  130.34    3.97
  -2  -5  -5  133.22    4.75
   2   5   5  125.15    3.36
   2   5   7   14.37    1.22
  -2  -5  -7   12.96    1.20
  -2  -5  -7   16.20    1.70
  -2   5  -7   17.90    1.75
  -2  -5  -7   15.91    1.16
  -2   5  -7   15.53    0.99
   2   5   7   13.73    1.63
   2   5   7   17.34    1.31
   2  -5   7   15.56    1.68
   2  -5   7   16.62    1.34
   2   5   9  174.76    4.81
  -2  -5  -9  181.93    4.92
  -2   5  -9  192.17    6.19
  -2  -5  -9  188.29    4.28
   2  -5   9  190.91    6.30
   2   5   9  178.03    6.00
   2  -5   9  201.33    4.60
  -2  -5  -9  179.46    4.97
  -2  -5  -9  190.83    6.09
   2   5   9  185.14    4.96
  -2  -5 -11  326.64    7.34
  -2  -5 -11  339.56    6.20
  -2   5 -11  330.11    8.89
   2  -5  11  339.57    9.08
   2  -5  11  346.38    5.98
  -2  -5 -11  324.76    8.51
   2   5  11  326.07    7.51
  -2   5 -13    3.72    1.16
  -2  -5 -13    3.52    0.88
  -2  -5 -13    4.91    1.06
   2   5  13    4.31    0.95
   2  -5  13    4.65    1.20
  -2  -5 -15   30.37    2.32
  -2   5 -15   39.31    3.22
   2  -5  15   37.27    3.16
   2   5  15   29.68    2.51
  -2  -5 -15   32.27    2.71
  -2  -5 -17   -0.34    0.75
   2  -6 -16   48.91    3.51
  -2   6  16   55.37    3.75
   2   6 -14   -0.56    0.82
   2  -6 -14    0.12    0.67
  -2   6  14   -0.41    0.74
  -2  -6  14    0.19    0.77
  -2  -6  12    5.84    0.93
   2  -6 -12    4.14    1.12
   2   6 -12    6.05    1.32
   2   6 -12    5.25    0.92
  -2   6  12    4.95    1.11
  -2  -6  12    5.36    1.28
  -2  -6  10   10.93    1.25
   2  -6 -10    9.86    1.47
   2   6 -10   10.78    1.68
   2   6 -10    8.21    1.09
  -2  -6  10    9.17    1.54
  -2   6  10    8.48    1.28
  -2  -6   8    8.00    1.14
   2  -6  -8    7.60    1.27
   2   6  -8   10.95    1.64
   2   6  -8    8.65    1.15
  -2   6   8    8.95    1.23
   2   6  -8    7.85    1.04
   2  -6  -6   34.43    2.39
   2   6  -6   34.02    2.54
   2  -6  -6   35.28    1.26
   2   6  -6   35.69    2.26
  -2   6   6   32.05    2.17
  -2  -6   6   33.70    2.30
  -2  -6   4    0.17    0.57
   2  -6  -4    0.85    0.63
   2  -6  -4    0.41    0.30
   2   6  -4    0.18    0.48
  -2   6   4    0.82    0.61
   2   6  -2   27.23    1.96
   2  -6  -2   29.75    2.20
   2  -6  -2   28.57    1.68
   2   6  -2   29.59    2.12
  -2  -6   2   27.91    2.20
  -2   6   2   29.15    2.00
   2   6   0   90.47    3.48
  -2  -6   0   88.54    3.55
   2  -6   0   90.00    3.34
  -2   6   0   95.59    3.46
   2   6   0   91.16    3.89
   2  -6   0  115.57    4.02
   2   6   0   94.36    2.79
  -2  -6   0   95.53    4.14
   2   6   2  115.72    3.89
   2  -6   2  128.64    4.30
  -2  -6  -2  120.32    3.98
  -2   6  -2  122.55    4.25
   2   6   2  116.00    4.55
   2  -6   2  119.00    3.97
   2  -6   2  115.14    4.43
  -2  -6  -2  125.17    4.89
   2   6   2  120.59    3.23
  -2  -6  -4  732.97   12.00
   2   6   4  719.15   11.90
  -2  -6  -4  716.71   11.67
  -2   6  -4  749.92   13.10
   2   6   4  721.13   13.59
   2  -6   4  735.76   13.57
   2  -6   4  707.65   11.53
   2   6   4  752.15   10.94
   2  -6   4  733.51   12.79
  -2  -6  -4  750.83   14.03
  -2  -6  -6    5.02    1.08
   2   6   6    2.95    0.78
   2  -6   6    2.77    0.71
  -2  -6  -6    3.13    0.73
  -2   6  -6    4.27    1.07
  -2  -6  -6    4.04    0.71
   2   6   6    2.25    0.76
   2  -6   6    2.64    0.59
   2  -6   6    2.77    0.90
   2   6   6    4.64    0.72
   2   6   8   -0.37    0.47
  -2  -6  -8    0.27    0.71
   2  -6   8    0.15    0.40
  -2   6  -8   -0.20    0.62
  -2  -6  -8    0.49    0.42
   2   6   8   -0.06    0.82
   2   6   8    0.15    0.34
   2  -6   8    0.23    0.73
  -2  -6 -10   34.62    2.24
  -2   6 -10   32.82    2.75
   2  -6  10   33.72    2.87
   2  -6  10   37.51    2.06
   2   6  10   33.77    2.16
  -2  -6 -10   32.92    2.78
  -2   6 -12    0.20    0.73
  -2  -6 -12    0.24    0.48
  -2  -6 -12   -0.05    0.67
   2  -6  12   -1.18    0.77
   2   6  12    0.25    0.49
  -2  -6 -14    9.04    1.38
  -2  -6 -14    6.57    1.44
   2   6  14    6.07    1.10
  -2  -6 -16    1.71    0.92
   2   6  16    2.30    0.89
   2  -7 -13   27.95    2.64
  -2   7  13   29.30    2.64
   2   7 -11    5.22    1.39
   2  -7 -11    5.91    1.35
  -2  -7  11    5.12    1.39
  -2   7  11    4.90    1.20
   2   7  -9   21.97    2.36
   2  -7  -9   19.08    2.08
   2   7  -9   20.97    1.84
  -2   7   9   19.57    1.96
  -2  -7   9   18.11    2.19
  -2  -7   9   19.51    1.90
  -2  -7   7   -0.52    0.69
   2   7  -7    1.38    0.92
   2  -7  -7   -0.43    0.73
   2   7  -7    0.62    0.52
  -2   7   7   -0.28    0.63
   2  -7  -5   22.69    2.16
   2   7  -5   25.22    2.13
  -2  -7   5   22.98    2.15
  -2   7   5   26.93    2.13
   2  -7  -3   24.01    2.20
   2   7  -3   27.78    2.25
  -2  -7   3   25.77    2.30
  -2   7   3   27.04    2.12
  -2  -7   1    4.78    1.17
   2  -7  -1    5.81    0.94
   2   7  -1    4.70    1.03
   2   7  -1    6.29    0.80
  -2   7   1    5.51    1.01
  -2  -7  -1    7.33    1.35
   2  -7   1   10.78    1.56
  -2   7  -1    9.71    1.25
   2   7   1    8.24    1.39
   2   7   1    8.24    0.87
   2  -7   3    1.13    0.69
  -2  -7  -3    0.23    0.68
  -2  -7  -3   -0.65    0.58
  -2   7  -3   -0.34    0.61
   2   7   3   -0.22    0.64
   2  -7   3   -0.42    0.74
   2   7   3   -0.59    0.37
   2  -7   5    6.63    1.22
  -2  -7  -5    7.25    1.49
  -2   7  -5    7.25    1.30
   2   7   5    9.39    1.60
   2  -7   5    9.18    1.52
   2   7   5    7.77    0.95
  -2  -7  -7    4.07    1.21
   2  -7   7    4.18    0.97
  -2   7  -7    5.81    1.25
  -2  -7  -7    4.53    0.87
   2   7   7    6.29    1.33
   2   7   7    6.48    0.92
   2  -7   7    2.96    1.05
  -2  -7  -9   12.04    1.43
  -2   7  -9   16.76    2.04
   2  -7   9   12.85    1.52
  -2  -7  -9   15.05    2.08
   2  -7   9   11.94    1.84
  -2   7 -11   12.39    1.88
  -2  -7 -11    9.52    1.70
   2  -8 -10    9.70    1.65
  -2   8  10   11.15    1.64
   2  -8  -8    1.83    1.00
  -2  -8   8    2.74    0.99
  -2   8   8    1.78    0.78
   2  -8  -6    7.42    1.57
  -2  -8   6    6.69    1.33
   2  -8  -6    6.43    1.41
   2   8  -6    9.44    1.44
  -2   8   6    7.55    1.30
   2  -8  -4   86.83    4.49
   2   8  -4   81.53    4.14
  -2  -8   4   84.98    4.52
  -2   8   4   84.36    3.96
   2  -8  -4   92.60    4.95
   2  -8  -2    1.48    0.93
  -2  -8   2    3.66    1.28
   2   8  -2    1.45    0.93
  -2   8   2    2.74    0.72
   2  -8   0   31.90    2.67
   2   8   0   31.98    2.78
  -2  -8   0   31.26    2.80
  -2   8   0   34.23    2.53
   2  -8   0   33.44    2.89
   2  -8   2    3.60    1.08
  -2  -8  -2    6.08    1.42
  -2   8  -2    2.01    0.72
   2   8   2    3.42    1.16
   2  -8   2    2.96    1.13
  -2   8  -4  286.07    8.22
   2  -8   4  274.10    8.68
   2   8   4  306.70    9.17
  -2  -8  -4  290.37    9.22
   2  -8   4  289.60    8.50
  -2   8  -6   34.45    2.88
   2  -8   6   35.17    3.07
   2   8   6   39.30    3.39
   2  -8   6   39.83    2.95
  -2   8  -8   38.23    3.20
   2   9  -5    7.82    1.61
   2   9  -3    3.66    1.18
   2  -9  -1   34.38    2.95
   2   9  -1   28.61    2.86
   2  -9   1    4.36    1.39
   2  -9   3    9.58    1.82
   2  -9   5    7.18    1.56
  -2   9  -5    5.27    1.24
  -3   0  21    0.82    0.87
   3   0 -19    0.37    0.64
   3   0 -19    0.09    0.52
  -3   0  19   -0.20    0.55
  -3   0  19    0.94    0.65
   3   0 -17   -0.32    0.48
  -3   0  17    0.03    0.55
   3   0 -17    0.77    0.71
  -3   0  17   -0.98    0.86
  -3   0  17    0.33    0.46
  -3   0  15    0.05    0.39
  -3   0  15   -0.50    0.35
   3   0 -15    0.65    0.49
   3   0 -15   -0.05    0.61
   3   0 -15   -0.13    0.33
  -3   0  15   -0.27    0.44
  -3   0  15   -0.21    0.60
  -3   0  13   -0.10    0.40
  -3   0  13   -0.32    0.45
   3   0 -13    0.50    0.37
   3   0 -13    0.66    0.61
   3   0 -13    0.23    0.29
  -3   0  13    0.77    0.42
  -3   0  13    0.68    0.59
  -3   0  11   -0.15    0.30
  -3   0  11    0.18    0.35
   3   0 -11    0.13    0.34
   3   0 -11    0.15    0.30
   3   0 -11   -0.43    0.54
  -3   0  11    0.59    0.34
  -3   0  11   -0.09    0.38
   3   0 -11   -0.37    0.37
  -3   0   9   -0.15    0.31
   3   0  -9    0.25    0.31
  -3   0   9    0.06    0.28
   3   0  -9    0.13    0.31
   3   0  -9   -0.39    0.42
   3   0  -9    0.17    0.43
  -3   0   9    0.14    0.23
  -3   0   9    0.87    0.45
  -3   0   7   -0.02    0.24
   3   0  -7    0.30    0.29
   3   0  -7    0.27    0.29
   3   0  -7    0.01    0.36
   3   0  -7    0.33    0.33
  -3   0   7   -0.09    0.24
  -3   0   7   -0.17    0.40
  -3   0   5    0.45    0.26
   3   0  -5   -0.19    0.40
   3   0  -5   -0.32    0.29
   3   0  -5    0.43    0.31
  -3   0   5    0.18    0.31
   3   0  -3    0.54    0.34
   3   0  -3    0.28    0.34
  -3   0   3    0.94    0.34
  -3   0   3    0.53    0.40
  -3   0   3    0.26    0.28
   3   0  -1    0.62    0.37
   3   0  -1    1.15    0.29
  -3   0   1    0.27    0.37
  -3   0   1    0.14    0.19
  -3   0   1    0.29    0.23
  -3   0  -1    0.51    0.33
   3   0   1    0.64    0.29
   3   0   1    0.18    0.22
  -3   0  -1    0.63    0.22
   3   0   1    0.40    0.35
  -3   0  -1   -0.05    0.30
  -3   0  -3    0.41    0.28
   3   0   3    0.86    0.29
   3   0   3    0.08    0.34
   3   0   3    0.26    0.24
  -3   0  -3   -0.03    0.19
  -3   0  -3    0.43    0.33
  -3   0  -5    0.05    0.22
   3   0   5    0.08    0.20
  -3   0  -5    0.25    0.39
  -3   0  -5    0.13    0.20
   3   0   5   -0.04    0.42
   3   0   5    0.50    0.23
  -3   0  -5    0.45    0.39
   3   0   7    0.11    0.18
  -3   0  -7    0.05    0.16
  -3   0  -7    0.19    0.36
   3   0   7    0.18    0.45
   3   0   7    0.06    0.24
  -3   0  -7   -0.08    0.22
  -3   0  -7   -0.03    0.37
  -3   0  -7    0.32    0.34
  -3   0  -9    0.02    0.16
  -3   0  -9   -0.06    0.45
  -3   0  -9    0.76    0.29
   3   0   9   -0.08    0.42
  -3   0  -9   -0.34    0.44
  -3   0  -9   -0.01    0.37
  -3   0 -11    0.16    0.16
  -3   0 -11    0.05    0.42
   3   0  11   -0.18    0.51
  -3   0 -11    0.42    0.32
  -3   0 -11    0.36    0.45
  -3   0 -11    0.90    0.49
  -3   0 -13   -0.10    0.14
  -3   0 -13   -0.15    0.33
   3   0  13   -0.19    0.53
  -3   0 -13   -0.27    0.56
   3   0  13    0.56    0.72
   3   0  15   -0.30    0.69
  -3   0 -15   -0.62    0.47
   3   0  15   -0.25    0.57
  -3   0 -15    0.47    0.54
   3   0  17   -0.28    0.70
  -3   0 -17    0.59    0.73
   3   0  17   -0.54    0.79
  -3   0 -19    0.54    0.77
   3   0  19   -0.14    0.69
   3   0  19    1.08    0.88
  -3   0 -19    0.09    0.69
  -3   0 -21    0.01    0.66
  -3   0 -21    0.42    0.68
   3   0  21    1.24    0.83
  -3  -1  22    0.77    0.78
  -3  -1  20    5.76    1.25
   3   1 -20    3.80    1.05
  -3   1  20    4.32    1.10
   3  -1 -20    4.49    1.25
   3   1 -20    6.43    1.40
  -3   1  20    5.55    1.43
  -3  -1  20    5.62    1.00
   3   1 -18   80.35    4.37
   3  -1 -18   84.71    4.44
   3   1 -18   81.70    3.89
  -3  -1  18   90.08    4.05
   3  -1 -18   82.18    3.30
  -3   1  18   77.85    3.76
  -3  -1  18   82.23    3.67
  -3   1  18   86.08    3.21
  -3   1  18   81.67    4.39
   3  -1 -16   91.42    4.29
   3   1 -16   90.51    4.30
   3  -1 -16   81.53    3.14
  -3   1  16   85.34    3.18
  -3   1  16   86.67    3.67
   3   1 -16   88.07    3.81
   3  -1 -16   91.57    3.26
  -3   1  16   90.98    3.06
  -3  -1  16   88.21    3.57
   3   1 -16   88.29    2.63
  -3   1  16   89.18    4.25
   3  -1 -14  324.52    7.94
   3  -1 -14  303.72    6.52
  -3  -1  14  311.12    7.23
  -3   1  14  301.31    6.13
   3  -1 -14  315.34    6.21
   3   1 -14  314.61    7.27
  -3   1  14  315.29    6.97
  -3  -1  14  308.96    6.79
  -3   1  14  319.42    5.91
   3   1 -14  309.88    5.70
  -3   1  14  308.05    7.80
   3  -1 -12    6.69    0.85
   3   1 -12    6.23    0.71
   3  -1 -12    7.12    1.05
  -3  -1  12    7.17    0.98
  -3   1  12    6.35    0.83
  -3   1  12    6.96    0.77
   3   1 -12    7.23    0.95
   3  -1 -12    7.04    0.74
  -3   1  12    6.98    0.67
  -3  -1  12    7.74    0.92
  -3  -1  12    7.20    1.05
  -3   1  12    7.65    1.07
   3   1 -12    6.24    0.95
   3  -1 -10   57.12    2.63
  -3   1  10   47.87    1.72
  -3  -1  10   50.01    2.28
   3   1 -10   49.35    2.27
  -3   1  10   47.90    2.00
   3  -1 -10   51.02    1.78
  -3   1  10   50.19    1.55
  -3  -1  10   48.81    2.06
  -3   1  10   47.97    2.41
   3   1 -10   49.64    2.35
   3  -1 -10   51.88    2.52
  -3  -1  10   50.66    2.39
   3   1 -10   46.43    1.80
   3  -1  -8  307.48    6.34
  -3  -1   8  318.36    5.53
  -3   1   8  314.41    5.47
  -3  -1   8  324.54    6.18
  -3   1   8  319.08    4.96
   3   1  -8  316.04    6.13
  -3   1   8  321.91    4.42
  -3  -1   8  317.23    5.74
   3  -1  -8  325.24    6.49
  -3   1   8  321.39    6.41
   3   1  -8  313.78    5.46
  -3  -1   8  325.42    6.19
   3   1  -8  321.65    6.17
  -3   1   6  665.80    8.46
  -3  -1   6  679.45    9.89
   3   1  -6  678.92    9.91
   3  -1  -6  676.30    8.87
  -3   1   6  675.43   10.11
   3  -1  -6  671.77   10.13
  -3  -1   6  688.23    9.44
   3   1  -6  668.37    9.58
  -3   1   6  683.20   10.10
   3  -1  -6  677.70   10.10
  -3  -1   6  678.95    9.63
   3   1  -6  678.12    9.38
   3  -1  -4    7.74    0.49
  -3  -1   4    7.86    0.76
  -3  -1   4    8.39    0.73
   3   1  -4    7.19    0.69
   3  -1  -4    8.14    0.79
  -3   1   4    8.22    0.76
  -3   1   4    7.66    0.75
   3  -1  -4    7.45    0.72
  -3  -1   4    7.19    0.60
   3   1  -4    8.27    0.62
   3  -1  -2   14.36    0.92
  -3   1   2   12.00    0.83
   3  -1  -2   12.93    0.52
  -3   1   2   12.24    0.50
  -3  -1   2   11.95    0.87
  -3  -1   2   13.57    0.60
   3   1  -2   12.77    0.59
   3   1  -2   12.83    0.85
  -3   1   2   13.32    0.88
   3  -1   0  953.27   12.15
   3  -1   0  978.49   12.16
  -3   1   0  949.59   12.08
  -3   1   0  968.08   11.95
   3   1   0  983.14   12.30
   3  -1   0  970.71   11.75
  -3   1   0  964.30   11.73
  -3  -1   0  979.74   12.35
   3   1   0  971.28   12.31
   3  -1   2   91.67    2.12
  -3   1  -2   95.40    2.33
  -3  -1  -2   93.91    2.32
  -3   1  -2   95.59    2.48
   3  -1   2   93.76    2.44
   3   1   2   95.47    2.38
  -3   1  -2   91.08    2.38
  -3  -1  -2   94.21    2.53
  -3  -1  -2   92.84    2.33
   3   1   2   95.63    2.39
  -3  -1  -2   94.67    2.39
   3  -1   4  311.52    4.59
   3  -1   4  319.67    5.76
  -3  -1  -4  313.77    5.56
   3   1   4  326.03    5.63
  -3   1  -4  323.57    5.80
  -3  -1  -4  323.19    5.76
  -3   1  -4  315.26    5.75
   3   1   4  328.44    5.37
  -3  -1  -4  325.33    5.35
   3  -1   4  321.71    5.77
   3   1   4  320.78    5.75
   3   1   4  314.28    5.26
  -3  -1  -4  313.42    5.27
  -3  -1  -4  319.82    5.05
  -3  -1  -6   23.36    1.36
   3   1   6   23.75    1.45
   3  -1   6   21.17    1.40
  -3   1  -6   21.62    1.42
  -3   1  -6   23.15    1.44
   3   1   6   25.03    1.49
   3  -1   6   20.23    1.40
   3   1   6   22.80    1.25
  -3  -1  -6   23.08    1.24
  -3  -1  -6   22.71    1.40
   3  -1   6   23.14    0.77
   3   1   6   23.60    1.17
  -3  -1  -6   22.01    1.15
  -3  -1  -6   24.03    1.28
  -3   1  -8  251.12    5.71
   3   1   8  257.08    5.74
  -3  -1  -8  247.75    5.29
   3  -1   8  251.37    5.73
  -3   1  -8  257.05    5.82
  -3  -1  -8  251.18    5.03
  -3  -1  -8  258.29    5.64
   3   1   8  249.69    5.01
   3  -1   8  257.43    5.81
  -3   1  -8  246.82    3.59
   3   1   8  252.96    5.60
  -3  -1  -8  252.63    4.66
  -3  -1  -8  247.27    5.35
   3   1  10  210.20    5.57
  -3  -1 -10  219.20    5.22
   3  -1  10  215.06    5.60
  -3   1 -10  214.87    5.56
  -3   1 -10  222.29    5.71
   3  -1  10  212.55    5.60
  -3  -1 -10  213.48    5.45
  -3  -1 -10  205.26    4.79
  -3   1 -10  210.86    3.56
   3   1  10  213.93    5.45
  -3  -1 -10  216.03    4.27
  -3   1 -10  225.23    5.74
  -3  -1 -10  220.26    5.39
  -3  -1 -12  601.31   10.49
  -3   1 -12  594.03   11.10
   3   1  12  595.22   11.23
   3  -1  12  610.26   11.30
  -3  -1 -12  595.96    9.98
  -3  -1 -12  617.54   11.05
   3   1  12  605.53   10.98
  -3   1 -12  596.62    8.32
  -3  -1 -12  615.73   11.07
  -3  -1 -12  618.97    8.94
  -3  -1 -14  418.93    8.74
  -3   1 -14  429.13    9.47
  -3  -1 -14  424.92    8.81
   3   1  14  426.44    9.69
   3  -1  14  420.76    9.46
  -3  -1 -14  416.79    8.24
   3   1  14  422.08    9.22
  -3   1 -14  431.01    6.78
  -3  -1 -14  435.32    6.90
  -3  -1 -16   86.97    3.89
  -3  -1 -16   90.78    3.88
  -3   1 -16   89.00    4.20
   3   1  16   93.67    4.45
   3   1  16   83.64    3.97
   3  -1  16   89.84    4.24
  -3  -1 -16   87.15    3.49
  -3  -1 -16   91.77    2.48
  -3  -1 -18    0.65    0.69
   3  -1  18    0.41    0.70
   3   1  18   -0.07    0.65
  -3  -1 -18    0.63    0.64
  -3   1 -18    0.02    0.66
   3  -1  18    0.23    0.71
   3   1  18    0.34    0.76
  -3  -1 -20    1.06    0.78
  -3  -1 -20    0.88    0.84
  -3   1 -20    1.47    0.74
   3  -1  20    0.73    0.93
   3   1  20    2.06    0.95
  -3  -2  21    3.14    1.05
   3   2 -21    8.30    1.62
  -3  -2  21    4.53    1.25
   3   2 -19   13.64    1.81
   3  -2 -19   11.93    1.76
  -3   2  19   15.01    2.01
  -3  -2  19   14.40    1.72
   3  -2 -17   56.42    3.53
   3   2 -17   55.65    3.32
  -3  -2  17   60.25    3.25
  -3   2  17   57.16    3.57
   3  -2 -15   61.26    3.41
   3  -2 -15   68.76    2.25
   3   2 -15   66.91    3.43
  -3  -2  15   61.03    3.09
   3   2 -15   65.30    2.13
  -3   2  15   64.68    3.52
   3  -2 -13   36.07    2.43
  -3   2  13   36.37    1.44
   3   2 -13   36.42    2.38
  -3  -2  13   31.83    2.10
   3  -2 -13   38.31    1.50
  -3   2  13   36.78    2.44
   3   2 -13   35.07    1.58
   3  -2 -11  190.83    5.36
  -3  -2  11  187.55    4.06
  -3  -2  11  194.96    5.36
   3   2 -11  189.13    5.28
  -3   2  11  185.10    3.28
  -3  -2  11  185.38    4.94
   3  -2 -11  187.24    3.34
  -3   2  11  183.70    5.32
   3   2 -11  194.21    5.18
   3  -2 -11  186.94    5.39
   3   2 -11  185.43    4.04
  -3   2   9    7.66    0.95
  -3  -2   9    7.44    0.74
   3  -2  -9    6.69    0.94
   3   2  -9    6.77    0.99
  -3  -2   9    5.41    0.82
   3  -2  -9    6.14    0.74
  -3   2   9    6.80    0.40
   3  -2  -9    6.48    0.42
   3   2  -9    6.69    0.86
   3  -2  -9    7.47    0.97
   3   2  -9    8.41    0.77
  -3  -2   9    5.32    0.78
  -3   2   9    6.25    0.88
   3  -2  -7  384.06    6.43
  -3  -2   7  373.87    7.23
   3   2  -7  387.57    7.32
  -3  -2   7  385.39    6.41
  -3   2   7  387.53    7.30
   3  -2  -7  387.49    7.32
  -3   2   7  392.34    7.29
   3  -2  -7  388.71    7.33
   3   2  -7  378.36    6.38
   3   2  -7  385.39    6.64
  -3  -2   5  183.96    4.35
   3   2  -5  181.27    4.34
  -3   2   5  182.32    4.27
   3  -2  -5  185.58    4.34
   3   2  -5  180.03    3.56
  -3   2   5  186.44    4.30
   3   2  -5  179.00    3.90
   3  -2  -5  182.76    4.31
  -3  -2   5  183.44    3.93
  -3  -2   3    8.77    0.83
   3   2  -3    8.02    0.77
  -3   2   3    8.46    0.85
  -3  -2   3    6.78    0.80
   3  -2  -3    7.30    0.83
  -3   2   3    7.21    0.45
   3   2  -3    7.41    0.81
   3  -2  -3    7.71    0.46
   3   2  -3    7.32    0.49
  -3   2   3    7.99    0.81
  -3   2   1  630.65    9.35
   3  -2  -1  667.03    9.49
  -3   2   1  660.18    8.48
  -3  -2   1  646.33    9.36
   3  -2  -1  641.57    8.49
   3   2  -1  648.72    9.39
   3   2  -1  641.19    9.37
  -3  -2   1  635.42    9.42
   3   2   1   95.41    1.62
  -3   2  -1   95.61    2.72
   3  -2   1   93.15    2.71
   3  -2   1   94.59    2.49
  -3   2  -1  101.47    2.57
  -3  -2  -1   96.74    2.72
  -3   2  -1   93.83    2.49
   3  -2   1   98.92    2.55
   3   2   1   98.26    2.77
  -3  -2  -1   97.68    2.81
   3   2   1   93.66    2.74
  -3  -2  -3  663.00    7.80
   3   2   3  657.98    7.79
  -3   2  -3  667.39    9.83
  -3   2  -3  658.00    9.76
   3  -2   3  653.30    9.78
  -3  -2  -3  653.25    9.71
   3   2   3  658.35    9.80
  -3   2  -3  655.77    9.76
  -3  -2  -3  654.75    9.81
   3  -2   3  657.14    7.84
   3  -2   3  667.49    9.80
  -3  -2  -3  662.45    8.24
  -3  -2  -3  680.77    9.82
   3   2   3  651.70    9.75
  -3  -2  -5   59.91    1.57
  -3   2  -5   53.57    2.27
  -3  -2  -5   57.73    2.31
   3  -2   5   60.09    2.38
  -3   2  -5   58.20    2.36
   3   2   5   59.33    2.29
   3  -2   5   57.88    2.38
  -3  -2  -5   58.15    2.28
  -3  -2  -5   61.12    2.37
  -3  -2  -5   54.91    1.78
  -3  -2  -5   56.13    2.15
  -3  -2  -7  606.64    8.52
   3  -2   7  599.85    7.53
  -3   2  -7  606.19   10.23
  -3  -2  -7  619.53   10.19
   3  -2   7  622.85   10.36
  -3  -2  -7  616.74    9.84
   3   2   7  593.77    9.69
  -3  -2  -7  610.02    9.97
  -3   2  -7  634.09   10.40
   3  -2   7  608.66   10.29
  -3  -2  -7  601.50    9.45
  -3  -2  -7  599.64    9.20
  -3  -2  -9  218.77    4.58
   3   2   9  214.94    5.60
  -3   2  -9  214.54    5.64
   3  -2   9  218.13    5.73
  -3  -2  -9  214.57    4.87
  -3  -2  -9  213.11    5.35
   3   2   9  206.89    5.13
  -3   2  -9  224.22    5.78
  -3  -2  -9  213.15    5.21
   3  -2   9  215.22    5.68
  -3  -2  -9  208.96    4.81
  -3  -2  -9  215.35    5.08
  -3  -2 -11    7.96    0.87
  -3  -2 -11    8.25    0.93
   3   2  11    9.62    1.26
  -3   2 -11    8.20    1.16
  -3  -2 -11    7.87    0.95
  -3  -2 -11    6.52    0.92
  -3  -2 -11    6.66    0.93
  -3  -2 -11    8.13    1.04
   3  -2  11    8.03    1.16
  -3  -2 -13  273.00    6.34
  -3  -2 -13  266.79    6.27
   3   2  13  263.48    7.19
  -3   2 -13  275.43    7.35
   3   2  13  256.88    6.74
   3  -2  13  270.53    7.37
  -3  -2 -13  264.94    6.53
  -3  -2 -13  273.18    5.88
  -3  -2 -15   91.79    3.75
   3   2  15   85.92    4.18
  -3   2 -15   91.73    4.31
  -3  -2 -15   86.10    3.53
   3   2  15   84.08    3.85
   3  -2  15   91.12    4.35
  -3  -2 -15   88.58    3.11
  -3  -2 -17   46.81    2.91
   3  -2  17   49.42    3.40
  -3  -2 -17   49.34    2.80
   3   2  17   42.80    3.15
  -3   2 -17   48.51    3.37
  -3  -2 -19   62.76    3.66
   3  -2  19   69.93    4.23
  -3  -2 -19   65.83    3.45
  -3   2 -19   70.96    4.28
  -3  -2 -21    1.08    1.03
   3   3 -20   43.69    3.41
  -3  -3  20   33.95    2.85
   3  -3 -18   37.03    2.98
   3   3 -18   30.00    2.72
  -3  -3  18   31.80    2.64
  -3   3  18   36.48    3.02
   3   3 -16    8.47    1.44
   3  -3 -16    9.73    1.56
  -3   3  16   14.61    1.86
  -3  -3  16    8.60    1.28
   3  -3 -14   11.37    1.50
   3   3 -14   10.91    1.50
   3  -3 -14   10.85    0.79
  -3  -3  14   12.64    1.53
  -3   3  14   10.68    1.44
   3   3 -14   13.05    0.99
  -3  -3  12  227.77    4.75
   3  -3 -12  216.20    6.20
   3   3 -12  217.57    6.32
  -3  -3  12  209.09    5.97
   3  -3 -12  221.09    3.85
   3   3 -12  213.81    5.83
  -3   3  12  210.60    6.16
   3   3 -12  221.10    4.69
   3  -3 -10    2.11    0.56
   3   3 -10    2.08    0.71
   3  -3 -10    2.90    0.73
  -3   3  10    3.53    0.78
   3   3 -10    1.95    0.50
  -3  -3  10    3.04    0.56
   3  -3 -10    3.19    0.74
   3  -3 -10    2.12    0.31
  -3  -3  10    2.06    0.68
   3   3 -10    1.54    0.52
  -3   3  10    2.39    0.75
   3  -3  -8  453.05    8.74
  -3   3   8  468.27    8.81
  -3  -3   8  470.72    9.06
   3   3  -8  454.72    8.95
   3  -3  -8  456.19    8.10
   3  -3  -8  477.86    9.07
   3   3  -8  462.49    8.07
   3  -3  -8  458.70    6.14
  -3  -3   8  466.01    7.74
  -3   3   8  449.86    8.66
   3  -3  -8  472.73    8.88
   3   3  -8  450.25    7.75
   3   3  -8  454.50    7.91
   3  -3  -6   69.08    2.79
  -3   3   6   68.02    2.78
   3   3  -6   76.63    3.00
  -3  -3   6   68.95    2.89
   3   3  -6   70.06    2.57
   3  -3  -6   73.59    2.92
   3   3  -6   70.32    2.52
  -3   3   6   71.61    2.80
   3   3  -6   70.61    2.25
  -3  -3   6   70.22    2.50
  -3  -3   4    1.75    0.54
  -3   3   4    2.26    0.59
   3   3  -4    1.98    0.54
  -3   3   4    2.18    0.23
  -3  -3   4    3.23    0.66
   3  -3  -4    1.64    0.52
   3  -3  -4    3.03    0.61
   3   3  -4    2.00    0.53
  -3   3   4    1.97    0.54
   3   3  -4    2.05    0.35
  -3   3   2   41.86    1.97
   3  -3  -2   43.28    2.03
  -3  -3   2   39.91    1.93
  -3   3   2   41.71    1.38
   3  -3  -2   40.03    1.37
   3  -3  -2   40.75    1.54
  -3  -3   2   42.08    1.95
   3   3  -2   39.63    1.89
   3  -3  -2   41.69    1.85
  -3  -3   2   42.67    1.98
   3   3  -2   40.99    1.96
   3   3  -2   38.35    1.03
  -3  -3   0    5.68    0.82
   3   3   0    6.08    0.79
  -3  -3   0    9.42    0.91
  -3   3   0    4.99    0.61
   3  -3   0    5.00    0.78
   3   3   0    4.50    0.47
  -3   3   0    4.43    0.70
   3  -3   0    4.99    0.58
   3  -3   0    4.70    0.60
  -3  -3   0    3.93    0.69
   3   3   0    3.58    0.65
   3  -3   0    5.27    0.69
  -3   3  -2  214.74    4.92
   3   3   2  203.19    3.48
  -3   3  -2  202.98    4.52
   3  -3   2  211.66    4.59
   3  -3   2  204.23    3.76
   3  -3   2  210.59    4.67
   3   3   2  203.38    4.84
  -3  -3  -2  200.99    4.82
  -3  -3  -2  206.04    4.88
   3   3   2  205.58    3.02
  -3  -3  -4   41.32    1.37
   3   3   4   41.70    1.35
  -3   3  -4   42.31    2.16
   3  -3   4   42.32    2.08
  -3   3  -4   45.17    2.14
   3  -3   4   38.49    2.04
   3   3   4   41.77    2.11
   3  -3   4   40.23    1.18
  -3  -3  -4   41.98    2.11
  -3  -3  -4   45.53    2.17
  -3  -3  -4   41.54    1.39
   3   3   4   40.75    1.38
  -3  -3  -6   19.29    1.02
  -3   3  -6   21.93    1.60
  -3   3  -6   20.72    1.59
  -3  -3  -6   23.20    1.65
   3  -3   6   20.58    1.59
   3  -3   6   19.67    1.56
   3   3   6   19.72    1.54
  -3  -3  -6   23.81    1.62
  -3  -3  -6   18.90    1.52
  -3  -3  -6   20.28    1.17
   3   3   6   21.42    1.21
  -3  -3  -6   19.83    1.49
  -3  -3  -8   76.23    2.41
  -3   3  -8   73.29    3.21
   3  -3   8   80.27    3.37
  -3  -3  -8   74.85    3.20
  -3  -3  -8   73.78    3.12
   3  -3   8   74.50    3.27
   3   3   8   72.54    3.10
  -3  -3  -8   78.75    3.11
  -3  -3  -8   70.65    2.59
   3   3   8   70.51    2.60
  -3  -3  -8   79.68    3.07
  -3  -3 -10   60.69    2.37
  -3   3 -10   60.13    3.10
  -3  -3 -10   60.79    2.48
  -3  -3 -10   60.55    2.86
  -3  -3 -10   62.27    2.99
   3   3  10   59.71    2.91
   3  -3  10   59.78    3.12
  -3  -3 -10   61.03    2.66
   3   3  10   57.39    2.59
  -3  -3 -10   57.92    2.71
  -3  -3 -12  280.30    6.24
  -3  -3 -12  282.58    6.17
  -3   3 -12  276.96    7.56
   3  -3  12  273.42    7.51
  -3  -3 -12  277.10    6.57
  -3  -3 -14  103.25    3.85
  -3  -3 -14  104.66    3.67
  -3   3 -14  115.00    4.93
   3  -3  14  103.66    4.69
  -3  -3 -14  103.93    3.85
  -3  -3 -16   15.72    1.47
  -3   3 -16   17.94    2.17
  -3  -3 -16   12.94    1.49
  -3  -3 -16   15.03    1.45
   3  -3  16   17.37    2.01
  -3  -3 -18   78.83    3.93
  -3   3 -18   79.24    4.58
   3  -3  18   82.37    4.65
  -3  -4  19   15.69    2.06
   3   4 -17   -0.02    0.69
   3  -4 -17   -0.11    0.73
  -3  -4  17    1.05    0.83
  -3   4  17    0.44    0.63
   3  -4 -15   27.63    2.44
   3   4 -15   22.33    2.32
  -3  -4  15   26.39    2.38
   3   4 -15   28.78    1.95
  -3   4  15   26.52    2.46
   3  -4 -13    7.72    1.28
  -3  -4  13    8.95    0.94
   3   4 -13    8.44    1.37
   3   4 -13    9.18    1.12
  -3  -4  13    8.70    1.40
  -3   4  13    9.43    1.38
   3  -4 -11   39.05    2.58
  -3  -4  11   44.01    2.10
   3   4 -11   41.21    2.77
   3   4 -11   41.48    2.23
   3  -4 -11   42.94    1.54
  -3  -4  11   41.10    2.66
  -3   4  11   36.06    2.45
   3   4 -11   37.80    2.26
   3  -4  -9   23.40    1.87
   3  -4  -9   26.24    1.83
   3   4  -9   22.57    1.95
   3   4  -9   21.38    1.57
   3  -4  -9   23.26    1.13
  -3   4   9   25.26    1.89
  -3  -4   9   23.31    1.55
   3   4  -9   23.19    1.56
   3   4  -9   23.19    1.59
  -3   4   7    0.58    0.46
  -3  -4   7    0.71    0.40
   3   4  -7    0.62    0.41
   3   4  -7   -0.30    0.55
  -3  -4   7   -0.95    0.60
   3  -4  -7    0.55    0.50
   3  -4  -7    1.20    0.55
   3   4  -7    0.12    0.46
  -3   4   7    0.54    0.43
   3   4  -7    0.17    0.25
  -3   4   5    5.26    0.86
   3   4  -5    5.20    0.82
  -3  -4   5    4.22    0.76
   3   4  -5    3.73    0.81
  -3  -4   5    4.46    0.83
   3  -4  -5    3.53    0.73
   3  -4  -5    4.31    0.78
   3   4  -5    3.47    0.74
  -3   4   5    3.39    0.76
   3   4  -5    3.72    0.50
   3   4  -3   17.02    1.25
   3  -4  -3   20.09    1.55
  -3   4   3   18.06    1.47
  -3  -4   3   19.72    1.53
  -3   4   3   18.36    0.94
   3  -4  -3   18.28    0.95
  -3  -4   3   17.60    1.39
   3   4  -3   20.26    1.49
   3  -4  -3   18.42    1.43
  -3  -4   3   17.68    1.45
  -3   4   3   17.35    1.40
  -3   4   1   58.55    2.65
   3   4  -1   57.50    2.11
   3  -4  -1   62.07    2.73
  -3   4   1   63.36    2.13
  -3  -4   1   59.18    2.56
   3  -4  -1   63.32    2.15
   3  -4  -1   60.49    2.41
  -3  -4   1   61.35    2.65
   3   4  -1   68.33    2.78
   3  -4  -1   58.74    2.30
  -3  -4   1   61.61    2.72
   3  -4   1 1959.13   25.58
  -3   4  -1 2001.45   25.67
   3   4   1 1911.97   23.44
  -3   4  -1 1969.91   24.41
   3  -4   1 1954.67   24.44
  -3  -4  -1 1949.47   24.85
   3   4   1 1996.22   25.57
   3  -4   1 1998.74   24.93
   3  -4   1 1950.24   24.02
  -3  -4  -1 2018.67   25.59
  -3  -4  -1 2007.15   25.73
   3   4   1 1982.97   22.01
  -3  -4  -3    7.22    1.02
   3   4   3    6.16    0.64
  -3   4  -3    5.93    0.90
   3  -4   3    5.77    0.83
  -3   4  -3    5.94    0.89
  -3  -4  -3    6.12    0.64
  -3  -4  -3    5.95    0.77
   3   4   3    6.02    0.94
   3  -4   3    6.26    0.63
  -3  -4  -3    6.95    0.95
   3  -4   3    7.75    1.03
   3   4   3    7.73    0.57
   3   4   5  103.49    2.74
  -3  -4  -5  101.65    2.74
  -3   4  -5  109.28    3.95
  -3   4  -5  104.97    3.74
   3  -4   5  111.69    3.86
   3  -4   5  108.84    3.87
   3   4   5  102.62    3.82
   3  -4   5  102.37    2.36
  -3  -4  -5  112.61    3.97
  -3  -4  -5  106.97    2.73
  -3  -4  -5  107.99    3.91
   3   4   5  105.32    2.71
   3   4   7    7.99    0.78
  -3  -4  -7    8.41    1.14
  -3  -4  -7    8.68    0.82
  -3   4  -7    8.14    1.17
   3  -4   7    8.41    1.16
   3   4   7    7.82    1.12
  -3  -4  -7   10.44    1.20
   3  -4   7    8.59    1.21
  -3  -4  -7    8.38    0.85
   3   4   7    7.82    0.84
   3  -4   9    0.89    0.33
  -3  -4  -9    0.31    0.53
  -3   4  -9    0.92    0.62
  -3  -4  -9    0.66    0.38
  -3  -4  -9   -0.35    0.39
   3   4   9   -0.16    0.52
  -3  -4  -9    0.32    0.34
   3   4   9    0.64    0.33
   3  -4   9    1.00    0.67
   3  -4  11  225.99    3.46
  -3  -4 -11  226.44    5.41
  -3   4 -11  221.34    6.83
  -3  -4 -11  223.26    5.24
   3  -4  11  222.44    6.87
  -3  -4 -11  221.28    5.76
   3   4  11  215.24    5.71
   3  -4  11  231.84    3.47
  -3  -4 -11  217.35    6.24
  -3  -4 -13   21.50    1.69
  -3   4 -13   20.33    2.15
  -3  -4 -13   20.36    1.53
   3  -4  13   24.67    2.35
  -3  -4 -13   23.19    2.01
  -3  -4 -15   12.00    1.23
  -3   4 -15   12.90    1.85
  -3  -4 -15   12.11    1.40
  -3  -4 -15   12.56    1.57
   3  -4  15   15.32    2.03
  -3  -4 -17   88.13    4.02
  -3   4 -17   83.66    4.79
   3  -4  17   85.38    4.84
  -3  -4 -17   77.37    3.81
   3   5 -16    9.09    1.70
   3  -5 -16    7.84    1.49
  -3  -5  16   10.24    1.71
  -3   5  16    6.85    1.37
   3  -5 -14   43.74    3.12
   3   5 -14   47.71    3.48
   3   5 -14   50.48    2.64
  -3  -5  14   46.53    3.34
  -3   5  14   45.43    3.18
  -3  -5  12    2.94    0.65
   3  -5 -12    0.48    0.64
   3   5 -12    1.18    0.86
   3   5 -12    1.76    0.53
  -3  -5  12    4.40    1.07
  -3   5  12    2.43    0.76
   3  -5 -10  215.56    6.50
   3   5 -10  214.27    6.82
   3   5 -10  220.13    5.72
   3  -5 -10  218.64    4.55
  -3   5  10  219.04    6.39
  -3  -5  10  223.32    5.65
   3   5 -10  217.45    5.66
  -3  -5   8    8.61    1.09
   3  -5  -8    7.95    1.19
   3   5  -8    7.53    1.24
   3   5  -8    8.60    1.10
  -3   5   8    8.26    1.27
   3   5  -8    7.73    0.94
   3  -5  -6   39.91    2.49
   3   5  -6   37.98    2.51
   3   5  -6   42.31    2.34
  -3   5   6   42.92    2.45
   3   5  -6   41.44    1.88
  -3  -5   6   36.80    2.22
  -3  -5   4   12.49    1.34
   3   5  -4   13.83    1.35
   3  -5  -4   10.67    1.25
   3  -5  -4   12.26    0.81
   3  -5  -4    9.81    1.18
   3   5  -4   12.79    1.33
  -3   5   4   15.57    1.50
   3  -5  -2  107.48    4.00
  -3   5   2  111.79    4.06
   3   5  -2   99.02    3.30
  -3  -5   2  103.41    3.82
  -3   5   2  104.53    2.98
   3  -5  -2  105.67    3.00
   3   5  -2   99.46    3.74
  -3  -5   2  107.23    3.87
   3  -5  -2  103.71    3.69
  -3  -5   2  100.06    3.88
  -3   5   2  105.29    3.74
  -3  -5   0    0.34    0.57
  -3  -5   0    0.38    0.39
  -3   5   0   -0.17    0.38
  -3   5   0    0.81    0.57
   3   5   0   -0.07    0.30
   3  -5   0    0.40    0.46
   3  -5   0   -0.40    0.43
   3   5   0    0.30    0.43
   3  -5   0   -0.30    0.41
  -3  -5   0    0.04    0.38
   3   5   0    0.02    0.21
   3  -5   0    0.01    0.41
   3   5   2  159.25    3.96
  -3   5  -2  164.31    4.59
  -3  -5  -2  166.01    4.58
   3  -5   2  160.73    4.59
   3  -5   2  156.72    4.79
   3  -5   2  156.45    4.10
   3   5   2  159.52    5.05
  -3  -5  -2  157.02    5.09
   3   5   2  161.29    3.13
   3   5   4    0.68    0.32
  -3  -5  -4    1.28    0.66
  -3  -5  -4    0.43    0.37
  -3   5  -4    0.60    0.54
  -3  -5  -4    0.52    0.36
   3  -5   4    1.88    0.63
   3   5   4    1.44    0.68
   3  -5   4    0.80    0.33
   3   5   4    0.84    0.33
   3  -5   4    0.58    0.50
  -3  -5  -6    2.05    0.81
   3   5   6    2.11    0.49
  -3   5  -6    2.62    0.79
  -3  -5  -6    1.72    0.47
  -3  -5  -6    1.87    0.57
   3   5   6    1.49    0.68
   3  -5   6    2.82    0.46
   3   5   6    2.08    0.54
   3  -5   6    0.46    0.56
   3   5   8   97.57    3.19
  -3  -5  -8  103.74    3.30
  -3   5  -8  104.82    4.38
   3  -5   8  103.15    4.47
   3   5   8   98.55    4.37
   3   5   8  101.79    3.30
  -3  -5  -8   97.54    3.26
   3  -5   8  106.50    3.36
  -3  -5  -8  103.54    4.38
  -3  -5 -10   73.46    2.92
  -3   5 -10   70.80    3.81
   3  -5  10   70.70    3.88
   3   5  10   70.22    3.80
   3  -5  10   75.58    2.53
  -3  -5 -10   73.73    3.05
   3   5  10   70.11    2.99
  -3  -5 -10   69.47    3.67
  -3   5 -12    8.76    1.56
  -3  -5 -12    9.12    1.13
  -3  -5 -12   10.02    1.08
  -3  -5 -12   10.80    1.49
   3  -5  12    9.00    1.60
   3   5  12    9.00    1.20
  -3   5 -14   11.17    1.77
  -3  -5 -14   12.16    1.42
  -3  -5 -14    9.43    1.50
   3  -5  14   13.53    2.00
  -3  -5 -16    7.69    1.39
   3  -6 -15   24.22    2.50
  -3   6  15   25.61    2.57
   3  -6 -13    9.80    1.63
   3   6 -13   10.08    1.76
   3   6 -13   10.12    1.28
  -3   6  13   11.27    1.66
  -3  -6  13    7.73    1.48
  -3  -6  11    4.84    0.94
   3  -6 -11    2.71    0.91
   3   6 -11    3.70    1.11
   3   6 -11    4.09    0.95
  -3  -6  11    4.93    1.25
  -3   6  11    4.22    1.12
  -3  -6   9    4.75    0.92
   3   6  -9    5.70    1.27
   3  -6  -9    2.64    0.85
   3   6  -9    5.87    1.01
  -3   6   9    6.38    1.20
   3   6  -9    3.45    0.74
   3  -6  -7   76.87    3.84
   3   6  -7   86.42    3.65
  -3   6   7   79.87    3.70
   3   6  -7   82.13    3.00
  -3  -6   7   84.31    3.71
   3  -6  -5   42.00    2.73
   3  -6  -5   40.85    1.52
   3   6  -5   37.86    2.42
  -3   6   5   42.82    2.59
  -3  -6   5   41.06    2.62
   3   6  -5   40.50    1.87
   3   6  -3   59.35    2.88
   3  -6  -3   61.17    3.30
  -3   6   3   63.49    2.35
   3  -6  -3   60.85    2.30
   3   6  -3   61.93    3.17
  -3  -6   3   62.52    3.30
  -3   6   3   58.36    2.98
   3   6  -1   17.71    1.48
  -3  -6   1   18.32    1.81
  -3   6   1   19.85    1.46
   3  -6  -1   15.85    1.69
   3  -6  -1   16.57    1.34
   3  -6  -1   16.33    1.58
   3  -6  -1   17.42    1.61
   3   6  -1   17.33    1.72
   3   6  -1   17.94    1.03
   3   6   1  233.50    5.66
  -3  -6  -1  249.12    6.32
  -3   6  -1  250.53    6.11
   3  -6   1  230.22    5.93
   3  -6   1  230.87    6.41
   3   6   1  238.05    6.79
   3  -6   1  248.29    6.06
  -3  -6  -1  252.24    7.15
   3   6   1  250.46    4.45
   3   6   3  208.44    5.15
  -3   6  -3  214.89    5.96
  -3  -6  -3  205.14    5.51
   3   6   3  200.60    6.34
   3  -6   3  210.37    6.30
   3  -6   3  205.20    5.17
   3   6   3  216.82    4.23
  -3  -6  -3  213.62    6.69
   3   6   5   95.69    3.32
  -3  -6  -5  102.49    3.44
  -3   6  -5  100.76    4.19
  -3  -6  -5  104.49    3.64
   3  -6   5   98.32    4.37
   3  -6   5   95.54    3.10
   3   6   5   99.07    4.48
   3   6   5  103.61    2.95
  -3  -6  -5  104.56    4.64
  -3  -6  -7   12.93    1.22
   3   6   7   14.41    1.30
  -3  -6  -7   14.92    1.92
  -3  -6  -7   12.99    1.24
  -3   6  -7   11.77    1.57
   3   6   7   10.34    1.57
   3  -6   7   14.50    1.44
   3  -6   7   11.37    1.59
   3   6   7   12.13    1.09
  -3  -6  -9   16.98    1.47
  -3  -6  -9   20.36    2.19
  -3   6  -9   15.47    1.85
   3   6   9   16.93    2.03
   3  -6   9   15.20    1.93
   3  -6   9   17.60    1.46
   3   6   9   18.48    1.48
  -3  -6 -11   37.26    2.28
  -3   6 -11   39.04    3.12
   3  -6  11   37.27    3.14
  -3  -6 -11   32.71    2.81
   3   6  11   36.97    2.31
  -3   6 -13   52.59    3.77
   3  -6  13   47.59    3.67
  -3  -6 -13   57.13    3.74
   3   6  13   52.47    2.99
  -3  -6 -15    1.14    0.75
  -3   7  14    3.77    1.10
   3  -7 -12   28.20    2.69
  -3   7  12   24.75    2.41
  -3  -7  10   17.02    1.83
   3  -7 -10   16.08    2.00
   3   7 -10   18.18    1.78
  -3  -7  10   19.95    2.37
  -3   7  10   16.99    1.95
  -3  -7   8    8.45    1.35
   3  -7  -8    9.19    1.51
   3   7  -8    9.28    1.34
  -3   7   8    9.82    1.47
  -3  -7   6    2.57    0.92
   3  -7  -6    3.87    1.06
   3   7  -6    3.41    0.90
  -3   7   6    3.80    0.90
  -3  -7   4    3.15    1.00
   3  -7  -4    2.46    1.00
   3   7  -4    1.16    0.70
  -3   7   4    1.33    0.67
  -3  -7   2   20.71    2.15
   3  -7  -2   25.97    2.38
   3  -7  -2   19.73    1.84
   3   7  -2   22.46    2.14
   3   7  -2   22.58    1.30
  -3   7   2   18.87    1.82
  -3   7   0  109.37    4.00
   3  -7   0   96.95    3.81
   3  -7   0  112.15    4.57
   3   7   0  108.05    4.71
   3   7   0  110.94    3.10
  -3  -7   0  104.98    4.83
  -3  -7  -2    5.54    1.37
  -3   7  -2    4.88    0.94
   3   7   2    5.12    1.11
   3  -7   2    6.00    1.14
  -3   7  -4   40.82    2.78
   3   7   4   37.23    2.95
   3  -7   4   42.90    3.05
  -3  -7  -4   45.60    3.29
   3  -7   4   41.49    2.80
   3  -7   6    2.52    0.78
  -3  -7  -6    4.00    1.22
  -3   7  -6    5.50    1.22
   3   7   6    4.33    1.25
   3  -7   6    8.22    1.50
  -3  -7  -8   48.96    2.64
  -3   7  -8   51.34    3.52
   3  -7   8   52.52    3.68
   3   7   8   50.06    3.55
   3  -7   8   52.17    2.94
  -3  -7  -8   49.15    3.59
  -3   7 -10    0.44    0.70
  -3  -7 -10    1.25    0.78
   3  -7  10    2.71    1.22
  -3   8  11   18.97    2.15
   3  -8  -9    2.32    1.24
  -3  -8   9    1.86    0.85
  -3   8   9    5.07    1.26
   3  -8  -7   36.05    2.99
   3   8  -7   37.39    2.81
  -3   8   7   29.03    2.52
  -3  -8   7   29.83    2.68
  -3  -8   5   11.57    1.81
   3  -8  -5   13.33    1.87
   3   8  -5    8.29    1.46
  -3   8   5   11.20    1.61
  -3  -8   3   17.46    2.16
   3   8  -3   18.15    2.07
  -3   8   3   20.21    2.06
   3  -8  -3   19.27    2.02
  -3  -8   1    4.62    1.26
   3  -8  -1    3.44    1.21
   3   8  -1    4.95    1.17
  -3   8   1    5.09    1.10
   3  -8  -1    5.87    1.28
  -3  -8  -1    8.05    1.62
   3  -8   1    8.96    1.57
  -3   8  -1    7.23    1.19
   3   8   1    8.37    1.57
  -3   8  -1    6.10    1.16
   3  -8   1    8.05    1.55
  -3   8  -3   60.99    3.51
   3  -8   3   60.04    3.83
   3   8   3   62.17    3.99
  -3  -8  -3   63.92    4.14
   3  -8   3   56.97    3.67
  -3   8  -5   73.60    4.12
   3  -8   5   81.68    4.62
   3   8   5   81.97    4.75
   3  -8   5   80.20    4.24
   3  -8   7    4.78    1.13
  -3   8  -7    3.00    0.96
   3   9  -4   39.36    3.13
   3   9  -2    3.66    1.16
   3  -9  -2    2.75    1.32
   3  -9   0    8.90    1.55
   3  -9   4   22.37    2.47
   4   0 -20   11.69    1.46
  -4   0  20   12.67    1.63
   4   0 -20   12.89    1.93
  -4   0  18   -0.78    0.65
   4   0 -18    0.34    0.48
   4   0 -18    0.22    0.90
  -4   0  18    0.29    0.82
  -4   0  18    0.00    0.36
   4   0 -16  534.62   11.69
   4   0 -16  529.09    9.32
  -4   0  16  526.74   10.02
  -4   0  16  549.46   10.27
   4   0 -16  541.46   10.13
  -4   0  16  561.37    9.44
  -4   0  16  526.12   11.55
   4   0 -14  240.43    6.79
   4   0 -14  231.74    5.39
  -4   0  14  233.86    5.68
  -4   0  14  241.56    5.73
   4   0 -14  237.05    5.71
  -4   0  14  236.16    5.14
  -4   0  14  237.77    6.64
   4   0 -12  142.10    4.70
   4   0 -12  139.01    3.86
  -4   0  12  136.24    3.91
  -4   0  12  142.49    3.80
   4   0 -12  135.97    3.89
  -4   0  12  148.56    3.54
   4   0 -12  144.37    4.66
  -4   0  12  140.15    4.60
  -4   0  10    5.39    0.71
  -4   0  10    6.70    0.71
   4   0 -10    6.65    0.78
   4   0 -10    5.89    0.78
   4   0 -10    5.45    0.92
   4   0 -10    6.28    0.95
  -4   0  10    4.93    0.83
  -4   0  10    6.14    0.63
   4   0  -8  155.61    3.88
   4   0  -8  161.73    4.27
  -4   0   8  161.21    3.20
  -4   0   8  150.51    3.62
  -4   0   8  160.39    3.10
   4   0  -8  167.30    4.25
  -4   0   8  161.15    4.17
  -4   0   6  204.73    3.20
  -4   0   6  203.74    4.09
   4   0  -6  201.95    4.36
   4   0  -6  209.51    4.54
  -4   0   6  203.30    4.38
   4   0  -6  203.45    4.40
  -4   0   4  177.71    3.75
   4   0  -4  187.45    3.81
   4   0  -4  179.27    3.93
  -4   0   4  185.21    3.98
  -4   0   4  179.59    3.71
   4   0  -4  182.93    3.74
  -4   0   2    6.91    0.77
   4   0  -2    7.36    0.72
  -4   0   2    6.77    0.58
   4   0  -2    7.49    0.63
  -4   0   2    7.04    0.55
  -4   0   2    7.32    0.64
   4   0   0   13.24    0.69
  -4   0   0   12.91    0.92
  -4   0   0   10.67    0.62
   4   0   0    9.48    0.79
   4   0   0   10.29    0.55
  -4   0   0    9.51    0.72
   4   0   0    9.25    0.76
  -4   0  -2  663.95    8.64
  -4   0  -2  695.23    9.35
   4   0   2  697.52    9.04
  -4   0  -2  680.11    9.67
   4   0   2  700.21    9.75
   4   0   2  691.91    9.33
  -4   0  -4 2527.13   28.67
  -4   0  -4 2535.97   29.84
  -4   0  -4 2519.37   28.36
  -4   0  -4 2498.20   29.85
   4   0   4 2511.65   28.36
   4   0   4 2501.68   29.82
   4   0   4 2486.66   28.65
  -4   0  -6  641.07    8.75
  -4   0  -6  669.67   10.27
  -4   0  -6  640.87    8.69
   4   0   6  650.49   10.30
  -4   0  -6  671.80   10.42
   4   0   6  651.19    8.75
   4   0   6  638.32    8.75
  -4   0  -8  769.59   10.05
  -4   0  -8  788.48   12.15
   4   0   8  760.12   12.21
   4   0   8  777.35   10.38
  -4   0  -8  812.77   12.47
  -4   0  -8  765.87   10.32
   4   0   8  767.20   10.05
  -4   0  -8  782.19   12.00
  -4   0 -10   22.83    1.01
  -4   0 -10   26.38    1.82
   4   0  10   23.13    1.78
  -4   0 -10   25.55    1.85
  -4   0 -10   21.88    1.23
  -4   0 -10   26.87    1.83
  -4   0 -12    4.07    0.39
   4   0  12    4.98    1.00
  -4   0 -12    4.84    0.66
  -4   0 -12    3.68    0.86
   4   0  12    3.11    0.84
   4   0  14  599.66   11.97
  -4   0 -14  593.76    9.48
  -4   0 -14  592.80   11.57
   4   0  14  611.11   12.16
   4   0  16    3.76    1.08
  -4   0 -16    4.06    1.02
   4   0  16    3.30    0.98
   4   0  18   14.35    1.93
   4   0  18   17.83    2.17
  -4   0 -18   16.78    2.00
  -4   0 -20   -0.35    0.83
  -4   0 -20   -0.27    0.92
   4   0  20   -0.40    0.84
   4   1 -21    1.53    1.01
  -4  -1  21   -0.36    0.83
   4  -1 -19   31.07    2.79
   4   1 -19   31.77    2.86
  -4  -1  19   27.11    2.24
   4   1 -19   27.12    2.30
  -4  -1  19   31.54    2.24
  -4   1  19   34.24    2.95
   4  -1 -17  199.14    6.83
   4   1 -17  218.90    7.19
   4   1 -17  204.22    6.20
  -4  -1  17  198.92    5.86
  -4   1  17  208.72    5.95
  -4   1  17  208.70    4.74
  -4  -1  17  210.25    5.78
  -4   1  17  210.35    7.00
   4  -1 -15   71.86    3.71
   4   1 -15   70.05    3.69
   4  -1 -15   73.59    3.08
  -4   1  15   76.58    3.19
   4   1 -15   70.87    3.31
  -4   1  15   76.91    2.86
  -4  -1  15   76.15    3.09
  -4   1  15   77.85    2.47
  -4  -1  15   72.16    3.63
   4   1 -15   70.80    2.62
  -4   1  15   78.67    3.88
   4  -1 -13   21.15    1.59
   4   1 -13   21.27    1.87
   4  -1 -13   23.62    1.95
  -4   1  13   23.44    1.40
  -4   1  13   24.66    1.61
  -4  -1  13   23.95    1.81
   4   1 -13   23.40    1.76
  -4   1  13   24.39    1.18
  -4  -1  13   22.21    1.56
  -4   1  13   23.14    1.94
   4   1 -13   22.18    1.44
  -4  -1  13   20.61    1.78
   4  -1 -11   25.62    1.87
   4  -1 -11   24.98    1.64
  -4   1  11   24.15    1.31
  -4  -1  11   25.93    1.73
   4   1 -11   27.19    1.77
  -4  -1  11   26.01    1.55
  -4   1  11   26.38    1.05
  -4   1  11   27.75    1.95
   4   1 -11   25.32    1.47
   4   1 -11   27.67    1.85
   4  -1 -11   25.65    1.86
  -4  -1  11   25.69    1.81
   4  -1  -9    4.99    0.83
   4   1  -9    4.41    0.65
   4  -1  -9    4.08    0.67
  -4  -1   9    4.42    0.65
   4   1  -9    3.87    0.72
  -4   1   9    3.29    0.44
  -4  -1   9    5.36    0.77
  -4   1   9    3.93    0.32
   4  -1  -9    4.10    0.72
   4   1  -9    3.55    0.65
  -4  -1   9    3.93    0.66
  -4  -1   9    2.52    0.52
  -4   1   9    3.64    0.72
  -4   1   7  171.46    3.24
  -4  -1   7  167.85    4.12
   4  -1  -7  167.91    4.31
   4  -1  -7  162.25    4.15
  -4   1   7  175.07    4.37
  -4  -1   7  173.54    3.96
  -4   1   7  160.58    4.21
   4   1  -7  168.76    3.91
   4   1  -7  163.63    3.92
   4  -1  -7  171.88    4.34
  -4  -1   7  170.19    3.97
   4  -1  -5  660.67    8.20
  -4  -1   5  664.18    9.85
   4   1  -5  670.81    9.61
  -4   1   5  663.51    9.94
  -4  -1   5  656.84    9.67
   4  -1  -5  680.89   10.03
   4  -1  -5  658.21   10.00
  -4  -1   5  671.87    9.23
   4   1  -5  658.11    9.21
  -4   1   5  676.88    9.96
   4  -1  -5  643.70    9.95
   4   1  -5  665.13    9.71
  -4  -1   3  156.25    3.63
   4   1  -3  162.11    3.17
   4  -1  -3  155.47    3.72
  -4   1   3  167.52    3.62
   4  -1  -3  157.80    3.57
  -4   1   3  159.71    2.46
   4   1  -3  157.79    3.62
  -4  -1   3  159.82    2.94
   4   1  -3  155.03    2.94
  -4   1   3  157.40    3.60
   4   1  -1   16.62    0.70
   4  -1  -1   17.99    1.05
  -4  -1   1   18.20    1.15
   4  -1  -1   16.74    1.06
  -4   1   1   15.49    0.96
   4  -1  -1   17.69    0.85
  -4   1   1   16.03    0.81
   4   1  -1   17.11    1.09
  -4  -1   1   19.05    0.73
  -4   1  -1  101.69    2.53
   4  -1   1  101.63    2.59
   4  -1   1  101.32    2.54
  -4  -1  -1   99.55    2.36
  -4   1  -1  102.19    2.69
   4   1   1  101.44    2.66
   4  -1   1   99.19    2.55
  -4  -1  -1  105.11    2.82
  -4   1  -1  100.70    2.54
  -4  -1  -1  101.69    2.75
   4   1   1  104.99    2.75
  -4  -1  -3  477.01    5.70
  -4   1  -3  470.96    7.24
   4  -1   3  470.94    6.90
  -4  -1  -3  481.62    7.37
  -4   1  -3  482.79    7.77
   4   1   3  486.70    7.40
  -4  -1  -3  460.85    7.26
  -4  -1  -3  483.80    7.82
  -4   1  -3  488.81    7.69
   4  -1   3  482.34    7.66
   4   1   3  480.68    7.32
   4   1   3  472.01    7.38
  -4  -1  -3  472.55    7.41
   4  -1   5   35.01    1.27
   4   1   5   38.79    1.81
  -4   1  -5   36.51    1.86
  -4  -1  -5   36.12    1.83
   4  -1   5   34.49    1.81
   4   1   5   37.99    1.91
   4   1   5   38.01    1.64
   4  -1   5   35.70    0.96
  -4   1  -5   35.98    1.83
  -4  -1  -5   36.07    1.56
  -4  -1  -5   37.77    1.61
  -4  -1  -5   37.56    1.56
   4   1   5   36.26    1.58
  -4  -1  -7   22.35    1.51
   4   1   7   20.94    1.51
   4  -1   7   26.70    1.71
  -4   1  -7   25.99    1.70
  -4  -1  -7   24.17    1.61
   4  -1   7   23.12    1.64
   4   1   7   23.32    1.60
  -4  -1  -7   22.47    1.33
   4   1   7   25.25    1.41
  -4   1  -7   24.88    1.67
   4   1   7   22.51    1.25
  -4  -1  -7   25.27    1.33
   4  -1   7   23.78    0.95
  -4  -1  -7   25.75    1.47
  -4   1  -9   81.95    3.28
   4   1   9   82.34    3.25
   4  -1   9   80.96    3.25
  -4  -1  -9   72.51    2.90
  -4   1  -9   77.49    3.23
  -4   1  -9   74.51    1.65
   4  -1   9   69.06    3.05
  -4  -1  -9   76.10    3.14
  -4  -1  -9   72.00    2.58
   4   1   9   74.20    3.09
   4   1   9   76.67    2.65
  -4  -1  -9   79.23    2.42
   4  -1   9   75.84    1.52
  -4  -1  -9   78.01    2.94
  -4   1 -11   70.84    3.26
   4   1  11   65.19    3.13
  -4  -1 -11   62.18    2.89
   4  -1  11   64.85    3.15
  -4  -1 -11   73.98    3.27
  -4  -1 -11   64.21    2.57
   4   1  11   64.55    3.05
  -4   1 -11   69.13    1.74
  -4  -1 -11   67.34    2.26
  -4  -1 -11   69.88    3.05
  -4   1 -13  283.79    7.43
   4   1  13  294.86    7.71
  -4  -1 -13  298.68    7.12
   4  -1  13  281.76    7.52
  -4  -1 -13  284.08    6.30
   4   1  13  274.64    7.29
  -4   1 -13  297.35    4.82
  -4  -1 -13  297.27    5.44
  -4  -1 -15  349.50    8.03
  -4   1 -15  348.67    8.86
   4   1  15  352.03    9.05
  -4  -1 -15  337.62    8.21
   4  -1  15  354.40    9.01
   4   1  15  347.72    8.73
  -4  -1 -15  340.65    7.37
  -4  -1 -15  364.23    6.05
  -4  -1 -17   24.65    2.13
   4  -1  17   27.15    2.54
   4   1  17   26.46    2.38
  -4   1 -17   25.15    2.39
   4  -1  17   25.73    2.49
  -4  -1 -17   23.19    2.12
   4   1  17   24.01    2.41
  -4  -1 -19    2.26    0.78
   4  -1  19    3.50    1.17
   4   1  19    3.43    1.15
  -4  -1 -19    1.01    0.73
  -4   1 -19    2.43    0.96
   4   1  19    0.85    1.00
  -4  -1 -21   11.29    1.74
   4   1  21   10.46    1.77
   4   2 -22    5.08    1.48
  -4  -2  20   18.10    2.02
   4   2 -20   15.24    1.97
  -4  -2  20   12.14    1.60
   4   2 -18   47.71    3.44
   4  -2 -18   50.50    3.52
   4   2 -18   49.53    3.24
  -4  -2  18   45.01    2.84
  -4   2  18   49.29    3.48
   4  -2 -16   53.75    3.35
   4   2 -16   57.40    3.30
  -4  -2  16   52.06    2.89
  -4   2  16   57.32    3.50
   4  -2 -14  314.79    7.39
   4  -2 -14  324.10    8.23
   4   2 -14  319.17    7.88
  -4   2  14  323.40    5.43
  -4  -2  14  318.82    7.36
   4   2 -14  325.07    6.23
  -4   2  14  313.11    8.12
  -4  -2  12   85.06    2.84
   4  -2 -12   80.06    3.59
  -4  -2  12   85.58    3.57
   4   2 -12   83.69    3.55
  -4   2  12   83.05    2.09
  -4  -2  12   82.91    3.26
  -4   2  12   85.95    3.71
   4   2 -12   88.48    3.50
   4   2 -12   79.42    2.73
  -4   2  10   68.06    3.07
   4  -2 -10   64.63    2.98
  -4  -2  10   66.73    2.45
  -4  -2  10   68.60    2.99
   4   2 -10   66.63    2.96
  -4   2  10   68.67    1.62
  -4  -2  10   66.89    2.72
  -4   2  10   62.42    2.93
   4   2 -10   64.23    2.72
   4  -2 -10   69.66    3.08
   4   2 -10   63.50    2.39
   4   2  -8    0.25    0.42
  -4   2   8    0.35    0.15
  -4  -2   8   -0.17    0.37
   4  -2  -8    0.11    0.24
  -4   2   8    0.33    0.39
   4   2  -8    0.81    0.38
   4  -2  -8    0.44    0.45
  -4  -2   8   -0.30    0.41
   4  -2  -8    0.40    0.42
  -4  -2   8    0.10    0.31
   4   2  -8    0.04    0.31
  -4   2   8   -0.36    0.43
   4  -2  -6  160.83    3.41
  -4  -2   6  166.24    4.38
  -4   2   6  162.81    2.57
   4  -2  -6  164.72    4.35
  -4  -2   6  170.51    4.04
  -4   2   6  164.36    4.34
   4   2  -6  162.97    3.58
  -4   2   6  163.85    4.29
   4  -2  -6  165.61    4.37
   4   2  -6  164.92    3.99
  -4  -2   6  167.11    3.62
   4  -2  -4   44.90    2.02
  -4   2   4   41.64    1.92
  -4  -2   4   40.15    1.94
  -4   2   4   41.94    1.22
   4  -2  -4   41.64    0.95
   4   2  -4   41.59    1.35
  -4  -2   4   43.07    1.90
  -4   2   4   41.83    1.96
   4   2  -4   41.04    1.84
  -4  -2   4   41.55    1.35
  -4  -2   2    4.47    0.70
  -4   2   2    5.70    0.73
   4   2  -2    4.53    0.65
   4  -2  -2    5.13    0.71
  -4   2   2    5.26    0.53
   4   2  -2    5.27    0.73
   4  -2  -2    4.95    0.48
   4   2  -2    4.76    0.31
  -4  -2   2    5.78    0.34
  -4   2   0  320.69    5.92
   4  -2   0  321.11    5.89
  -4   2   0  320.15    5.45
  -4  -2   0  326.62    5.98
   4   2   0  331.49    6.00
  -4   2   0  316.36    5.34
   4  -2   0  316.56    5.33
  -4  -2   0  326.14    6.06
   4   2   0  316.24    5.99
   4  -2   2  299.22    5.73
  -4   2  -2  298.40    5.73
  -4  -2  -2  298.24    5.51
   4  -2   2  301.42    5.64
  -4   2  -2  302.81    5.66
  -4   2  -2  303.48    5.59
  -4  -2  -2  306.44    5.80
   4  -2   2  304.26    5.60
   4   2   2  303.98    5.79
  -4  -2  -2  298.36    5.79
   4   2   2  302.74    5.85
  -4  -2  -2  296.14    4.00
  -4  -2  -4   90.08    1.53
   4  -2   4   88.06    2.39
  -4   2  -4   92.36    2.95
  -4  -2  -4   88.59    2.89
   4  -2   4   91.73    3.01
  -4   2  -4   93.38    3.04
  -4   2  -4   93.13    3.01
   4  -2   4   92.74    3.03
   4   2   4   91.13    2.95
  -4  -2  -4   97.17    3.15
  -4  -2  -4   86.51    2.87
  -4  -2  -4   94.86    2.97
   4   2   4   90.30    2.92
  -4  -2  -4   89.79    2.16
   4  -2   6    7.01    0.59
  -4  -2  -6    7.75    0.56
   4   2   6    8.19    0.92
  -4  -2  -6    7.55    0.87
  -4   2  -6    6.89    0.95
  -4   2  -6    7.87    0.93
   4  -2   6    8.29    0.99
  -4  -2  -6    6.94    0.90
   4   2   6    6.90    0.88
  -4  -2  -6    6.87    0.85
  -4  -2  -6    8.56    1.02
   4  -2   6    5.92    0.84
  -4   2  -6    7.10    0.98
  -4  -2  -6    7.14    0.71
  -4  -2  -8  254.85    4.60
  -4   2  -8  246.19    6.11
  -4  -2  -8  243.53    5.51
   4  -2   8  249.26    6.18
  -4  -2  -8  239.30    5.91
  -4   2  -8  258.09    6.28
  -4  -2  -8  245.40    5.62
   4  -2   8  255.40    6.22
   4   2   8  240.46    5.61
  -4  -2  -8  235.72    5.21
  -4  -2  -8  246.73    5.37
   4  -2   8  251.86    3.78
  -4  -2 -10   32.09    1.65
  -4  -2 -10   33.53    1.98
  -4   2 -10   35.24    2.28
   4   2  10   35.29    2.28
  -4  -2 -10   33.22    2.14
   4  -2  10   33.65    2.28
   4   2  10   30.72    1.91
  -4  -2 -10   30.45    1.93
  -4  -2 -10   31.40    1.89
  -4  -2 -10   34.28    1.84
  -4  -2 -12   52.54    2.39
   4   2  12   58.14    3.16
  -4   2 -12   52.12    3.04
  -4  -2 -12   54.93    2.69
   4  -2  12   49.83    2.95
  -4  -2 -12   53.34    2.67
  -4  -2 -12   55.71    2.44
  -4  -2 -14  128.08    4.25
  -4   2 -14  126.15    5.04
   4   2  14  126.48    5.09
  -4  -2 -14  123.25    4.40
   4  -2  14  127.09    5.14
  -4  -2 -14  131.08    3.89
  -4  -2 -16  197.55    5.85
   4   2  16  190.32    6.76
  -4   2 -16  185.49    6.68
  -4  -2 -16  184.56    5.75
   4  -2  16  185.78    6.66
  -4  -2 -16  201.98    4.94
  -4  -2 -18   19.87    1.97
  -4   2 -18   23.73    2.50
   4   2  18   19.09    2.24
  -4  -2 -18   23.02    2.10
   4  -2  18   20.69    2.33
  -4  -2 -20    1.72    0.87
   4   3 -19    1.21    0.74
   4  -3 -19    2.42    1.05
  -4  -3  19    3.15    1.05
   4  -3 -17   68.43    4.02
   4   3 -17   67.98    3.95
  -4  -3  17   66.41    3.66
  -4   3  17   68.69    4.07
   4   3 -15    0.71    0.78
   4  -3 -15    2.49    0.94
  -4  -3  15    2.18    0.83
  -4   3  15    0.80    0.63
  -4  -3  13   48.04    2.17
   4  -3 -13   49.80    3.01
   4   3 -13   53.04    3.11
  -4  -3  13   52.20    2.89
  -4   3  13   46.40    2.91
   4   3 -13   49.50    2.20
  -4  -3  11   17.34    1.31
   4  -3 -11   16.85    1.66
   4  -3 -11   16.00    1.36
   4   3 -11   15.25    1.60
  -4  -3  11   18.56    1.65
   4   3 -11   17.96    1.35
   4   3 -11   18.20    1.53
  -4   3  11   18.31    1.73
  -4  -3   9  197.64    5.58
   4  -3  -9  187.13    4.65
   4   3  -9  190.91    5.52
  -4  -3   9  193.02    4.70
  -4   3   9  190.67    5.46
   4  -3  -9  190.64    5.45
   4   3  -9  185.12    4.68
  -4   3   9  198.40    5.50
   4  -3  -9  198.92    5.55
   4   3  -9  188.20    4.63
   4  -3  -7   67.07    2.94
  -4   3   7   71.40    3.01
  -4  -3   7   71.77    3.09
   4   3  -7   69.28    2.76
   4  -3  -7   68.76    1.22
   4  -3  -7   64.87    1.20
   4   3  -7   67.02    2.31
   4   3  -7   66.11    2.58
  -4  -3   7   68.99    2.64
  -4   3   7   66.42    2.87
  -4   3   5   14.70    1.33
  -4   3   5   13.91    0.53
  -4  -3   5   12.42    1.22
   4  -3  -5   13.27    1.25
   4  -3  -5   12.37    0.65
   4   3  -5   11.96    1.13
   4   3  -5   12.92    1.13
   4   3  -5   13.96    0.86
  -4   3   5   11.91    1.20
  -4  -3   5   12.99    1.15
   4  -3  -3   23.69    1.61
  -4   3   3   25.96    1.68
  -4   3   3   23.92    1.02
  -4  -3   3   22.63    1.57
   4  -3  -3   25.33    1.13
   4   3  -3   24.27    1.58
   4   3  -3   23.73    1.57
  -4  -3   3   26.66    1.63
   4   3  -3   23.68    0.82
  -4   3   3   22.91    1.53
  -4  -3   1   11.47    1.10
  -4   3   1   11.91    1.11
   4   3  -1   10.73    0.73
   4  -3  -1   11.28    1.11
  -4  -3   1   10.27    1.05
  -4   3   1   10.41    0.82
   4  -3  -1    9.75    0.79
   4  -3  -1   11.03    0.88
   4   3  -1   11.01    1.10
   4  -3  -1   11.64    0.97
  -4  -3   1   11.57    1.11
   4   3  -1   10.70    1.09
  -4  -3  -1    0.25    0.42
   4   3   1    0.17    0.36
  -4   3  -1    0.26    0.36
  -4   3  -1    0.44    0.43
   4  -3   1   -0.28    0.46
   4  -3   1    0.82    0.36
   4   3   1    0.34    0.18
   4  -3   1    0.25    0.25
   4   3   1   -0.22    0.44
  -4  -3  -1    0.15    0.37
   4  -3   1   -0.25    0.46
   4   3   3  142.58    2.38
  -4   3  -3  140.06    4.10
  -4   3  -3  142.68    3.94
   4  -3   3  138.17    3.90
   4  -3   3  141.08    2.80
   4   3   3  147.38    4.16
   4  -3   3  141.21    3.98
  -4  -3  -3  151.90    4.21
  -4  -3  -3  144.41    4.14
  -4  -3  -3  142.93    2.45
   4   3   3  140.67    4.13
  -4  -3  -5   76.93    1.83
  -4   3  -5   75.88    3.05
  -4   3  -5   80.33    3.12
  -4  -3  -5   78.63    3.06
   4  -3   5   78.07    3.08
  -4   3  -5   86.83    3.23
   4   3   5   79.43    3.10
  -4  -3  -5   80.79    3.15
   4  -3   5   80.40    3.13
   4  -3   5   79.81    1.40
  -4  -3  -5   82.00    3.16
  -4  -3  -5   79.86    3.06
  -4  -3  -5   77.70    2.16
  -4  -3  -7   41.30    1.50
  -4   3  -7   40.29    2.30
   4  -3   7   37.53    1.51
  -4   3  -7   36.88    2.24
  -4  -3  -7   40.53    2.31
   4  -3   7   41.31    2.37
  -4   3  -7   44.62    2.47
   4   3   7   35.85    2.16
   4  -3   7   41.12    2.38
  -4  -3  -7   40.36    2.27
  -4  -3  -7   43.33    2.37
  -4  -3  -7   38.36    1.72
  -4  -3  -7   41.28    2.21
   4  -3   9  119.76    2.44
  -4  -3  -9  119.38    3.14
  -4   3  -9  125.58    4.50
  -4  -3  -9  123.40    4.27
  -4  -3  -9  126.71    4.30
   4   3   9  119.67    4.19
   4  -3   9  120.74    4.45
  -4  -3  -9  116.83    3.58
  -4  -3  -9  125.36    4.07
  -4  -3 -11  195.83    4.66
  -4   3 -11  195.50    6.12
  -4  -3 -11  192.88    5.12
   4   3  11  188.03    5.68
   4  -3  11  191.88    6.09
  -4  -3 -11  200.92    5.31
  -4  -3 -11  190.51    5.33
  -4  -3 -13  115.60    3.78
  -4   3 -13  111.80    4.82
  -4  -3 -13  113.03    4.01
   4  -3  13  116.17    4.96
  -4  -3 -13  115.63    4.09
  -4  -3 -15   44.56    2.51
  -4   3 -15   46.92    3.29
  -4  -3 -15   42.47    2.51
   4  -3  15   46.14    3.31
  -4  -3 -15   45.01    2.56
  -4  -3 -17    6.18    1.05
  -4   3 -17    8.97    1.61
  -4  -3 -17    4.70    0.91
   4  -3  17    7.26    1.53
  -4  -4  20    5.47    1.41
   4  -4 -18   35.57    3.03
   4   4 -18   41.24    3.33
  -4  -4  18   31.69    2.78
   4  -4 -16    4.57    1.21
   4   4 -16    3.40    1.13
   4   4 -16    3.01    0.78
  -4  -4  16    3.00    1.04
  -4   4  16    4.18    1.15
   4  -4 -14   12.19    1.68
  -4  -4  14   14.22    1.25
   4   4 -14   12.93    1.74
   4   4 -14   12.40    1.38
  -4  -4  14   13.21    1.72
  -4   4  14   12.83    1.76
   4  -4 -12  165.41    5.74
  -4  -4  12  170.70    4.60
   4   4 -12  167.68    5.90
   4   4 -12  160.99    4.94
  -4  -4  12  160.82    5.57
  -4   4  12  155.46    5.51
   4   4 -12  163.44    4.53
  -4  -4  10   62.22    2.71
   4  -4 -10   61.59    3.25
   4  -4 -10   60.20    2.83
   4   4 -10   62.81    3.36
   4   4 -10   62.51    2.89
   4  -4 -10   70.12    1.49
   4   4 -10   63.96    2.78
  -4   4  10   65.31    3.29
   4   4 -10   61.60    2.71
   4  -4  -8  108.00    4.14
   4   4  -8  108.37    4.24
   4   4  -8  112.04    3.82
   4  -4  -8  115.31    2.39
   4   4  -8  116.60    3.39
  -4   4   8  113.46    4.15
  -4  -4   8  112.37    3.72
   4   4  -8  103.82    3.66
  -4   4   6   52.21    2.71
   4  -4  -6   50.06    2.64
  -4  -4   6   51.19    2.74
   4  -4  -6   47.85    1.63
   4  -4  -6   47.20    2.56
   4   4  -6   47.41    2.40
   4   4  -6   47.33    1.81
  -4   4   6   49.44    2.58
  -4  -4   6   45.94    2.35
   4   4  -6   48.37    2.44
  -4  -4   4    0.71    0.45
  -4   4   4    0.55    0.54
   4   4  -4    0.25    0.36
  -4   4   4    1.12    0.28
  -4  -4   4    1.43    0.63
   4  -4  -4    0.72    0.42
   4   4  -4    1.21    0.59
   4  -4  -4    0.77    0.45
  -4   4   4    0.14    0.44
   4   4  -4    0.82    0.23
   4  -4  -4    0.56    0.31
  -4  -4   2   -0.14    0.44
   4   4  -2    0.20    0.46
  -4   4   2    0.59    0.46
  -4   4   2    0.60    0.32
   4  -4  -2    0.76    0.59
   4   4  -2    0.19    0.23
   4  -4  -2    0.36    0.25
  -4  -4   2    0.25    0.42
  -4  -4   2    0.67    0.45
   4  -4  -2    0.93    0.46
   4   4  -2    0.61    0.45
   4  -4  -2    0.35    0.42
   4   4  -2    0.49    0.13
  -4   4   0   13.29    1.34
   4   4   0   14.61    0.94
   4  -4   0   14.18    1.37
  -4  -4   0   13.46    1.34
  -4   4   0   14.71    1.12
   4  -4   0   15.74    1.17
  -4  -4   0   17.09    1.38
  -4  -4   0   14.91    1.38
   4  -4   0   14.45    1.20
   4  -4   0   14.89    1.15
   4   4   0   15.98    1.45
   4   4   0   15.82    1.42
   4   4   2    1.59    0.35
  -4  -4  -2    0.71    0.51
  -4   4  -2    0.74    0.53
  -4   4  -2    1.12    0.48
   4  -4   2    0.82    0.35
   4  -4   2    1.57    0.40
  -4  -4  -2    3.17    0.74
   4   4   2    1.84    0.69
   4  -4   2    0.91    0.46
  -4  -4  -4  146.34    3.04
   4   4   4  140.50    2.95
  -4   4  -4  141.25    4.57
  -4   4  -4  144.24    4.37
   4  -4   4  149.89    4.48
   4  -4   4  141.53    4.45
   4   4   4  144.41    4.60
   4  -4   4  143.47    3.04
  -4  -4  -4  146.37    4.66
  -4  -4  -4  139.98    4.55
  -4  -4  -6   61.01    1.94
   4   4   6   63.72    1.94
  -4   4  -6   61.23    2.97
   4  -4   6   67.50    3.15
  -4  -4  -6   71.14    3.19
   4   4   6   58.71    3.00
   4  -4   6   65.69    3.13
  -4  -4  -6   63.59    3.06
  -4  -4  -6   63.88    2.11
  -4  -4  -8    9.21    0.83
  -4  -4  -8   11.38    1.35
  -4   4  -8    8.00    1.23
   4   4   8    8.89    1.23
  -4  -4  -8   12.07    1.06
   4  -4   8   10.10    1.36
  -4  -4 -10   82.51    2.76
   4  -4  10   80.46    2.16
  -4   4 -10   82.68    3.98
   4   4  10   77.01    3.72
   4  -4  10   81.81    3.98
  -4  -4 -10   82.83    3.66
  -4  -4 -10   79.80    3.09
   4  -4  10   82.56    2.21
  -4   4 -12   13.38    1.80
  -4  -4 -12   18.21    1.54
  -4  -4 -12   18.69    1.43
  -4  -4 -12   18.48    1.77
   4  -4  12   15.14    1.87
  -4   4 -14   10.71    1.70
  -4  -4 -14   12.29    1.32
  -4  -4 -14   10.05    1.19
  -4  -4 -14    8.70    1.28
   4  -4  14   11.37    1.76
  -4   4 -16   69.44    4.31
   4  -4  16   59.58    4.03
  -4  -4 -16   59.91    3.33
   4  -5 -17    6.34    1.44
  -4  -5  17    4.79    1.30
   4  -5 -15   81.43    4.45
   4   5 -15   81.20    4.65
  -4  -5  15   79.33    4.44
   4   5 -15   81.87    3.63
  -4   5  15   83.14    4.49
   4  -5 -13   53.99    3.45
  -4  -5  13   57.56    2.73
   4   5 -13   58.01    3.75
  -4  -5  13   56.43    3.61
   4   5 -13   48.35    2.72
  -4   5  13   52.64    3.40
   4  -5 -11   43.65    2.95
  -4  -5  11   39.74    2.33
   4   5 -11   38.38    2.89
   4   5 -11   44.08    2.56
  -4   5  11   36.18    2.65
   4   5 -11   42.96    2.42
   4  -5  -9   27.71    2.27
   4  -5  -9   28.05    1.32
   4   5  -9   28.59    2.06
  -4   5   9   29.47    2.27
  -4  -5   9   26.30    1.93
   4   5  -9   30.50    1.82
  -4  -5   7    0.93    0.53
   4  -5  -7    0.35    0.59
   4   5  -7    0.79    0.49
  -4   5   7    0.56    0.52
   4   5  -7   -0.03    0.32
  -4  -5   5    0.52    0.51
   4  -5  -5   -0.05    0.49
   4   5  -5    0.48    0.40
   4   5  -5    0.85    0.52
   4   5  -5    0.12    0.21
  -4   5   5    0.44    0.50
   4  -5  -5    0.38    0.38
   4  -5  -3   28.74    2.12
   4   5  -3   26.92    1.74
  -4   5   3   29.76    1.44
   4  -5  -3   29.80    1.44
   4  -5  -3   33.47    1.83
   4  -5  -3   34.63    2.17
   4   5  -3   31.03    2.10
  -4  -5   3   27.47    2.03
  -4   5   3   29.10    2.03
   4   5  -3   31.08    1.12
   4  -5  -1  107.43    4.10
   4   5  -1  104.13    3.21
  -4   5   1  110.11    3.28
  -4  -5   1  108.51    3.96
   4  -5  -1  107.92    3.27
   4   5  -1  111.60    4.11
   4  -5  -1  108.96    3.63
   4  -5  -1  103.93    3.61
   4   5  -1  108.35    1.77
  -4  -5   1  108.01    4.15
   4   5  -1  104.74    1.77
   4   5   1   26.32    1.43
   4  -5   1   27.96    2.09
  -4   5  -1   25.69    1.70
  -4  -5  -1   28.32    1.92
   4  -5   1   22.84    1.62
   4  -5   1   23.62    1.57
   4  -5   1   24.60    1.81
   4   5   1   27.80    2.08
  -4  -5  -1   24.45    1.99
   4   5   1   25.60    0.66
   4   5   3   69.42    2.29
  -4   5  -3   69.11    3.04
  -4  -5  -3   65.39    2.90
   4  -5   3   69.36    3.07
   4  -5   3   65.89    3.12
   4   5   3   69.83    3.39
   4  -5   3   67.59    2.44
  -4  -5  -3   69.77    3.42
   4   5   3   76.63    1.74
  -4  -5  -5  120.14    3.13
   4   5   5  114.43    3.02
  -4   5  -5  117.37    4.34
  -4  -5  -5  105.90    3.70
   4   5   5  107.14    4.40
   4  -5   5  115.16    4.42
   4  -5   5  113.92    2.88
  -4  -5  -5  114.76    4.54
   4   5   5  114.75    2.76
   4   5   7  102.65    2.95
  -4  -5  -7  106.09    3.02
  -4   5  -7   99.88    4.25
   4  -5   7   96.90    4.31
   4   5   7  102.34    4.42
  -4  -5  -7   98.47    4.27
   4   5   7  107.26    3.06
  -4  -5  -9   70.72    2.59
  -4   5  -9   69.38    3.73
   4   5   9   65.97    3.70
   4  -5   9   71.66    3.86
  -4  -5  -9   66.99    3.59
  -4  -5  -9   64.76    2.66
   4  -5   9   73.57    2.66
  -4  -5 -11   17.16    1.38
  -4  -5 -11   15.62    1.83
  -4   5 -11   16.96    2.07
  -4  -5 -11   15.79    1.44
   4   5  11   11.92    1.69
   4  -5  11   14.69    2.00
  -4   5 -13   -0.40    0.84
  -4  -5 -13    0.07    0.43
  -4  -5 -13   -0.17    0.48
  -4  -5 -13    0.57    0.67
   4  -5  13    0.59    0.84
  -4  -5 -15  152.96    5.93
   4  -6 -14    1.43    0.84
  -4  -6  14    0.66    0.74
  -4   6  14    2.13    0.86
  -4  -6  12    7.38    1.14
   4   6 -12    5.93    1.39
   4  -6 -12    5.85    1.28
   4   6 -12    7.72    1.24
  -4   6  12    6.27    1.34
  -4  -6  12    6.75    1.52
   4  -6 -10  165.71    6.14
   4   6 -10  161.73    5.36
  -4   6  10  159.38    5.86
  -4  -6  10  168.38    5.44
   4  -6  -8   83.43    4.15
   4   6  -8   76.22    3.60
  -4   6   8   82.23    3.94
  -4  -6   8   77.15    3.66
   4  -6  -6   21.10    2.06
   4  -6  -6   24.75    1.64
   4   6  -6   23.08    2.01
  -4   6   6   24.59    2.06
   4   6  -6   23.60    1.38
  -4  -6   6   21.72    1.95
  -4  -6   4    0.20    0.60
   4  -6  -4    0.30    0.65
   4  -6  -4   -0.05    0.26
   4   6  -4    0.31    0.55
   4   6  -4   -0.51    0.52
  -4   6   4   -0.77    0.61
   4   6  -4    0.32    0.24
   4  -6  -4   -0.10    0.53
   4   6  -2   20.75    1.61
   4  -6  -2   17.32    1.87
  -4   6   2   19.79    1.39
   4  -6  -2   19.75    1.41
   4  -6  -2   18.25    1.62
   4   6  -2   20.09    1.90
   4   6  -2   21.00    0.90
  -4  -6   2   19.96    1.95
  -4   6   2   20.67    1.87
   4   6  -2   19.36    0.86
  -4  -6   0    4.45    1.05
   4  -6   0    2.34    0.86
  -4   6   0    3.69    0.74
   4   6   0    4.62    0.78
   4  -6   0    3.11    0.64
   4   6   0    5.65    1.10
   4  -6   0    2.76    0.65
   4  -6   0    3.77    0.88
   4   6   0    3.80    0.32
   4   6   2  328.45    6.63
  -4   6  -2  341.58    7.69
   4  -6   2  339.16    7.69
   4  -6   2  339.47    8.15
   4   6   2  336.82    8.61
   4  -6   2  333.15    7.08
  -4  -6  -2  355.08    8.90
   4   6   2  350.84    4.81
   4   6   4    4.37    0.65
  -4  -6  -4    3.83    1.03
  -4   6  -4    2.99    0.87
  -4  -6  -4    3.25    0.72
   4   6   4    1.87    0.58
   4  -6   4    2.42    0.58
   4   6   4    3.05    0.42
   4  -6   4    4.28    1.05
  -4  -6  -6   20.07    2.12
   4   6   6   19.41    1.37
  -4   6  -6   20.36    1.98
  -4  -6  -6   19.21    1.64
   4   6   6   18.84    2.07
   4  -6   6   22.31    2.14
   4   6   6   22.02    1.24
   4  -6   8    1.61    0.56
  -4  -6  -8    1.50    0.86
  -4   6  -8    1.45    0.80
  -4  -6  -8    1.84    0.55
   4   6   8    1.68    0.82
   4   6   8    1.22    0.46
   4  -6   8    0.86    0.85
  -4  -6 -10    1.58    0.94
  -4   6 -10   -0.01    0.81
   4   6  10    1.00    0.91
   4  -6  10    1.39    0.80
  -4   6 -12    6.16    1.72
  -4  -6 -12    2.70    1.00
   4  -6  12    4.61    1.23
  -4  -6 -14    2.63    1.09
  -4  -6 -16   10.53    1.85
  -4   7  13   28.47    2.68
  -4  -7  11    0.17    0.61
   4  -7 -11   -1.00    0.82
   4   7 -11   -0.05    0.63
  -4   7  11   -0.28    0.73
  -4  -7   9   11.20    1.55
   4  -7  -9   10.49    1.66
   4   7  -9   11.20    1.55
  -4   7   9   13.81    1.78
   4  -7  -7   53.76    3.51
   4  -7  -7   55.49    2.66
   4   7  -7   52.75    3.20
  -4  -7   7   53.90    3.36
  -4   7   7   48.56    3.18
   4  -7  -5   35.59    2.90
   4   7  -5   38.62    2.80
   4  -7  -5   40.41    2.42
  -4   7   5   34.88    2.61
  -4  -7   5   37.84    2.84
   4  -7  -3   51.73    3.39
   4   7  -3   47.21    3.11
   4  -7  -3   53.43    2.92
  -4   7   3   46.16    2.95
  -4  -7   3   47.70    3.27
  -4  -7   1    7.93    1.44
  -4   7   1    6.69    0.99
   4   7  -1    8.83    1.48
  -4   7   1    6.65    1.24
   4  -7  -1    7.44    1.26
  -4  -7  -1    2.45    0.95
  -4   7  -1    2.80    0.69
   4   7   1    2.87    1.17
   4  -7   1    1.43    0.62
  -4  -7  -3    3.23    1.14
  -4   7  -3    2.56    0.80
   4   7   3    3.39    1.00
   4  -7   3    3.74    1.01
  -4   7  -5   72.64    3.86
   4  -7   5   70.24    4.03
   4   7   5   75.40    4.28
  -4  -7  -5   74.00    4.31
   4  -7   5   71.33    3.64
  -4   7  -7   69.23    3.99
   4  -7   7   68.80    4.16
   4   7   7   75.79    4.44
  -4  -7  -7   69.49    4.21
   4  -7   7   74.95    3.61
  -4  -7  -9   14.08    1.96
  -4   7  -9   12.36    1.85
   4   7   9   12.10    1.86
   4  -7   9   11.68    1.86
  -4   8  10   76.01    4.34
  -4  -8   8    0.69    0.82
   4  -8  -8   -0.06    0.69
   4   8  -8    1.04    0.78
  -4   8   8   -0.34    0.64
   4  -8  -6   34.59    3.09
   4   8  -6   27.56    2.56
  -4   8   6   30.94    2.64
  -4  -8   6   33.62    2.89
  -4  -8   4    4.22    1.22
   4  -8  -4    3.21    1.09
   4   8  -4    0.68    0.83
  -4   8   4    3.67    1.14
   4  -8  -4    4.16    1.07
  -4  -8   2   13.95    1.99
   4   8  -2   16.25    2.06
   4  -8  -2   21.25    2.14
  -4   8   2   17.80    2.01
  -4  -8   0    0.81    0.83
   4   8   0   -1.39    0.99
  -4   8   0   -1.35    0.83
   4  -8   0   -0.96    0.80
  -4   8  -2   66.90    3.58
   4   8   2   64.02    4.09
   4  -8   2   65.06    3.92
  -4  -8  -2   67.23    4.31
   4  -8   2   63.85    3.92
  -4   8  -4  180.48    6.41
   4   8   4  179.22    7.11
   4  -8   4  173.14    6.72
   4  -8   4  183.52    6.59
  -4   8  -6   18.99    2.21
   4  -8   6   15.54    1.92
   4  -8   6   18.58    2.31
  -4   8  -8   12.22    1.90
  -4   9   3   30.58    2.70
  -4   9   1    0.54    0.66
   4  -9  -1    2.41    0.98
  -4   9  -1    6.72    1.36
   4  -9   1    1.92    0.74
  -5   0  19   -0.42    0.56
   5   0 -19    1.22    0.85
  -5   0  19    0.42    0.92
  -5   0  17   -0.01    0.52
   5   0 -17   -0.61    0.73
  -5   0  17    0.85    0.40
  -5   0  17   -0.59    0.64
  -5   0  15   -0.13    0.46
  -5   0  15    0.48    0.38
   5   0 -15   -0.21    0.43
   5   0 -15   -0.39    0.60
  -5   0  15   -0.71    0.37
  -5   0  15    0.83    0.70
  -5   0  13    0.14    0.35
  -5   0  13    0.02    0.34
   5   0 -13    0.69    0.48
   5   0 -13    0.35    0.53
  -5   0  13    0.06    0.52
  -5   0  13    0.35    0.30
  -5   0  11   -0.09    0.30
  -5   0  11    0.12    0.34
   5   0 -11   -0.03    0.41
   5   0 -11   -0.15    0.54
   5   0 -11   -0.14    0.37
  -5   0  11    0.15    0.26
  -5   0  11   -0.23    0.40
  -5   0   9   -0.28    0.24
  -5   0   9   -0.34    0.33
   5   0  -9   -0.38    0.38
   5   0  -9   -0.02    0.41
   5   0  -9    0.55    0.46
  -5   0   9   -0.09    0.25
  -5   0   9   -0.26    0.45
  -5   0   7    0.55    0.35
  -5   0   7    0.11    0.16
   5   0  -7   -0.10    0.31
   5   0  -7    0.06    0.39
   5   0  -7    0.09    0.33
  -5   0   7   -0.34    0.33
   5   0  -5   -0.26    0.35
   5   0  -5   -0.10    0.38
  -5   0   5    0.20    0.29
  -5   0   5    0.53    0.46
  -5   0   5   -0.28    0.33
   5   0  -5    0.04    0.29
   5   0  -3    1.01    0.42
  -5   0   3   -0.01    0.40
  -5   0   3    0.18    0.30
   5   0  -3    0.41    0.36
  -5   0   3    0.07    0.24
  -5   0   3   -0.34    0.35
   5   0  -1   -0.09    0.30
  -5   0   1   -0.66    0.43
  -5   0   1    0.00    0.23
  -5   0   1    0.06    0.27
   5   0  -1    0.23    0.26
   5   0  -1    0.47    0.20
  -5   0  -1    0.09    0.19
  -5   0  -1    0.13    0.36
   5   0   1    0.57    0.37
   5   0   1   -0.22    0.30
   5   0   1    0.06    0.21
   5   0   1    0.75    0.43
  -5   0  -1    0.51    0.35
  -5   0  -3    0.79    0.41
   5   0   3   -0.21    0.33
  -5   0  -3    0.27    0.22
   5   0   3    0.01    0.30
   5   0   3   -0.39    0.42
  -5   0  -3    0.05    0.39
   5   0   5    0.42    0.32
  -5   0  -5    0.04    0.31
  -5   0  -5    0.06    0.43
  -5   0  -5    0.21    0.24
   5   0   5    0.32    0.25
   5   0   5    0.39    0.41
  -5   0  -5    0.26    0.40
   5   0   7   -0.26    0.29
  -5   0  -7    0.08    0.28
  -5   0  -7    0.00    0.41
   5   0   7   -0.04    0.26
  -5   0  -7    0.17    0.28
   5   0   7    0.42    0.48
  -5   0  -7   -0.06    0.47
  -5   0  -9    0.33    0.29
   5   0   9    0.17    0.20
   5   0   9   -0.18    0.48
  -5   0  -9    0.63    0.48
  -5   0  -9    0.24    0.27
   5   0   9    0.18    0.27
   5   0   9   -0.36    0.59
  -5   0  -9   -0.01    0.45
  -5   0  -9   -0.28    0.36
  -5   0 -11   -0.07    0.22
   5   0  11    0.25    0.56
  -5   0 -11   -0.02    0.26
   5   0  11   -0.30    0.48
  -5   0 -11   -0.21    0.49
  -5   0 -13    0.14    0.23
  -5   0 -13    0.57    0.35
   5   0  13    1.23    0.77
  -5   0 -13   -1.14    0.68
   5   0  13    0.32    0.65
   5   0  15    0.09    0.61
  -5   0 -15   -0.14    0.54
   5   0  15   -0.16    0.71
   5   0  17    0.21    0.66
   5   0  17   -0.14    0.72
  -5   0 -17    0.48    0.71
   5   0  19   -1.09    0.80
  -5   0 -19    1.61    0.95
  -5   0 -21   -0.19    0.99
  -5  -1  20    1.06    0.59
  -5  -1  18    0.49    0.61
   5  -1 -18    1.67    0.99
   5   1 -18    0.60    0.67
  -5   1  18   -0.01    0.66
  -5  -1  18    0.10    0.48
   5  -1 -16  133.44    4.53
   5  -1 -16  139.93    5.55
   5   1 -16  131.39    5.39
  -5  -1  16  138.27    4.44
   5   1 -16  137.01    4.86
  -5  -1  16  135.02    4.28
  -5   1  16  146.61    3.32
   5   1 -16  129.14    4.00
  -5  -1  16  132.31    5.22
  -5   1  16  137.92    5.46
   5  -1 -14    2.69    0.80
   5   1 -14    1.76    0.55
   5  -1 -14    2.86    0.73
   5   1 -14    3.43    0.93
  -5   1  14    2.47    0.57
  -5  -1  14    2.23    0.61
  -5   1  14    3.18    0.43
  -5   1  14    3.08    0.90
  -5  -1  14    2.78    0.80
  -5  -1  14    3.55    0.70
   5  -1 -12   34.76    2.33
   5   1 -12   34.85    2.33
   5  -1 -12   34.98    2.11
  -5   1  12   33.78    1.64
  -5  -1  12   34.07    2.09
  -5  -1  12   34.56    1.83
  -5   1  12   34.05    1.13
  -5   1  12   29.40    2.15
   5   1 -12   34.29    2.22
  -5  -1  12   35.61    2.24
   5   1 -12   30.90    1.82
   5   1 -10    4.19    0.70
   5  -1 -10    4.20    0.78
   5  -1 -10    3.61    0.82
   5   1 -10    5.46    0.94
  -5   1  10    3.80    0.54
  -5  -1  10    4.76    0.78
  -5   1  10    4.88    0.31
   5   1 -10    4.30    0.76
  -5  -1  10    4.04    0.77
   5  -1 -10    5.37    0.90
  -5  -1  10    4.75    0.65
  -5   1  10    4.16    0.86
  -5  -1   8  443.89    8.00
  -5   1   8  442.60    6.85
   5  -1  -8  460.65    8.26
   5   1  -8  453.45    8.22
  -5   1   8  451.55    8.43
   5  -1  -8  435.64    8.34
  -5  -1   8  452.24    7.91
  -5   1   8  443.45    8.28
   5   1  -8  444.93    7.83
   5  -1  -8  457.94    8.45
   5   1  -8  432.61    7.79
  -5  -1   8  443.02    7.79
  -5  -1   6  267.21    5.62
   5   1  -6  277.53    5.52
  -5   1   6  282.07    5.85
  -5  -1   6  281.72    5.71
   5  -1  -6  280.44    5.90
   5  -1  -6  281.20    5.85
  -5  -1   6  274.85    5.23
  -5   1   6  280.48    5.80
   5   1  -6  277.09    5.25
   5  -1  -6  281.31    5.90
   5   1  -6  275.35    5.63
   5   1  -4    0.77    0.35
  -5   1   4    0.70    0.34
   5  -1  -4    1.07    0.46
   5  -1  -4    1.28    0.44
   5   1  -4    1.23    0.43
  -5  -1   4    0.93    0.42
  -5   1   4    1.42    0.50
   5   1  -4    0.95    0.33
  -5   1   4    0.64    0.18
  -5  -1   4    1.43    0.37
   5  -1  -2  175.72    3.89
  -5  -1   2  187.08    4.25
   5   1  -2  175.91    3.24
   5  -1  -2  172.12    4.10
  -5   1   2  176.47    3.89
  -5  -1   2  175.35    2.95
  -5   1   2  179.76    3.26
   5  -1  -2  175.38    3.25
  -5  -1   2  176.03    3.19
   5   1  -2  176.43    4.12
  -5   1   0  389.42    6.44
   5   1   0  403.28    5.23
  -5  -1   0  405.53    6.96
   5  -1   0  398.36    6.79
   5  -1   0  414.15    6.56
  -5  -1   0  399.92    5.92
   5  -1   0  400.12    6.34
   5   1   0  409.18    6.85
  -5   1   0  400.46    6.35
  -5  -1   0  398.61    6.82
   5   1   0  404.02    6.95
   5  -1   2  309.32    5.45
  -5   1  -2  306.50    5.43
   5  -1   2  303.00    5.49
  -5  -1  -2  314.20    3.88
  -5   1  -2  316.01    5.96
   5   1   2  309.71    5.39
   5  -1   2  308.97    5.74
  -5   1  -2  310.57    5.75
  -5  -1  -2  311.27    6.02
   5   1   2  304.18    5.64
  -5  -1  -2  317.69    5.85
   5   1   2  307.65    5.79
   5  -1   4  402.73    6.47
  -5   1  -4  402.95    6.76
  -5  -1  -4  399.94    5.34
  -5   1  -4  422.97    7.55
   5   1   4  408.16    7.09
   5  -1   4  414.43    5.78
  -5  -1  -4  405.84    7.51
  -5  -1  -4  411.82    6.87
   5  -1   4  424.12    7.45
  -5   1  -4  412.61    7.44
   5   1   4  410.05    6.89
   5   1   4  402.12    6.97
  -5  -1  -4  407.63    6.95
  -5   1  -6   30.55    1.63
   5   1   6   29.79    1.75
  -5   1  -6   29.27    1.84
  -5  -1  -6   27.25    1.48
  -5  -1  -6   32.94    1.91
   5  -1   6   29.14    1.84
   5  -1   6   30.15    1.02
   5   1   6   30.24    1.86
  -5   1  -6   32.22    1.91
   5   1   6   27.97    1.53
   5  -1   6   29.93    1.30
  -5  -1  -6   30.35    1.55
   5   1   6   28.04    1.50
   5   1   8  158.59    4.63
  -5  -1  -8  155.50    4.51
  -5   1  -8  157.81    4.73
   5  -1   8  158.34    4.76
  -5  -1  -8  159.98    4.76
  -5   1  -8  165.78    4.87
   5  -1   8  156.92    2.73
   5   1   8  159.73    3.98
   5   1   8  156.48    4.72
  -5  -1  -8  160.72    3.97
   5  -1   8  154.59    3.12
   5   1   8  152.51    3.79
  -5  -1  -8  154.88    4.20
  -5  -1  -8  152.80    3.77
  -5   1 -10   16.85    1.60
   5   1  10   17.22    1.59
  -5  -1 -10   15.11    1.46
  -5  -1 -10   18.24    1.64
   5   1  10   15.45    1.56
   5   1  10   14.74    1.22
  -5  -1 -10   17.68    1.33
  -5  -1 -10   14.71    1.10
   5  -1  10   15.45    0.74
  -5  -1 -10   17.64    1.47
   5  -1  10   13.95    1.53
  -5   1 -12   68.94    3.45
   5   1  12   69.64    3.48
  -5  -1 -12   70.86    3.31
  -5   1 -12   68.75    1.76
   5  -1  12   68.39    3.47
   5   1  12   66.86    3.38
  -5  -1 -12   61.64    2.65
  -5  -1 -12   69.26    2.41
  -5   1 -14   55.72    3.29
   5   1  14   55.96    3.38
  -5  -1 -14   51.85    2.99
   5  -1  14   59.26    3.46
   5   1  14   51.50    3.17
  -5  -1 -14   50.65    2.51
  -5  -1 -14   57.52    2.13
  -5  -1 -16   24.37    2.02
   5   1  16   27.32    2.49
   5  -1  16   21.95    2.28
  -5  -1 -16   23.21    2.13
  -5   1 -16   25.22    2.39
   5  -1  16   22.74    2.35
   5   1  16   22.75    2.33
  -5  -1 -18   67.54    3.64
   5  -1  18   74.88    4.39
   5   1  18   68.17    4.11
  -5  -1 -18   72.37    3.97
  -5   1 -18   74.13    4.29
   5  -1  18   73.62    4.40
   5   1  18   66.94    4.18
  -5  -1 -20   21.24    2.23
  -5  -1 -20   21.59    2.31
   5   1  20   20.65    2.46
   5   2 -19    6.25    1.33
   5   2 -19    6.64    1.46
   5  -2 -19    8.12    1.55
  -5  -2  19    6.66    1.18
  -5   2  19    5.64    1.45
   5   2 -17   13.51    1.73
   5   2 -17   11.95    1.77
   5  -2 -17   12.42    1.84
  -5  -2  17   12.41    1.44
  -5   2  17    8.53    1.48
   5   2 -15   92.20    4.34
   5  -2 -15   91.53    4.36
   5   2 -15   80.90    3.86
  -5  -2  15   92.71    3.76
   5   2 -15   90.29    3.21
  -5   2  15   93.35    4.39
   5   2 -13    6.02    1.04
  -5   2  13    5.62    0.57
   5   2 -13    5.86    0.85
   5  -2 -13    6.35    1.12
  -5  -2  13    5.75    0.97
  -5   2  13    8.23    1.28
  -5  -2  11   59.39    2.53
   5  -2 -11   59.06    3.03
  -5   2  11   60.25    1.71
  -5  -2  11   60.45    2.96
  -5  -2  11   61.15    2.70
   5   2 -11   57.39    2.48
  -5   2  11   55.65    2.92
   5   2 -11   59.95    2.75
  -5  -2  11   58.55    2.73
   5  -2  -9    9.99    0.85
  -5   2   9   11.87    0.68
  -5  -2   9   12.67    1.29
   5   2  -9   10.71    1.07
  -5  -2   9   11.90    1.13
  -5   2   9   14.11    1.37
   5  -2  -9   13.14    1.37
   5   2  -9   12.25    1.12
   5  -2  -9   11.48    1.24
  -5  -2   9   11.68    1.09
  -5   2   9   12.20    1.29
  -5  -2   7   74.04    2.98
   5  -2  -7   70.54    2.10
  -5   2   7   70.77    1.76
  -5   2   7   78.89    3.06
  -5  -2   7   72.15    2.72
   5  -2  -7   76.59    3.07
   5   2  -7   69.49    2.68
   5   2  -7   76.14    2.48
  -5   2   7   73.60    2.98
   5  -2  -7   80.12    3.10
  -5  -2   7   71.08    2.40
  -5  -2   5   42.98    2.14
   5  -2  -5   47.97    2.26
  -5  -2   5   43.28    2.07
  -5   2   5   45.76    2.18
   5   2  -5   44.53    1.59
  -5   2   5   43.33    2.14
   5   2  -5   43.25    2.05
  -5  -2   5   43.52    1.56
   5  -2  -3   32.67    1.76
  -5   2   3   32.47    1.75
  -5   2   3   32.31    1.33
  -5   2   3   32.32    1.11
   5   2  -3   33.54    1.81
   5  -2  -3   31.71    1.10
   5   2  -3   31.55    1.07
  -5   2   3   35.14    1.84
   5   2  -3   31.39    1.75
  -5  -2   3   31.63    1.76
  -5  -2   3   32.68    1.07
  -5  -2   1    1.32    0.55
   5   2  -1    0.90    0.20
  -5   2   1    0.82    0.39
   5   2  -1    1.21    1.08
   5  -2  -1    0.81    0.38
  -5   2   1    0.85    0.38
   5   2  -1    0.84    0.47
   5  -2  -1    1.26    0.37
  -5   2   1    0.62    0.29
  -5  -2   1    1.23    0.18
  -5   2  -1  111.53    3.23
   5  -2   1  112.48    3.18
   5  -2   1  115.63    3.30
  -5  -2  -1  103.92    2.89
  -5   2  -1  104.31    3.07
  -5  -2  -1  109.83    3.34
  -5   2  -1  106.31    2.97
   5  -2   1  105.14    2.96
   5   2   1  109.03    3.31
   5   2   1  108.80    3.33
  -5  -2  -1  108.64    3.32
  -5   2  -3  108.90    3.31
   5  -2   3  110.56    3.02
  -5  -2  -3  112.23    3.24
  -5   2  -3  111.48    3.42
  -5  -2  -3  113.96    3.41
  -5   2  -3  110.84    3.34
   5  -2   3  107.76    3.33
  -5  -2  -3  112.10    3.56
   5   2   3  108.38    3.34
   5   2   3  114.36    3.46
  -5  -2  -3  112.99    3.42
  -5  -2  -3  111.25    2.31
   5  -2   5  622.13    9.10
  -5   2  -5  625.85   10.24
  -5  -2  -5  629.98    7.46
  -5  -2  -5  640.63   10.39
   5  -2   5  633.41   10.66
  -5   2  -5  640.21   10.66
  -5   2  -5  638.89   10.61
   5  -2   5  621.03   10.55
  -5  -2  -5  625.87   10.21
   5   2   5  633.11   10.21
  -5  -2  -5  670.04   10.91
   5  -2   5  650.02    7.50
   5   2   5  616.77   10.20
  -5  -2  -5  628.38    8.94
  -5  -2  -5  631.90   10.16
  -5  -2  -7  141.35    2.83
  -5   2  -7  138.35    4.16
   5  -2   7  133.87    3.01
  -5   2  -7  141.27    4.44
   5  -2   7  148.62    4.56
  -5  -2  -7  140.99    4.42
  -5   2  -7  143.08    4.48
   5  -2   7  140.86    4.46
   5   2   7  140.58    4.06
  -5  -2  -7  136.93    4.04
   5   2   7  136.39    3.92
  -5  -2  -7  144.42    3.99
  -5  -2  -7  135.81    3.56
  -5  -2  -9    3.40    0.71
   5  -2   9    3.38    0.37
  -5  -2  -9    2.17    0.42
  -5   2  -9    3.80    0.83
   5   2   9    3.56    0.85
  -5  -2  -9    4.76    0.86
   5   2   9    3.90    0.79
  -5  -2  -9    2.63    0.59
  -5  -2  -9    2.28    0.59
   5  -2   9    2.91    0.77
  -5  -2  -9    4.00    0.71
  -5  -2 -11    0.44    0.34
  -5  -2 -11    0.35    0.35
  -5   2 -11   -0.38    0.62
   5   2  11    0.65    0.59
  -5  -2 -11   -0.06    0.45
   5   2  11   -0.24    0.44
  -5  -2 -11   -0.58    0.53
   5  -2  11    0.66    0.70
  -5  -2 -11    0.42    0.32
  -5  -2 -13   40.42    2.15
  -5   2 -13   37.65    2.76
   5   2  13   35.81    2.66
  -5  -2 -13   37.89    2.47
   5  -2  13   34.91    2.65
  -5  -2 -13   39.16    2.10
  -5  -2 -15   43.12    2.44
  -5   2 -15   46.47    3.24
   5   2  15   51.28    3.40
  -5  -2 -15   46.09    2.85
   5  -2  15   40.12    3.04
  -5  -2 -15   45.34    2.26
  -5  -2 -17   14.70    1.73
  -5   2 -17   14.88    1.97
   5   2  17   18.31    2.19
  -5  -2 -17   15.72    1.64
   5  -2  17   16.14    2.19
  -5  -2 -19   27.91    2.47
   5   3 -20   21.25    2.44
  -5  -3  20   25.07    2.38
   5   3 -18    0.90    0.87
   5  -3 -18    0.25    0.73
  -5  -3  18    1.58    1.05
  -5   3  18    0.93    0.60
   5  -3 -16   65.95    3.96
   5   3 -16   54.05    3.44
  -5  -3  16   53.45    3.17
  -5   3  16   53.64    3.55
  -5  -3  14  486.06    8.84
   5  -3 -14  479.80   10.87
   5   3 -14  458.51   10.51
  -5  -3  14  456.47    9.85
  -5   3  14  460.00   10.63
   5   3 -14  454.43    8.56
  -5  -3  12   30.33    1.88
   5  -3 -12   29.72    2.36
   5   3 -12   29.50    2.30
  -5  -3  12   26.28    2.02
  -5   3  12   28.08    2.24
   5   3 -12   29.68    2.02
   5   3 -12   29.20    1.84
   5  -3 -10    1.30    0.48
   5  -3 -10    0.94    0.47
  -5  -3  10    0.28    0.38
   5   3 -10    0.59    0.41
   5   3 -10    1.14    0.48
  -5   3  10    0.30    0.52
   5  -3  -8   78.17    3.38
  -5   3   8   78.53    3.38
  -5  -3   8   74.66    2.94
  -5  -3   8   77.12    3.36
   5  -3  -8   74.74    2.60
   5   3  -8   74.10    3.07
   5   3  -8   77.75    2.64
  -5   3   8   74.18    3.25
   5   3  -8   74.45    2.97
   5  -3  -6  197.90    5.34
  -5   3   6  200.63    5.38
  -5   3   6  203.39    3.02
  -5  -3   6  209.30    5.50
   5   3  -6  186.38    5.02
   5   3  -6  184.26    3.88
   5   3  -6  188.69    4.97
  -5  -3   6  199.59    5.04
  -5   3   6  194.66    5.24
   5  -3  -4  478.93    8.85
  -5   3   4  476.67    8.89
  -5  -3   4  485.21    8.98
  -5   3   4  476.38    6.72
   5  -3  -4  466.43    6.56
   5   3  -4  477.53    8.70
  -5  -3   4  481.34    8.70
   5   3  -4  474.38    8.68
   5   3  -4  461.15    6.36
  -5   3   4  476.40    8.81
  -5   3   2  453.29    8.42
   5  -3  -2  438.16    8.31
  -5  -3   2  444.39    8.41
  -5   3   2  458.44    7.01
   5  -3  -2  437.45    6.88
   5   3  -2  439.89    8.25
   5   3  -2  449.88    8.37
  -5  -3   2  441.59    8.32
  -5   3   0  100.58    3.43
   5   3   0   94.10    1.97
   5  -3   0  102.05    3.45
  -5   3   0  104.20    3.00
  -5  -3   0  102.40    3.49
   5  -3   0   97.80    2.91
   5   3   0  103.51    3.49
  -5  -3   0   97.82    3.41
   5   3   0  101.37    3.52
   5  -3   2  165.32    4.61
  -5   3  -2  168.49    4.61
  -5   3  -2  169.43    4.34
   5  -3   2  167.15    4.34
  -5  -3  -2  173.88    4.71
  -5   3  -2  169.96    4.34
   5  -3   2  167.32    3.47
   5  -3   2  161.96    4.27
   5   3   2  171.75    4.71
   5   3   2  167.57    4.74
  -5  -3  -2  170.52    4.69
  -5   3  -4   67.83    2.87
  -5   3  -4   63.92    2.77
   5  -3   4   65.69    2.81
  -5  -3  -4   62.82    2.71
  -5  -3  -4   65.31    2.84
   5  -3   4   62.79    1.61
   5  -3   4   61.18    2.73
  -5  -3  -4   67.74    2.97
   5   3   4   68.38    2.93
  -5   3  -4   68.23    2.85
  -5  -3  -4   63.30    1.67
   5   3   4   64.94    2.86
  -5  -3  -4   64.05    2.81
  -5  -3  -6  314.30    4.38
   5  -3   6  302.75    5.69
  -5   3  -6  328.14    7.21
  -5   3  -6  308.37    7.10
  -5  -3  -6  317.28    7.07
   5  -3   6  317.04    7.21
   5  -3   6  307.08    7.08
   5   3   6  298.15    6.91
  -5   3  -6  318.86    7.21
  -5  -3  -6  324.66    7.28
  -5  -3  -6  324.14    7.09
  -5  -3  -6  297.17    5.36
  -5  -3  -6  300.93    6.82
  -5  -3  -8  199.94    3.71
   5  -3   8  187.95    3.85
  -5   3  -8  195.50    5.75
   5  -3   8  195.02    5.76
   5   3   8  191.60    5.41
  -5  -3  -8  202.27    5.54
  -5  -3  -8  182.39    4.40
  -5  -3  -8  190.12    5.26
  -5  -3 -10   48.47    1.92
  -5   3 -10   43.93    2.82
  -5  -3 -10   46.69    2.49
   5  -3  10   53.05    3.09
   5   3  10   42.19    2.54
  -5  -3 -10   48.10    2.34
   5  -3  10   49.25    1.38
  -5  -3 -10   43.48    2.46
  -5  -3 -12  136.98    3.79
  -5   3 -12  127.09    5.16
  -5  -3 -12  124.93    4.41
   5  -3  12  121.65    5.09
   5   3  12  123.44    4.63
  -5  -3 -12  133.67    4.48
  -5   3 -14    3.27    1.06
  -5  -3 -14    1.74    0.67
  -5  -3 -14    2.52    0.63
  -5  -3 -14    2.79    0.72
   5  -3  14    1.57    0.95
  -5  -3 -16  257.30    6.59
  -5  -3 -16  263.35    7.16
  -5   3 -16  267.05    8.57
   5  -3  16  260.77    8.51
  -5  -3 -16  268.18    6.76
  -5  -4  19   36.73    3.04
   5  -4 -17    1.11    0.86
   5   4 -17    1.66    0.95
   5   4 -17    0.50    0.65
  -5  -4  17    0.44    0.73
  -5   4  17    3.23    0.96
  -5  -4  15    3.19    0.70
   5  -4 -15    3.75    1.14
   5   4 -15    3.82    1.15
   5   4 -15    2.66    0.91
  -5  -4  15    2.46    0.91
  -5   4  15    3.30    1.01
   5  -4 -13  209.25    6.84
  -5  -4  13  207.66    5.45
   5   4 -13  201.08    5.92
  -5  -4  13  197.04    6.38
  -5   4  13  197.38    6.61
   5   4 -13  196.93    5.37
   5  -4 -11   33.59    2.53
  -5  -4  11   37.92    2.23
   5  -4 -11   36.05    2.17
   5   4 -11   34.63    2.28
   5   4 -11   34.66    2.08
  -5   4  11   31.98    2.41
   5   4 -11   35.30    2.15
   5  -4  -9   31.59    2.34
  -5  -4   9   33.88    2.11
   5  -4  -9   31.55    1.94
   5   4  -9   27.81    1.99
   5   4  -9   29.62    1.72
  -5   4   9   34.40    2.39
   5   4  -9   30.21    2.01
   5  -4  -7   66.41    3.26
   5   4  -7   66.26    3.04
   5  -4  -7   72.86    1.69
   5   4  -7   69.88    2.33
  -5   4   7   72.29    3.31
  -5  -4   7   65.21    2.95
   5   4  -7   68.21    3.07
   5  -4  -5  235.37    6.25
  -5   4   5  240.75    3.83
   5  -4  -5  241.63    4.35
   5  -4  -5  243.98    6.13
   5   4  -5  235.94    5.99
   5   4  -5  236.80    4.08
  -5   4   5  242.22    6.21
  -5  -4   5  228.44    5.90
   5   4  -5  240.95    6.10
   5  -4  -3   16.77    1.55
  -5  -4   3   13.88    1.37
  -5   4   3   18.34    1.60
  -5   4   3   16.24    1.01
  -5  -4   3   16.72    1.53
   5  -4  -3   15.59    1.09
   5   4  -3   13.59    1.36
   5  -4  -3   15.62    1.39
  -5   4   3   17.12    1.52
   5   4  -3   17.29    1.55
   5   4  -1   73.49    2.21
   5  -4  -1   77.93    3.31
  -5   4   1   79.63    3.33
  -5   4   1   81.46    2.66
  -5  -4   1   73.01    3.20
   5  -4  -1   80.08    2.76
   5  -4  -1   78.34    2.85
  -5  -4   1   84.49    3.39
   5   4  -1   85.10    3.38
   5   4  -1   80.81    3.36
  -5  -4   1   81.07    3.35
   5  -4   1   87.84    3.52
   5   4   1   85.56    2.08
  -5   4  -1   89.78    3.57
  -5   4  -1   85.82    3.04
   5  -4   1   83.76    3.00
   5  -4   1   89.00    3.17
  -5  -4  -1   89.78    3.54
   5  -4   1   83.41    2.70
   5   4   1   83.09    3.42
   5   4   1   88.45    3.56
  -5  -4  -1   93.69    3.65
   5   4   3    4.77    0.40
  -5  -4  -3    4.95    0.98
  -5   4  -3    5.17    0.86
  -5   4  -3    4.72    0.86
   5  -4   3    4.06    0.77
  -5  -4  -3    4.98    0.92
   5  -4   3    5.27    0.58
   5   4   3    4.65    0.94
   5  -4   3    5.03    0.89
  -5  -4  -5    4.20    0.88
  -5   4  -5    3.81    0.85
   5  -4   5    5.22    0.89
   5   4   5    2.21    0.72
   5  -4   5    4.62    0.45
  -5  -4  -5    4.75    0.49
   5  -4   5    4.26    0.91
  -5  -4  -7  131.14    2.75
  -5   4  -7  135.29    4.77
   5   4   7  134.46    4.78
   5  -4   7  131.50    4.79
  -5  -4  -7  125.89    3.26
  -5  -4  -7  124.05    4.52
  -5  -4  -9  153.11    3.39
   5  -4   9  137.35    3.41
  -5   4  -9  141.43    5.24
   5   4   9  134.49    4.96
   5  -4   9  142.57    5.30
  -5  -4  -9  143.04    3.96
  -5  -4  -9  138.68    4.89
  -5  -4 -11   10.12    0.94
  -5  -4 -11    7.23    1.17
  -5   4 -11    8.39    1.41
  -5  -4 -11    7.90    1.12
   5   4  11    9.05    1.41
  -5  -4 -11   10.86    1.19
   5  -4  11    7.68    1.38
   5  -4  11    8.98    0.59
  -5   4 -13   11.49    1.77
  -5  -4 -13   10.40    1.28
  -5  -4 -13   14.08    1.21
  -5  -4 -13   13.10    1.58
   5  -4  13   13.17    1.88
  -5   4 -15   66.47    4.20
  -5  -4 -15   66.81    3.29
   5  -4  15   64.74    4.14
  -5  -4 -15   56.61    3.27
   5  -5 -16    9.92    1.67
   5   5 -16    5.72    1.17
  -5  -5  16    6.62    1.40
  -5   5  16    7.97    1.55
  -5  -5  14    4.78    0.91
   5  -5 -14    4.95    1.26
   5   5 -14    5.33    1.06
  -5  -5  14    5.07    1.28
  -5   5  14    5.35    1.28
  -5  -5  12   18.09    1.72
   5  -5 -12   17.32    1.99
   5   5 -12   18.95    1.83
  -5   5  12   20.72    2.16
  -5  -5  10    5.89    1.00
   5  -5 -10    5.15    1.21
   5   5 -10    6.75    1.13
  -5   5  10    4.06    1.07
   5   5 -10    5.05    1.08
  -5  -5   8    0.04    0.54
   5  -5  -8   -0.07    0.53
   5   5  -8   -0.28    0.55
  -5   5   8   -0.49    0.52
   5  -5  -8    0.08    0.27
   5   5  -8    0.01    0.30
   5  -5  -6  237.31    6.79
   5  -5  -6  241.83    4.77
   5   5  -6  235.68    6.42
   5   5  -6  242.67    4.49
  -5   5   6  233.81    6.55
  -5  -5   6  233.93    6.42
  -5  -5   4    5.59    1.00
  -5   5   4    6.55    0.66
   5   5  -4    6.50    0.90
   5  -5  -4    5.23    1.05
   5   5  -4    6.76    1.10
   5   5  -4    6.18    0.44
  -5   5   4    5.64    1.04
   5  -5  -4    4.96    0.71
  -5  -5   2    7.21    1.15
  -5   5   2    8.82    0.87
   5   5  -2    8.74    0.92
   5  -5  -2    7.53    1.21
   5  -5  -2    9.94    1.16
   5   5  -2    8.40    1.21
   5  -5  -2    8.81    0.99
   5  -5   0  101.35    4.11
   5   5   0   90.98    2.70
  -5   5   0   89.69    3.20
   5  -5   0   90.28    3.21
   5  -5   0  101.61    3.60
   5  -5   0   87.30    3.22
   5   5   0   93.26    3.93
  -5  -5   0   98.00    4.07
  -5  -5  -2    1.37    0.69
   5   5   2    0.74    0.29
  -5   5  -2    1.76    0.54
   5  -5   2    0.81    0.52
  -5  -5  -2    1.24    0.60
   5  -5   2    0.53    0.32
   5   5   2    0.57    0.52
   5  -5   2    2.03    0.72
   5   5   4   24.85    1.16
  -5   5  -4   24.53    1.93
  -5  -5  -4   24.42    1.86
   5  -5   4   23.52    1.96
   5   5   4   22.34    2.02
   5  -5   4   25.54    1.36
  -5  -5  -4   26.47    2.19
  -5   5  -6   91.31    3.97
   5  -5   6   83.35    2.01
   5   5   6   77.94    3.88
   5  -5   6   79.06    3.81
  -5  -5  -6   83.40    3.94
  -5  -5  -8   48.41    1.83
  -5   5  -8   53.59    3.24
   5   5   8   47.85    3.08
   5  -5   8   49.34    3.16
  -5  -5  -8   45.81    2.99
  -5  -5  -8   50.68    2.11
  -5  -5 -10   32.08    1.61
  -5   5 -10   26.73    2.47
   5   5  10   26.24    2.41
   5  -5  10   26.62    2.48
  -5  -5 -10   26.53    2.33
   5  -5  10   29.97    1.61
  -5   5 -12   26.61    2.59
  -5  -5 -12   27.56    2.03
   5   5  12   27.89    2.59
  -5  -5 -12   26.65    2.42
   5  -5  12   24.27    2.49
  -5   5 -14   -0.29    0.82
  -5  -5 -14    0.23    0.72
   5  -5  14    0.72    0.84
  -5  -5 -16    2.73    0.92
   5  -6 -13   32.13    2.88
   5   6 -13   41.29    2.80
  -5  -6  13   38.31    3.21
  -5   6  13   34.74    2.93
   5  -6 -11   39.32    3.10
   5   6 -11   37.27    2.62
  -5  -6  11   41.69    2.72
  -5   6  11   36.27    2.86
   5  -6  -9   20.88    2.20
   5   6  -9   22.92    2.12
  -5   6   9   20.77    2.13
  -5  -6   9   20.20    1.97
   5  -6  -7   54.83    3.41
   5  -6  -7   51.85    2.17
   5   6  -7   50.13    3.04
  -5   6   7   48.74    3.08
  -5  -6   7   43.04    2.82
  -5  -6   5   14.95    1.73
   5   6  -5   11.39    1.29
   5  -6  -5   13.57    1.67
   5   6  -5   15.69    1.73
   5  -6  -5   14.05    1.27
  -5   6   5   12.36    1.56
   5   6  -3   46.83    2.42
   5  -6  -3   48.83    3.11
  -5   6   3   51.83    2.15
   5  -6  -3   52.57    2.60
   5   6  -3   46.92    2.96
  -5   6   3   50.32    3.01
  -5  -6   3   48.75    3.08
  -5  -6   1   -0.08    0.77
  -5   6   1    1.09    0.54
   5   6  -1    0.48    0.34
   5  -6  -1   -0.60    0.74
   5  -6  -1    0.51    0.47
   5  -6  -1   -0.53    0.63
   5   6  -1    0.06    0.57
   5  -6  -1    1.27    0.62
   5   6   1   66.21    2.49
  -5   6  -1   68.60    3.07
   5  -6   1   66.12    3.03
   5  -6   1   64.46    3.24
   5   6   1   65.67    3.60
   5  -6   1   64.75    2.89
  -5  -6  -1   67.39    3.70
  -5  -6  -3    2.45    0.81
   5   6   3    3.87    0.59
  -5   6  -3    4.88    0.96
   5   6   3    4.82    1.16
   5  -6   3    4.15    0.74
   5  -6   3    3.25    0.89
  -5  -6  -5    6.79    1.26
  -5   6  -5    7.18    1.19
   5   6   5    8.71    1.48
   5  -6   5    5.25    1.14
  -5  -6  -7   12.90    1.82
  -5   6  -7   13.77    1.76
   5   6   7   14.85    1.84
   5  -6   7   13.92    1.78
   5  -6   9    9.46    1.11
  -5  -6  -9    9.05    1.57
  -5   6  -9    9.44    1.55
   5   6   9   10.97    1.75
   5  -6   9    7.93    1.49
  -5   6 -11   76.43    4.48
   5  -6  11   78.83    4.58
   5   6  11   79.55    4.58
  -5  -6 -11   77.91    4.41
  -5  -6 -13    9.91    1.65
  -5  -6 -15    9.33    1.73
   5   7 -12   17.53    1.98
  -5   7  12   18.97    2.25
   5  -7 -10   63.70    4.05
   5   7 -10   59.99    3.55
  -5   7  10   60.04    3.80
  -5  -7  10   56.75    3.47
  -5  -7   8    1.56    0.90
   5  -7  -8    1.58    0.98
   5   7  -8    1.35    0.77
  -5   7   8    1.22    0.79
  -5  -7   6    4.58    1.17
   5  -7  -6    7.51    1.51
   5   7  -6    6.65    1.40
  -5   7   6    4.23    1.06
   5  -7  -6    4.54    0.84
  -5  -7   4   -0.05    0.69
   5  -7  -4    0.36    0.75
   5   7  -4    0.45    0.65
  -5   7   4   -0.11    0.60
   5  -7  -4    0.33    0.49
  -5  -7   2    9.34    1.59
   5  -7  -2    8.61    1.56
  -5   7   2   10.27    1.10
   5   7  -2    8.44    1.44
  -5   7   2   10.82    1.61
   5  -7  -2    8.01    1.19
  -5  -7   0   10.46    1.73
  -5   7   0   13.21    1.39
   5   7   0    9.70    1.66
   5  -7   0   10.23    1.43
  -5  -7  -2   14.11    1.98
  -5   7  -2   13.55    1.52
   5   7   2   12.76    1.86
   5  -7   2   13.57    1.71
  -5   7  -4  157.84    5.70
   5  -7   4  159.81    6.04
   5   7   4  162.02    6.42
  -5  -7  -4  157.24    6.45
  -5   7  -6   23.28    2.32
   5  -7   6   26.04    2.58
   5   7   6   28.43    2.71
  -5  -7  -6   29.52    2.83
  -5  -7  -8    3.00    1.08
  -5   7  -8    3.02    0.99
   5   7   8    1.92    0.88
   5  -7   8    1.86    0.76
  -5   7 -10    1.52    1.00
   5   8  -9   33.16    2.83
  -5   8   9   28.65    2.74
  -5  -8   9   30.34    2.79
  -5  -8   7    0.85    0.77
   5   8  -7    2.78    1.02
  -5   8   7    1.46    0.95
  -5  -8   5    7.49    1.42
   5  -8  -5    6.86    1.49
   5   8  -5    7.70    1.51
  -5   8   5    7.03    1.39
  -5  -8   3    1.90    0.98
   5  -8  -3    0.89    0.82
   5   8  -3    1.44    0.80
  -5   8   3    1.75    0.91
   5  -8  -3    2.14    0.79
  -5  -8   1    8.17    1.64
   5   8  -1    7.12    1.41
  -5   8   1    7.21    1.41
   5  -8  -1    5.07    1.14
  -5  -8  -1   17.75    2.29
   5   8   1   15.44    2.06
   5  -8   1   18.61    2.09
  -5   8  -3   31.75    2.59
   5  -8   3   34.29    2.91
  -5   8  -5    4.19    1.16
   5  -8   5    5.28    1.32
   5  -8   5    5.10    1.38
  -5   8  -7    1.59    0.93
   5  -9   0   -0.14    0.88
  -6   0  18    2.38    0.66
   6   0 -18    1.10    0.80
  -6   0  18    4.47    1.19
   6   0 -16   63.16    3.71
   6   0 -16   60.22    3.00
  -6   0  16   63.47    2.75
  -6   0  16   63.76    2.39
  -6   0  16   62.39    3.62
   6   0 -14   29.15    2.36
   6   0 -14   27.00    1.94
  -6   0  14   25.55    1.80
  -6   0  14   30.23    1.70
  -6   0  14   27.60    1.44
  -6   0  14   25.31    2.13
   6   0 -12   41.16    2.29
   6   0 -12   41.99    2.61
  -6   0  12   45.38    2.25
  -6   0  12   43.93    1.79
  -6   0  12   44.70    1.71
  -6   0  12   45.30    2.60
   6   0 -10  133.08    4.38
   6   0 -10  129.92    4.10
  -6   0  10  127.08    3.74
  -6   0  10  136.35    2.87
  -6   0  10  129.44    2.93
  -6   0  10  125.80    4.14
   6   0 -10  136.59    4.32
  -6   0   8  241.53    5.21
   6   0  -8  241.46    5.71
   6   0  -8  243.45    5.69
  -6   0   8  240.50    5.55
   6   0  -8  242.30    5.63
   6   0  -6 1118.38   15.76
   6   0  -6 1108.56   15.36
  -6   0   6 1142.62   15.90
  -6   0   6 1083.54   15.14
   6   0  -6 1111.95   15.33
  -6   0   4   34.79    1.65
   6   0  -4   39.34    1.98
  -6   0   4   33.99    1.87
   6   0  -4   38.06    1.74
  -6   0   4   36.84    1.45
  -6   0   4   36.21    1.68
   6   0  -2  608.37    8.77
  -6   0   2  604.27    8.70
  -6   0   2  620.83    9.77
   6   0  -2  596.13    9.68
  -6   0   2  596.30    8.80
  -6   0   2  626.53    9.03
   6   0   0    8.98    0.93
  -6   0   0    8.62    0.92
   6   0   0    8.95    0.71
  -6   0   0    7.24    0.63
   6   0   0    8.79    0.63
  -6   0   0    8.70    0.84
  -6   0  -2  384.56    5.86
   6   0   2  389.31    5.90
  -6   0  -2  397.91    6.95
   6   0   2  389.67    6.28
   6   0   2  382.19    6.49
  -6   0  -2  386.47    7.02
   6   0   2  394.71    7.13
   6   0   2  383.75    6.86
  -6   0  -4   90.24    2.81
  -6   0  -4   94.44    2.44
   6   0   4   93.36    2.89
  -6   0  -4  102.95    3.37
   6   0   4   94.29    3.24
   6   0   4   92.08    2.59
   6   0   4   92.24    2.85
  -6   0  -6  196.00    4.10
  -6   0  -6  192.96    4.28
   6   0   6  201.87    4.95
  -6   0  -6  201.44    5.28
   6   0   6  202.97    4.13
  -6   0  -6  212.44    5.42
   6   0   6  191.29    5.17
   6   0   6  191.32    4.30
  -6   0  -8    2.55    0.50
   6   0   8    5.67    0.67
   6   0   8    1.90    0.67
  -6   0  -8    4.74    0.91
   6   0   8    2.26    0.47
   6   0   8    1.80    0.71
  -6   0  -8    2.87    0.71
  -6   0 -10  190.67    4.10
   6   0  10  181.71    5.53
  -6   0 -10  200.35    5.78
  -6   0 -10  186.05    4.12
   6   0  10  183.31    4.13
   6   0  10  193.64    5.84
   6   0  10  192.21    4.10
  -6   0 -10  195.59    5.49
  -6   0 -12   52.24    1.85
  -6   0 -12   49.10    2.02
   6   0  12   50.22    3.07
   6   0  12   48.49    2.96
  -6   0 -12   49.85    2.96
  -6   0 -14  141.56    2.85
   6   0  14  137.07    5.46
  -6   0 -14  132.95    5.21
   6   0  14  133.57    5.36
   6   0  16   18.41    2.13
   6   0  16   18.11    2.12
  -6   0 -16   18.27    2.05
   6   0  18   56.07    3.85
  -6   0 -18   57.11    3.76
  -6   0 -20   12.13    1.83
   6  -1 -19    1.67    0.86
   6   1 -19    4.00    1.26
  -6   1  19    2.04    1.00
   6  -1 -17   27.74    2.64
   6   1 -17   30.55    2.72
  -6  -1  17   28.55    1.96
  -6  -1  17   27.66    1.87
  -6  -1  17   23.78    2.29
  -6   1  17   28.59    2.60
   6   1 -15    9.64    1.17
   6  -1 -15   12.79    1.73
   6   1 -15    8.82    1.35
  -6   1  15   11.14    1.10
  -6  -1  15   11.02    1.10
  -6   1  15    9.53    0.59
  -6  -1  15    8.76    1.30
  -6  -1  15    8.74    1.05
  -6   1  15   10.34    1.54
   6   1 -13  231.71    6.64
   6  -1 -13  223.10    6.02
   6  -1 -13  227.79    6.67
  -6   1  13  217.24    4.95
  -6  -1  13  236.15    6.13
  -6  -1  13  226.00    5.24
  -6   1  13  231.24    3.28
  -6   1  13  214.27    6.40
   6   1 -13  214.78    5.59
  -6  -1  13  228.16    6.33
   6  -1 -11  391.10    8.16
   6   1 -11  384.45    8.36
   6  -1 -11  406.99    8.70
  -6   1  11  376.90    6.74
  -6  -1  11  394.89    8.01
  -6  -1  11  390.89    7.06
  -6   1  11  391.09    8.47
   6   1 -11  390.56    8.11
   6   1 -11  368.87    7.64
  -6  -1  11  376.21    7.95
  -6  -1   9   53.78    2.51
  -6   1   9   54.89    2.03
  -6  -1   9   52.01    2.47
   6   1  -9   51.03    2.52
   6  -1  -9   56.11    2.67
   6  -1  -9   51.79    2.65
  -6  -1   9   54.19    2.44
  -6   1   9   52.72    2.63
   6   1  -9   50.58    2.38
   6  -1  -9   54.60    2.67
   6   1  -9   54.00    2.49
  -6   1   7  109.70    3.63
   6   1  -7  107.39    3.39
   6  -1  -7  100.70    3.52
  -6  -1   7  106.13    3.49
   6  -1  -7  102.08    3.52
  -6  -1   7  103.56    3.43
  -6   1   7  104.63    2.85
  -6   1   7  102.29    1.62
  -6  -1   7  101.40    3.10
  -6   1   7  105.29    3.52
   6   1  -7  106.32    3.18
   6  -1  -7  106.23    3.59
   6   1  -7  105.31    3.45
   6   1  -5  165.63    3.91
  -6   1   5  164.14    4.26
  -6  -1   5  165.14    4.38
   6  -1  -5  158.43    4.39
   6  -1  -5  159.17    4.22
  -6   1   5  161.55    2.76
  -6  -1   5  163.26    3.68
  -6   1   5  170.30    4.35
   6   1  -5  158.00    3.70
   6   1  -5  166.36    4.38
  -6  -1   3    1.75    0.25
   6  -1  -3    2.04    0.52
   6   1  -3    1.35    0.51
  -6  -1   3    2.12    0.65
   6   1  -3    1.76    0.40
   6  -1  -3    1.78    0.52
  -6   1   3    1.29    0.40
  -6  -1   3    1.34    0.36
  -6   1   3    2.14    0.38
  -6   1   3    1.95    0.54
   6   1  -1  685.04    8.88
  -6  -1   1  692.67   10.74
   6  -1  -1  692.32   10.12
   6  -1  -1  690.87   10.67
  -6   1   1  686.14   10.06
  -6  -1   1  667.03    8.92
  -6   1   1  680.07    9.67
  -6  -1   1  682.68   10.39
   6  -1  -1  697.54    9.69
  -6  -1   1  709.75    9.23
   6   1  -1  697.81   10.72
  -6   1  -1  101.78    2.83
  -6  -1  -1   93.48    1.81
  -6  -1  -1  101.52    3.16
   6  -1   1   94.37    2.96
   6  -1   1   96.66    2.77
   6   1   1   98.54    1.85
   6  -1   1   94.06    2.88
   6   1   1   96.49    3.01
  -6   1  -1   95.51    2.88
  -6  -1  -1   96.26    3.10
   6   1   1   97.01    3.10
  -6  -1  -3    2.11    0.55
   6  -1   3    2.47    0.50
  -6   1  -3    2.39    0.50
  -6  -1  -3    2.61    0.27
   6   1   3    1.91    0.47
   6   1   3    2.59    0.55
  -6   1  -3    3.17    0.54
  -6   1  -3    2.22    0.55
   6   1   3    1.60    0.45
  -6  -1  -3    1.69    0.52
   6  -1   3    1.86    0.57
  -6   1  -3    2.34    0.56
  -6  -1  -5   65.07    1.66
  -6   1  -5   70.95    2.35
  -6   1  -5   64.55    2.38
   6   1   5   71.09    2.69
  -6   1  -5   65.86    2.84
  -6  -1  -5   65.03    2.46
   6  -1   5   68.84    2.86
  -6  -1  -5   66.47    2.87
  -6   1  -5   69.02    2.85
   6   1   5   67.58    2.90
   6   1   5   69.10    2.50
   6  -1   5   68.09    1.89
  -6  -1  -5   68.08    2.54
   6   1   5   65.31    2.51
   6  -1   5   65.11    2.25
  -6   1  -7  291.12    6.02
   6   1   7  293.82    6.56
  -6  -1  -7  288.39    6.66
  -6   1  -7  286.02    6.81
  -6  -1  -7  288.35    5.90
   6  -1   7  287.98    6.79
  -6  -1  -7  317.66    7.07
   6  -1   7  295.20    4.61
   6   1   7  285.93    5.87
   6   1   7  286.14    6.81
  -6   1  -7  301.77    6.90
  -6  -1  -7  279.88    5.83
   6  -1   7  281.39    5.23
  -6  -1  -7  291.87    6.01
   6   1   7  285.56    5.89
  -6  -1  -9    2.99    0.59
   6  -1   9    2.50    0.42
   6   1   9    1.89    0.46
   6   1   9    1.47    0.59
  -6  -1  -9    2.06    0.69
  -6   1  -9    2.06    0.69
   6  -1   9    2.12    0.33
   6   1   9    1.89    0.52
   6  -1   9    2.93    0.81
   6   1   9    1.23    0.56
  -6  -1  -9    2.09    0.53
  -6  -1  -9    2.74    0.65
  -6   1 -11   17.09    1.76
   6   1  11   15.84    1.63
  -6  -1 -11   17.13    1.68
  -6  -1 -11   14.07    1.25
   6   1  11   14.85    1.65
   6   1  11   14.96    1.30
   6  -1  11   14.76    1.68
   6  -1  11   16.02    0.84
  -6  -1 -11   15.51    1.23
  -6  -1 -13   72.18    2.60
   6  -1  13   71.75    3.83
   6   1  13   71.23    3.78
  -6  -1 -13   70.69    2.90
  -6   1 -13   71.14    3.75
   6   1  13   75.93    3.89
  -6  -1 -13   73.34    3.63
  -6  -1 -15   17.73    1.63
   6  -1  15   19.66    2.16
   6   1  15   19.50    2.12
  -6  -1 -15   19.59    1.97
  -6   1 -15   19.66    2.15
   6  -1  15   19.30    2.14
   6   1  15   19.87    2.13
  -6  -1 -17   17.97    1.79
  -6  -1 -17   17.66    2.01
  -6   1 -17   20.80    2.29
   6   1  17   18.01    2.18
   6  -1  17   21.80    2.36
   6   1  17   17.72    2.11
   6  -1  17   20.56    2.38
  -6  -1 -19   41.21    3.15
   6   2 -18    2.85    1.10
   6  -2 -18    1.94    0.91
  -6  -2  18    1.55    0.73
  -6   2  18   -0.01    0.62
   6   2 -16   57.36    3.60
   6  -2 -16   54.23    3.54
  -6  -2  16   52.19    2.85
  -6   2  16   54.61    3.54
   6   2 -14   22.87    2.11
   6  -2 -14   25.05    2.28
  -6   2  14   25.51    1.26
  -6  -2  14   26.79    1.94
   6   2 -14   26.09    1.81
  -6   2  14   26.20    2.28
  -6  -2  14   25.37    2.07
  -6   2  12    0.47    0.23
   6   2 -12   -0.06    0.36
  -6  -2  12   -0.37    0.42
   6   2 -12   -0.21    0.66
   6  -2 -12   -0.27    0.49
   6   2 -12   -0.14    0.46
  -6  -2  12    0.38    0.47
  -6  -2  12   -0.66    0.51
  -6   2  12    0.18    0.45
  -6   2  10    9.26    0.69
  -6  -2  10   10.16    1.22
   6   2 -10    9.54    1.09
   6  -2 -10    9.39    1.25
  -6  -2  10   10.15    1.14
   6   2 -10    9.78    1.19
   6  -2 -10    9.63    1.22
   6   2 -10   10.92    1.12
  -6  -2  10   12.77    1.22
  -6   2  10    8.28    1.15
   6  -2  -8  171.42    3.54
  -6  -2   8  192.16    5.24
  -6   2   8  177.55    3.46
   6  -2  -8  178.10    5.18
   6   2  -8  171.21    4.67
  -6   2   8  178.68    5.17
  -6  -2   8  175.04    4.77
   6  -2  -8  178.09    5.16
   6   2  -8  178.86    4.82
  -6   2   8  176.33    5.08
   6   2  -8  173.57    4.28
  -6  -2   8  172.01    4.25
  -6  -2   6  254.63    6.02
   6  -2  -6  254.47    6.02
  -6   2   6  258.12    6.01
   6   2  -6  248.67    5.29
  -6  -2   6  244.34    5.74
   6  -2  -6  254.18    6.19
   6   2  -6  252.49    5.83
  -6   2   6  240.36    5.86
   6   2  -6  247.84    4.81
  -6  -2   6  250.24    4.80
   6  -2  -4   68.68    2.78
   6   2  -4   68.61    2.21
  -6  -2   4   72.68    2.86
  -6   2   4   72.09    2.83
   6  -2  -4   73.70    2.99
  -6  -2   4   72.23    2.89
   6  -2  -4   72.05    1.72
  -6   2   4   67.49    1.67
  -6  -2   4   73.78    1.97
  -6   2   4   75.71    2.93
   6   2  -4   66.91    1.93
   6   2  -4   68.94    2.79
   6   2  -2    0.09    0.35
  -6  -2   2    0.11    0.43
   6   2  -2    0.13    0.22
   6  -2  -2    0.28    0.39
  -6   2   2    0.19    0.40
   6  -2  -2    0.11    0.37
  -6   2   2   -0.15    0.34
   6  -2  -2    0.01    0.25
   6   2  -2    0.32    0.43
  -6   2   2    0.13    0.25
  -6  -2   2    0.19    0.18
  -6   2   0  225.08    5.10
   6  -2   0  225.22    5.09
   6  -2   0  220.11    5.13
   6   2   0  226.54    3.04
  -6   2   0  221.18    4.87
  -6  -2   0  211.37    4.42
   6   2   0  211.48    5.12
  -6   2   0  217.25    4.58
   6  -2   0  228.37    4.64
  -6  -2   0  225.67    3.31
   6   2   0  222.50    5.33
  -6  -2   0  222.89    5.31
  -6  -2  -2    6.81    0.92
   6  -2   2    6.41    0.79
   6   2   2    6.55    0.87
  -6  -2  -2    6.83    0.80
  -6   2  -2    6.61    0.85
   6  -2   2    6.95    0.88
  -6   2  -2    5.81    0.86
  -6  -2  -2    6.19    0.89
   6   2   2    4.99    0.80
   6  -2   2    6.15    0.85
  -6   2  -2    7.38    0.85
   6  -2   4   88.90    2.82
  -6   2  -4   93.47    3.19
  -6  -2  -4   85.70    3.02
  -6   2  -4   91.75    3.34
  -6  -2  -4   85.31    3.13
  -6   2  -4   89.77    3.27
   6  -2   4   93.50    3.32
   6   2   4   89.17    3.18
  -6  -2  -4   88.86    3.40
   6   2   4   87.40    3.20
  -6  -2  -4   87.62    3.17
  -6  -2  -4   89.24    2.34
  -6  -2  -6   14.85    0.57
   6  -2   6   14.80    1.05
  -6  -2  -6   14.91    0.58
  -6   2  -6   16.57    1.37
  -6   2  -6   16.64    1.52
  -6  -2  -6   14.92    1.43
  -6  -2  -6   15.07    1.34
  -6   2  -6   15.38    1.47
   6  -2   6   17.14    1.53
   6   2   6   16.88    1.39
   6  -2   6   14.85    0.59
  -6  -2  -6   15.93    1.35
   6   2   6   14.57    1.30
  -6  -2  -6   15.34    1.09
  -6   2  -8  173.87    4.96
  -6  -2  -8  174.88    3.34
  -6   2  -8  173.87    5.36
  -6  -2  -8  169.13    4.72
   6  -2   8  177.72    5.40
   6   2   8  171.87    4.81
  -6  -2  -8  176.95    4.74
   6   2   8  164.42    4.64
   6  -2   8  167.34    3.62
  -6  -2  -8  172.37    4.41
  -6  -2 -10   14.52    1.04
  -6   2 -10   15.69    1.66
   6   2  10   14.30    1.58
  -6  -2 -10   15.95    1.55
   6   2  10   14.14    1.41
  -6  -2 -10   15.29    1.39
   6  -2  10   14.17    1.59
  -6  -2 -10   16.89    1.44
   6  -2  10   14.38    0.81
  -6  -2 -10   15.18    1.39
  -6  -2 -12    5.86    0.87
  -6  -2 -12    7.45    0.87
  -6   2 -12    7.66    1.31
   6   2  12    7.77    1.28
  -6  -2 -12    8.09    1.21
   6   2  12    8.64    1.19
  -6  -2 -12    5.57    0.93
   6  -2  12    8.61    1.42
  -6  -2 -14   93.40    3.42
  -6   2 -14   94.82    4.62
   6   2  14   83.77    4.36
  -6  -2 -14   86.78    4.03
   6  -2  14   92.12    4.61
  -6  -2 -14   89.04    3.34
  -6  -2 -16   -0.08    0.40
  -6  -2 -16   -0.16    0.66
   6   2  16   -0.73    0.80
  -6   2 -16    0.73    0.79
   6  -2  16   -0.77    1.02
  -6  -2 -18    2.68    0.94
  -6  -3  19    4.96    1.22
   6  -3 -17    5.29    1.30
   6   3 -17    3.45    1.05
  -6  -3  17    3.83    0.96
  -6   3  17    3.48    1.13
   6  -3 -15    7.86    1.44
  -6  -3  15    8.07    1.26
  -6   3  15    7.96    1.44
  -6  -3  13   36.37    2.22
   6  -3 -13   36.75    2.77
  -6  -3  13   42.32    2.60
  -6   3  13   35.85    2.68
   6   3 -13   37.89    2.26
   6  -3 -11   47.77    2.18
  -6  -3  11   44.36    2.44
   6  -3 -11   47.34    2.95
  -6   3  11   46.96    2.90
   6   3 -11   48.22    2.46
   6   3 -11   42.49    2.39
   6  -3  -9    7.71    0.83
   6  -3  -9    9.89    1.34
  -6  -3   9    7.51    1.02
   6   3  -9    7.73    1.00
   6   3  -9    8.64    0.95
  -6   3   9    8.78    1.22
  -6  -3   7    0.79    0.57
   6   3  -7    1.88    0.57
   6  -3  -7    0.83    0.54
  -6  -3   7    0.66    0.46
  -6   3   7    1.86    0.29
   6   3  -7    1.15    0.55
   6   3  -7    2.03    0.45
  -6   3   7    1.93    0.65
  -6  -3   5    2.71    0.68
  -6   3   5    2.55    0.67
   6   3  -5    3.07    0.71
   6  -3  -5    2.25    0.75
  -6  -3   5    3.79    0.78
  -6   3   5    2.34    0.39
   6  -3  -5    3.22    0.34
   6   3  -5    4.29    0.88
   6   3  -5    3.74    0.45
  -6   3   5    3.22    0.78
   6  -3  -3  122.16    4.05
  -6   3   3  128.66    4.14
  -6  -3   3  128.37    4.21
  -6   3   3  122.89    3.12
   6   3  -3  125.57    4.07
   6  -3  -3  123.23    2.89
   6   3  -3  131.26    4.20
  -6  -3   3  122.09    4.02
  -6   3   3  121.08    4.05
  -6   3   1  244.73    5.87
   6  -3  -1  226.99    5.68
  -6   3   1  233.34    5.00
   6  -3  -1  238.46    4.86
   6   3  -1  227.54    5.73
   6   3  -1  254.45    6.06
  -6  -3   1  240.23    5.91
  -6  -3  -1    4.64    0.86
   6   3   1    3.24    0.76
  -6   3  -1    3.73    0.74
   6  -3   1    4.13    0.80
  -6   3  -1    3.88    0.69
   6   3   1    4.25    0.80
  -6  -3  -1    6.68    0.97
   6  -3   1    3.44    0.64
  -6   3  -1    5.22    0.78
  -6   3  -3  117.06    3.93
   6  -3   3  114.12    3.55
  -6  -3  -3  114.36    3.69
  -6   3  -3  107.77    3.67
  -6  -3  -3  116.68    3.95
   6  -3   3  113.66    3.74
  -6  -3  -3  115.70    4.07
  -6   3  -3  113.17    3.71
   6   3   3  113.13    3.91
  -6  -3  -3  111.15    3.89
  -6  -3  -3  109.06    1.99
   6   3   3  117.52    4.03
   6  -3   5   44.01    2.04
  -6   3  -5   45.98    2.47
  -6   3  -5   43.33    2.43
  -6  -3  -5   49.62    2.53
  -6  -3  -5   47.15    2.54
   6  -3   5   43.80    2.44
   6  -3   5   47.09    1.24
  -6   3  -5   46.29    2.52
   6   3   5   43.09    2.42
  -6  -3  -5   47.95    2.66
  -6  -3  -5   48.30    1.62
   6   3   5   45.71    2.50
  -6  -3  -5   45.08    2.44
  -6  -3  -7  171.87    2.52
   6  -3   7  170.52    4.01
  -6   3  -7  176.14    5.42
  -6  -3  -7  176.79    5.21
   6  -3   7  174.80    5.42
   6   3   7  175.34    5.21
  -6  -3  -7  165.27    3.91
  -6  -3  -7  165.86    4.97
  -6  -3  -9    5.77    1.00
   6  -3   9    5.87    0.63
  -6  -3  -9    5.63    0.55
  -6   3  -9    6.77    1.21
   6   3   9    4.32    0.95
   6  -3   9    5.92    1.23
  -6  -3  -9    4.66    0.73
  -6  -3 -11    4.14    0.86
  -6  -3 -11    4.72    0.64
   6  -3  11    4.79    0.39
  -6   3 -11    5.95    1.19
  -6  -3 -11    3.31    0.88
   6   3  11    3.77    0.87
   6  -3  11    5.12    1.19
  -6  -3 -11    5.61    0.93
  -6  -3 -13    2.60    0.77
  -6  -3 -13    2.13    0.54
  -6   3 -13    1.50    0.89
  -6  -3 -13    1.85    0.73
   6   3  13    1.93    0.85
   6  -3  13    0.71    0.79
  -6   3 -15    1.92    1.09
  -6  -3 -15    0.28    0.61
  -6  -3 -15    1.01    0.54
   6  -3  15   -0.09    0.68
  -6  -3 -17   -0.41    0.75
   6   4 -18   13.11    1.76
  -6  -4  18   12.45    1.82
   6  -4 -16    1.56    0.83
   6   4 -16    0.37    0.64
  -6  -4  16    1.61    0.79
  -6   4  16    4.35    1.16
   6  -4 -14   47.52    3.39
  -6  -4  14   48.50    2.65
   6   4 -14   35.79    2.60
  -6  -4  14   40.76    2.91
  -6   4  14   41.18    3.09
  -6  -4  12    2.25    0.73
   6  -4 -12    0.30    0.66
   6   4 -12    1.31    0.69
   6  -4 -12    0.79    0.53
   6   4 -12    1.18    0.70
  -6   4  12    1.96    0.82
   6   4 -12    1.49    0.59
   6  -4 -10  178.71    6.01
  -6  -4  10  180.23    5.34
   6  -4 -10  170.81    4.74
   6   4 -10  175.69    5.53
   6   4 -10  178.20    4.67
  -6   4  10  169.74    5.79
   6   4 -10  179.32    5.36
   6  -4  -8   84.22    3.87
  -6  -4   8   92.80    3.70
   6   4  -8   85.17    3.67
   6   4  -8   85.80    2.74
  -6   4   8   85.05    3.83
   6   4  -8   88.38    3.64
   6  -4  -6   41.43    2.57
  -6   4   6   42.70    1.27
   6   4  -6   41.98    2.48
   6  -4  -6   43.35    1.35
   6   4  -6   42.24    1.54
  -6   4   6   41.49    2.55
  -6  -4   6   40.89    2.46
   6   4  -6   42.24    2.52
   6  -4  -4   82.92    3.60
  -6   4   4   79.33    2.32
   6  -4  -4   77.74    2.35
   6   4  -4   80.93    3.47
  -6   4   4   78.62    3.45
  -6  -4   4   80.23    3.44
   6   4  -4   74.12    3.40
   6  -4  -2   28.72    2.05
   6   4  -2   31.28    1.45
  -6   4   2   31.32    1.63
  -6  -4   2   32.83    2.20
   6  -4  -2   28.83    1.84
   6  -4  -2   32.17    1.66
   6   4  -2   28.51    2.06
  -6  -4   2   31.80    2.18
   6   4  -2   34.66    2.25
  -6  -4   0    2.36    0.69
  -6   4   0    1.28    0.46
   6   4   0    1.66    0.27
   6  -4   0    1.86    0.71
   6  -4   0    2.15    0.53
   6   4   0    2.07    0.71
   6  -4   0    2.24    0.60
  -6  -4  -2   12.40    1.44
  -6   4  -2   11.40    1.19
   6  -4   2   11.99    1.37
   6   4   2   11.20    1.39
   6  -4   2   12.60    1.00
   6  -4   2   10.58    1.19
  -6  -4  -4    5.51    1.01
  -6   4  -4    5.05    0.91
   6  -4   4    4.03    0.81
   6  -4   4    5.47    0.57
   6   4   4    5.28    1.00
   6  -4   4    4.33    0.86
   6  -4   6    5.26    0.82
  -6  -4  -6    5.57    1.09
  -6   4  -6    7.95    1.14
   6   4   6    6.33    1.11
  -6  -4  -6    5.77    0.59
   6  -4   6    6.04    1.11
   6  -4   8   16.23    1.23
  -6  -4  -8   19.05    0.77
  -6   4  -8   18.99    1.89
   6   4   8   15.35    1.68
  -6  -4  -8   19.05    1.26
   6  -4   8   17.66    1.83
  -6  -4  -8   19.80    1.86
  -6  -4 -10   12.85    0.84
  -6  -4 -10   11.70    1.52
  -6   4 -10   14.33    1.82
   6   4  10   14.44    1.74
  -6  -4 -10   11.22    1.14
   6  -4  10   12.83    1.73
  -6  -4 -12   -0.36    0.59
  -6   4 -12    0.50    0.84
  -6  -4 -12    0.07    0.44
   6   4  12    0.59    0.67
   6  -4  12   -0.06    0.72
  -6   4 -14   27.83    2.70
  -6  -4 -14   28.31    2.23
   6  -4  14   24.58    2.64
  -6  -4 -14   23.35    2.12
  -6  -5  17   94.96    4.99
   6  -5 -15    2.68    1.04
   6   5 -15    2.09    0.87
  -6  -5  15    1.90    1.04
  -6   5  15    1.89    0.77
   6  -5 -13  479.61   11.66
  -6  -5  13  468.85    9.83
   6   5 -13  458.21   10.32
  -6  -5  13  440.99   11.02
  -6   5  13  451.31   11.24
  -6  -5  11   12.20    1.48
   6  -5 -11   10.11    1.63
   6   5 -11   10.00    1.43
  -6   5  11   11.05    1.61
  -6  -5   9    3.31    0.85
   6  -5  -9    3.46    1.02
   6   5  -9    4.75    1.00
  -6   5   9    4.04    1.04
   6   5  -9    4.57    0.73
  -6  -5   7    1.98    0.80
   6  -5  -7    1.69    0.67
   6   5  -7    2.98    0.96
   6   5  -7    3.08    0.50
  -6   5   7    4.62    1.01
   6  -5  -7    3.17    0.45
   6  -5  -5  181.99    6.01
  -6   5   5  179.99    3.56
   6  -5  -5  180.57    4.12
   6   5  -5  171.34    5.62
   6   5  -5  191.10    2.91
  -6   5   5  178.71    5.79
  -6  -5   5  171.29    5.62
   6  -5  -3  109.22    4.45
   6   5  -3   97.74    3.16
  -6   5   3  103.68    3.05
   6  -5  -3   99.64    3.85
   6   5  -3  100.07    4.17
   6  -5  -3  107.88    3.36
  -6  -5   3   98.07    4.19
  -6   5   3   96.36    4.11
  -6  -5   1   -0.54    0.69
  -6   5   1    0.36    0.47
   6   5  -1    0.61    0.26
   6  -5  -1    1.38    0.60
   6  -5  -1   -0.20    0.39
   6   5  -1    1.30    0.69
   6  -5  -1    0.83    0.53
   6   5   1    0.46    0.26
  -6  -5  -1    0.67    0.67
  -6   5  -1    0.45    0.38
   6  -5   1    1.29    0.52
   6  -5   1    0.07    0.54
   6  -5   1    0.41    0.44
   6   5   1    1.39    0.70
   6  -5   1    0.85    0.58
   6   5   3    0.17    0.15
  -6  -5  -3    0.33    0.63
  -6   5  -3   -0.14    0.46
   6  -5   3   -0.11    0.30
   6   5   3    0.96    0.75
   6  -5   3    0.31    0.50
  -6   5  -5  195.23    5.99
   6   5   5  194.55    6.34
   6  -5   5  193.24    6.07
   6  -5   5  195.97    3.81
  -6  -5  -5  189.53    6.25
  -6   5  -7   34.75    2.61
   6   5   7   35.72    2.72
   6  -5   7   35.81    2.69
  -6  -5  -7   34.77    2.61
  -6  -5  -9    2.77    0.92
  -6   5  -9    4.06    1.21
   6   5   9    1.62    0.91
   6  -5   9    2.60    0.96
  -6  -5 -11   -0.43    0.79
  -6   5 -11    0.43    0.71
   6   5  11   -0.54    0.73
   6  -5  11    0.20    0.74
  -6   5 -13  158.34    6.65
  -6  -5 -13  152.51    5.29
   6  -5  13  161.69    6.74
   6   5  13  165.31    6.52
  -6  -5 -13  150.96    5.94
  -6  -5 -15   43.67    3.18
   6   6 -14   -1.46    0.91
   6  -6 -12  112.21    5.41
  -6  -6  12  111.27    4.66
   6   6 -12  106.91    4.75
  -6   6  12  103.90    5.10
   6  -6 -10  136.85    5.84
   6   6 -10  133.50    5.29
  -6   6  10  134.08    5.65
  -6  -6  10  135.25    5.24
  -6  -6   8    6.31    1.23
   6  -6  -8    8.57    1.52
   6   6  -8    7.09    1.23
  -6   6   8    6.73    1.28
  -6  -6   6    0.28    0.72
   6  -6  -6    0.83    0.64
   6   6  -6    1.30    0.80
  -6   6   6    0.97    0.79
   6  -6  -6   -0.06    0.42
  -6  -6   4   -0.63    0.58
   6  -6  -4   -0.45    0.85
   6   6  -4   -0.06    0.35
  -6   6   4    0.42    0.29
   6   6  -4   -0.09    0.59
  -6   6   4   -0.08    0.59
   6  -6  -4    1.51    0.55
  -6  -6   2    4.68    1.12
  -6   6   2    6.43    0.86
   6   6  -2    4.62    0.75
   6  -6  -2    5.80    1.20
   6   6  -2    4.61    1.04
  -6   6   2    5.58    1.15
   6  -6  -2    3.94    0.77
   6   6   0   32.63    1.66
   6  -6   0   36.41    2.77
  -6   6   0   35.56    2.15
   6  -6   0   30.75    2.03
   6  -6   0   28.80    2.14
   6  -6   0   34.11    2.17
   6   6   0   27.34    2.38
  -6  -6   0   37.16    2.80
  -6  -6  -2   -0.42    0.68
  -6   6  -2    0.05    0.39
   6   6   2   -0.49    0.63
   6  -6   2    0.01    0.38
   6  -6   2    0.41    0.57
  -6  -6  -4   12.25    1.74
  -6   6  -4   11.60    1.49
   6   6   4   11.44    1.67
   6  -6   4   11.98    1.61
  -6  -6  -6    9.50    1.58
  -6   6  -6   11.80    1.74
   6   6   6   12.43    1.76
   6  -6   6   12.36    1.67
  -6  -6  -8    6.59    1.36
  -6   6  -8    5.64    1.36
   6   6   8    5.50    1.37
   6  -6   8    4.70    1.31
  -6   6 -10  109.14    5.32
   6   6  10  106.86    5.33
   6  -6  10  113.46    5.49
  -6  -6 -10  113.67    5.39
  -6  -6 -12   11.18    1.72
  -6  -6 -14   11.15    1.88
   6   7 -11   41.39    3.10
  -6   7  11   44.55    3.43
  -6  -7  11   39.08    2.98
  -6  -7   9    5.18    1.14
   6  -7  -9    6.05    1.36
   6   7  -9    6.21    1.29
  -6   7   9    4.43    1.09
  -6  -7   7   13.27    1.81
   6  -7  -7   10.68    1.72
   6   7  -7    9.91    1.58
  -6   7   7   10.89    1.65
   6  -7  -5  129.13    5.75
   6   7  -5  119.04    5.45
  -6  -7   5  130.75    5.60
  -6   7   5  120.57    5.31
  -6  -7   3   19.00    2.20
   6  -7  -3   16.84    2.13
   6  -7  -3   17.48    1.68
   6   7  -3   17.24    2.04
  -6   7   3   15.15    1.86
  -6  -7   1   12.37    1.87
  -6   7   1   14.73    1.41
   6  -7  -1   16.83    2.09
   6   7  -1   12.99    1.91
  -6   7   1   12.26    1.67
   6  -7  -1   13.92    1.61
  -6  -7  -1   16.54    2.15
  -6   7  -1   14.73    1.56
   6   7   1   17.48    2.14
   6  -7   1   12.21    1.57
  -6   7  -3   20.90    2.00
   6   7   3   25.45    2.55
  -6  -7  -3   26.20    2.65
   6  -7   3   21.90    2.22
  -6   7  -5   93.18    4.52
   6   7   5  101.96    5.21
   6  -7   5   98.52    4.87
  -6  -7  -5  106.53    5.36
  -6  -7  -7   15.05    2.06
  -6   7  -7   19.64    2.22
   6   7   7   18.99    2.30
   6  -7   7   17.69    2.18
  -6   7  -9    0.68    0.79
  -6  -8   8   21.51    2.39
   6   8  -8   20.90    2.32
  -6  -8   6    0.45    0.72
   6   8  -6    0.28    0.61
  -6   8   6    0.82    0.66
  -6  -8   4   16.66    2.17
   6   8  -4   17.56    2.16
  -6   8   4   18.72    2.27
   6  -8  -2   54.55    3.26
   6   8  -2   59.34    3.96
  -6   8   2   53.39    3.65
   6   8   0    3.16    1.18
  -6   8   0    0.45    0.67
   6  -8   0    1.01    0.86
   6  -8   2   65.90    3.96
  -6   8  -4    5.86    1.31
   6  -8   4    7.91    1.54
  -6   8  -6    1.86    1.11
  -7   0  19    0.66    0.81
   7   0 -17    0.52    0.66
  -7   0  17   -0.03    0.73
  -7   0  15    0.02    0.55
   7   0 -15    0.13    0.62
  -7   0  15    0.48    0.34
  -7   0  15    1.17    0.80
  -7   0  13   -0.23    0.44
   7   0 -13   -0.24    0.55
  -7   0  13    0.19    0.27
  -7   0  13    0.88    0.67
  -7   0  11    0.41    0.37
   7   0 -11    0.09    0.47
   7   0 -11   -0.53    0.37
  -7   0  11    0.05    0.24
  -7   0  11    0.37    0.45
  -7   0   9    1.08    0.48
   7   0  -9    0.62    0.49
   7   0  -9   -0.26    0.45
   7   0  -9    0.16    0.41
  -7   0   9    0.58    0.48
  -7   0   7   -0.17    0.39
   7   0  -7    0.58    0.46
   7   0  -7    0.00    0.44
  -7   0   7   -0.15    0.43
   7   0  -7    0.23    0.39
   7   0  -5    0.47    0.40
  -7   0   5   -0.09    0.48
  -7   0   5    0.46    0.36
   7   0  -5    0.02    0.38
  -7   0   5   -0.10    0.27
  -7   0   5    0.22    0.33
   7   0  -3    0.15    0.28
   7   0  -3    0.15    0.35
  -7   0   3   -0.14    0.43
  -7   0   3   -0.12    0.30
  -7   0   3    0.24    0.30
  -7   0   3    0.15    0.35
   7   0  -1    0.28    0.39
  -7   0   1    0.19    0.21
  -7   0   1   -0.19    0.48
   7   0  -1    0.06    0.17
   7   0  -1   -0.15    0.28
  -7   0   1    0.40    0.38
   7   0   1   -0.07    0.27
   7   0   1    0.03    0.23
   7   0   1   -0.02    0.33
  -7   0  -1    0.18    0.41
  -7   0  -1   -0.04    0.21
  -7   0  -1   -0.52    0.42
   7   0   3    0.96    0.51
  -7   0  -3   -0.42    0.40
  -7   0  -3    0.24    0.22
   7   0   3    0.41    0.34
   7   0   3    0.46    0.43
   7   0   3    0.27    0.33
  -7   0  -3    0.06    0.39
   7   0   5    0.26    0.40
  -7   0  -5    0.31    0.34
  -7   0  -5    0.32    0.23
  -7   0  -5   -0.26    0.47
   7   0   5   -0.28    0.43
   7   0   5    0.50    0.35
   7   0   5    0.46    0.48
  -7   0  -5    0.04    0.42
  -7   0  -7    0.32    0.36
   7   0   7    0.13    0.38
   7   0   7    0.14    0.42
  -7   0  -7    0.29    0.32
  -7   0  -7   -0.23    0.50
   7   0   7   -0.07    0.31
   7   0   7   -0.37    0.48
  -7   0  -7    0.75    0.62
  -7   0  -9    0.04    0.36
   7   0   9    0.26    0.30
   7   0   9   -0.30    0.56
   7   0   9    0.51    0.40
   7   0   9    0.95    0.68
  -7   0  -9   -0.15    0.34
  -7   0  -9   -0.19    0.69
  -7   0 -11    0.50    0.37
   7   0  11   -0.50    0.31
   7   0  11   -0.63    0.65
   7   0  11   -0.27    0.37
   7   0  11    0.72    0.73
  -7   0 -11    0.01    0.55
  -7   0 -13    0.36    0.30
   7   0  13   -0.77    0.78
  -7   0 -13    0.06    0.69
   7   0  13    0.16    0.87
  -7   0 -15   -0.04    0.68
   7   0  15    0.73    0.76
   7   0  15   -0.51    0.75
  -7   0 -17   -0.19    0.69
   7   0  17   -0.25    0.80
   7   0  17   -0.03    0.81
   7  -1 -18    0.01    0.66
   7   1 -18    0.09    0.81
  -7  -1  18   -0.12    0.68
  -7   1  18    1.65    0.96
   7   1 -16   28.58    2.56
   7  -1 -16   30.01    2.66
  -7  -1  16   29.47    1.81
  -7  -1  16   27.79    1.79
  -7  -1  16   24.91    2.32
  -7   1  16   27.03    2.50
   7   1 -14  155.52    5.63
   7  -1 -14  156.96    5.75
  -7   1  14  147.83    4.17
  -7  -1  14  161.76    4.02
  -7  -1  14  162.92    4.35
  -7   1  14  149.11    5.50
  -7  -1  14  153.72    5.36
  -7   1  12    0.94    0.31
  -7  -1  12    0.39    0.26
  -7  -1  12    0.74    0.53
   7   1 -12    0.01    0.45
   7  -1 -12    1.43    0.69
   7   1 -12    0.74    0.65
  -7  -1  12    2.64    0.76
  -7  -1  12    0.77    0.39
  -7   1  12    1.08    0.60
  -7  -1  10  502.79    9.55
  -7   1  10  483.45    8.32
   7   1 -10  512.07    9.79
   7  -1 -10  502.57    9.87
   7  -1 -10  522.75   10.14
  -7  -1  10  498.58    9.58
  -7  -1  10  502.58    9.34
  -7   1  10  493.61    9.79
   7   1 -10  503.90    9.40
   7   1 -10  502.62    9.57
  -7   1   8   50.44    2.58
   7   1  -8   50.57    2.45
  -7  -1   8   46.82    2.48
   7  -1  -8   50.82    2.59
   7  -1  -8   49.41    2.59
  -7   1   8   47.56    2.03
  -7  -1   8   51.29    2.54
  -7   1   8   49.39    1.05
  -7  -1   8   51.05    2.31
   7  -1  -8   50.31    2.60
  -7   1   8   50.30    2.56
   7   1  -8   51.88    2.44
   7   1  -8   49.03    2.50
  -7   1   6   33.12    1.95
   7   1  -6   32.10    1.75
   7  -1  -6   36.70    2.17
  -7  -1   6   33.28    2.03
   7  -1  -6   34.41    1.97
  -7  -1   6   33.97    2.00
  -7   1   6   33.67    1.13
   7   1  -6   35.87    2.08
  -7  -1   6   33.80    1.70
   7   1  -6   33.16    1.71
  -7   1   6   32.81    1.94
   7  -1  -4  501.88    8.71
  -7   1   4  508.73    8.71
  -7  -1   4  502.23    9.16
   7  -1  -4  519.39    9.35
   7   1  -4  500.38    7.96
  -7  -1   4  506.37    6.22
  -7   1   4  496.06    7.28
  -7  -1   4  503.25    7.88
  -7   1   4  505.33    8.85
   7   1  -4  508.27    9.19
   7  -1  -2  213.97    4.84
  -7  -1   2  209.82    5.26
   7  -1  -2  215.01    5.31
  -7   1   2  214.55    4.82
   7   1  -2  220.05    4.10
  -7   1   2  212.60    4.34
  -7  -1   2  221.24    4.97
  -7  -1   2  218.70    4.22
   7   1  -2  221.45    5.39
  -7  -1   0  632.57   10.54
   7  -1   0  647.69    9.77
   7   1   0  642.46    8.31
  -7  -1   0  624.67    8.27
   7  -1   0  643.97   10.42
  -7   1   0  631.24    9.72
   7   1   0  635.41   10.31
  -7   1   0  643.89    9.83
   7  -1   0  631.96    9.81
  -7  -1   0  649.88   10.39
   7   1   0  636.08   10.57
   7  -1   2   65.72    2.37
  -7   1  -2   62.90    2.32
  -7  -1  -2   68.33    1.53
   7  -1   2   62.86    2.54
  -7  -1  -2   70.65    2.79
   7   1   2   65.27    2.57
  -7   1  -2   66.36    2.64
   7  -1   2   66.20    2.65
  -7  -1  -2   67.31    2.80
   7   1   2   65.09    2.68
  -7  -1  -4    5.08    0.41
   7  -1   4    5.05    0.73
  -7  -1  -4    5.04    0.81
  -7   1  -4    5.39    0.77
   7   1   4    5.01    0.78
   7   1   4    5.20    0.75
  -7   1  -4    4.72    0.82
  -7   1  -4    4.80    0.69
  -7  -1  -4    5.04    1.17
   7   1   4    6.34    0.86
   7  -1   4    5.87    0.63
   7  -1   4    5.57    0.90
  -7   1  -4    5.75    0.91
  -7  -1  -6  183.82    3.44
  -7  -1  -6  184.36    4.72
  -7   1  -6  177.15    4.45
   7   1   6  183.38    4.93
  -7   1  -6  195.71    5.48
   7  -1   6  188.86    5.36
  -7  -1  -6  197.69    5.52
  -7   1  -6  195.65    5.43
   7   1   6  187.82    5.42
   7   1   6  182.49    4.62
   7  -1   6  186.66    3.73
   7   1   6  178.31    4.69
   7  -1   6  182.00    4.34
  -7   1  -8  974.57   14.47
  -7  -1  -8  982.90   12.92
  -7  -1  -8  980.06   14.26
   7   1   8  986.78   15.46
  -7  -1  -8  980.99   15.71
  -7   1  -8  992.37   16.01
   7  -1   8  981.36   15.93
  -7  -1  -8  970.99   14.21
   7  -1   8 1001.68   12.47
   7   1   8  976.54   14.25
   7   1   8  985.12   16.01
  -7  -1  -8  997.73   14.70
   7   1   8  967.28   14.34
   7  -1   8  947.75   13.39
  -7   1 -10  114.55    3.95
  -7  -1 -10  114.23    3.62
   7   1  10  124.51    4.62
  -7  -1 -10  108.77    4.40
  -7   1 -10  119.30    4.69
   7  -1  10  124.69    4.81
  -7  -1 -10  118.62    3.74
   7   1  10  119.36    3.75
   7   1  10  116.46    4.67
   7  -1  10  119.60    3.06
   7   1  10  111.58    3.58
  -7  -1 -10  121.55    4.18
  -7  -1 -12   39.54    2.03
   7  -1  12   36.52    2.75
  -7  -1 -12   40.39    2.18
   7   1  12   35.61    2.06
   7   1  12   33.86    2.64
   7   1  12   32.36    2.52
  -7  -1 -12   35.32    2.61
  -7   1 -12   35.04    2.67
  -7  -1 -14    0.26    0.40
   7   1  14   -0.32    0.84
   7  -1  14    0.92    0.86
  -7   1 -14    0.03    0.79
   7  -1  14    1.63    0.93
  -7  -1 -14   -0.66    0.69
   7   1  14   -0.32    0.77
  -7  -1 -16   61.96    3.11
  -7  -1 -16   49.93    3.43
  -7   1 -16   57.72    3.82
   7  -1  16   57.59    3.79
   7   1  16   53.40    3.67
   7  -1  16   52.97    3.71
   7   1  16   58.28    3.88
  -7  -1 -18    0.51    0.67
   7   2 -17    6.68    1.45
   7  -2 -17    6.81    1.40
  -7  -2  17    4.11    0.93
  -7   2  17    6.01    1.39
   7   2 -15   49.54    3.24
   7  -2 -15   52.44    3.44
  -7  -2  15   50.34    2.71
  -7   2  15   49.65    3.36
  -7  -2  15   48.45    3.02
   7   2 -13   56.64    3.24
   7  -2 -13   59.59    3.46
  -7   2  13   58.85    2.03
  -7  -2  13   62.49    2.90
  -7   2  13   58.23    3.37
   7   2 -13   51.21    2.76
  -7  -2  13   58.99    3.06
  -7   2  11    6.09    0.63
   7   2 -11    7.27    1.05
   7  -2 -11    6.98    1.14
  -7  -2  11    7.35    1.07
   7   2 -11    6.81    1.08
   7   2 -11    7.79    1.02
  -7  -2  11    6.39    0.95
  -7   2  11    9.90    1.35
  -7   2   9  394.30    6.50
   7   2  -9  409.42    8.26
  -7  -2   9  404.98    8.37
   7  -2  -9  397.75    8.78
  -7   2   9  403.27    8.74
   7   2  -9  423.36    8.50
   7   2  -9  398.88    7.64
  -7  -2   9  403.88    7.63
   7  -2  -7    5.78    0.50
  -7  -2   7    5.31    0.90
   7   2  -7    7.42    1.02
  -7  -2   7    6.32    0.96
   7  -2  -7    4.75    0.90
   7   2  -7    5.26    0.79
  -7   2   7    6.14    0.95
   7  -2  -7    6.44    1.01
  -7   2   7    8.82    1.18
   7   2  -7    6.59    0.78
  -7  -2   7    6.53    0.77
   7  -2  -5  481.81    9.08
  -7  -2   5  490.14    9.20
   7   2  -5  488.69    7.98
  -7   2   5  489.74    9.11
   7  -2  -5  491.82    9.44
  -7  -2   5  492.76    9.31
  -7   2   5  476.89    6.36
  -7  -2   5  479.26    7.39
   7   2  -5  483.62    9.17
  -7   2   5  468.93    9.06
   7  -2  -3  143.26    4.21
  -7  -2   3  144.92    4.42
   7   2  -3  142.90    3.21
   7  -2  -3  150.42    4.52
  -7   2   3  138.32    4.16
   7   2  -3  139.89    4.33
  -7   2   3  142.04    3.17
   7  -2  -3  143.78    3.18
  -7  -2   3  146.38    2.94
  -7   2   3  143.66    4.30
   7   2  -3  148.82    4.48
  -7  -2   1   10.95    1.25
   7  -2  -1   11.52    1.17
   7   2  -1   11.49    0.64
  -7   2   1   12.25    1.16
   7  -2  -1    9.29    1.03
  -7   2   1   11.20    1.06
  -7  -2   1   10.60    0.84
   7  -2  -1   10.45    0.92
  -7   2   1   12.12    0.97
   7   2  -1   11.94    1.23
  -7  -2   1   11.98    0.67
   7   2  -1   13.31    1.32
  -7   2  -1   46.41    2.23
   7  -2   1   42.35    2.16
   7  -2   1   42.91    2.13
  -7  -2  -1   42.91    1.90
  -7   2  -1   43.96    2.19
  -7   2  -1   39.88    1.98
   7  -2   1   41.79    2.03
  -7  -2  -1   45.39    2.41
   7   2   1   42.60    2.23
  -7  -2  -1   38.56    2.20
   7   2   1   42.65    2.32
  -7   2  -3   60.69    2.57
   7  -2   3   58.52    2.48
  -7  -2  -3   59.64    2.47
  -7   2  -3   60.08    2.74
  -7   2  -3   57.60    2.60
   7  -2   3   53.67    2.52
  -7  -2  -3   60.16    2.83
   7   2   3   59.25    2.65
   7   2   3   58.91    2.73
  -7  -2  -3   54.18    2.59
   7  -2   5   40.91    1.97
  -7   2  -5   40.65    2.18
  -7   2  -5   39.66    2.38
  -7  -2  -5   42.38    2.48
   7  -2   5   39.97    1.40
  -7   2  -5   40.07    2.34
  -7  -2  -5   39.80    2.20
   7  -2   5   38.15    2.26
   7   2   5   37.69    2.15
  -7  -2  -5   38.64    2.20
  -7  -2  -5   41.75    1.73
   7   2   5   40.93    2.29
  -7  -2  -7    0.47    0.44
  -7  -2  -7    0.39    0.16
   7  -2   7    0.15    0.27
   7   2   7    0.23    0.36
  -7  -2  -7    0.25    0.15
  -7   2  -7    1.05    0.39
  -7   2  -7    0.21    0.47
   7  -2   7    0.60    0.18
   7   2   7    0.62    0.56
  -7  -2  -7   -0.09    0.36
  -7  -2  -7    0.75    0.42
   7  -2   7    0.35    0.58
  -7   2  -9   27.03    1.97
  -7  -2  -9   28.39    1.23
  -7  -2  -9   25.60    2.10
  -7   2  -9   25.72    2.14
  -7  -2  -9   25.38    1.84
   7  -2   9   25.48    2.14
   7   2   9   24.57    1.85
  -7  -2  -9   24.25    1.78
   7  -2   9   26.73    1.39
   7   2   9   24.61    1.78
  -7  -2  -9   29.45    1.83
  -7  -2 -11   12.10    1.30
  -7  -2 -11   13.62    1.02
  -7   2 -11   15.34    1.83
   7   2  11   11.88    1.54
  -7  -2 -11   16.89    1.72
   7   2  11   12.24    1.37
  -7  -2 -11   12.92    1.38
   7  -2  11   13.81    0.86
   7  -2  11   15.02    1.77
  -7  -2 -13   60.74    2.49
  -7   2 -13   55.44    3.55
   7   2  13   66.31    3.77
  -7  -2 -13   56.82    3.29
   7  -2  13   56.38    3.63
   7   2  13   55.55    2.95
  -7  -2 -13   62.85    2.87
  -7   2 -15   69.11    4.18
   7   2  15   66.01    4.03
  -7  -2 -15   62.09    3.65
   7  -2  15   67.84    4.19
  -7  -2 -17   10.17    1.66
  -7  -2 -19   62.61    4.11
  -7  -3  18    0.71    0.78
   7   3 -16  164.06    6.39
   7  -3 -16  160.65    6.48
  -7  -3  16  156.70    5.52
  -7   3  16  172.48    6.68
   7   3 -14   63.09    3.58
  -7  -3  14   55.19    2.96
   7  -3 -14   64.32    3.83
  -7  -3  14   54.20    3.07
  -7   3  14   55.22    3.51
   7   3 -12  198.20    6.16
  -7  -3  12  205.85    5.87
   7  -3 -12  206.81    6.69
  -7   3  12  214.95    6.97
   7   3 -12  196.77    5.52
   7  -3 -10  160.01    3.96
  -7   3  10  163.06    2.69
  -7   3  10  170.52    2.73
   7  -3 -10  156.74    5.54
  -7  -3  10  156.91    5.02
  -7   3  10  168.32    5.65
   7   3 -10  163.77    4.52
   7  -3  -8   43.54    2.68
  -7  -3   8   47.10    2.62
  -7   3   8   43.09    1.45
  -7   3   8   44.95    1.47
   7  -3  -8   45.76    1.87
   7   3  -8   43.43    2.61
  -7   3   8   44.49    2.68
   7   3  -8   44.61    2.00
   7   3  -8   50.05    2.68
   7  -3  -6  160.18    5.05
  -7  -3   6  148.04    4.74
  -7   3   6  153.40    3.36
   7   3  -6  150.46    4.88
  -7   3   6  146.68    4.84
   7   3  -6  150.90    4.83
   7   3  -6  148.77    3.35
   7  -3  -4  140.27    4.59
   7   3  -4  151.26    3.60
  -7  -3   4  159.11    4.87
  -7   3   4  165.23    4.91
  -7  -3   4  147.54    4.79
  -7   3   4  148.48    3.63
   7   3  -4  138.43    4.60
   7  -3  -4  148.68    3.13
   7   3  -4  157.37    4.87
  -7   3   4  145.85    4.71
   7   3  -2   45.87    1.53
   7  -3  -2   51.30    2.62
   7  -3  -2   51.53    2.66
  -7   3   2   49.51    2.57
  -7   3   2   49.08    2.12
   7   3  -2   47.76    2.57
   7  -3  -2   48.70    1.94
   7   3  -2   47.11    2.59
  -7  -3   2   46.21    2.55
  -7   3   0   15.70    1.45
   7  -3   0   16.89    1.49
   7  -3   0   16.45    1.48
  -7  -3   0   16.89    1.29
  -7   3   0   19.70    1.46
   7  -3   0   16.80    1.29
  -7   3   0   16.34    1.25
   7   3   0   19.23    1.65
   7   3   0   20.42    1.70
  -7  -3   0   19.94    1.70
   7  -3   2  202.18    5.50
  -7   3  -2  211.29    5.61
   7  -3   2  206.43    5.31
  -7  -3  -2  204.50    5.16
  -7   3  -2  209.64    5.40
   7  -3   2  204.76    5.24
  -7   3  -2  199.64    5.16
  -7  -3  -2  222.20    5.96
   7   3   2  198.84    5.54
  -7  -3  -2  208.00    5.70
   7   3   2  198.30    5.69
  -7   3  -4   27.51    1.96
   7  -3   4   28.77    1.79
  -7  -3  -4   27.56    1.88
  -7   3  -4   27.80    1.98
  -7  -3  -4   26.70    1.96
   7  -3   4   27.70    1.94
  -7   3  -4   28.05    1.96
   7   3   4   26.94    1.98
  -7  -3  -4   29.47    1.14
  -7  -3  -4   26.58    1.97
   7   3   4   31.99    2.17
   7  -3   6  350.23    6.88
  -7   3  -6  358.79    8.30
   7  -3   6  344.52    8.14
   7  -3   6  366.50    4.62
   7   3   6  356.76    8.01
   7  -3   6  365.01    4.61
  -7  -3  -6  358.25    6.10
  -7  -3  -6  347.44    7.95
   7  -3   8   97.11    3.01
  -7   3  -8  103.50    4.35
   7  -3   8   92.47    4.12
   7   3   8  100.65    4.02
  -7  -3  -8  100.98    3.17
  -7  -3  -8  101.39    3.98
  -7  -3 -10  126.03    2.63
  -7   3 -10  127.09    5.13
  -7  -3 -10  118.65    4.55
   7  -3  10  118.44    4.98
   7   3  10  120.29    4.56
  -7  -3 -10  122.56    3.94
  -7  -3 -10  117.71    4.38
   7  -3  10  123.60    3.06
  -7  -3 -12    3.17    0.85
  -7   3 -12    1.93    0.98
  -7  -3 -12    3.53    0.97
   7   3  12    1.12    0.60
   7  -3  12    1.56    0.89
  -7   3 -14  127.11    5.75
  -7  -3 -14  125.75    5.08
   7  -3  14  135.26    5.96
  -7  -3 -14  130.17    4.70
  -7  -3 -16   35.02    2.77
   7   4 -17    0.34    0.92
   7   4 -17    0.54    0.76
  -7  -4  17    1.38    0.93
   7  -4 -15   67.53    4.18
  -7  -4  15   65.52    3.29
   7   4 -15   57.20    3.49
  -7  -4  15   59.14    3.59
  -7   4  15   67.28    4.14
   7  -4 -13   36.03    2.91
  -7  -4  13   32.28    2.32
   7   4 -13   31.96    2.52
  -7   4  13   37.18    2.94
  -7  -4  11    6.25    1.09
   7  -4 -11    4.60    0.77
   7  -4 -11    5.53    1.24
   7   4 -11    4.20    1.00
  -7   4  11    5.50    1.23
   7   4 -11    4.18    0.77
   7  -4  -9  102.92    4.54
  -7  -4   9  102.93    4.15
   7  -4  -9  104.97    3.45
   7   4  -9   97.13    4.18
  -7   4   9  103.01    4.46
   7   4  -9  100.14    3.15
  -7  -4   7   10.75    1.35
  -7   4   7   12.13    0.68
   7  -4  -7   10.96    1.47
   7   4  -7    8.38    1.32
  -7   4   7   12.50    1.52
   7   4  -7   11.54    0.86
   7  -4  -5   34.02    2.41
  -7   4   5   36.27    1.55
   7  -4  -5   36.24    1.42
   7   4  -5   31.25    2.28
  -7  -4   5   32.79    2.31
  -7   4   5   33.24    2.37
   7  -4  -3   37.09    2.43
  -7   4   3   35.15    1.75
   7  -4  -3   36.57    1.73
   7   4  -3   33.48    2.31
  -7   4   3   35.73    2.41
  -7  -4   3   35.16    2.36
  -7  -4   1    0.41    0.57
  -7   4   1    0.15    0.35
   7   4  -1   -0.01    0.17
   7  -4  -1    0.13    0.47
   7   4  -1   -0.11    0.53
   7  -4  -1    0.16    0.35
   7  -4   1  105.59    4.14
  -7   4  -1  108.44    3.73
   7  -4   1  103.48    3.24
   7  -4   1  101.22    3.62
   7   4   1  105.41    4.19
  -7  -4  -1  100.67    4.14
  -7  -4  -3    8.43    1.25
   7  -4   3    9.88    1.19
  -7   4  -3   11.14    1.30
   7   4   3   10.28    1.36
   7  -4   3   10.09    0.86
   7  -4   3    7.90    1.12
   7  -4   5  131.69    4.19
  -7   4  -5  126.89    4.67
   7  -4   5  128.35    4.71
   7   4   5  127.17    4.82
   7  -4   5  133.16    2.73
  -7  -4  -5  133.03    4.87
  -7  -4  -5  134.48    2.49
   7  -4   7   72.60    2.88
  -7   4  -7   84.59    3.95
   7  -4   7   78.20    3.84
   7   4   7   84.42    3.95
  -7  -4  -7   76.97    3.72
  -7  -4  -7   83.63    2.45
  -7  -4  -9    1.98    0.76
  -7   4  -9    2.98    0.93
   7   4   9    2.72    0.92
  -7  -4  -9    2.68    0.61
   7  -4   9    3.17    0.99
  -7   4 -11   37.19    2.98
  -7  -4 -11   44.16    2.82
   7  -4  11   34.80    2.95
   7   4  11   41.74    2.96
  -7  -4 -11   41.01    2.79
  -7  -4 -13    0.59    0.61
  -7   4 -13   -1.11    0.83
  -7  -4 -13    1.03    0.66
   7   4  13    0.22    0.75
   7  -4  13    1.20    0.93
  -7  -4 -15   95.69    4.44
  -7  -4 -15   97.22    4.45
   7   5 -16   -0.11    0.82
  -7  -5  16    1.01    0.85
   7  -5 -14   42.81    3.38
  -7  -5  14   49.49    3.00
   7   5 -14   38.99    2.90
  -7  -5  14   43.41    3.24
  -7   5  14   54.63    3.73
  -7  -5  12    2.64    0.82
   7  -5 -12    1.66    0.80
   7   5 -12    2.22    0.93
  -7   5  12    0.62    0.73
  -7  -5  10    0.89    0.60
   7  -5 -10   -0.32    0.83
   7   5 -10   -0.32    0.67
  -7   5  10    0.62    0.60
   7  -5  -8   29.88    2.57
   7   5  -8   28.47    2.34
  -7   5   8   28.90    2.43
  -7  -5   8   30.94    2.41
  -7  -5   6   14.96    1.70
   7  -5  -6   21.19    2.11
  -7   5   6   18.75    0.92
   7  -5  -6   19.85    1.11
   7   5  -6   19.85    1.97
  -7   5   6   15.40    1.79
   7   5  -6   19.95    0.76
  -7  -5   4    0.18    0.92
  -7   5   4   -0.06    0.26
   7  -5  -4    0.40    0.68
   7   5  -4   -0.21    0.51
   7   5  -4    0.86    0.67
  -7   5   4   -0.12    0.55
   7  -5  -4    0.07    0.36
  -7  -5   2    1.08    0.72
  -7   5   2    1.06    0.42
   7   5  -2    1.04    0.35
   7  -5  -2    2.52    0.79
   7  -5  -2    1.07    0.54
   7   5  -2    1.38    0.69
   7  -5  -2    0.76    0.39
  -7  -5   0    4.24    1.04
  -7   5   0    5.26    0.84
   7   5   0    3.90    0.43
   7  -5   0    3.70    1.00
   7  -5   0    3.17    0.68
   7   5   0    4.42    1.09
   7  -5   0    4.62    0.87
  -7  -5  -2   -0.44    0.57
  -7   5  -2    0.35    0.48
   7  -5   2    0.39    0.40
   7   5   2   -0.90    0.78
   7  -5   2    0.32    0.52
  -7   5  -4  199.75    6.06
   7  -5   4  194.78    6.05
   7   5   4  196.95    6.50
   7  -5   4  207.42    4.33
  -7  -5  -4  204.30    6.60
   7  -5   6  121.16    4.21
  -7   5  -6  116.22    4.81
   7  -5   6  116.74    4.84
   7   5   6  122.50    5.11
  -7  -5  -6  120.30    5.04
  -7   5  -8   42.14    3.03
   7  -5   8   34.34    2.80
   7   5   8   41.95    3.03
  -7  -5  -8   39.80    2.94
  -7  -5 -10    7.31    1.37
  -7   5 -10   10.06    1.65
   7   5  10    9.47    1.65
   7  -5  10    9.43    1.66
  -7  -5 -12   16.22    2.03
  -7   5 -12   23.22    2.55
  -7  -5 -12   17.88    1.87
   7   5  12   16.52    2.14
   7  -5  12   17.53    2.24
  -7  -5 -14    3.44    1.08
   7   5  14   -1.34    0.99
   7   6 -15   -0.20    0.83
  -7  -6  13   83.91    4.17
   7   6 -13   77.47    4.26
  -7  -6  11    4.31    1.11
   7  -6 -11    2.87    1.03
   7   6 -11    5.67    1.31
  -7   6  11    2.56    0.96
  -7  -6   9    0.31    0.83
   7  -6  -9    0.97    0.84
   7   6  -9   -0.09    0.64
  -7   6   9    0.64    0.79
   7  -6  -7   40.89    3.14
   7   6  -7   40.11    2.93
  -7   6   7   38.30    2.93
  -7  -6   7   43.11    3.03
  -7  -6   5    2.69    0.98
   7  -6  -5    3.65    1.13
   7   6  -5    4.62    1.21
  -7   6   5    4.07    1.11
   7  -6  -5    4.44    0.73
   7  -6  -3   90.48    4.52
  -7   6   3   97.09    3.21
   7  -6  -3   96.81    3.52
   7   6  -3   89.49    4.42
  -7  -6   3   89.59    4.46
  -7   6   3   84.95    4.29
   7  -6  -1   83.55    4.41
  -7   6   1   99.08    3.62
   7   6  -1   91.39    4.47
   7  -6  -1   93.40    3.75
  -7  -6   1   95.50    4.64
  -7  -6  -1    2.73    1.03
  -7   6  -1    0.30    0.42
   7  -6   1    0.68    0.52
   7   6   1    3.67    1.17
   7  -6   1    0.44    0.45
  -7   6  -3   32.08    2.38
   7   6   3   30.22    2.66
   7  -6   3   30.33    2.36
  -7  -6  -3   32.06    2.74
  -7   6  -5   53.25    3.29
   7   6   5   48.54    3.44
   7  -6   5   53.34    3.38
  -7  -6  -5   57.31    3.77
  -7  -6  -7   12.75    1.87
  -7   6  -7   14.53    1.92
   7   6   7    9.94    1.65
   7  -6   7   12.12    1.76
  -7  -6  -9    6.43    1.38
  -7   6  -9    5.53    1.33
   7   6   9    3.86    1.18
   7  -6   9    6.14    1.39
  -7  -6 -11    2.73    1.02
   7   7 -12   25.89    2.59
  -7  -7  10   16.48    2.04
   7   7 -10   14.30    1.94
  -7  -7   8    8.81    1.50
   7  -7  -8   12.26    1.95
   7   7  -8    8.84    1.61
  -7   7   8   10.98    1.74
  -7  -7   6    2.06    1.01
   7  -7  -6    0.72    0.77
   7   7  -6    0.02    0.76
  -7   7   6    1.31    0.97
  -7  -7   4    3.61    1.15
   7  -7  -4    6.71    1.48
   7   7  -4    3.95    1.16
  -7   7   4    6.86    1.49
  -7  -7   2    1.38    0.87
   7  -7  -2    2.94    1.06
   7   7  -2    3.80    1.11
  -7   7   2    1.67    0.96
   7  -7  -2    1.39    0.58
  -7  -7   0    7.54    1.43
  -7   7   0   10.22    1.27
   7   7   0    8.27    1.57
   7  -7   0    9.77    1.39
  -7  -7  -2   -0.28    0.67
  -7   7  -2    0.94    0.67
   7   7   2    0.16    0.77
   7  -7   2    0.14    0.72
  -7   7  -4   98.59    4.61
   7   7   4  103.41    5.29
   7  -7   4  100.42    4.87
  -7  -7  -4  109.80    5.45
  -7   7  -6   35.36    2.93
   7  -7   6   36.49    3.01
  -7  -7  -6   35.95    3.17
  -7   7  -8    0.27    0.85
   7  -7   8   -0.34    0.83
  -7   8   1   -0.65    0.78
   7  -8   1    1.83    1.07
   7  -8   3    8.05    1.51
  -7   8  -5    6.47    1.44
   8   0 -18   57.72    3.92
  -8   0  18   62.12    3.94
   8   0 -16    1.98    0.87
  -8   0  16    1.70    0.90
   8   0 -14   46.82    3.08
  -8   0  14   46.05    2.55
  -8   0  14   45.56    1.70
  -8   0  14   44.50    2.92
   8   0 -12  131.91    4.91
  -8   0  12  122.96    4.16
  -8   0  12  131.78    3.06
  -8   0  12  124.45    4.65
  -8   0  10    2.59    0.68
   8   0 -10    2.96    0.91
  -8   0  10    1.61    0.62
   8   0  -8  653.94   11.62
   8   0  -8  632.71   11.08
  -8   0   8  628.87   10.68
  -8   0   8  634.33    9.13
  -8   0   8  628.79   10.88
   8   0  -6  102.42    3.83
  -8   0   6  101.83    3.89
   8   0  -6  102.29    3.47
  -8   0   6  104.94    2.87
  -8   0   6  106.86    3.50
  -8   0   4   67.07    2.56
   8   0  -4   69.14    3.05
  -8   0   4   69.11    3.05
   8   0  -4   68.47    2.58
  -8   0   4   69.04    2.40
  -8   0   4   69.03    2.63
   8   0  -2  213.01    4.58
  -8   0   2  196.88    4.45
  -8   0   2  215.43    5.51
   8   0  -2  215.78    5.52
  -8   0   2  209.59    4.78
  -8   0   2  213.93    4.84
   8   0   0  209.25    4.29
  -8   0   0  205.80    5.32
  -8   0   0  200.70    4.23
   8   0   0  208.04    3.96
  -8   0   0  208.34    5.02
   8   0   0  205.76    5.32
   8   0   2   94.17    2.62
  -8   0  -2   96.79    3.43
  -8   0  -2   96.58    2.66
   8   0   2   93.00    2.84
   8   0   2   96.67    3.16
  -8   0  -2   93.96    3.40
   8   0   2   95.01    3.39
  -8   0  -4   51.39    1.91
  -8   0  -4   53.91    2.48
   8   0   4   54.43    2.35
  -8   0  -4   55.37    2.84
   8   0   4   49.70    2.63
   8   0   4   48.65    2.14
   8   0   4   52.23    2.44
  -8   0  -6   24.62    1.66
  -8   0  -6   27.15    1.44
   8   0   6   26.40    1.81
  -8   0  -6   23.64    1.92
   8   0   6   28.59    2.11
   8   0   6   25.53    1.54
   8   0   6   26.89    1.72
  -8   0  -8    4.68    0.80
   8   0   8    3.88    0.72
  -8   0  -8    2.90    0.61
  -8   0  -8    2.24    0.69
   8   0   8    5.36    0.97
   8   0   8    4.63    0.71
   8   0   8    2.59    0.82
  -8   0 -10  134.45    3.98
  -8   0 -10  136.78    3.91
   8   0  10  135.87    4.94
  -8   0 -10  127.36    5.01
   8   0  10  132.55    3.66
   8   0  10  138.97    5.32
   8   0  10  129.59    3.83
  -8   0 -12   40.84    2.32
  -8   0 -12   46.53    2.10
   8   0  12   47.92    3.13
  -8   0 -12   43.59    3.05
   8   0  12   43.93    2.01
   8   0  12   48.83    3.31
   8   0  14   69.08    4.01
  -8   0 -14   71.77    4.08
   8   0  14   68.45    4.15
  -8   0 -16   21.70    2.40
   8   0  16   27.66    2.72
   8   0  16   29.40    2.86
  -8  -1  19    2.02    0.93
   8  -1 -17   -0.06    0.63
   8   1 -17    0.25    0.67
  -8  -1  17    0.81    0.88
  -8   1  17    0.24    0.62
   8   1 -15  113.90    5.03
   8  -1 -15  116.56    5.19
  -8  -1  15  116.58    3.66
  -8   1  15  113.51    5.00
  -8  -1  15  108.94    4.69
   8   1 -13  481.32   10.56
   8  -1 -13  471.57   10.73
  -8   1  13  462.46    8.56
  -8  -1  13  504.06    7.33
  -8  -1  13  484.76    8.51
  -8   1  13  456.64   10.41
  -8  -1  13  465.26   10.01
  -8  -1  11    1.39    0.27
  -8   1  11    2.25    0.51
   8  -1 -11    2.28    0.87
   8   1 -11    0.70    0.50
  -8  -1  11    0.21    0.48
  -8   1  11    1.20    0.61
   8   1  -9  187.63    5.29
  -8  -1   9  191.90    5.58
   8  -1  -9  192.97    5.61
  -8  -1   9  186.84    5.36
  -8   1   9  180.08    4.57
  -8   1   9  186.59    2.63
  -8   1   9  186.81    2.62
  -8  -1   9  194.38    5.11
  -8   1   9  173.53    5.29
   8   1  -9  182.36    5.06
  -8   1   7  115.68    4.05
   8  -1  -7  120.41    4.30
   8   1  -7  116.42    3.73
  -8  -1   7  115.41    4.16
   8  -1  -7  119.06    4.08
  -8  -1   7  117.61    4.03
  -8   1   7  117.66    2.44
  -8  -1   7  118.59    3.61
  -8   1   7  119.37    4.06
   8   1  -7  121.36    4.22
   8  -1  -5   18.54    1.50
  -8  -1   5   14.89    1.47
  -8   1   5   16.82    1.42
   8   1  -5   17.57    1.28
   8  -1  -5   17.66    1.56
  -8   1   5   16.06    0.96
  -8  -1   5   16.42    1.20
  -8   1   5   16.74    1.42
   8   1  -5   18.53    1.59
   8  -1  -3  413.27    7.72
   8  -1  -3  424.98    8.45
  -8  -1   3  417.27    8.43
  -8   1   3  392.37    7.59
   8   1  -3  410.46    6.87
   8  -1  -3  421.53    5.24
  -8   1   3  401.11    6.85
  -8  -1   3  406.65    7.69
   8   1  -3  407.30    8.37
  -8  -1   3  418.01    6.97
  -8   1   3  414.90    7.96
   8   1  -1  287.59    4.91
  -8  -1   1  279.24    4.85
   8  -1  -1  282.88    5.88
   8  -1  -1  288.49    6.55
  -8  -1   1  275.07    6.50
  -8   1   1  285.19    5.88
   8   1  -1  290.08    6.46
  -8   1   1  280.30    5.74
   8  -1  -1  294.80    5.82
  -8  -1   1  286.22    6.24
  -8  -1   1  291.84    5.34
   8   1  -1  296.71    6.73
  -8   1  -1   32.64    1.73
   8   1   1   31.86    1.16
  -8  -1  -1   30.76    1.14
   8  -1   1   31.49    1.94
  -8  -1  -1   29.36    1.94
   8  -1   1   32.48    1.73
   8   1   1   33.45    1.96
  -8   1  -1   34.21    1.92
   8  -1   1   33.19    1.89
  -8  -1  -1   34.80    2.05
   8   1   1   29.31    1.92
  -8  -1  -3   12.81    1.31
  -8   1  -3   11.83    1.06
  -8  -1  -3   12.31    0.65
   8  -1   3   12.18    1.19
  -8   1  -3   15.16    1.34
   8   1   3   12.59    1.26
   8   1   3   11.91    1.08
  -8   1  -3   11.99    1.32
  -8  -1  -3   14.24    1.43
   8  -1   3   11.42    1.00
   8  -1   3    9.41    1.20
   8   1   3   12.20    1.20
  -8   1  -3   12.58    1.26
   8  -1   5    2.48    0.61
  -8  -1  -5    2.71    0.70
   8   1   5    1.22    0.58
  -8  -1  -5    1.61    0.30
  -8   1  -5    2.09    0.55
  -8   1  -5    1.96    0.65
   8   1   5    2.94    0.69
   8  -1   5    1.72    0.67
   8   1   5    2.07    0.57
   8  -1   5    2.24    0.47
  -8   1  -5    1.46    0.56
  -8  -1  -7   44.47    1.59
  -8  -1  -7   40.87    2.25
  -8   1  -7   41.46    2.14
   8   1   7   40.73    2.39
  -8   1  -7   44.13    2.70
   8  -1   7   36.59    2.46
   8   1   7   38.81    2.12
   8  -1   7   42.55    1.73
   8   1   7   36.53    2.12
   8  -1   7   42.22    2.06
  -8  -1  -9   32.45    1.99
  -8   1  -9   28.95    1.91
  -8  -1  -9   30.84    1.51
   8   1   9   34.11    2.39
  -8  -1  -9   35.41    2.53
  -8   1  -9   31.54    2.41
   8  -1   9   28.94    2.34
   8  -1   9   35.31    1.45
   8   1   9   27.85    1.82
   8   1   9   31.80    2.43
   8  -1   9   28.69    1.64
   8   1   9   33.25    2.03
  -8  -1  -9   33.84    2.10
  -8  -1 -11    0.31    0.45
   8   1  11    0.05    0.39
   8  -1  11   -0.11    0.27
   8   1  11    0.51    0.46
   8   1  11   -0.27    0.61
   8  -1  11   -0.43    2.77
   8   1  11    0.37    0.64
  -8   1 -11    1.10    0.51
  -8  -1 -11    0.61    0.38
  -8  -1 -11   -0.76    0.64
  -8   1 -11    2.27    0.99
  -8  -1 -13    7.52    0.95
   8   1  13    6.79    0.99
   8   1  13    7.42    1.49
   8  -1  13    6.76    1.40
  -8   1 -13    5.91    1.37
   8   1  13    8.32    1.52
   8  -1  13    5.17    1.12
  -8  -1 -13    6.91    1.23
   8   1  15   23.25    2.51
   8  -1  15   23.48    2.52
  -8   1 -15   24.10    2.48
   8  -1  15   22.34    2.38
   8   1  15   30.04    2.79
  -8  -1 -15   24.32    2.44
  -8  -1 -17   51.45    3.60
   8   2 -18   -0.78    0.77
   8  -2 -16    3.21    0.92
   8   2 -16    3.44    1.02
  -8  -2  16    1.75    0.98
  -8  -2  16    2.70    0.82
  -8   2  16    2.48    1.05
   8  -2 -14   16.56    1.95
   8   2 -14   15.36    1.80
  -8  -2  14   11.16    1.43
  -8  -2  14   11.66    1.31
  -8   2  14   14.02    1.80
  -8   2  12    6.29    0.71
  -8  -2  12    6.26    1.13
   8  -2 -12    6.25    1.25
   8   2 -12    5.01    1.00
  -8  -2  12    5.74    0.96
  -8   2  12    5.46    1.11
  -8   2  10   24.69    1.41
   8   2 -10   29.22    2.09
  -8  -2  10   28.05    2.09
   8  -2 -10   29.42    2.28
  -8   2  10   28.36    2.21
   8   2 -10   28.79    1.90
  -8  -2  10   28.65    1.87
   8  -2  -8  271.71    6.98
   8   2  -8  265.87    6.24
  -8  -2   8  270.25    6.83
  -8   2   8  263.23    6.85
   8   2  -8  271.86    5.84
  -8  -2   8  270.44    5.77
   8  -2  -6  260.22    6.52
   8   2  -6  269.93    5.68
  -8   2   6  263.50    6.52
  -8  -2   6  257.14    6.57
  -8  -2   6  265.76    6.70
   8  -2  -6  258.06    3.91
  -8   2   6  260.97    3.84
  -8  -2   6  262.72    5.21
   8   2  -6  264.43    6.66
  -8   2   6  262.73    6.54
   8  -2  -4   27.16    1.87
  -8  -2   4   24.36    1.88
   8   2  -4   25.91    1.40
   8  -2  -4   27.28    1.99
  -8   2   4   25.62    1.79
  -8  -2   4   27.75    1.23
   8   2  -4   28.07    2.00
  -8   2   4   27.33    1.27
   8   2  -4   24.89    1.88
  -8  -2   4   25.36    1.26
  -8   2   4   24.42    1.83
   8  -2  -2  128.30    4.06
  -8  -2   2  127.65    4.34
   8  -2  -2  134.22    4.39
  -8   2   2  130.39    4.10
   8   2  -2  129.20    2.84
  -8  -2   2  126.77    3.10
   8   2  -2  122.62    4.21
   8  -2  -2  133.15    3.44
  -8   2   2  127.56    3.38
  -8  -2   2  127.26    2.81
   8   2  -2  137.23    4.48
  -8  -2   0   -0.04    0.52
   8  -2   0    0.19    0.40
  -8   2   0    0.69    0.47
   8   2   0    0.28    0.40
   8   2   0    0.15    0.14
   8  -2   0    0.17    0.40
  -8   2   0   -0.24    0.43
  -8  -2   0    0.40    0.29
  -8  -2   0   -0.23    0.43
   8   2   0   -0.42    0.53
   8  -2   0    0.38    0.37
  -8  -2   0    0.17    0.22
  -8   2   0   -0.11    0.37
  -8  -2  -2    3.80    0.86
   8  -2   2    3.76    0.72
   8   2   2    3.57    0.79
  -8   2  -2    3.69    0.67
   8  -2   2    3.70    0.74
  -8   2  -2    2.63    0.70
   8  -2   2    2.79    0.67
   8   2   2    3.33    0.82
  -8  -2  -2    5.22    0.94
  -8   2  -2    3.35    0.74
  -8   2  -4   38.69    2.16
   8  -2   4   37.86    2.08
  -8   2  -4   40.88    2.45
   8  -2   4   38.62    2.30
   8   2   4   42.48    2.37
  -8   2  -4   37.97    2.29
   8   2   4   41.31    2.40
  -8  -2  -4   38.26    2.31
   8  -2   6   32.25    1.85
  -8   2  -6   35.46    2.14
  -8   2  -6   33.80    2.37
   8  -2   6   34.22    2.32
   8   2   6   37.47    2.24
   8  -2   6   35.91    1.39
  -8  -2  -6   34.24    2.18
  -8  -2  -6   30.86    1.68
   8   2   6   33.72    2.19
  -8  -2  -8   63.32    1.44
  -8  -2  -8   64.52    1.43
  -8   2  -8   58.32    2.89
  -8   2  -8   61.97    3.41
  -8  -2  -8   62.07    2.96
   8  -2   8   62.43    3.37
   8  -2   8   63.45    1.42
   8   2   8   61.44    2.96
   8  -2   8   62.70    2.50
  -8  -2  -8   58.45    2.90
   8   2   8   60.64    2.97
  -8  -2  -8   56.73    2.54
  -8  -2 -10   35.43    1.42
  -8  -2 -10   35.01    1.43
  -8  -2 -10   30.98    2.44
  -8   2 -10   32.90    2.61
   8  -2  10   32.60    2.62
   8   2  10   31.87    2.19
  -8  -2 -10   31.61    2.15
   8   2  10   33.68    2.20
   8  -2  10   35.03    1.68
  -8  -2 -10   35.69    2.17
  -8  -2 -12   12.36    1.36
  -8  -2 -12   15.21    1.13
   8   2  12   11.57    1.41
   8  -2  12   14.74    1.90
  -8   2 -12   15.48    1.95
  -8  -2 -12   11.36    1.61
  -8  -2 -14    4.06    0.80
   8  -2  14    2.57    1.14
  -8   2 -14    2.04    0.72
  -8  -2 -14    2.24    0.88
  -8  -2 -16   14.67    1.94
  -8  -2 -18    2.82    1.11
   8   3 -17   33.56    2.95
  -8  -3  17   32.12    2.49
   8  -3 -15   -0.85    0.96
   8   3 -15   -0.55    0.84
  -8  -3  15    0.13    0.57
  -8   3  15   -1.29    0.80
   8   3 -13  245.74    7.28
  -8  -3  13  249.25    6.96
   8  -3 -13  259.04    7.97
  -8   3  13  254.36    7.79
  -8   3  11   33.11    1.19
   8  -3 -11   34.00    2.65
   8   3 -11   31.39    2.30
  -8  -3  11   30.63    2.27
  -8   3  11   30.71    2.47
   8   3 -11   28.66    1.92
   8  -3  -9   91.86    2.63
  -8   3   9   90.31    2.40
  -8   3   9   91.90    2.43
   8  -3  -9   89.18    4.10
   8   3  -9   87.76    3.54
  -8  -3   9   88.13    3.85
  -8   3   9   86.30    4.01
   8   3  -9   83.28    2.99
  -8  -3   9   87.17    3.09
  -8  -3   7   10.45    1.34
   8   3  -7    7.25    0.94
   8  -3  -7    7.82    1.22
  -8   3   7    8.34    0.80
   8   3  -7    7.57    1.23
  -8   3   7    6.70    1.12
   8   3  -7    8.75    0.83
  -8  -3   7    8.77    0.84
   8  -3  -5   95.12    3.90
   8   3  -5  101.93    3.10
  -8  -3   5  100.48    4.03
  -8   3   5  100.66    3.02
   8   3  -5  105.56    4.15
   8  -3  -5  101.89    2.34
  -8   3   5  103.59    4.08
  -8  -3   5   98.13    2.45
   8  -3  -3  109.20    4.09
  -8  -3   3  105.31    4.11
   8   3  -3  107.70    2.75
  -8   3   3  114.43    3.46
   8  -3  -3  107.48    2.98
   8   3  -3  107.05    4.13
  -8   3   3  103.18    4.04
  -8  -3   3  108.35    2.01
  -8  -3   1   11.65    1.38
   8  -3  -1   12.70    1.42
  -8   3   1   11.63    1.33
   8   3  -1   10.94    0.57
  -8  -3   1   10.93    1.06
   8  -3  -1    9.72    1.24
  -8   3   1    9.20    1.05
   8  -3  -1   11.90    1.09
   8   3  -1    9.31    1.22
  -8   3   1   10.99    1.05
   8  -3   1   57.92    2.87
  -8   3  -1   55.91    2.82
   8  -3   1   59.41    2.89
  -8  -3  -1   57.91    2.56
  -8   3  -1   61.06    2.83
   8  -3   1   57.60    2.61
  -8   3  -1   62.08    2.70
   8   3   1   60.07    3.03
  -8  -3  -1   67.18    3.25
  -8   3  -3   61.81    3.00
   8  -3   3   61.45    2.83
  -8  -3  -3   61.75    2.79
  -8   3  -3   58.08    2.95
   8  -3   3   59.72    2.88
  -8   3  -3   60.00    2.88
   8   3   3   58.20    3.00
  -8  -3  -3   58.26    3.03
  -8  -3  -3   61.78    1.55
   8  -3   5   61.99    2.75
  -8   3  -5   61.81    3.20
   8  -3   5   55.39    3.00
   8   3   5   61.68    3.11
  -8  -3  -5   61.12    1.96
  -8  -3  -5   62.68    3.16
   8  -3   7   77.44    2.94
  -8   3  -7   81.73    3.90
   8  -3   7   74.78    3.70
   8   3   7   77.78    3.63
  -8  -3  -7   80.11    2.65
  -8  -3  -7   76.80    3.57
  -8   3  -9   28.48    2.45
   8  -3   9   26.86    2.35
   8   3   9   28.23    2.22
  -8  -3  -9   30.82    1.85
   8  -3   9   29.73    1.68
  -8  -3  -9   30.09    2.24
  -8   3 -11   29.54    2.62
  -8  -3 -11   28.39    2.40
   8  -3  11   29.20    2.61
   8   3  11   28.38    2.29
  -8  -3 -11   25.99    2.11
  -8  -3 -13    0.28    0.49
  -8   3 -13    0.43    0.73
  -8  -3 -13   -0.34    0.69
   8   3  13    1.41    0.81
   8  -3  13    0.92    0.88
  -8  -3 -15   -0.41    0.75
  -8  -3 -17   -0.84    0.93
   8   4 -18   13.79    1.92
   8   4 -16   10.52    1.69
   8   4 -16    9.17    1.54
  -8  -4  16   11.27    1.61
   8  -4 -14   32.54    2.92
   8   4 -14   37.03    3.11
  -8  -4  14   36.76    2.62
   8   4 -14   33.94    2.81
  -8   4  14   30.97    2.85
  -8  -4  12    3.42    0.93
   8   4 -12    2.00    0.72
   8  -4 -12    2.91    1.02
   8   4 -12    2.47    0.95
  -8   4  12    2.47    1.04
   8  -4 -10   26.87    2.45
  -8  -4  10   27.39    2.26
   8   4 -10   25.88    2.29
  -8   4  10   26.09    2.38
  -8  -4   8    0.49    0.60
  -8   4   8    0.08    0.16
  -8   4   8    0.08    0.17
   8  -4  -8    0.17    0.60
   8   4  -8    1.40    0.81
  -8   4   8   -0.36    0.59
   8   4  -8    0.83    0.37
   8  -4  -6  325.47    8.43
  -8  -4   6  322.90    8.18
  -8   4   6  339.71    5.92
   8   4  -6  317.50    8.21
   8  -4  -6  347.11    4.92
  -8   4   6  337.36    8.49
  -8  -4   4   10.71    1.45
   8   4  -4   10.90    0.96
  -8   4   4    9.01    0.93
   8  -4  -4   10.73    1.43
   8  -4  -4   11.98    0.94
   8   4  -4   11.13    1.46
  -8   4   4    9.23    1.27
   8   4  -2   97.67    2.43
   8   4  -2   93.98    2.39
   8  -4  -2   99.11    4.13
  -8   4   2  100.12    3.39
   8  -4  -2   96.20    3.18
   8   4  -2  102.43    4.28
  -8  -4   2  101.01    4.26
   8  -4   0   92.16    3.95
  -8   4   0   94.09    3.50
  -8  -4   0   89.47    3.45
   8  -4   0   84.18    3.25
   8   4   0   82.59    3.85
  -8  -4   0   81.81    3.84
  -8  -4  -2   -0.06    0.62
  -8   4  -2    0.89    0.63
   8  -4   2    0.44    0.63
   8  -4   2    0.35    0.30
   8   4   2    0.01    0.64
   8  -4   2   -0.16    0.46
  -8  -4  -4   14.83    1.73
   8  -4   4   15.32    1.48
  -8   4  -4   14.63    1.62
   8   4   4   10.30    1.43
   8  -4   4   14.33    0.98
   8  -4   4   15.90    1.64
   8  -4   6  152.62    4.68
  -8   4  -6  166.09    5.75
   8  -4   6  170.08    2.61
   8  -4   6  157.50    5.59
   8   4   6  150.02    5.53
   8  -4   6  167.39    2.58
  -8  -4  -6  167.38    3.25
  -8  -4  -6  161.49    5.68
  -8   4  -8   26.36    2.38
   8  -4   8   23.76    2.27
   8   4   8   29.68    2.39
  -8  -4  -8   26.41    2.28
  -8   4 -10   75.81    4.25
   8  -4  10   64.88    3.98
   8   4  10   69.09    3.83
  -8  -4 -10   61.95    3.54
  -8  -4 -12   12.23    1.65
  -8   4 -12   10.27    1.74
  -8  -4 -12   10.05    1.61
   8   4  12   15.90    1.97
   8  -4  12   15.12    2.09
  -8  -4 -14    6.25    1.27
  -8  -4 -14    7.33    1.41
   8   4  14    7.03    1.41
   8   5 -15   80.31    4.37
  -8  -5  15   72.33    4.30
  -8  -5  13    7.32    1.31
   8  -5 -13    5.80    1.38
   8   5 -13    9.51    1.62
  -8   5  13    6.78    1.37
   8  -5 -11   33.90    2.92
  -8  -5  11   28.67    2.44
   8   5 -11   27.13    2.47
  -8   5  11   34.64    2.92
   8  -5  -9   82.25    4.41
  -8  -5   9   73.47    3.86
   8   5  -9   75.91    4.02
  -8   5   9   71.40    4.06
  -8  -5   7    1.73    0.86
   8  -5  -7    1.55    0.92
   8   5  -7    2.98    1.01
  -8   5   7    3.48    1.02
   8  -5  -5   66.84    3.76
  -8   5   5   65.60    2.31
   8  -5  -5   67.41    2.30
   8   5  -5   69.54    3.75
  -8  -5   5   63.19    3.59
  -8   5   5   67.74    3.73
  -8  -5   3    4.53    1.15
  -8   5   3    5.82    0.80
   8  -5  -3    3.88    1.05
   8   5  -3    5.29    0.66
   8   5  -3    5.15    1.14
  -8   5   3    5.80    1.18
   8  -5  -3    5.49    0.81
   8  -5  -1  164.63    5.89
   8   5  -1  168.64    3.18
   8   5  -1  167.90    3.18
  -8   5   1  165.90    4.84
   8  -5  -1  170.15    4.91
   8  -5  -1  165.92    4.98
   8   5  -1  158.51    5.81
  -8  -5   1  180.89    6.18
   8  -5   1   84.04    4.14
  -8   5  -1   81.52    3.54
   8  -5   1   86.43    3.63
   8  -5   1   80.87    3.10
   8   5   1   88.97    4.28
  -8  -5  -1   78.98    4.07
  -8   5  -3   46.60    2.81
   8  -5   3   45.87    2.80
   8  -5   3   49.73    2.13
   8   5   3   46.86    3.13
  -8  -5  -3   43.58    3.04
  -8   5  -5   89.76    4.19
   8  -5   5   94.36    4.32
   8   5   5   92.45    4.52
  -8  -5  -5  101.46    4.70
  -8  -5  -7   12.90    1.80
  -8   5  -7   11.95    1.68
   8   5   7   12.00    1.71
   8  -5   7    9.12    1.52
  -8  -5  -9    9.40    1.55
  -8   5  -9   10.09    1.62
   8   5   9   12.94    1.75
   8  -5   9    8.32    1.56
  -8  -5 -11    3.97    1.14
  -8   5 -11    5.77    1.31
   8   5  11    5.44    1.35
   8  -5  11    4.65    1.37
  -8  -5 -13    2.20    1.00
   8   5  13    1.92    0.94
  -8  -5 -13    1.70    0.92
   8   6 -14    2.05    1.04
  -8  -6  12   29.38    2.63
   8   6 -12   27.95    2.62
   8  -6 -10   97.17    5.16
  -8  -6  10   95.52    4.72
   8   6 -10   99.00    4.87
  -8   6  10   93.44    4.94
  -8  -6   8   10.57    1.73
   8  -6  -8   10.97    1.76
   8   6  -8   11.48    1.70
  -8   6   8   12.64    1.83
  -8  -6   6   20.13    2.20
   8  -6  -6   19.27    2.22
   8   6  -6   16.67    2.03
  -8   6   6   22.04    2.32
  -8  -6   4   20.27    2.22
   8  -6  -4   21.09    2.27
   8   6  -4   22.15    2.31
   8  -6  -4   20.81    1.54
  -8   6   4   21.45    2.24
   8  -6  -2  206.24    7.12
  -8   6   2  216.36    5.50
   8  -6  -2  202.54    5.57
   8   6  -2  191.60    6.92
  -8   6   2  193.77    6.86
  -8  -6   2  203.34    7.08
  -8  -6   0    3.01    1.16
  -8   6   0    3.99    0.84
   8  -6   0    4.26    1.18
   8   6   0    3.92    1.12
   8  -6   0    4.29    0.91
  -8  -6  -2    5.17    1.33
  -8   6  -2    4.53    1.00
   8   6   2    2.97    0.91
   8  -6   2    6.70    1.18
  -8  -6  -4   16.68    2.13
  -8   6  -4   11.51    1.56
   8   6   4   17.66    2.17
   8  -6   4   12.32    1.69
  -8   6  -6   68.53    4.16
   8  -6   6   69.03    4.04
   8   6   6   77.21    4.42
  -8  -6  -6   74.92    4.36
  -8   6  -8   61.05    3.94
   8  -6   8   61.88    4.00
   8   6   8   64.75    4.17
  -8  -6  -8   64.72    4.10
  -8  -6 -10    5.79    1.36
  -8  -7  11    0.32    0.92
  -8  -7   9   21.46    2.44
   8   7  -9   18.63    2.18
   8   7  -7   52.58    3.66
  -8   7   7   55.61    3.83
  -8  -7   7   49.80    3.58
  -8  -7   5    1.54    0.68
   8  -7  -5    3.06    1.26
   8   7  -5    1.85    1.00
  -8   7   5    3.63    1.12
   8  -7  -3   27.19    2.76
   8   7  -3   26.42    2.65
  -8   7   3   29.26    3.50
  -8  -7   3   28.22    2.81
  -8  -7   1    1.91    1.08
   8  -7  -1   -0.77    1.00
   8   7  -1    2.38    1.15
  -8   7   1    0.53    0.64
   8  -7  -1   -0.21    0.64
  -8  -7  -1   -0.95    0.95
  -8   7  -1    0.61    0.55
   8   7   1   -1.45    1.12
   8  -7   1    0.02    0.66
  -8   7  -3    6.21    1.29
   8  -7   3    6.07    1.31
  -8   7  -5    1.20    0.72
   8  -7   5    4.72    1.27
  -8   7  -7    0.54    0.70
   8  -7   7    1.14    0.91
   8  -8   2    0.89    0.87
   8  -8   4   30.64    2.87
   9   0 -17    0.58    0.61
  -9   0  17   -0.20    0.69
   9   0 -15    0.15    0.75
  -9   0  15    0.20    0.59
   9   0 -13    0.32    0.59
  -9   0  13   -0.05    0.27
  -9   0  13    0.23    0.53
   9   0 -11   -0.48    0.51
  -9   0  11    0.31    0.35
  -9   0  11   -0.05    0.22
  -9   0  11    0.55    0.56
   9   0  -9    0.95    0.64
  -9   0   9   -0.39    0.39
  -9   0   9    0.29    0.31
  -9   0   9    1.33    0.65
   9   0  -7    0.45    0.52
  -9   0   7   -0.19    0.25
  -9   0   7   -0.09    0.38
  -9   0   5    0.26    0.51
  -9   0   5   -0.32    0.36
   9   0  -5   -0.21    0.44
  -9   0   5    0.04    0.29
  -9   0   5    0.24    0.45
   9   0  -3    0.57    0.52
  -9   0   3   -0.40    0.48
  -9   0   3    0.36    0.37
   9   0  -3    0.19    0.35
  -9   0   3   -0.37    0.39
  -9   0   3    0.18    0.39
  -9   0   1   -0.08    0.26
   9   0  -1    0.50    0.49
  -9   0   1    0.69    0.60
   9   0  -1    0.18    0.35
  -9   0   1   -0.07    0.55
   9   0   1    0.30    0.41
  -9   0  -1   -0.22    0.51
  -9   0  -1   -0.16    0.25
   9   0   1   -0.08    0.26
   9   0   1    0.28    0.28
   9   0   1    0.97    0.54
  -9   0  -1   -0.34    0.45
   9   0   3   -0.34    0.45
  -9   0  -3    0.50    0.53
  -9   0  -3   -0.24    0.23
   9   0   3   -0.03    0.38
  -9   0  -3   -0.05    0.39
   9   0   5    0.28    0.46
  -9   0  -5    0.09    0.43
   9   0   5   -0.81    0.61
   9   0   5   -0.26    0.43
   9   0   5    0.31    0.44
  -9   0  -5    0.36    0.32
  -9   0  -5   -0.28    0.60
  -9   0  -7    0.64    0.52
   9   0   7   -0.21    0.42
   9   0   7   -0.46    0.37
   9   0   7   -0.08    0.54
  -9   0  -7   -0.15    0.30
   9   0   7    0.23    0.47
  -9   0  -9   -0.18    0.41
   9   0   9   -0.26    0.39
   9   0   9   -0.08    0.33
   9   0   9    0.83    0.73
   9   0   9    0.28    0.49
  -9   0  -9    0.60    0.43
  -9   0  -9    1.25    0.80
  -9   0 -11    0.35    0.43
   9   0  11   -0.10    0.62
  -9   0 -11   -0.28    0.45
  -9   0 -11    1.31    0.84
   9   0  11    1.04    0.44
   9   0  11   -0.28    0.72
   9   0  13    1.77    1.05
  -9   0 -13   -0.93    0.87
   9   0  13   -0.17    0.70
   9   0  15    1.08    0.80
  -9   0 -15   -1.05    0.91
   9   0  15    0.45    0.83
  -9  -1  18    1.27    0.80
   9   1 -16   24.28    2.47
   9  -1 -16   28.62    2.67
  -9   1  16   25.79    2.50
  -9  -1  16   24.29    2.35
   9   1 -14   19.46    2.05
   9  -1 -14   16.73    1.99
  -9  -1  14   17.32    1.36
  -9  -1  14   16.30    1.79
  -9   1  14   16.27    1.93
  -9   1  12  550.25    9.79
   9   1 -12  549.90   11.36
   9  -1 -12  564.70   11.83
  -9   1  12  563.47   11.62
  -9  -1  12  551.46   10.91
  -9   1  10   23.96    1.66
   9   1 -10   23.51    1.93
  -9  -1  10   22.95    2.03
   9  -1 -10   23.58    2.03
  -9  -1  10   24.19    1.85
  -9   1  10   24.72    2.04
   9   1 -10   22.55    1.80
  -9  -1   8    5.15    1.06
   9   1  -8    6.12    0.96
   9  -1  -8    5.62    0.98
  -9   1   8    5.99    1.04
  -9   1   8    5.79    0.50
  -9  -1   8    5.91    1.17
   9  -1  -6   91.55    3.57
  -9   1   6   93.15    3.57
  -9  -1   6   89.03    3.78
   9   1  -6   91.26    3.23
  -9   1   6   94.14    2.53
  -9  -1   6   90.26    3.14
  -9   1   6   87.88    3.52
  -9  -1   4    5.35    1.02
   9   1  -4    5.76    0.74
  -9   1   4    5.75    0.88
   9  -1  -4    5.90    0.91
  -9  -1   4    6.67    0.90
  -9  -1   4    7.98    0.88
  -9   1   4    6.51    0.96
  -9   1   4    6.23    0.72
   9   1  -2  176.38    3.91
   9  -1  -2  179.30    4.71
   9  -1  -2  183.94    5.36
  -9  -1   2  172.07    5.25
  -9   1   2  180.61    4.78
   9  -1  -2  176.95    3.16
  -9   1   2  177.57    4.42
  -9  -1   2  178.52    4.89
  -9  -1   2  176.20    4.18
   9   1  -2  175.92    5.30
  -9  -1   0   20.23    1.06
   9  -1   0   20.89    1.70
  -9  -1   0   22.28    1.81
   9   1   0   21.40    1.08
   9  -1   0   22.27    1.50
  -9   1   0   20.18    1.44
   9   1   0   23.31    1.75
  -9   1   0   20.97    1.52
   9  -1   0   21.43    1.56
  -9  -1   0   22.03    1.71
   9   1   0   21.20    1.77
  -9   1  -2  164.86    4.36
   9  -1   2  172.91    4.41
  -9  -1  -2  166.80    3.13
   9  -1   2  175.14    5.03
  -9  -1  -2  164.39    5.01
   9   1   2  164.91    4.79
  -9  -1  -2  175.59    5.18
  -9   1  -2  168.20    4.91
   9  -1   2  168.49    4.91
   9   1   2  169.08    5.10
  -9   1  -4   96.48    3.25
  -9  -1  -4   99.30    3.77
  -9  -1  -4  102.47    2.23
   9   1   4  100.13    3.49
  -9   1  -4  100.84    4.05
   9  -1   4  103.96    3.20
  -9   1  -4  104.00    3.97
   9  -1   4  102.03    3.96
   9   1   4  103.68    3.70
   9  -1   4  102.13    3.68
   9   1   4  102.49    3.86
  -9  -1  -6  146.94    2.94
  -9   1  -6  134.29    4.04
  -9  -1  -6  143.38    4.57
  -9   1  -6  140.95    5.05
   9   1   6  136.07    4.48
   9   1   6  134.49    4.28
   9  -1   6  137.75    3.66
   9  -1   6  137.37    4.95
   9   1   6  140.53    4.56
   9  -1   6  130.11    4.16
  -9  -1  -8  664.19    9.34
  -9   1  -8  634.71   11.01
  -9  -1  -8  648.26   11.49
  -9  -1  -8  639.43   12.84
  -9   1  -8  657.23   13.01
   9   1   8  662.14   12.20
   9   1   8  654.91   11.20
   9  -1   8  683.72    9.76
   9  -1   8  645.45   12.86
   9   1   8  648.60   11.50
   9  -1   8  632.44   10.76
  -9  -1 -10  125.55    4.20
  -9   1 -10  118.16    4.11
  -9  -1 -10  112.05    4.86
   9   1  10  106.40    4.57
  -9   1 -10  117.06    5.05
   9  -1  10  125.41    3.02
   9   1  10  124.15    4.11
   9  -1  10  114.73    5.04
   9  -1  10  116.02    3.63
   9   1  10  113.84    4.07
  -9  -1 -12   10.77    1.23
   9   1  12    9.91    1.57
   9  -1  12   12.32    1.74
  -9  -1 -12   11.23    1.69
  -9   1 -12    6.62    1.37
   9   1  12    7.86    1.05
   9  -1  12   10.32    1.63
   9   1  12   10.41    1.60
  -9   1 -14   10.51    1.70
   9   1  14   13.23    1.91
   9  -1  14   15.45    2.01
  -9  -1 -14   12.43    1.82
   9  -1  14   12.41    1.94
   9   1  14   12.75    1.97
  -9  -1 -16   15.78    2.10
   9   2 -17   40.63    3.20
  -9  -2  17   39.63    3.02
   9  -2 -15    0.02    0.83
   9   2 -15    0.06    0.69
  -9  -2  15    0.25    0.56
  -9  -2  15    0.66    0.59
  -9   2  15   -0.38    0.80
   9  -2 -13   12.65    1.74
   9   2 -13   11.99    1.56
  -9  -2  13    9.93    1.31
  -9   2  13   11.25    1.61
  -9   2  11   -0.52    0.37
   9  -2 -11   -0.54    0.73
  -9  -2  11   -0.50    0.64
   9   2 -11   -0.18    0.48
   9   2 -11    0.10    0.57
  -9  -2  11   -0.06    0.44
  -9   2  11    0.29    0.55
  -9   2   9   25.39    1.59
   9  -2  -9   25.49    2.17
   9   2  -9   27.30    1.98
  -9  -2   9   30.21    2.31
  -9   2   9   24.24    2.09
   9   2  -9   25.35    1.73
  -9  -2   9   27.98    1.80
   9  -2  -7    0.70    0.60
   9   2  -7    0.62    0.40
  -9  -2   7    0.77    0.54
  -9   2   7    0.69    0.57
  -9  -2   7    0.50    0.36
   9  -2  -5   19.97    1.75
  -9  -2   5   19.72    1.82
   9   2  -5   19.37    1.33
  -9  -2   5   20.43    0.98
  -9   2   5   18.33    1.05
  -9  -2   5   18.14    1.20
  -9   2   5   21.27    1.83
   9  -2  -3   80.57    3.38
  -9  -2   3   84.66    3.68
  -9   2   3   83.60    3.40
   9   2  -3   89.97    2.58
  -9  -2   3   84.73    2.37
   9   2  -3   87.84    3.73
  -9   2   3   86.11    2.73
  -9  -2   3   88.85    2.50
  -9   2   3   87.95    3.62
   9   2  -1   32.64    1.20
  -9  -2   1   31.92    2.25
   9  -2  -1   33.64    2.25
   9  -2  -1   34.55    2.10
  -9   2   1   34.71    2.12
  -9  -2   1   31.37    1.57
  -9   2   1   35.73    2.13
   9   2  -1   31.02    2.17
  -9  -2   1   32.45    2.20
   9  -2  -1   35.77    1.92
  -9   2   1   31.01    1.79
  -9  -2   1   33.77    1.43
  -9   2  -1  588.20   10.42
   9  -2   1  586.54   10.38
  -9  -2  -1  591.09   11.18
   9  -2   1  595.46   10.84
  -9   2  -1  596.91   10.83
  -9   2  -1  585.51   10.27
   9  -2   1  579.34   10.24
   9   2   1  569.49   10.76
  -9  -2  -3    1.54    0.69
   9  -2   3    1.63    0.50
  -9   2  -3    1.95    0.56
  -9   2  -3    1.97    0.67
   9   2   3    2.41    0.80
   9  -2   3    1.49    0.62
  -9   2  -3    1.70    0.65
  -9   2  -5   32.65    2.11
   9  -2   5   37.82    2.18
  -9  -2  -5   38.33    2.43
  -9   2  -5   34.44    2.43
   9  -2   5   35.60    1.64
   9  -2   5   38.30    2.51
   9   2   5   35.46    2.27
  -9   2  -7  130.98    4.48
  -9  -2  -7  132.36    4.66
  -9   2  -7  136.17    5.19
   9  -2   7  135.46    5.10
   9   2   7  137.60    4.66
   9  -2   7  139.10    3.06
   9  -2   7  131.57    4.09
  -9  -2  -7  136.05    3.97
  -9  -2  -9   30.27    2.21
  -9  -2  -9   33.77    0.95
  -9  -2  -9   34.56    2.61
  -9   2  -9   31.78    2.60
   9  -2   9   30.65    2.54
   9   2   9   27.35    2.09
   9  -2   9   30.76    1.81
  -9  -2  -9   30.79    1.99
  -9  -2 -11  159.84    5.16
   9  -2  11  152.83    6.18
   9   2  11  152.01    5.12
  -9  -2 -11  157.05    5.97
  -9   2 -11  154.22    6.17
  -9  -2 -13   26.18    2.03
  -9   2 -13   26.46    2.60
  -9  -2 -13   27.54    2.57
   9  -2  13   21.22    2.47
   9   2  13   25.01    2.09
  -9  -2 -15    1.80    0.89
   9   3 -16    5.42    1.28
  -9  -3  16    4.99    1.05
   9  -3 -14   32.45    2.89
   9   3 -14   30.25    2.58
  -9  -3  14   32.16    2.53
  -9   3  14   29.35    2.67
   9  -3 -12  104.21    4.95
   9   3 -12  108.35    4.55
  -9  -3  12  105.44    4.55
  -9   3  12  108.28    4.95
  -9   3  10  476.06    7.32
   9  -3 -10  448.73   10.55
   9   3 -10  442.90    9.47
  -9  -3  10  459.40   10.23
  -9   3  10  445.13   10.48
   9   3 -10  434.46    8.55
  -9  -3  10  462.16    8.61
   9  -3  -8   66.80    3.59
   9   3  -8   68.14    3.01
  -9  -3   8   67.60    3.50
   9  -3  -8   64.52    1.98
  -9   3   8   69.53    2.45
   9   3  -8   64.79    3.54
  -9   3   8   63.44    3.46
  -9  -3   8   70.62    2.59
  -9  -3   6    0.54    0.64
   9   3  -6    0.86    0.45
   9  -3  -6    0.02    0.49
  -9   3   6    0.32    0.30
   9   3  -6    0.79    0.63
  -9   3   6    0.51    0.58
  -9  -3   6    0.61    0.33
   9  -3  -4   48.34    2.81
  -9  -3   4   43.47    2.76
   9   3  -4   45.01    1.88
  -9   3   4   45.98    2.25
   9   3  -4   43.37    2.74
   9  -3  -4   49.04    1.88
  -9   3   4   44.55    2.75
  -9  -3   4   43.68    1.44
  -9  -3   2   -0.12    0.55
   9   3  -2    0.33    0.32
  -9  -3   2    0.21    0.31
   9  -3  -2    0.42    0.49
  -9   3   2    0.33    0.42
   9  -3  -2   -0.12    0.31
   9   3  -2    1.11    0.66
  -9  -3   2    0.23    0.13
  -9   3   2    0.90    0.42
  -9  -3   0  340.93    8.27
   9  -3   0  355.60    8.03
  -9  -3   0  335.27    6.89
  -9   3   0  348.06    7.63
   9  -3   0  348.79    7.17
  -9   3   0  352.64    7.21
   9   3   0  354.82    8.29
  -9  -3   0  338.02    4.22
  -9  -3   0  335.66    4.22
   9  -3   2  140.85    4.81
   9  -3   2  144.58    4.79
  -9  -3  -2  141.74    4.37
  -9   3  -2  145.70    4.86
   9  -3   2  135.48    4.51
  -9   3  -2  138.97    4.53
   9   3   2  140.71    4.98
  -9  -3  -2  146.87    2.57
  -9  -3  -2  140.16    5.06
  -9  -3  -2  148.37    2.56
   9  -3   4   76.55    3.28
  -9   3  -4   78.40    3.69
   9  -3   4   78.96    3.58
   9   3   4   79.31    3.68
  -9  -3  -4   74.61    3.62
  -9  -3  -4   76.49    2.11
   9  -3   6  109.95    3.87
  -9   3  -6  115.28    4.76
   9  -3   6  111.09    4.57
   9   3   6  102.01    4.30
   9  -3   6  115.85    2.58
  -9  -3  -6  106.56    4.41
  -9  -3  -6  109.83    3.03
  -9   3  -8  123.58    5.15
   9  -3   8  113.54    4.88
   9   3   8  114.16    4.62
  -9  -3  -8  116.94    3.54
  -9  -3  -8  117.11    4.65
   9  -3   8  109.80    3.70
  -9   3 -10  102.44    4.94
  -9  -3 -10  105.20    4.79
   9  -3  10  106.61    5.05
   9   3  10   96.66    4.34
  -9  -3 -10  104.14    4.43
  -9   3 -12   47.69    3.51
  -9  -3 -12   48.94    3.34
   9  -3  12   53.88    3.74
   9   3  12   46.15    3.05
  -9  -3 -12   47.20    2.99
  -9  -3 -14    7.30    1.37
   9   3  14    6.84    1.41
  -9  -3 -16   -0.09    0.61
   9   4 -17    2.36    1.11
  -9  -4  15   12.59    1.67
   9   4 -15   10.21    1.64
   9   4 -15   13.27    1.84
  -9  -4  15   13.29    1.78
  -9  -4  13    6.66    1.31
   9   4 -13    8.76    1.45
   9  -4 -13    9.33    1.64
   9   4 -13    5.30    1.22
  -9   4  13    8.87    1.59
  -9  -4  11    9.78    1.51
   9   4 -11    8.68    1.31
   9  -4 -11   10.11    1.61
   9   4 -11    9.55    1.59
  -9   4  11   11.57    1.72
   9  -4  -9  300.65    8.52
   9   4  -9  289.45    7.09
  -9  -4   9  276.90    7.83
   9   4  -9  278.78    8.05
  -9   4   9  281.80    8.23
  -9  -4   7    0.67    0.60
   9   4  -7    0.11    0.40
   9  -4  -7    1.24    0.84
  -9   4   7    0.94    0.34
   9   4  -7   -0.09    0.63
  -9   4   7    0.37    0.67
   9   4  -5  174.95    4.35
   9  -4  -5  172.51    5.98
  -9  -4   5  174.53    6.00
  -9   4   5  174.12    4.41
   9   4  -5  175.28    6.00
   9  -4  -5  180.88    3.72
  -9   4   5  161.82    5.79
  -9  -4   3    2.66    0.89
   9   4  -3    1.58    0.39
   9  -4  -3    1.93    0.78
  -9   4   3    1.37    0.55
   9  -4  -3    1.60    0.47
   9   4  -3    0.96    0.65
  -9   4   3    1.57    0.72
   9  -4  -1  341.17    8.52
  -9  -4   1  333.55    7.37
  -9   4   1  347.16    7.58
   9  -4  -1  356.81    7.24
   9   4  -1  339.89    8.69
  -9  -4   1  350.06    8.82
  -9  -4  -1    0.39    0.80
  -9   4  -1    0.91    0.53
   9  -4   1   -0.38    0.55
  -9  -4  -1    0.92    0.55
   9   4   1    0.47    0.61
   9  -4   1    0.64    0.53
  -9   4  -3   25.24    2.09
   9  -4   3   25.92    2.05
   9  -4   3   25.88    1.53
   9   4   3   28.36    2.37
  -9  -4  -3   25.49    2.26
  -9  -4  -5    2.16    0.75
  -9   4  -5    4.81    1.12
   9   4   5    4.15    1.09
   9  -4   5    3.75    0.98
  -9   4  -7   53.71    3.43
   9  -4   7   58.33    3.52
   9   4   7   54.63    3.37
  -9  -4  -7   60.63    3.51
  -9   4  -9   48.31    3.44
   9  -4   9   54.25    3.61
   9   4   9   50.19    3.31
  -9  -4  -9   49.79    3.23
  -9  -4 -11    0.89    0.72
  -9   4 -11   -1.28    0.90
  -9  -4 -11    0.35    0.76
   9  -4  11   -0.06    0.70
  -9  -4 -13   19.26    2.11
  -9  -4 -13   21.56    2.32
   9   4  13   19.15    2.17
  -9  -4 -15    6.02    1.37
   9   4  15    4.74    1.32
  -9  -5  16   21.96    2.46
  -9  -5  14   -0.26    0.78
   9   5 -14   -0.54    0.79
   9   5 -14    0.15    0.63
  -9  -5  12    1.86    0.87
   9   5 -12    0.21    0.72
   9  -5 -12   -0.21    0.76
   9   5 -12   -0.02    0.75
  -9   5  12    1.25    0.85
  -9  -5  10    0.42    0.92
   9   5 -10    0.35    0.53
   9  -5 -10   -0.03    0.72
   9   5 -10   -0.63    0.67
  -9   5  10    0.39    0.75
   9   5  -8  192.54    5.48
   9  -5  -8  190.60    6.90
  -9  -5   8  170.65    6.31
   9   5  -8  175.83    6.52
  -9   5   8  188.46    6.81
  -9  -5   6    7.97    1.42
   9   5  -6   11.47    1.16
   9  -5  -6   11.91    1.67
   9   5  -6   10.09    1.62
  -9   5   6    7.44    1.44
  -9  -5   4   -0.16    0.68
   9   5  -4    0.02    0.34
  -9   5   4    0.01    0.36
   9  -5  -4    0.58    0.69
   9   5  -4    0.14    0.75
  -9   5   4   -1.12    0.65
   9  -5  -4   -0.04    0.39
  -9  -5   2    3.78    1.11
  -9   5   2    3.65    0.77
   9  -5  -2    3.20    1.04
   9   5  -2    2.89    0.96
   9  -5  -2    4.66    0.81
  -9  -5   0   18.08    2.09
  -9   5   0   17.01    1.63
   9  -5   0   19.28    2.07
   9  -5   0   20.39    1.76
   9   5   0   19.79    2.11
   9  -5   0   16.41    1.51
  -9  -5  -2   13.98    1.87
  -9   5  -2   11.80    1.49
   9   5   2   17.44    1.99
   9  -5   2   13.12    1.54
  -9   5  -4   59.10    3.42
   9  -5   4   61.37    3.45
   9   5   4   56.85    3.59
  -9  -5  -4   57.65    3.64
  -9   5  -6   48.77    3.28
   9  -5   6   48.32    3.29
   9   5   6   46.18    3.32
  -9  -5  -6   45.63    3.32
  -9  -5  -8    1.01    0.83
  -9   5  -8    1.05    0.91
   9   5   8    2.72    1.14
   9  -5   8    3.02    1.01
  -9   5 -10   61.31    4.10
   9  -5  10   65.11    4.17
   9   5  10   69.01    4.19
  -9  -5 -10   58.94    3.84
  -9  -5 -12   24.08    2.49
   9   5  12   24.29    2.56
  -9  -5 -12   21.61    2.30
  -9  -6  13   28.36    2.70
  -9  -6  11   55.48    3.73
   9   6 -11   60.34    3.99
  -9  -6   9   48.56    3.46
   9   6  -9   52.08    3.62
  -9   6   9   45.53    3.50
  -9  -6   7   10.79    1.70
   9  -6  -7   12.72    1.89
   9   6  -7    7.50    1.47
  -9   6   7   10.48    1.65
   9  -6  -5  216.31    7.56
   9   6  -5  210.54    7.39
  -9  -6   5  217.70    7.56
  -9   6   5  206.64    7.37
   9  -6  -3  131.66    5.82
   9   6  -3  130.81    5.76
  -9  -6   3  136.38    5.92
  -9   6   3  133.09    5.79
   9  -6  -1   72.57    4.56
  -9   6   1   67.70    3.20
   9  -6  -1   70.01    3.29
   9   6  -1   69.46    4.20
  -9  -6   1   60.88    4.30
  -9  -6  -1    4.35    1.18
  -9   6  -1    3.11    0.91
   9   6   1    3.28    0.92
   9  -6   1    3.96    0.99
  -9  -6  -3   -0.61    0.76
  -9   6  -3    1.14    0.83
   9   6   3    1.31    0.94
   9  -6   3    1.02    0.76
  -9  -6  -5    0.09    0.87
  -9   6  -5    0.55    0.76
   9   6   5   -0.14    0.77
   9  -6   5   -0.25    0.73
  -9   6  -7   34.96    2.98
   9  -6   7   32.15    2.88
   9   6   7   36.76    3.16
  -9  -6  -7   41.18    3.33
   9  -7   0   53.99    3.23
  -9   7  -2   14.88    1.82
   9  -7   2   16.33    1.97
  -9   7  -4   55.21    3.58
   9  -7   4   50.69    3.53
  -9   7  -6    0.51    0.72
   9  -7   6   -0.36    0.98
  10   0 -16    1.93    0.95
 -10   0  16    2.42    0.84
  10   0 -14    0.51    0.76
 -10   0  14   -0.68    0.74
  10   0 -12    5.45    1.13
 -10   0  12    5.64    1.13
  10   0 -10  124.14    4.74
 -10   0  10  134.18    3.36
 -10   0  10  122.44    4.58
  10   0  -8  230.53    6.27
 -10   0   8  239.41    6.30
 -10   0   8  239.40    5.03
 -10   0   8  236.93    6.24
  10   0  -6  593.68   10.65
 -10   0   6  595.99    9.66
 -10   0   6  604.82   10.71
  10   0  -4   61.77    2.66
 -10   0   4   61.87    2.67
 -10   0   4   62.86    3.29
 -10   0   4   63.81    2.62
 -10   0   4   62.66    2.79
  10   0  -2  382.87    7.15
 -10   0   2  374.26    7.11
 -10   0   2  384.68    8.64
 -10   0   2  373.07    7.60
 -10   0   2  359.28    7.48
 -10   0   0   41.11    1.91
 -10   0   0   44.91    2.67
  10   0   0   40.22    1.88
 -10   0   0   39.43    2.29
 -10   0  -2 1045.21   16.48
 -10   0  -2 1025.40   14.11
  10   0   2 1035.79   15.66
  10   0   2 1061.45   14.58
 -10   0  -4   21.60    1.81
 -10   0  -4   19.63    1.26
  10   0   4   18.62    1.50
  10   0   4   21.44    1.63
 -10   0  -6   20.85    1.35
 -10   0  -6   22.52    1.84
  10   0   6   26.55    1.94
 -10   0  -6   20.71    2.07
  10   0   6   21.55    2.03
  10   0   6   19.88    1.55
  10   0   6   22.33    1.81
 -10   0  -8  252.15    5.53
 -10   0  -8  267.96    6.59
  10   0   8  257.24    6.99
 -10   0  -8  262.84    7.73
  10   0   8  268.43    6.04
  10   0   8  276.33    7.92
  10   0   8  252.70    6.43
 -10   0 -10   62.02    2.93
  10   0  10   57.63    3.37
 -10   0 -10   61.54    3.74
  10   0  10   60.97    2.62
  10   0  10   59.41    3.74
  10   0  12  157.36    6.07
 -10   0 -12  161.13    6.43
  10   0  12  159.33    6.54
  10   0  14    2.40    0.92
 -10   0 -14    5.62    1.43
  10   1 -17    6.10    1.41
 -10  -1  17    4.45    1.16
 -10   1  17    5.51    1.34
  10  -1 -15   17.03    2.17
  10   1 -15   13.63    1.88
 -10  -1  15   16.25    1.89
 -10   1  15   14.54    1.89
  10  -1 -13    1.58    0.88
  10   1 -13    1.00    0.64
 -10  -1  13    0.78    0.64
 -10  -1  13    0.86    0.44
 -10   1  13    2.79    1.02
 -10   1  11  135.99    4.38
  10   1 -11  135.77    5.01
  10  -1 -11  137.84    5.27
 -10  -1  11  126.68    4.62
 -10   1  11  133.06    5.08
  10   1  -9  196.69    5.73
 -10  -1   9  193.26    6.25
  10  -1  -9  196.59    6.10
 -10   1   9  185.67    5.27
 -10   1   9  201.13    3.43
 -10  -1   9  187.97    5.40
 -10   1   9  193.87    5.99
  10  -1  -7   54.52    2.91
 -10  -1   7   53.04    3.11
  10   1  -7   53.66    2.64
 -10   1   7   56.52    1.94
 -10  -1   7   50.72    2.45
 -10  -1   7   51.75    2.51
 -10   1   7   57.72    3.01
  10   1  -5    9.22    1.00
 -10  -1   5    9.90    1.40
 -10   1   5    7.07    0.98
  10  -1  -5    8.30    1.12
 -10  -1   5    7.55    1.01
 -10  -1   5    8.69    0.99
 -10   1   5   11.02    1.31
 -10   1   5    9.05    0.89
 -10   1   3    3.74    0.74
 -10  -1   3    3.79    0.87
  10   1  -3    4.12    0.67
  10  -1  -3    4.68    0.82
 -10  -1   3    2.13    0.68
 -10  -1   3    2.98    0.60
 -10   1   3    2.56    0.62
 -10   1   3    3.21    0.65
 -10  -1   1    0.34    0.58
 -10   1   1    0.92    0.53
  10   1  -1    0.07    0.26
  10  -1  -1   -0.15    0.39
  10  -1  -1    0.08    0.19
 -10  -1   1    0.09    0.45
  10   1  -1    0.89    0.66
 -10  -1   1   -0.33    0.40
 -10   1   1   -0.12    0.35
 -10   1  -1    0.54    0.43
 -10  -1  -1    0.31    0.65
 -10  -1  -1    0.76    0.30
  10  -1   1    0.58    0.33
  10  -1   1    0.64    0.36
  10   1   1    0.81    0.30
  10  -1   1    0.27    0.50
  10   1   1    0.55    0.55
 -10   1  -1    0.37    0.49
 -10   1  -3  259.89    5.89
 -10  -1  -3  270.88    4.36
 -10  -1  -3  257.23    6.80
  10  -1   3  265.14    5.90
 -10   1  -3  260.13    7.14
  10  -1   3  256.46    5.93
  10  -1   3  257.50    6.80
  10   1   3  271.52    6.61
  10  -1   3  264.21    6.69
 -10   1  -5  275.64    6.21
 -10  -1  -5  276.09    7.09
 -10  -1  -5  292.16    4.56
  10   1   5  282.08    6.72
 -10   1  -5  296.70    7.82
  10  -1   5  279.34    7.47
  10   1   5  280.37    6.81
  10  -1   5  286.77    6.04
  10  -1   5  276.90    6.81
  10  -1   7   11.21    1.25
 -10  -1  -7   11.49    0.78
 -10  -1  -7   11.36    1.39
  10  -1   7   12.82    1.47
  10   1   7   10.18    1.31
 -10   1  -7   12.67    1.26
 -10  -1  -7   12.65    1.73
 -10   1  -7   11.88    1.60
  10   1   7   13.01    1.36
  10  -1   7   13.38    1.64
  10  -1   7   12.59    1.10
 -10   1  -9   32.40    2.14
 -10  -1  -9   37.92    2.42
  10  -1   9   39.27    2.68
 -10  -1  -9   38.24    2.93
 -10   1  -9   40.05    3.01
  10   1   9   40.71    2.72
  10  -1   9   39.44    1.81
  10   1   9   37.73    2.30
  10  -1   9   38.52    2.95
  10  -1   9   38.43    2.21
 -10  -1 -11    4.97    0.99
  10  -1  11    3.05    0.91
 -10  -1 -11    3.47    1.03
 -10   1 -11    2.41    0.95
  10   1  11    3.23    1.11
  10   1  11    2.84    0.77
  10  -1  11    2.66    1.01
  10   1  13    7.78    1.45
  10  -1  13    8.87    1.58
 -10  -1 -13    8.35    1.57
 -10   1 -13    7.91    1.56
  10  -1  13   10.78    1.79
 -10  -2  18   51.73    3.55
  10   2 -16    4.27    1.26
 -10  -2  16    2.82    1.02
 -10   2  16    7.03    1.53
  10   2 -14    0.02    0.74
  10  -2 -14    1.77    0.87
 -10  -2  14    0.39    0.53
 -10  -2  14    1.15    0.53
 -10   2  14    3.07    1.03
  10   2 -12   45.23    2.92
 -10  -2  12   51.84    3.28
  10  -2 -12   54.84    3.51
 -10   2  12   46.70    3.19
 -10  -2  12   46.55    2.74
 -10   2  10    0.12    0.39
  10   2 -10    0.00    0.40
 -10  -2  10    0.70    0.63
  10  -2 -10    0.29    0.80
 -10   2  10    0.58    0.67
 -10  -2  10    0.16    0.45
  10  -2  -8  208.75    6.39
  10   2  -8  208.10    5.61
 -10  -2   8  214.89    6.61
 -10  -2   8  206.29    5.20
 -10   2   8  198.91    6.27
  10  -2  -6  128.32    4.74
 -10  -2   6  134.08    5.11
  10   2  -6  138.61    4.06
 -10   2   6  145.42    3.13
 -10  -2   6  137.07    3.82
 -10   2   6  138.02    4.97
 -10  -2   4    0.23    0.55
  10   2  -4    0.92    0.35
  10  -2  -4    0.44    0.48
 -10  -2   4   -0.01    0.48
  10   2  -4    0.92    0.62
 -10   2   4    0.88    0.59
 -10   2   4    1.41    0.45
 -10  -2   4    0.53    0.35
 -10  -2   2    2.50    0.91
 -10   2   2    2.98    0.71
  10   2  -2    3.35    0.49
  10  -2  -2    3.44    0.78
  10   2  -2    3.20    0.85
 -10  -2   2    3.67    0.57
 -10   2   2    3.66    0.70
  10   2   0  164.48    2.68
 -10  -2   0  160.16    5.40
  10  -2   0  146.72    4.71
 -10   2   0  148.56    4.74
 -10   2   0  150.74    4.96
  10   2   0  157.59    5.20
  10  -2   0  158.69    4.67
 -10   2   0  154.34    4.59
 -10  -2   0  155.56    3.62
 -10  -2  -2    2.81    0.83
 -10   2  -2    0.47    0.41
  10  -2   2    1.05    0.56
 -10   2  -2    1.72    0.82
  10   2   2    0.59    0.52
  10  -2   2    0.79    0.59
 -10   2  -2    0.88    0.52
 -10   2  -4   63.05    3.00
  10  -2   4   63.00    3.07
 -10  -2  -4   60.35    3.24
 -10   2  -4   68.02    3.51
  10  -2   4   64.64    2.55
  10   2   4   62.71    3.20
  10  -2   4   68.21    3.38
 -10  -2  -6   33.71    2.43
 -10   2  -6   35.55    2.68
  10   2   6   33.02    2.32
  10  -2   6   33.98    1.65
  10  -2   6   35.45    2.61
  10  -2   6   33.00    2.16
 -10  -2  -6   35.36    1.92
 -10  -2  -8   29.27    2.27
 -10   2  -8   39.98    2.99
  10  -2   8   34.96    2.76
  10   2   8   32.66    2.36
  10  -2   8   37.13    1.46
  10  -2   8   35.43    2.13
 -10  -2  -8   37.30    2.18
 -10  -2 -10    1.96    0.82
  10   2  10    1.56    0.74
  10  -2  10    0.76    0.79
 -10  -2 -10    0.55    0.89
 -10   2 -10    1.02    0.82
 -10  -2 -12   12.00    1.48
 -10   2 -12   14.96    2.03
 -10  -2 -12   12.07    1.87
  10   2  12   15.69    1.68
  10  -2  12   14.02    2.00
 -10  -2 -14   51.55    3.69
  10   3 -15    7.68    1.49
 -10  -3  15    6.43    1.16
  10  -3 -13   14.51    1.98
 -10  -3  13   10.79    1.59
  10   3 -13    9.65    1.53
 -10   3  13   11.26    1.73
  10  -3 -11   28.18    2.58
  10   3 -11   18.91    1.84
 -10  -3  11   25.34    2.36
 -10   3  11   23.80    2.35
 -10  -3  11   28.48    1.96
 -10  -3   9    0.97    0.66
  10   3  -9    0.53    0.44
  10  -3  -9    0.18    0.67
 -10   3   9    0.12    0.34
  10   3  -9    1.25    0.89
 -10   3   9    2.76    1.01
 -10  -3   9    0.32    0.39
  10  -3  -7   42.09    2.88
  10   3  -7   38.50    2.17
 -10  -3   7   45.14    3.00
 -10   3   7   43.58    2.15
  10   3  -7   39.77    2.86
 -10   3   7   44.51    2.96
 -10  -3   7   42.96    1.90
 -10  -3   5   -0.20    0.56
  10   3  -5    0.69    0.38
 -10  -3   5    0.71    0.36
  10  -3  -5    0.81    0.66
 -10   3   5    0.03    0.38
  10   3  -5   -0.51    0.81
 -10   3   5    2.41    0.89
 -10  -3   5    0.38    0.30
 -10  -3   3   30.23    2.42
  10  -3  -3   28.14    2.23
  10   3  -3   27.41    1.33
 -10  -3   3   27.91    1.59
 -10   3   3   27.15    1.90
  10   3  -3   31.98    2.46
 -10   3   3   27.84    1.62
  10  -3  -3   28.76    1.67
 -10   3   3   27.51    2.25
 -10  -3   3   29.10    1.11
 -10  -3   1    0.34    0.68
  10  -3  -1    0.27    0.66
 -10   3   1    0.36    0.49
 -10  -3   1    1.52    0.53
  10  -3  -1    0.02    0.43
  10   3  -1   -0.13    0.60
 -10   3   1    0.60    0.44
 -10  -3   1    0.78    0.20
  10  -3   1   81.14    3.68
 -10  -3  -1   81.75    3.98
 -10  -3  -1   76.93    3.10
 -10   3  -1   78.35    3.59
  10  -3   1   75.29    3.32
 -10   3  -1   80.12    3.39
  10   3   1   77.69    3.79
 -10  -3  -1   84.58    1.81
 -10  -3  -1   82.46    1.79
 -10  -3  -3   80.46    3.95
 -10   3  -3   79.23    3.79
  10  -3   3   79.91    3.64
  10   3   3   77.93    3.82
 -10  -3  -3   80.97    2.09
 -10  -3  -5   96.00    4.36
  10  -3   5  103.71    2.94
  10  -3   5   96.49    4.26
  10   3   5   99.76    4.36
 -10   3  -5  104.50    4.59
 -10  -3  -7    8.60    1.39
  10  -3   7    5.08    1.19
  10   3   7    6.83    1.19
 -10   3  -7    6.76    1.38
 -10  -3  -9  157.02    5.72
  10  -3   9  164.77    6.36
  10   3   9  152.84    5.72
 -10   3  -9  164.30    6.42
 -10  -3 -11   10.11    1.52
  10   3  11   10.42    1.55
  10  -3  11    9.80    1.68
 -10   3 -11   12.48    1.81
 -10  -3 -11   10.86    1.72
 -10  -3 -13    2.78    1.03
  10   3  13    2.37    0.92
 -10  -3 -13    2.32    0.96
  10   4 -16   31.20    2.91
 -10  -4  14   21.11    2.27
  10   4 -14   19.36    2.17
  10   4 -14   22.04    2.42
 -10  -4  12    4.57    1.20
  10   4 -12    4.13    1.04
  10  -4 -12    4.93    1.28
  10   4 -12    5.55    1.32
 -10   4  12    5.80    1.28
  10  -4 -10   48.01    3.48
  10   4 -10   48.68    2.83
 -10  -4  10   48.77    3.30
  10   4 -10   49.51    3.44
 -10   4  10   49.35    3.44
 -10  -4   8   16.79    1.98
  10   4  -8   19.99    1.92
  10  -4  -8   21.60    2.24
  10   4  -8   14.93    1.92
 -10   4   8   16.66    1.98
 -10  -4   6    4.76    1.19
  10   4  -6    5.53    0.75
  10  -4  -6    4.35    1.11
 -10   4   6    6.05    0.79
  10   4  -6    5.34    1.26
 -10   4   6    5.39    1.20
 -10  -4   4    0.43    0.84
  10   4  -4    0.75    0.37
  10  -4  -4    0.08    0.74
 -10  -4   4    0.04    0.43
 -10   4   4    1.15    0.53
  10   4  -4    0.06    0.70
  10  -4  -4    1.17    0.51
 -10   4   4    0.19    0.67
 -10  -4   2  518.27   11.59
  10  -4  -2  523.97   11.31
  10  -4  -2  537.06    9.39
  10   4  -2  521.74   11.54
 -10  -4   2  505.88    9.50
 -10   4   2  518.19   10.02
 -10  -4   0    3.28    1.07
 -10  -4   0    2.14    0.75
  10  -4   0    2.55    0.93
 -10   4   0    2.61    0.73
  10  -4   0    3.30    0.74
  10   4   0    2.20    0.89
 -10   4  -2   73.58    3.63
  10  -4   2   70.87    3.43
  10   4   2   76.87    4.04
 -10  -4  -2   72.66    3.95
 -10  -4  -4    2.09    0.92
 -10   4  -4    0.90    0.61
  10   4   4    0.91    0.65
  10  -4   4    0.56    0.53
 -10  -4  -6   -0.23    0.74
 -10   4  -6    0.28    0.70
  10   4   6   -0.44    0.71
  10  -4   6    0.10    0.63
 -10  -4  -8   14.53    1.87
 -10   4  -8   15.02    2.03
  10   4   8   13.70    1.88
  10  -4   8   12.76    1.77
 -10   4 -10   59.04    3.97
  10  -4  10   51.34    3.65
  10   4  10   47.21    3.35
 -10  -4 -10   55.74    3.57
 -10  -4 -12    2.13    0.95
  10   4  12    0.95    0.86
 -10  -4 -12    1.33    0.79
  10   4  14    1.77    1.20
  10   5 -13   34.20    2.75
 -10  -5  13   32.80    2.83
  10   5 -11   50.10    3.09
 -10  -5  11   48.31    3.46
  10   5 -11   50.92    3.60
  10  -5  -9  107.88    5.35
  10   5  -9  117.18    4.35
 -10  -5   9  107.66    5.15
  10   5  -9  115.84    5.42
 -10   5   9  112.47    5.41
  10  -5  -7   42.50    3.29
 -10  -5   7   35.05    2.95
  10   5  -7   39.01    3.10
 -10   5   7   40.70    3.15
 -10  -5   5   21.19    2.32
  10  -5  -5   21.24    2.30
  10   5  -5   21.84    2.38
 -10   5   5   21.48    2.28
 -10  -5   3    0.52    0.86
 -10   5   3   -0.03    0.43
  10  -5  -3    0.21    0.64
  10   5  -3   -0.48    0.84
  10  -5  -3    0.18    0.45
 -10   5   3   -0.53    0.84
 -10  -5   1    0.36    0.78
 -10   5   1    0.15    0.44
  10  -5  -1   -0.73    0.81
  10   5  -1    0.86    0.88
  10  -5  -1   -0.42    0.43
  10  -5   1   88.77    4.55
 -10   5  -1   92.74    4.11
  10  -5   1   85.96    3.81
  10   5   1   90.53    4.65
 -10  -5  -1   88.94    4.65
 -10  -5  -3    1.96    1.01
 -10   5  -3    1.25    0.74
  10   5   3    2.03    0.93
  10  -5   3    2.82    0.96
 -10  -5  -5   11.34    1.75
 -10   5  -5    8.28    1.47
  10   5   5    8.28    1.52
  10  -5   5   11.68    1.71
 -10  -5  -7    6.18    1.38
 -10   5  -7    9.41    1.64
  10   5   7    5.87    1.34
  10  -5   7    5.30    1.26
 -10  -5  -9   11.08    1.78
 -10   5  -9   12.24    1.93
  10   5   9    7.00    1.46
  10  -5   9   12.76    1.94
 -10  -5 -11  107.10    5.31
 -10  -6  12   13.16    1.99
 -10  -6  10    1.45    0.71
 -10  -6   8   27.95    2.76
  10   6  -8   24.68    2.63
 -10  -6   6    4.00    1.20
  10  -6  -6    5.48    1.46
  10   6  -6    7.95    1.58
 -10   6   6    3.58    1.12
  10  -6  -4  216.98    7.82
  10   6  -4  227.80    7.93
 -10   6   4  234.58    8.05
 -10  -6   4  222.96    7.93
 -10  -6   2   16.31    2.10
  10  -6  -2   13.91    1.96
  10   6  -2   14.88    2.04
 -10   6   2   15.35    2.06
 -10  -6   0    1.28    0.75
 -10   6   0    1.42    0.61
  10  -6   0    0.89    0.78
  10   6   0    3.00    1.10
  10  -6   0    1.72    0.75
 -10  -6  -2    7.27    1.46
 -10   6  -2    8.81    1.46
  10   6   2    7.49    1.52
  10  -6   2    7.79    1.39
 -10   6  -4   87.71    4.49
  10  -6   4   85.72    4.44
  10   6   4   93.27    5.09
 -10  -6  -4   90.27    4.98
 -10   6  -6    0.62    0.77
  10  -6   6   -1.59    0.83
 -10   7  -3   16.75    2.08
  10  -7   3   20.08    2.24
 -10   7  -5   -0.59    0.77
  10  -7   5   -1.62    1.15
 -11   0  17   -0.30    0.83
  11   0 -15   -0.44    0.75
 -11   0  15    0.60    0.78
  11   0 -13   -0.75    1.28
 -11   0  13    0.06    0.66
  11   0 -11   -0.01    0.56
 -11   0  11   -0.22    0.54
  11   0  -9    1.00    0.63
 -11   0   9   -0.26    0.60
  11   0  -7    0.83    0.50
 -11   0   7    0.39    0.46
 -11   0   7    0.33    0.53
 -11   0   5   -0.12    0.37
 -11   0   5    0.25    0.64
  11   0  -5    0.84    0.60
 -11   0   5   -0.50    0.46
 -11   0   5   -0.42    0.49
  11   0  -3    0.15    0.39
 -11   0   3   -0.44    0.77
 -11   0   3    0.37    0.40
 -11   0   3    0.67    0.49
 -11   0   3   -0.72    0.49
  11   0  -1   -0.25    0.36
 -11   0   1   -0.02    0.64
 -11   0   1   -0.14    0.37
 -11   0   1   -0.22    0.44
 -11   0   1   -0.23    0.47
 -11   0  -1    0.10    0.33
 -11   0  -1   -0.03    0.54
  11   0   1   -0.26    0.56
  11   0   1    0.15    0.33
 -11   0  -3    0.10    0.51
 -11   0  -3   -0.09    0.33
  11   0   3   -0.30    0.51
  11   0   3    0.04    0.36
 -11   0  -5    0.17    0.30
 -11   0  -5   -0.69    0.59
  11   0   5    0.36    0.54
 -11   0  -5    0.55    0.74
  11   0   5    0.19    0.44
 -11   0  -7    0.23    0.57
  11   0   7    0.53    0.66
  11   0   7   -0.19    0.42
  11   0   7   -0.47    0.62
 -11   0  -7    0.47    0.68
 -11   0  -9    0.59    0.56
  11   0   9    1.08    0.97
  11   0   9   -0.03    0.35
  11   0   9   -0.04    0.56
 -11   0  -9    0.93    0.93
 -11   0 -11   -0.25    0.52
  11   0  11    0.25    0.73
 -11   0 -11   -0.01    0.70
  11   0  11   -0.32    0.79
  11   0  13    0.50    0.63
  11   1 -16   13.10    1.87
 -11  -1  16   11.91    1.69
 -11   1  16   10.92    1.76
  11   1 -14    0.87    0.86
  11  -1 -14    0.68    0.79
 -11  -1  14    1.93    0.81
 -11   1  14    0.52    0.62
  11   1 -12   10.61    1.57
  11  -1 -12    8.98    1.52
 -11  -1  12   11.92    1.51
 -11   1  12    8.49    1.38
  11   1 -10   24.15    2.05
  11  -1 -10   20.11    2.02
 -11  -1  10   26.87    2.06
 -11   1  10   23.36    2.12
  11  -1  -8  186.64    5.90
 -11  -1   8  179.18    6.26
  11   1  -8  180.57    5.43
 -11  -1   8  185.12    5.06
 -11  -1   8  177.28    5.20
 -11   1   8  183.49    5.85
  11  -1  -6   32.18    2.28
 -11  -1   6   30.75    2.49
  11   1  -6   30.68    1.97
 -11   1   6   34.53    1.74
 -11  -1   6   33.03    2.08
 -11  -1   6   31.12    1.98
 -11   1   6   27.23    2.10
  11   1  -4  195.70    4.88
  11  -1  -4  189.76    5.46
 -11   1   4  188.22    5.42
 -11  -1   4  194.07    6.28
 -11   1   4  191.28    4.83
 -11  -1   4  187.99    5.41
 -11  -1   4  194.11    4.99
 -11   1   4  190.00    5.68
  11   1  -2   76.53    2.64
  11  -1  -2   70.60    3.08
 -11   1   2   74.25    3.14
 -11  -1   2   73.67    3.74
  11  -1  -2   82.65    1.96
  11   1  -2   75.64    3.62
 -11   1   2   78.84    3.18
 -11  -1   2   80.00    3.00
 -11   1   2   76.83    3.46
 -11  -1   0   68.66    3.57
 -11   1   0   71.29    2.98
  11  -1   0   74.13    3.07
  11   1   0   74.53    2.35
  11  -1   0   69.95    2.35
  11   1   0   67.97    3.37
 -11   1   0   71.28    3.20
 -11  -1   0   72.63    2.85
 -11  -1  -2   19.38    1.02
 -11  -1  -2   19.89    1.89
 -11   1  -2   18.50    1.52
  11  -1   2   20.34    1.66
  11   1   2   15.97    1.65
  11  -1   2   18.50    1.37
 -11   1  -2   17.50    1.83
 -11   1  -4  119.06    3.94
 -11  -1  -4  133.90    2.71
 -11  -1  -4  132.61    4.93
  11  -1   4  126.50    4.07
  11  -1   4  127.42    4.92
  11   1   4  117.92    4.40
  11  -1   4  125.46    4.13
 -11   1  -4  127.18    5.15
 -11   1  -6  199.28    5.33
 -11  -1  -6  211.07    6.31
  11  -1   6  197.78    6.59
  11   1   6  198.01    5.81
  11  -1   6  215.96    5.26
  11  -1   6  204.86    5.88
 -11   1  -6  208.17    6.86
 -11  -1  -8   34.03    2.44
  11   1   8   33.71    2.27
  11  -1   8   37.11    1.93
  11  -1   8   37.43    2.95
  11   1   8   35.09    2.56
  11  -1   8   31.78    2.39
 -11  -1  -8   30.23    2.77
 -11   1  -8   31.61    2.75
 -11  -1 -10    5.74    1.02
  11  -1  10    5.32    1.22
  11   1  10    6.49    1.26
 -11  -1 -10    5.92    1.31
 -11   1 -10    9.11    1.63
  11   1  10    7.80    1.21
  11  -1  10    7.09    1.44
  11   1  12    8.88    1.52
  11  -1  12    7.49    1.45
 -11  -1 -12   10.10    1.69
 -11   1 -12    7.22    1.52
  11  -1  12   11.27    1.98
 -11  -2  17    0.36    0.64
  11   2 -15   -0.20    0.68
 -11  -2  15    0.32    0.64
 -11   2  15   -0.25    0.80
  11   2 -13    6.43    1.28
  11  -2 -13    3.95    1.08
 -11  -2  13    5.98    1.15
 -11   2  13    5.50    1.32
  11  -2 -11   15.53    1.90
  11   2 -11   16.83    1.78
 -11  -2  11   15.69    1.95
 -11  -2  11   16.59    1.62
 -11   2  11   15.33    1.83
  11  -2  -9  237.55    7.22
 -11  -2   9  246.39    7.51
  11   2  -9  245.79    6.47
 -11  -2   9  226.50    5.86
 -11   2   9  228.79    7.09
  11  -2  -7   49.11    3.03
 -11  -2   7   51.66    3.27
  11   2  -7   46.86    2.46
 -11  -2   7   52.81    2.44
 -11   2   7   48.95    3.06
  11  -2  -5  242.63    6.80
 -11  -2   5  245.51    7.36
  11   2  -5  247.77    5.60
 -11   2   5  247.94    5.10
  11   2  -5  248.40    7.32
 -11  -2   5  251.53    5.44
 -11   2   5  231.01    6.84
 -11  -2   3    0.54    0.73
  11   2  -3    1.00    0.37
  11  -2  -3    0.55    0.53
  11   2  -3    0.12    0.66
 -11  -2   3    0.44    0.37
 -11   2   3   -0.45    0.66
 -11   2   3    1.67    0.54
 -11  -2   1  744.23   14.06
  11   2  -1  773.58    9.81
  11  -2  -1  733.10   12.90
 -11   2   1  712.70   13.14
  11   2  -1  699.75   13.52
 -11   2   1  715.68   12.17
 -11  -2   1  750.96   10.86
  11  -2   1   61.86    3.05
 -11  -2  -1   67.64    3.61
 -11   2  -1   69.34    3.51
  11  -2   1   64.25    3.16
  11   2   1   65.45    3.48
 -11  -2  -1   67.67    2.43
 -11  -2  -3  153.70    5.53
  11  -2   3  148.07    4.35
  11  -2   3  144.05    5.11
  11   2   3  144.44    5.16
 -11   2  -3  153.58    5.55
 -11  -2  -5   17.27    1.87
  11  -2   5   20.35    1.44
  11   2   5   16.99    1.78
  11  -2   5   19.19    1.99
 -11   2  -5   18.66    1.99
 -11  -2  -7   14.77    1.71
  11  -2   7   16.57    1.99
  11   2   7   16.62    1.76
 -11   2  -7   14.40    1.92
 -11  -2  -9   61.48    3.43
  11   2   9   60.19    3.33
  11  -2   9   61.15    3.92
 -11  -2  -9   57.11    3.82
 -11   2  -9   66.99    4.17
 -11  -2 -11   38.64    2.71
  11   2  11   32.85    2.50
  11  -2  11   36.63    3.16
 -11  -2 -11   28.94    2.82
 -11   2 -11   37.59    3.20
  11  -2  13    1.05    0.83
  11   3 -16    1.11    0.92
 -11  -3  14   16.37    2.04
  11   3 -14   20.60    2.24
  11  -3 -12   57.13    3.81
  11   3 -12   52.61    3.24
 -11  -3  12   54.06    3.60
 -11   3  12   55.23    3.72
 -11  -3  12   61.96    3.04
  11  -3 -10   64.55    3.92
  11   3 -10   66.80    3.33
 -11  -3  10   62.02    3.79
  11   3 -10   65.38    4.02
 -11   3  10   63.34    3.86
 -11  -3  10   60.71    2.75
 -11  -3   8   -0.46    0.80
  11   3  -8    0.07    0.36
  11  -3  -8    0.81    0.67
 -11   3   8    0.02    0.32
  11   3  -8    0.20    0.69
 -11   3   8    0.30    0.73
 -11  -3   8    0.19    0.36
  11  -3  -6  394.11    9.68
 -11  -3   6  407.96   10.14
  11   3  -6  412.75    7.76
 -11   3   6  403.28    8.26
  11   3  -6  404.66   10.10
 -11   3   6  384.84    9.69
 -11  -3   6  414.62    6.92
 -11  -3   4    0.57    0.73
  11   3  -4    0.37    0.28
  11  -3  -4    1.39    0.70
 -11   3   4   -0.07    0.49
 -11  -3   4    0.35    0.30
  11   3  -4    0.58    0.78
 -11   3   4   -0.07    0.62
 -11  -3   4    0.68    0.28
  11   3  -2   50.38    1.42
 -11  -3   2   50.79    3.26
  11  -3  -2   43.31    2.81
 -11  -3   2   47.27    2.18
 -11   3   2   50.07    2.82
  11   3  -2   50.90    3.21
 -11   3   2   47.42    2.39
  11  -3  -2   48.53    2.43
 -11  -3   2   51.58    1.52
 -11   3   2   49.41    3.15
 -11  -3   0    8.63    1.45
  11  -3   0    6.88    1.17
 -11   3   0    8.41    1.24
  11   3   0    9.28    1.46
  11  -3   0    4.35    0.88
 -11  -3   0    7.37    0.53
 -11   3   0    7.96    1.09
 -11  -3  -2   11.65    1.65
 -11   3  -2    9.25    1.43
  11  -3   2    9.22    1.32
  11   3   2    8.91    1.47
 -11  -3  -2    9.33    0.68
 -11  -3  -4    0.78    0.74
  11   3   4    0.25    0.62
  11  -3   4    0.44    0.54
  11  -3   4    0.57    0.38
 -11   3  -4    0.90    0.77
 -11  -3  -6   76.62    4.03
  11  -3   6   69.87    3.93
  11   3   6   67.41    3.72
 -11   3  -6   73.09    4.10
 -11  -3  -8  238.89    7.47
  11  -3   8  226.47    7.66
  11   3   8  232.69    7.25
 -11   3  -8  246.06    8.06
 -11  -3 -10   32.25    2.64
  11  -3  10   33.50    3.02
  11   3  10   24.37    2.32
 -11   3 -10   34.93    3.09
 -11  -3 -10   28.48    2.76
 -11  -3 -12    5.67    1.34
  11   3  12    4.73    1.14
 -11  -3 -12    4.53    1.30
 -11  -4  15   27.51    2.71
  11   4 -15   26.41    2.57
 -11  -4  13    0.26    0.68
  11   4 -13    0.68    0.70
  11  -4 -11   46.93    3.52
  11   4 -11   55.21    3.16
 -11  -4  11   46.64    3.41
  11   4 -11   51.73    3.66
 -11   4  11   51.17    3.70
  11  -4  -9   24.98    2.55
  11   4  -9   24.96    1.95
 -11  -4   9   24.41    2.50
  11   4  -9   24.87    2.54
 -11   4   9   23.93    2.49
  11   4  -7    7.58    0.98
 -11  -4   7    8.04    1.57
  11  -4  -7    9.58    1.56
  11   4  -7    8.15    1.51
 -11   4   7    9.64    1.62
  11  -4  -5   63.20    3.79
 -11  -4   5   62.26    3.83
 -11   4   5   70.23    3.06
  11   4  -5   65.15    3.94
 -11   4   5   75.63    4.18
 -11  -4   3   19.46    2.18
  11  -4  -3   15.91    1.85
 -11   4   3   19.39    1.71
  11   4  -3   21.38    2.30
  11  -4  -3   19.02    1.44
 -11   4   3   17.39    2.07
 -11  -4   1   29.01    2.75
  11  -4  -1   26.85    2.38
  11   4  -1   28.17    2.57
  11  -4  -1   30.97    2.05
 -11   4   1   29.41    2.22
 -11  -4  -1   13.17    1.89
  11  -4   1   15.54    1.64
  11   4   1   15.55    1.90
  11  -4   1   16.65    1.93
 -11   4  -1   14.88    1.70
 -11  -4  -3    1.12    0.85
 -11   4  -3    1.07    0.74
  11   4   3    2.57    0.97
  11  -4   3    2.02    0.87
 -11   4  -5  173.24    6.47
  11  -4   5  170.48    6.17
  11   4   5  166.16    6.33
 -11  -4  -5  172.84    6.51
 -11  -4  -7   -0.27    0.82
  11   4   7    2.11    0.92
  11  -4   7    1.54    0.82
 -11   4  -7   -0.42    0.68
 -11  -4  -9   -0.03    0.73
  11   4   9   -0.37    0.63
  11  -4   9    0.70    0.76
 -11   4  -9   -0.74    0.77
 -11  -4 -11   37.77    3.06
  11   4  11   40.73    3.16
 -11  -4 -11   34.35    3.09
 -11  -5  12    3.74    1.05
 -11  -5  10   69.73    4.28
  11  -5  -8   83.14    4.78
 -11  -5   8   75.87    4.45
  11   5  -8   83.62    4.76
 -11   5   8   81.49    4.66
 -11  -5   6    2.21    0.97
  11  -5  -6    1.09    1.51
  11   5  -6    4.25    1.22
 -11   5   6    1.05    0.59
 -11  -5   4   52.22    3.65
  11  -5  -4   46.25    3.41
  11   5  -4   49.74    3.60
 -11   5   4   52.76    3.66
 -11  -5   2    3.64    1.20
 -11   5   2    2.99    0.84
  11  -5  -2    0.22    0.75
  11   5  -2    3.45    1.15
  11  -5  -2    2.21    0.62
 -11   5   2    2.26    1.06
  11  -5   0   27.00    2.61
 -11   5   0   26.45    2.23
  11  -5   0   28.76    2.18
  11   5   0   29.83    2.78
 -11  -5   0   30.28    2.83
 -11  -5  -2   -0.82    0.97
 -11   5  -2   -0.12    0.62
  11   5   2    0.76    0.98
  11  -5   2   -1.36    0.78
 -11  -5  -4    7.28    1.54
 -11   5  -4    9.61    1.58
  11   5   4    7.40    1.52
  11  -5   4    9.88    1.61
 -11  -5  -6   -0.11    0.65
 -11   5  -6   -0.86    0.80
  11   5   6    0.75    0.83
  11  -5   6    0.98    0.85
 -11  -5  -8    2.39    1.02
  11  -5   8    2.88    1.09
 -11   6  -1   80.11    4.07
  11  -6   1   77.29    3.86
 -11   6  -3    1.21    0.77
  11  -6   3    0.06    0.79
 -11   6  -5   16.41    2.14
  11  -6   5   15.17    1.99
 -12   0  16    0.72    0.91
  12   0 -14   -1.15    0.84
 -12   0  14   -0.09    0.63
  12   0 -12    0.06    1.44
 -12   0  12    1.18    0.60
  12   0 -10   17.86    1.91
 -12   0  10   14.82    1.69
  12   0  -8  355.99    8.58
 -12   0   8  377.22    8.66
  12   0  -6    3.05    0.84
 -12   0   6    5.35    1.00
 -12   0   6    4.36    1.09
  12   0  -4   48.92    2.55
 -12   0   4   49.61    2.55
 -12   0   4   46.93    3.18
 -12   0   4   43.72    2.43
 -12   0   4   42.65    2.53
 -12   0   2   48.42    2.41
  12   0  -2   53.92    2.55
 -12   0   2   53.93    3.32
 -12   0   2   51.66    2.75
  12   0   0  940.57   13.76
 -12   0   0  911.75   13.57
 -12   0   0  952.01   16.59
  12   0   0  917.13   15.57
 -12   0  -2   21.50    1.44
 -12   0  -2   23.12    2.17
  12   0   2   22.50    1.90
 -12   0  -4   23.09    2.13
  12   0   4   22.91    1.88
  12   0   4   21.88    1.68
 -12   0  -6    5.17    1.10
  12   0   6    6.01    0.98
  12   0   6    3.97    0.89
 -12   0  -6    5.67    1.36
 -12   0  -8  196.19    6.23
  12   0   8  200.23    5.56
  12   0   8  195.05    6.30
 -12   0  -8  201.70    7.32
 -12   0 -10   10.56    1.66
  12   0  10    9.10    1.46
 -12   0 -10   11.23    1.47
  12   0  12    7.87    1.48
 -12  -1  17    1.03    0.90
  12   1 -15    2.74    0.93
 -12  -1  15    1.24    0.85
 -12   1  15    1.28    0.85
  12  -1 -13   11.36    1.77
  12   1 -13   12.39    1.74
 -12  -1  13   10.93    1.50
 -12   1  13   13.43    1.86
  12   1 -11   10.65    1.54
  12  -1 -11   11.29    1.71
 -12  -1  11   13.23    1.56
 -12   1  11   10.63    1.62
  12  -1  -9   14.16    1.72
 -12  -1   9   14.71    1.98
  12   1  -9   15.52    1.68
 -12   1   9   15.50    1.74
 -12  -1   9   16.42    1.63
 -12  -1   7    1.47    0.79
  12   1  -7    1.33    0.54
  12  -1  -7    2.27    0.78
 -12  -1   7    1.68    0.71
 -12   1   7    2.06    0.81
 -12  -1   7    1.10    0.55
  12   1  -5   34.07    2.06
  12  -1  -5   36.76    2.41
 -12  -1   5   34.93    2.76
 -12   1   5   34.16    1.95
 -12  -1   5   33.16    2.07
 -12   1   5   32.30    2.36
  12   1  -3  122.77    3.68
  12  -1  -3  118.67    4.30
 -12  -1   3  129.14    5.26
  12   1  -3  114.60    4.78
 -12   1   3  117.11    4.01
 -12  -1   3  119.70    3.94
 -12   1   3  110.45    4.41
 -12   1   1   13.70    1.35
 -12  -1   1   15.69    1.86
  12   1  -1   15.05    1.11
  12  -1  -1   16.16    1.13
  12  -1  -1   11.05    1.27
  12   1  -1   12.10    1.55
 -12  -1   1   11.82    1.19
  12  -1   1   21.19    1.68
 -12  -1  -1   23.15    2.20
 -12   1  -1   21.81    1.69
  12   1   1   20.58    1.95
  12  -1   1   18.93    1.73
  12  -1   1   23.03    1.46
 -12  -1  -3   25.22    2.22
 -12   1  -3   22.12    1.68
  12  -1   3   23.47    1.85
  12   1   3   24.55    2.08
  12  -1   3   27.32    1.81
 -12   1  -3   23.29    2.27
 -12  -1  -5    6.63    1.25
  12  -1   5    7.13    1.30
  12   1   5    5.21    0.96
  12  -1   5    4.82    0.85
 -12   1  -5    4.76    1.13
  12  -1   5    8.10    1.16
 -12  -1  -7   28.69    2.37
  12  -1   7   28.66    2.65
  12   1   7   27.62    2.17
  12  -1   7   28.44    1.86
  12  -1   7   29.57    2.30
 -12  -1  -7   28.46    2.68
 -12   1  -7   26.41    2.58
 -12  -1  -9   43.83    2.91
  12   1   9   47.91    2.83
  12  -1   9   47.28    3.54
  12  -1   9   46.45    3.09
 -12  -1  -9   42.06    3.33
 -12   1  -9   50.76    3.64
  12  -1  11   20.73    2.23
  12   1  11   26.48    2.54
 -12  -1 -11   22.35    2.06
  12   2 -14   29.76    2.65
 -12  -2  14   24.52    2.21
  12  -2 -12    2.14    0.98
 -12  -2  12    0.31    0.69
  12   2 -12    0.29    0.79
 -12  -2  12    0.85    0.74
 -12   2  12   -0.70    0.72
  12  -2 -10    5.89    1.23
 -12  -2  10    7.97    1.46
  12   2 -10    7.82    1.22
 -12   2  10    5.95    1.14
 -12  -2  10    7.35    1.14
  12  -2  -8   24.29    2.25
 -12  -2   8   27.08    2.57
  12   2  -8   25.47    1.93
 -12  -2   8   27.55    1.89
 -12   2   8   25.62    2.34
  12  -2  -6   82.27    3.98
 -12  -2   6   91.07    4.59
  12   2  -6   92.47    3.41
  12   2  -6   87.76    4.45
 -12  -2   6   94.78    3.31
 -12   2   6   85.95    4.17
 -12  -2   4    0.98    0.80
  12   2  -4    0.08    0.29
  12  -2  -4    0.93    0.71
  12   2  -4    1.11    0.97
 -12   2   4    0.29    0.65
 -12  -2   4   -0.09    0.32
  12   2  -2   27.99    1.37
 -12  -2   2   31.22    2.64
  12  -2  -2   29.64    2.24
  12  -2  -2   28.91    1.31
 -12   2   2   27.01    2.21
  12   2  -2   30.89    2.51
 -12   2   2   27.21    1.90
 -12  -2   2   28.73    1.63
 -12   2   2   27.00    2.26
  12  -2   0   83.48    3.69
 -12  -2   0   79.70    4.13
 -12   2   0   78.73    3.92
  12   2   0   80.59    4.00
 -12  -2   0   78.57    2.74
 -12  -2  -2  178.06    6.26
 -12   2  -2  170.49    6.07
  12  -2   2  163.52    5.58
  12   2   2  162.11    5.78
 -12  -2  -2  175.37    4.41
 -12  -2  -4   14.88    1.83
  12  -2   4   14.59    1.37
  12   2   4   13.16    1.64
  12  -2   4   13.04    1.66
 -12   2  -4   13.85    1.80
 -12  -2  -6   51.61    3.31
  12   2   6   52.07    3.20
  12  -2   6   46.05    3.25
 -12   2  -6   52.06    3.59
 -12  -2  -8   14.62    1.91
  12   2   8   13.25    1.70
  12  -2   8   13.33    1.90
 -12  -2  -8   18.19    2.22
 -12   2  -8   14.53    1.97
 -12  -2 -10   17.79    1.95
  12   2  10   16.71    1.83
  12  -2  10   17.46    2.22
  12  -2  10   16.03    1.98
 -12  -2 -10   17.17    2.30
  12  -2  12   39.37    3.21
  12   3 -15   49.53    3.51
  12   3 -13    0.38    0.63
 -12  -3  13    2.08    1.12
 -12  -3  11   17.93    2.15
  12   3 -11   20.47    1.97
  12  -3 -11   23.72    2.49
  12   3 -11   19.24    2.32
 -12   3  11   19.26    2.26
 -12  -3   9    4.54    1.13
  12   3  -9    3.01    0.82
  12  -3  -9    2.07    0.87
  12   3  -9    4.85    1.25
 -12   3   9    2.67    0.94
 -12  -3   7   -0.53    0.94
  12   3  -7   -0.17    0.34
  12  -3  -7    1.46    0.85
 -12   3   7    0.44    0.54
  12   3  -7    0.21    0.76
 -12   3   7   -0.13    0.69
 -12  -3   5    1.30    0.95
  12  -3  -5   -0.32    0.74
 -12   3   5   -0.03    0.49
  12   3  -5    1.01    0.87
 -12   3   5    0.73    0.72
 -12  -3   3   25.43    2.49
  12  -3  -3   24.46    2.27
 -12   3   3   22.33    1.96
  12   3  -3   26.38    2.48
 -12   3   3   24.41    2.34
 -12  -3   1   12.09    1.76
  12  -3  -1   11.07    1.31
  12   3  -1   11.95    1.69
  12  -3  -1   12.66    1.60
 -12   3   1    9.57    1.39
 -12  -3  -1    0.37    0.79
  12   3   1    1.80    0.99
  12  -3   1    0.60    0.59
  12  -3   1    0.78    0.69
 -12   3  -1    0.66    0.56
 -12  -3  -3   31.87    2.76
  12   3   3   30.06    2.55
  12  -3   3   27.06    2.29
 -12   3  -3   31.06    2.65
 -12  -3  -5   23.26    2.37
  12  -3   5   21.83    2.23
  12   3   5   19.71    2.12
 -12   3  -5   24.08    2.45
 -12  -3  -7    7.83    1.50
  12  -3   7    8.14    1.46
  12   3   7    7.86    1.42
 -12   3  -7    7.95    1.51
 -12  -3  -9   12.34    1.82
  12   3   9   12.11    1.72
  12  -3   9    8.63    1.52
 -12  -3 -11   56.96    3.67
  12   3  11   50.79    3.46
 -12  -4  12   10.59    1.75
  12  -4 -10   28.21    2.83
 -12  -4  10   30.07    2.86
 -12  -4   8    3.07    1.19
  12  -4  -8    3.86    1.18
  12   4  -8    4.04    1.24
 -12   4   8    5.05    1.24
  12  -4  -6   79.83    4.44
 -12  -4   6   83.11    4.62
  12   4  -6   78.54    4.51
 -12   4   6   84.51    4.60
 -12  -4   4  129.65    6.02
  12  -4  -4  120.07    5.33
 -12   4   4  127.00    4.57
  12   4  -4  118.84    5.52
 -12   4   4  124.65    5.55
 -12  -4   2    0.05    0.74
  12  -4  -2   -0.10    0.70
 -12   4   2    0.02    0.58
  12  -4  -2   -0.58    0.43
  12   4  -2    0.23    0.69
 -12   4   2    1.20    0.83
  12  -4   0   30.36    2.62
 -12  -4   0   26.58    2.63
  12   4   0   29.51    2.75
  12  -4   0   27.41    2.13
 -12   4   0   28.76    2.40
 -12  -4  -2  265.22    8.47
  12   4   2  255.85    8.21
  12  -4   2  256.45    7.34
 -12   4  -2  258.73    7.81
 -12  -4  -4    2.17    1.10
  12   4   4    0.30    0.72
  12  -4   4    0.37    0.78
 -12   4  -4    0.84    0.82
 -12  -4  -6   14.95    2.02
  12  -4   6   16.28    2.04
  12   4   6   15.15    1.97
 -12   4  -6   18.03    2.23
 -12  -4  -8   17.18    2.27
  12  -4   8   13.69    2.01
  12   4   8   14.44    2.11
 -12  -4 -10    4.22    1.18
  12   4  10    3.81    1.21
 -12  -5   5   64.99    4.31
  12  -5  -5   63.49    4.08
 -12  -5   3    2.67    1.14
  12  -5  -3    2.49    0.98
  12   5  -3    3.41    1.13
 -12   5   3    4.61    1.28
 -12  -5   1    0.19    0.76
 -12   5   1    0.60    0.54
  12  -5  -1   -0.15    0.72
  12   5  -1    1.20    0.86
 -12   5   1    1.71    0.97
 -12  -5  -1   41.67    3.40
 -12   5  -1   43.26    3.03
  12  -5   1   36.53    2.63
  12   5   1   36.64    3.21
 -12   5  -3   42.15    3.19
  12  -5   3   42.21    3.06
  12   5   3   38.86    3.22
 -12   5  -5   26.40    2.63
  12  -5   5   30.18    2.74
  12  -5   7   24.63    2.63
 -12   6  -2   35.28    2.92
 -12   6  -4    2.49    1.04
  12  -6   4    5.91    1.36
 -13   0  15    1.82    0.88
  13   0 -13   -0.13    0.74
 -13   0  13   -1.11    0.87
  13   0 -11    0.04    0.74
 -13   0  11   -0.46    0.69
  13   0  -9    0.79    0.64
 -13   0   9    0.45    0.75
  13   0  -7    0.13    0.46
 -13   0   7   -0.16    0.51
  13   0  -5    0.35    0.46
 -13   0   5    0.09    0.53
  13   0  -3    0.51    0.46
 -13   0   3    1.01    1.11
 -13   0   3    0.04    0.49
 -13   0   1   -0.12    0.81
  13   0  -1   -0.01    0.48
  13   0  -1   -0.30    0.57
 -13   0   1    0.65    0.57
 -13   0  -1   -0.12    0.73
  13   0   1   -0.71    0.71
 -13   0  -3   -0.47    0.82
  13   0   3    0.31    0.52
 -13   0  -5   -0.25    0.73
  13   0   5   -0.64    0.55
 -13   0  -5   -1.03    1.89
  13   0   5    0.66    0.56
 -13   0  -7    0.78    0.67
  13   0   7    0.57    0.55
 -13   0  -7   -2.40    1.01
  13   0   7    1.25    0.71
  13   0   9    0.23    0.61
 -13   0  -9    0.40    0.66
  13   0  11    0.34    0.64
  13   1 -14   27.19    2.60
 -13   1  14   25.48    2.58
 -13  -1  14   26.70    2.47
  13   1 -12    8.44    1.47
  13  -1 -12   11.21    1.67
 -13  -1  12   10.46    1.49
 -13   1  12   10.43    1.63
  13  -1 -10    0.63    0.95
  13   1 -10    0.36    0.72
 -13  -1  10    0.56    0.51
 -13   1  10   -0.15    0.68
  13  -1  -8   13.86    1.69
 -13  -1   8   13.54    1.94
  13   1  -8   13.56    1.57
 -13   1   8   13.81    1.73
 -13  -1   8   13.28    1.46
  13   1  -6  165.69    5.06
  13  -1  -6  158.58    5.49
 -13  -1   6  172.41    6.58
 -13  -1   6  169.42    5.19
 -13   1   6  158.46    5.65
  13   1  -4   48.93    2.43
  13  -1  -4   43.38    2.69
 -13  -1   4   48.33    3.38
  13   1  -4   46.56    3.23
 -13  -1   4   43.43    2.46
 -13   1   4   44.91    2.90
 -13  -1   2    6.65    1.40
  13   1  -2    7.53    0.87
  13  -1  -2    5.76    0.98
  13   1  -2    6.47    1.29
 -13  -1   2    7.45    1.07
 -13   1   2    7.79    1.24
  13  -1   0   76.43    3.34
 -13  -1   0   74.76    4.14
  13   1   0   70.36    3.76
 -13  -1   0   73.36    3.17
 -13  -1  -2   -0.17    0.65
  13   1   2   -0.60    0.79
  13  -1   2    0.05    0.49
 -13   1  -2    1.39    0.81
  13  -1   2    0.76    0.45
 -13  -1  -4   31.35    2.67
  13   1   4   32.11    2.50
  13  -1   4   31.09    2.18
  13  -1   4   32.24    2.13
 -13   1  -4   27.50    2.69
 -13  -1  -6   18.69    2.04
  13   1   6   15.38    1.71
  13  -1   6   19.58    1.86
 -13  -1  -6   18.75    2.31
 -13   1  -6   20.39    2.41
 -13  -1  -8   17.60    2.01
  13  -1   8   19.62    2.34
  13   1   8   16.18    1.72
  13  -1   8   16.73    1.87
 -13  -1  -8   17.99    2.38
 -13   1  -8   18.81    2.31
  13  -1  10    8.15    1.44
 -13  -1 -10    7.76    1.32
  13   2 -15   80.83    4.59
  13   2 -13    5.16    1.21
  13  -2 -11   -0.33    0.70
  13   2 -11    1.26    0.66
 -13   2  11    1.65    0.89
  13  -2  -9   16.65    2.04
 -13  -2   9   18.57    2.26
  13   2  -9   17.25    1.75
 -13   2   9   16.28    1.93
 -13  -2   9   15.83    1.53
  13   2  -7   38.37    2.33
  13  -2  -7   39.28    2.90
 -13  -2   7   38.92    3.16
  13   2  -7   40.24    3.18
 -13  -2   7   39.82    2.27
 -13   2   7   39.29    2.93
 -13  -2   5    6.33    1.25
  13  -2  -5    7.56    1.28
  13   2  -5    6.08    1.39
 -13   2   5   10.62    1.50
 -13  -2   5    7.79    0.99
 -13  -2   3   15.91    2.08
  13  -2  -3   10.87    1.45
 -13   2   3   10.06    1.51
  13   2  -3   11.01    1.68
 -13  -2   3   11.68    1.14
 -13   2   3   11.22    1.63
 -13  -2   1    3.78    1.17
  13  -2  -1    4.37    0.98
 -13   2   1    3.62    1.04
  13   2  -1    3.91    1.07
 -13  -2   1    3.37    0.66
 -13   2   1    3.78    1.10
  13  -2   1   89.82    3.98
 -13  -2  -1   84.77    4.51
  13  -2   1   93.37    3.21
 -13   2  -1   79.30    4.20
  13   2   1   82.63    4.25
 -13  -2  -1   85.16    3.06
 -13  -2  -3   75.30    4.23
  13  -2   3   88.27    3.65
  13  -2   3   77.38    4.03
  13   2   3   74.73    4.04
  13  -2   3   88.43    3.50
 -13   2  -3   72.14    4.19
 -13  -2  -5  144.60    5.90
  13  -2   5  140.56    5.78
  13   2   5  140.95    5.53
  13  -2   5  150.23    5.08
 -13   2  -5  144.09    6.13
 -13  -2  -7    0.96    0.79
  13   2   7    0.78    0.64
  13  -2   7    2.49    1.08
  13  -2   7    1.98    0.81
 -13   2  -7    1.22    0.79
 -13  -2  -9   16.23    2.02
  13  -2   9   19.93    2.16
  13   2   9   15.11    1.86
  13  -2  11   -0.11    0.81
  13  -3 -10    3.24    1.25
 -13  -3  10    2.44    1.00
 -13   3  10    1.83    0.97
  13  -3  -8   73.74    4.35
 -13  -3   8   76.78    4.51
  13   3  -8   74.87    4.47
 -13   3   8   75.73    4.36
 -13  -3   6    2.25    0.78
  13  -3  -6    1.48    0.86
 -13   3   6    0.55    0.54
  13   3  -6    3.30    1.05
 -13   3   6    2.99    1.12
 -13  -3   4   28.54    2.76
  13  -3  -4   27.30    2.46
 -13   3   4   23.12    2.07
  13   3  -4   23.94    2.47
 -13   3   4   29.14    2.65
 -13  -3   2  104.48    5.13
  13  -3  -2   91.82    4.41
 -13   3   2   95.56    4.37
  13   3  -2   91.62    4.79
 -13   3   2   84.69    4.50
 -13  -3   0    1.04    0.97
  13  -3   0    0.99    0.63
  13   3   0    1.50    0.92
  13  -3   0    0.01    0.72
 -13   3   0    0.53    0.63
 -13  -3  -2    0.62    0.70
  13   3   2   -0.97    0.77
  13  -3   2    0.86    0.88
 -13   3  -2    0.51    0.70
 -13  -3  -4   43.90    3.33
  13   3   4   40.25    3.12
  13  -3   4   39.89    2.99
 -13   3  -4   42.32    3.27
 -13  -3  -6   60.05    3.87
  13   3   6   56.00    3.67
  13  -3   6   62.41    3.94
 -13   3  -6   67.68    4.24
 -13  -3  -8    0.85    0.89
  13   3   8    0.88    0.68
  13  -3   8    0.00    0.75
 -13  -3 -10  116.48    5.40
  13   3  10  117.16    5.35
  13  -4  -7    7.46    1.57
 -13  -4   5   95.30    5.14
  13  -4  -5   90.54    4.79
  13   4  -5   91.96    5.02
 -13   4   5   95.50    5.06
 -13  -4   3   10.38    1.78
  13  -4  -3    9.52    1.62
 -13   4   3    8.20    1.32
  13   4  -3    9.13    1.64
 -13  -4   1   14.76    2.09
  13  -4  -1   10.49    1.63
 -13   4   1   11.71    1.62
  13   4  -1   12.20    1.89
 -13   4   1   10.50    1.70
 -13  -4  -1    3.70    1.14
  13   4   1    2.14    0.88
  13  -4   1    1.93    0.72
 -13   4  -1    2.75    1.04
 -13  -4  -3  145.33    6.35
 -13   4  -3  142.22    5.96
  13   4   3  139.63    6.11
  13  -4   3  126.22    5.34
 -13   4  -5    1.38    0.82
  13  -4   5    1.74    0.87
  13   4   5    0.44    0.71
  13  -4   7   10.84    1.80
 -13   5   0   18.01    2.07
  13  -5   0   16.51    2.20
 -13   5  -2    2.38    0.89
 -13   5  -4   39.61    3.24
  13  -5   4   38.80    3.06
 -14   0  14  403.13   10.70
  14   0 -12    9.08    1.55
 -14   0  12   10.72    1.68
  14   0 -10   10.85    1.68
 -14   0  10    8.64    1.45
  14   0  -8    4.71    1.06
 -14   0   8    5.30    1.17
  14   0  -6    4.72    1.04
 -14   0   6    4.35    1.01
  14   0  -4    0.35    0.40
 -14   0   4    0.92    1.14
  14   0  -2    0.55    0.40
  14   0  -2    1.15    0.92
 -14   0   2    1.62    0.67
 -14   0   0   26.00    2.63
  14   0   0   27.31    2.42
 -14   0   0   28.15    2.23
 -14   0  -2   14.67    2.01
  14   0   2    9.83    1.47
 -14   0  -4  102.15    4.95
  14   0   4   99.24    4.36
 -14   0  -4  108.03    5.39
 -14   0  -6  231.83    7.57
  14   0   6  227.19    6.66
  14   0   6  240.63    6.83
  14   0   8   -0.56    0.81
  14   0  10   12.55    1.85
  14   1 -13    2.98    1.08
  14  -1 -11    0.27    0.80
  14   1 -11   -0.26    0.74
 -14  -1  11    2.60    1.03
 -14   1  11    0.26    0.75
  14  -1  -9   -0.79    0.72
  14   1  -9    1.01    0.75
 -14   1   9   -0.13    0.60
 -14  -1   9    0.66    0.53
  14   1  -7    1.56    0.69
  14  -1  -7    1.47    0.80
 -14  -1   7    2.80    0.98
 -14   1   7    1.30    0.67
 -14  -1   7    3.30    0.76
  14  -1  -5   56.68    3.24
 -14  -1   5   64.58    4.12
  14   1  -5   53.68    3.67
 -14  -1   5   55.43    2.90
 -14   1   5   54.48    3.31
 -14  -1   3   15.30    2.01
  14  -1  -3   12.65    1.51
  14   1  -3   14.09    1.87
 -14  -1   3   13.46    1.45
 -14   1   3   15.35    1.79
 -14  -1   1    1.91    0.99
  14  -1  -1    1.51    0.56
  14   1  -1    1.90    0.89
 -14  -1   1    1.87    0.75
 -14   1   1    3.49    1.00
 -14  -1  -1    9.40    1.64
 -14   1  -1   11.38    1.84
  14   1   1   11.67    1.64
  14  -1   1   10.11    1.47
 -14  -1  -1   12.70    1.36
 -14  -1  -3    1.59    0.88
  14   1   3    3.01    1.09
  14  -1   3    2.66    0.84
 -14   1  -3    2.80    1.04
 -14  -1  -5    3.66    1.14
  14   1   5    2.67    1.07
 -14   1  -5    1.84    0.88
 -14  -1  -7   44.00    3.24
  14   1   7   52.47    3.25
  14  -1   7   51.37    3.16
  14  -1   9   96.30    4.85
 -14  -1  -9   81.88    4.40
  14  -2 -10    0.64    0.68
 -14   2  10   -0.28    0.60
  14  -2  -8    9.85    1.67
 -14  -2   8    5.65    1.32
 -14   2   8    8.94    1.61
 -14  -2   6    2.54    1.13
  14  -2  -6    1.17    0.81
  14   2  -6    1.53    0.76
 -14   2   6    1.49    0.93
 -14  -2   4   13.55    1.97
  14  -2  -4   16.59    1.86
 -14   2   4   13.67    1.78
  14   2  -4   14.33    1.97
 -14   2   4   17.22    1.99
 -14  -2   2    3.73    1.25
  14  -2  -2    5.60    1.14
 -14   2   2    6.58    1.32
  14   2  -2    5.38    1.20
 -14   2   2    4.45    1.17
  14  -2   0   35.27    2.60
 -14  -2   0   33.91    2.99
  14   2   0   32.99    2.87
 -14   2   0   33.89    2.87
 -14  -2  -2   29.50    2.79
  14  -2   2   33.38    2.39
  14   2   2   29.42    2.66
 -14   2  -2   27.98    2.68
 -14  -2  -4    2.66    1.01
  14   2   4    2.85    1.02
 -14   2  -4    1.71    0.87
 -14  -2  -6   -0.20    0.95
  14  -2   6    0.05    0.75
  14   2   6   -0.28    0.68
 -14  -2  -8   88.39    4.72
  14  -2   8   75.94    4.09
  14   2   8   81.80    4.32
  14  -3  -9   10.52    1.73
  14  -3  -7    9.20    1.61
 -14   3   7    5.46    1.36
  14  -3  -5   11.91    1.76
 -14   3   5    9.92    1.55
 -14   3   5   11.20    1.78
 -14  -3   3   39.59    3.31
  14  -3  -3   40.86    3.08
 -14   3   3   36.23    2.83
  14   3  -3   38.92    3.21
 -14   3   3   40.03    3.18
  14  -3  -1   34.01    2.75
 -14  -3   1   33.41    3.05
 -14   3   1   33.12    2.81
  14   3  -1   33.00    2.98
 -14   3   1   34.36    2.94
 -14  -3  -1   19.73    2.32
  14   3   1   17.15    2.16
 -14   3  -1   13.14    1.84
 -14  -3  -3    1.99    0.97
  14  -3   3    1.62    1.13
  14   3   3    2.33    0.98
 -14   3  -3    1.10    0.81
 -14  -3  -5   52.05    3.79
  14   3   5   50.54    3.59
  14  -3   5   48.67    3.53
  14   3   7    0.69    0.82
  14  -4  -4   14.28    1.98
  14  -4  -2    3.37    0.97
 -14   4   2    1.89    0.87
  14  -4   0   34.81    2.99
 -14   4   0   37.80    3.00
 -14   4  -2   11.27    1.76
  14  -4   2    8.19    1.52
  14  -4   4    3.67    1.13
 -14   5  -1    9.14    1.65
  15   0 -11   -0.02    0.70
 -15   0  11   -0.21    0.79
  15   0  -9   -0.93    1.06
 -15   0   9   -0.85    0.78
 -15   0   7    0.08    0.74
 -15   0   5   -0.73    0.70
  15   0  -3   -0.17    0.70
 -15   0   3   -0.16    0.53
  15   0  -1    0.62    0.85
 -15   0   1   -0.38    0.68
  15   0   1   -1.28    0.98
 -15   0  -1    1.21    0.80
  15   0   3   -1.26    0.69
  15  -1 -10   10.98    1.85
 -15   1  10    7.34    1.41
  15  -1  -8    0.27    0.71
 -15   1   8    1.08    0.93
  15  -1  -6    7.75    1.29
 -15   1   6    6.71    1.31
  15  -1  -4   -0.93    0.55
  15   1  -4    1.70    1.02
 -15   1   4   -0.19    0.72
 -15  -1   2   -0.83    0.73
  15   1  -2    0.68    0.74
 -15   1   2    0.08    0.67
 -15  -1   0   15.89    2.16
 -15   1   0   19.78    2.33
  15   1   0   17.81    2.12
  15  -1   0   18.97    2.12
 -15   1   0   19.24    2.05
 -15  -1  -2    1.62    0.86
  15   1   2    1.78    0.89
  15  -1   2    1.57    0.86
 -15   1  -2    2.51    1.10
 -15  -1  -4    0.19    0.83
  15   1   4    0.40    0.78
 -15  -1  -6   17.10    2.16
 -15  -1  -8   -0.75    0.88
  15  -2  -9   28.03    2.67
  15  -2  -7   11.84    1.77
 -15   2   7   10.29    1.60
  15  -2  -5   22.74    2.35
 -15   2   5   21.09    2.26
 -15   2   5   21.28    2.28
  15  -2  -3    1.60    0.86
 -15   2   3    0.38    0.71
  15   2  -3    2.24    1.11
 -15   2   3    3.43    1.02
  15  -2  -1    0.14    0.72
 -15   2   1    1.28    0.77
  15   2  -1    0.87    0.88
 -15   2   1   -0.23    0.77
 -15   2  -1    4.03    1.12
  15   2   1    7.63    1.44
  15  -2   1    4.45    1.13
  15   2   3   15.87    2.05
  15   2   5   10.60    1.62
  15  -3  -6   19.94    2.30
  15  -3  -4    0.52    0.63
 -15   3   4   -1.18    0.87
  15  -3  -2   13.66    1.83
 -15   3   2   15.79    2.04
 -15   3   0   71.60    4.32
  15  -3   4    3.22    1.02
 -15   4   1    3.14    1.08
  16   0  -2    7.10    1.43
  16   0   0   15.75    2.07
  16   0   2    0.16    0.80
 -16   1   7    0.06    0.86
 -16   1   5   -0.27    0.71
 -16   1   3   28.48    2.55
  16   1  -1    4.79    1.26
  16  -1  -1   -0.25    0.93
 -16   1   1    2.34    0.85
  16  -1   1   30.92    2.67
  16   1   1   24.25    2.56
 -16   1  -1   29.41    2.65
  16   1   3    0.28    0.79
  16  -2  -6    9.87    1.75
 -16   2   4   13.38    1.92
 -16   2   2   27.41    2.79
 -16   2   2   27.67    2.75
   0   0   0    0.00    0.00


TITL OAV-34_auto in I2/a
REM I2/a (#15 in standard setting)
CELL 0.71073  12.334792   6.926199  16.624732  90.0000  95.4388  90.0000
ZERR   20.00   0.000427   0.000244   0.000544   0.0000   0.0031   0.0000
LATT  2
SYMM -x+1/2, y,-z
SFAC C H N O Eu
UNIT 20.00 20.00 20.00 20.00 20.00
REM  CrysAlisPro recorded range (K): Min=150.0; max=150.0; aver:150.0
TEMP -123
TREF
HKLF 4
END
_computing_structure_solution     'SHELXT 2018/2 (Sheldrick, 2018)'
;
_shelx_hkl_checksum   70793

