 
data_oav-605_sq
 
_audit_creation_method            'SHELXL-2019/3'
_shelx_SHELXL_version_number      '2019/3'
_chemical_name_systematic         ?
_chemical_name_common             ?
_chemical_melting_point           ?
_chemical_formula_moiety          ?
_chemical_formula_sum
 'C6 H3 Cu N5 O2' 
_chemical_formula_weight          240.67

loop_
 _atom_type_symbol
 _atom_type_description
 _atom_type_scat_dispersion_real
 _atom_type_scat_dispersion_imag
 _atom_type_scat_source
 'C'  'C'   0.0033   0.0016
 'International Tables Vol C Tables 4.2.6.8 and 6.1.1.4'
 'H'  'H'   0.0000   0.0000
 'International Tables Vol C Tables 4.2.6.8 and 6.1.1.4'
 'N'  'N'   0.0061   0.0033
 'International Tables Vol C Tables 4.2.6.8 and 6.1.1.4'
 'O'  'O'   0.0106   0.0060
 'International Tables Vol C Tables 4.2.6.8 and 6.1.1.4'
 'Cu'  'Cu'   0.3201   1.2651
 'International Tables Vol C Tables 4.2.6.8 and 6.1.1.4'
 
_space_group_crystal_system       tetragonal
_space_group_IT_number            88
_space_group_name_H-M_alt         'I 41/a'
_space_group_name_Hall            '-I 4ad'
 
_shelx_space_group_comment
;
The symmetry employed for this shelxl refinement is uniquely defined
by the following loop, which should always be used as a source of
symmetry information in preference to the above space-group names.
They are only intended as comments.
;
 
loop_
 _space_group_symop_operation_xyz
 'x, y, z'
 '-x+1/2, -y, z+1/2'
 '-y+3/4, x+1/4, z+1/4'
 'y+3/4, -x+3/4, z+3/4'
 'x+1/2, y+1/2, z+1/2'
 '-x+1, -y+1/2, z+1'
 '-y+5/4, x+3/4, z+3/4'
 'y+5/4, -x+5/4, z+5/4'
 '-x, -y, -z'
 'x-1/2, y, -z-1/2'
 'y-3/4, -x-1/4, -z-1/4'
 '-y-3/4, x-3/4, -z-3/4'
 '-x+1/2, -y+1/2, -z+1/2'
 'x, y+1/2, -z'
 'y-1/4, -x+1/4, -z+1/4'
 '-y-1/4, x-1/4, -z-1/4'
 
_cell_length_a                    18.9450(13)
_cell_length_b                    18.9450(13)
_cell_length_c                    13.4937(14)
_cell_angle_alpha                 90
_cell_angle_beta                  90
_cell_angle_gamma                 90
_cell_volume                      4843.1(8)
_cell_formula_units_Z             16
_cell_measurement_temperature     150(2)
_cell_measurement_reflns_used     ?
_cell_measurement_theta_min       ?
_cell_measurement_theta_max       ?
 
_exptl_crystal_description        ?
_exptl_crystal_colour             ?
_exptl_crystal_density_meas       ?
_exptl_crystal_density_method     ?
_exptl_crystal_density_diffrn     1.320          
_exptl_crystal_F_000              1904
_exptl_transmission_factor_min    ?
_exptl_transmission_factor_max    ?
_exptl_crystal_size_max           ?
_exptl_crystal_size_mid           ?
_exptl_crystal_size_min           ?
_exptl_absorpt_coefficient_mu     1.789
_shelx_estimated_absorpt_T_min    ?
_shelx_estimated_absorpt_T_max    ?
_exptl_absorpt_correction_type    ?
_exptl_absorpt_correction_T_min   ?
_exptl_absorpt_correction_T_max   ?
_exptl_absorpt_process_details    ?
_exptl_absorpt_special_details    ?
_diffrn_ambient_temperature       150(2)
_diffrn_radiation_wavelength      0.71073
_diffrn_radiation_type            MoK\a
_diffrn_source                    ?
_diffrn_measurement_device_type   ?
_diffrn_measurement_method        ?
_diffrn_detector_area_resol_mean  ?
_diffrn_reflns_number             26383
_diffrn_reflns_av_unetI/netI      0.0830
_diffrn_reflns_av_R_equivalents   0.1598
_diffrn_reflns_limit_h_min        -23
_diffrn_reflns_limit_h_max        23
_diffrn_reflns_limit_k_min        -23
_diffrn_reflns_limit_k_max        23
_diffrn_reflns_limit_l_min        -16
_diffrn_reflns_limit_l_max        16
_diffrn_reflns_theta_min          1.853
_diffrn_reflns_theta_max          25.756
_diffrn_reflns_theta_full         25.242
_diffrn_measured_fraction_theta_max   0.995
_diffrn_measured_fraction_theta_full  1.000
_diffrn_reflns_Laue_measured_fraction_max    0.995
_diffrn_reflns_Laue_measured_fraction_full   1.000
_diffrn_reflns_point_group_measured_fraction_max   0.995
_diffrn_reflns_point_group_measured_fraction_full  1.000
_reflns_number_total              2317
_reflns_number_gt                 1644
_reflns_threshold_expression      'I > 2\s(I)'
_reflns_Friedel_coverage          0.000
_reflns_Friedel_fraction_max      .
_reflns_Friedel_fraction_full     .
 
_reflns_special_details
;
 Reflections were merged by SHELXL according to the crystal
 class for the calculation of statistics and refinement.
 
 Structure factors included contributions from the .fab file.
 
 _reflns_Friedel_fraction is defined as the number of unique
 Friedel pairs measured divided by the number that would be
 possible theoretically, ignoring centric projections and
 systematic absences. Completness statistics refer to single and
 composite reflections containing twin component 1 only.
;
 
_computing_data_collection        ?
_computing_cell_refinement        ?
_computing_data_reduction         ?
_computing_structure_solution     ?
_computing_structure_refinement 'SHELXL-2019/2 (Sheldrick, 2019)'
_computing_molecular_graphics     ?
_computing_publication_material   ?
_refine_special_details
;
 Refined as a 4-component twin.
;
_refine_ls_structure_factor_coef  Fsqd
_refine_ls_matrix_type            full
_refine_ls_weighting_scheme       calc
_refine_ls_weighting_details
'w=1/[\s^2^(Fo^2^)+(0.1700P)^2^] where P=(Fo^2^+2Fc^2^)/3'
_atom_sites_solution_primary      ?
_atom_sites_solution_secondary    ?
_atom_sites_solution_hydrogens    geom
_refine_ls_hydrogen_treatment     constr
_refine_ls_extinction_method      none
_refine_ls_extinction_coef        .
_refine_ls_number_reflns          2317
_refine_ls_number_parameters      230
_refine_ls_number_restraints      170
_refine_ls_R_factor_all           0.1410
_refine_ls_R_factor_gt            0.1073
_refine_ls_wR_factor_ref          0.3049
_refine_ls_wR_factor_gt           0.2806
_refine_ls_goodness_of_fit_ref    1.363
_refine_ls_restrained_S_all       1.321
_refine_ls_shift/su_max           0.419
_refine_ls_shift/su_mean          0.045
 
loop_
 _atom_site_label
 _atom_site_type_symbol
 _atom_site_fract_x
 _atom_site_fract_y
 _atom_site_fract_z
 _atom_site_U_iso_or_equiv
 _atom_site_adp_type
 _atom_site_occupancy
 _atom_site_site_symmetry_order  
 _atom_site_calc_flag
 _atom_site_refinement_flags_posn
 _atom_site_refinement_flags_adp
 _atom_site_refinement_flags_occupancy
 _atom_site_disorder_assembly
 _atom_site_disorder_group
Cu1 Cu 0.71147(10) 0.46717(9) 0.02393(9) 0.0357(6) Uani 1 1 d . . . . .
C7 C 0.7290(7) 0.1642(6) -0.1411(8) 0.042(2) Uani 1 1 d . U . . .
H7 H 0.739420 0.196556 -0.192799 0.051 Uiso 1 1 calc R U . A 1
O102 O 0.7333(6) 0.4492(4) 0.1648(7) 0.051(2) Uani 1 1 d . U . . .
O101 O 0.7368(19) 0.3638(11) 0.2786(15) 0.056(4) Uani 0.49(3) 1 d . U P B 1
N101 N 0.723(2) 0.358(3) 0.012(3) 0.047(3) Uani 0.49(3) 1 d . U P B 1
C101 C 0.717(2) 0.2601(14) 0.1045(18) 0.047(3) Uani 0.49(3) 1 d . U P B 1
H101 H 0.715451 0.226303 0.156409 0.056 Uiso 0.49(3) 1 calc R U P B 1
N102 N 0.7182(19) 0.312(2) -0.038(2) 0.047(3) Uani 0.49(3) 1 d . U P B 1
C102 C 0.726(2) 0.339(2) 0.114(3) 0.048(3) Uani 0.49(3) 1 d . U P B 1
N103 N 0.7123(16) 0.2484(18) 0.006(2) 0.045(3) Uani 0.49(3) 1 d . U P B 1
C103 C 0.7140(19) 0.1825(18) -0.0331(19) 0.044(3) Uani 0.51(3) 1 d . U P B 1
N104 N 0.707(2) 0.067(2) -0.0472(19) 0.041(3) Uani 0.49(3) 1 d . U P B 1
C104 C 0.703(2) 0.1234(18) 0.016(2) 0.042(3) Uani 0.49(3) 1 d . U P B 1
H104 H 0.694673 0.120317 0.085146 0.051 Uiso 0.49(3) 1 calc R U P B 1
N105 N 0.7254(19) 0.1019(19) -0.148(4) 0.041(3) Uani 0.49(3) 1 d . U P B 1
C105 C 0.733(2) 0.3972(17) 0.187(3) 0.050(3) Uani 0.49(3) 1 d . U P B 1
O201 O 0.7855(19) 0.3663(9) 0.2615(14) 0.055(5) Uani 0.51(3) 1 d . U P B 2
N201 N 0.718(2) 0.361(3) 0.022(2) 0.044(4) Uani 0.51(3) 1 d . U P B 2
C201 C 0.7574(18) 0.2673(14) 0.0969(18) 0.045(3) Uani 0.51(3) 1 d . U P B 2
H201 H 0.776182 0.236359 0.145640 0.054 Uiso 0.51(3) 1 calc R U P B 2
N202 N 0.7110(19) 0.3080(18) -0.0560(17) 0.045(4) Uani 0.51(3) 1 d . U P B 2
C202 C 0.7455(19) 0.3322(18) 0.103(2) 0.046(3) Uani 0.51(3) 1 d . U P B 2
N203 N 0.7355(16) 0.2517(17) -0.002(2) 0.044(3) Uani 0.51(3) 1 d . U P B 2
N204 N 0.7167(19) 0.0671(18) -0.0660(18) 0.040(3) Uani 0.51(3) 1 d . U P B 2
C203 C 0.7269(17) 0.1869(19) -0.051(2) 0.043(3) Uani 0.49(3) 1 d . U P B 2
C204 C 0.7184(19) 0.1154(16) -0.004(2) 0.041(3) Uani 0.51(3) 1 d . U P B 2
H204 H 0.714644 0.108050 0.065723 0.050 Uiso 0.51(3) 1 calc R U P B 2
N205 N 0.7227(19) 0.0916(16) -0.152(4) 0.039(3) Uani 0.51(3) 1 d . U P B 2
C205 C 0.746(2) 0.3781(15) 0.191(2) 0.050(4) Uani 0.51(3) 1 d . U P B 2
 
loop_
 _atom_site_aniso_label
 _atom_site_aniso_U_11
 _atom_site_aniso_U_22
 _atom_site_aniso_U_33
 _atom_site_aniso_U_23
 _atom_site_aniso_U_13
 _atom_site_aniso_U_12
Cu1 0.0580(11) 0.0337(9) 0.0155(7) 0.0005(5) 0.0016(7) 0.0000(8)
C7 0.099(5) 0.022(3) 0.005(3) 0.000(3) 0.003(3) 0.000(4)
O102 0.108(7) 0.023(4) 0.022(4) -0.002(3) -0.012(4) 0.009(4)
O101 0.112(10) 0.034(7) 0.022(7) -0.002(6) -0.008(7) 0.000(8)
N101 0.107(7) 0.020(6) 0.012(6) -0.005(5) -0.008(6) 0.005(6)
C101 0.107(7) 0.023(5) 0.011(5) -0.004(5) -0.005(5) 0.006(6)
N102 0.107(7) 0.023(6) 0.011(6) -0.006(5) -0.006(6) 0.005(6)
C102 0.107(7) 0.023(5) 0.014(5) -0.003(4) -0.008(5) 0.006(5)
N103 0.105(6) 0.022(5) 0.008(5) -0.004(4) -0.003(5) 0.005(5)
C103 0.102(6) 0.023(4) 0.006(4) -0.003(4) 0.003(4) 0.003(5)
N104 0.096(7) 0.022(5) 0.003(5) -0.004(5) 0.009(5) 0.002(6)
C104 0.099(7) 0.024(5) 0.004(5) -0.005(5) 0.006(5) 0.003(6)
N105 0.096(6) 0.022(5) 0.003(5) -0.003(5) 0.007(5) 0.002(5)
C105 0.108(7) 0.024(5) 0.018(5) -0.005(4) -0.011(5) 0.007(5)
O201 0.120(11) 0.021(7) 0.023(7) 0.000(6) -0.011(8) 0.019(8)
N201 0.110(8) 0.016(5) 0.008(6) 0.001(5) -0.009(6) 0.006(6)
C201 0.110(8) 0.020(5) 0.005(5) 0.002(5) -0.008(6) 0.007(6)
N202 0.110(8) 0.019(5) 0.006(6) 0.001(5) -0.009(6) 0.006(6)
C202 0.112(8) 0.018(5) 0.008(5) 0.002(5) -0.009(6) 0.009(6)
N203 0.108(7) 0.019(5) 0.004(5) 0.001(4) -0.006(5) 0.005(5)
N204 0.101(7) 0.013(5) 0.005(5) 0.007(5) 0.002(5) 0.003(6)
C203 0.104(6) 0.019(4) 0.006(4) 0.002(4) 0.001(4) 0.002(5)
C204 0.102(7) 0.015(5) 0.007(5) 0.004(5) 0.003(5) 0.002(6)
N205 0.098(6) 0.016(5) 0.004(4) 0.005(5) 0.003(5) 0.001(5)
C205 0.116(9) 0.021(6) 0.015(6) 0.002(6) -0.011(6) 0.013(7)
 
_geom_special_details
;
 All esds (except the esd in the dihedral angle between two l.s. planes)
 are estimated using the full covariance matrix.  The cell esds are taken
 into account individually in the estimation of esds in distances, angles
 and torsion angles; correlations between esds in cell parameters are only
 used when they are defined by crystal symmetry.  An approximate (isotropic)
 treatment of cell esds is used for estimating esds involving l.s. planes.
;
 
loop_
 _geom_bond_atom_site_label_1
 _geom_bond_atom_site_label_2
 _geom_bond_distance
 _geom_bond_site_symmetry_2
 _geom_bond_publ_flag
Cu1 N104 1.92(4) 14 ?
Cu1 N205 1.93(4) 16_655 ?
Cu1 O102 1.975(9) . ?
Cu1 N204 1.98(3) 14 ?
Cu1 N201 2.01(5) . ?
Cu1 N101 2.08(6) . ?
Cu1 N105 2.08(4) 16_655 ?
Cu1 O102 2.265(9) 7_544 ?
C7 N105 1.19(4) . ?
C7 C203 1.29(3) . ?
C7 N205 1.39(3) . ?
C7 C103 1.53(3) . ?
O102 C105 1.03(3) . ?
O102 C205 1.41(3) . ?
O101 C105 1.39(4) . ?
N101 N102 1.11(6) . ?
N101 C102 1.43(6) . ?
C101 N103 1.35(4) . ?
C101 C102 1.50(4) . ?
N102 N103 1.35(5) . ?
C102 C105 1.49(4) . ?
N103 C103 1.36(4) . ?
C103 C104 1.32(4) . ?
N104 C104 1.37(4) . ?
N104 N105 1.56(6) . ?
O201 C205 1.23(4) . ?
N201 C202 1.32(6) . ?
N201 N202 1.47(6) . ?
C201 C202 1.25(4) . ?
C201 N203 1.42(4) . ?
N202 N203 1.38(4) . ?
C202 C205 1.48(4) . ?
N203 C203 1.40(5) . ?
N204 C204 1.24(4) . ?
N204 N205 1.25(6) . ?
C203 C204 1.50(4) . ?
 
loop_
 _geom_angle_atom_site_label_1
 _geom_angle_atom_site_label_2
 _geom_angle_atom_site_label_3
 _geom_angle
 _geom_angle_site_symmetry_1
 _geom_angle_site_symmetry_3
 _geom_angle_publ_flag
N104 Cu1 N205 93.6(15) 14 16_655 ?
N104 Cu1 O102 91.3(8) 14 . ?
N205 Cu1 O102 159.8(11) 16_655 . ?
N104 Cu1 N204 9.1(14) 14 14 ?
N205 Cu1 N204 102.7(11) 16_655 14 ?
O102 Cu1 N204 83.0(8) . 14 ?
N205 Cu1 N201 94.4(16) 16_655 . ?
O102 Cu1 N201 79.9(10) . . ?
N204 Cu1 N201 162.7(14) 14 . ?
N104 Cu1 N101 173.9(16) 14 . ?
O102 Cu1 N101 83.2(12) . . ?
N104 Cu1 N105 91.9(11) 14 16_655 ?
O102 Cu1 N105 156.5(12) . 16_655 ?
N101 Cu1 N105 94.2(17) . 16_655 ?
N104 Cu1 O102 90.4(11) 14 7_544 ?
O102 Cu1 O102 119.5(3) . 7_544 ?
N101 Cu1 O102 90.1(11) . 7_544 ?
N105 Cu1 O102 83.8(12) 16_655 7_544 ?
C203 C7 N205 115(3) . . ?
N105 C7 C103 107(3) . . ?
C105 O102 Cu1 116(2) . . ?
C205 O102 Cu1 116.4(14) . . ?
C105 O102 Cu1 122(2) . 8_454 ?
C205 O102 Cu1 124.8(14) . 8_454 ?
Cu1 O102 Cu1 117.9(4) . 8_454 ?
N102 N101 C102 112(5) . . ?
N102 N101 Cu1 145(4) . . ?
C102 N101 Cu1 101(3) . . ?
N103 C101 C102 105(3) . . ?
N101 N102 N103 117(4) . . ?
N101 C102 C105 117(4) . . ?
N101 C102 C101 100(3) . . ?
C105 C102 C101 143(3) . . ?
C101 N103 N102 106(3) . . ?
C101 N103 C103 123(3) . . ?
N102 N103 C103 130(3) . . ?
C104 C103 N103 126(3) . . ?
C104 C103 C7 108(2) . . ?
N103 C103 C7 126(2) . . ?
C104 N104 N105 103(3) . . ?
C104 N104 Cu1 132(2) . 14_545 ?
N105 N104 Cu1 123(2) . 14_545 ?
C103 C104 N104 110(2) . . ?
C7 N105 N104 111(3) . . ?
C7 N105 Cu1 130(4) . 11_665 ?
N104 N105 Cu1 117(2) . 11_665 ?
O102 C105 O101 134(3) . . ?
O102 C105 C102 121(3) . . ?
O101 C105 C102 105(3) . . ?
C202 N201 N202 110(4) . . ?
C202 N201 Cu1 115(3) . . ?
N202 N201 Cu1 133(3) . . ?
C202 C201 N203 102(3) . . ?
N203 N202 N201 97(3) . . ?
C201 C202 N201 115(4) . . ?
C201 C202 C205 129(3) . . ?
N201 C202 C205 115(3) . . ?
N202 N203 C203 113(3) . . ?
N202 N203 C201 116(3) . . ?
C203 N203 C201 131(3) . . ?
C204 N204 N205 110(3) . . ?
C204 N204 Cu1 120.8(18) . 14_545 ?
N205 N204 Cu1 129(2) . 14_545 ?
C7 C203 N203 137(3) . . ?
C7 C203 C204 96(2) . . ?
N203 C203 C204 127(2) . . ?
N204 C204 C203 112(2) . . ?
N204 N205 C7 106(3) . . ?
N204 N205 Cu1 126(3) . 11_665 ?
C7 N205 Cu1 127(3) . 11_665 ?
O201 C205 O102 118(3) . . ?
O201 C205 C202 122(3) . . ?
O102 C205 C202 111(2) . . ?
 
_refine_diff_density_max    3.177
_refine_diff_density_min   -0.907
_refine_diff_density_rms    0.199

_shelx_res_file
;
TITL OAV-605 in I4(1)/a
    oav-605_sq.res
    created by SHELXL-2019/3 at 10:59:52 on 03-May-2024
CELL 0.71073  18.94500  18.94500  13.49370  90.0000  90.0000  90.0000
ZERR   16  0.00134   0.00134   0.00140   0.0000   0.0000   0.0000
LATT  2
SYMM 0.5-X, -Y, 0.5+Z
SYMM 0.75-Y, 0.25+X, 0.25+Z
SYMM 0.75+Y, 0.75-X, 0.75+Z
SFAC C H N O CU
UNIT 96 48 80 32 16
TWIN 0 1 0   1 0 0   0 0 -1 4

LIST 8
SIMU 0.005 0.007 2 N104 N105 C7 C104 C103 N103 N102 C101 C102 N101 C105 =
   O101 O102
SIMU 0.005 0.007 2 C205 O201 C202 N201 N202 N203 C201 C203 C7 C204 N204 =
   N205
FLAT 0.05 C203 C7 C204 N204 N205
FLAT 0.05 C202 C201 N203 N202 N201
FLAT 0.05 N103 C101 C102 N101 N102
FLAT 0.05 C103 C7 N105 N104 C104

TEMP -123
L.S. 5 0   38
BOND
FMAP 2
PLAN 10
ABIN
ACTA

WGHT    0.170000
BASF   0.24547  -1.73487   0.24555
FVAR       0.05481   0.49030
CU1   5    0.711471    0.467173    0.023929    11.00000    0.05797    0.03369 =
         0.01548    0.00046    0.00163    0.00002
C7    1    0.729043    0.164159   -0.141075    11.00000    0.09946    0.02230 =
         0.00476    0.00023    0.00302    0.00032
AFIX  43
H7    2    0.739420    0.196556   -0.192799    11.00000   -1.20000
AFIX   0
O102  4    0.733329    0.449158    0.164801    11.00000    0.10761    0.02280 =
         0.02189   -0.00247   -0.01180    0.00944
PART 1
O101  4    0.736800    0.363812    0.278555    21.00000    0.11236    0.03429 =
         0.02215   -0.00230   -0.00813    0.00005
N101  3    0.723486    0.358444    0.011872    21.00000    0.10696    0.02041 =
         0.01240   -0.00494   -0.00769    0.00486
C101  1    0.717181    0.260139    0.104505    21.00000    0.10691    0.02322 =
         0.01058   -0.00439   -0.00502    0.00584
AFIX  43
H101  2    0.715451    0.226303    0.156409    21.00000   -1.20000
AFIX   0
N102  3    0.718220    0.312022   -0.037912    21.00000    0.10718    0.02276 =
         0.01140   -0.00636   -0.00611    0.00483
C102  1    0.726004    0.338800    0.113769    21.00000    0.10726    0.02289 =
         0.01351   -0.00344   -0.00842    0.00635
N103  3    0.712287    0.248352    0.006442    21.00000    0.10532    0.02205 =
         0.00847   -0.00389   -0.00252    0.00536
C103  1    0.713967    0.182511   -0.033069   -21.00000    0.10226    0.02276 =
         0.00586   -0.00312    0.00286    0.00323
N104  3    0.706800    0.067131   -0.047246    21.00000    0.09632    0.02237 =
         0.00311   -0.00389    0.00861    0.00199
C104  1    0.703396    0.123415    0.015952    21.00000    0.09923    0.02376 =
         0.00400   -0.00548    0.00636    0.00259
AFIX  43
H104  2    0.694673    0.120317    0.085146    21.00000   -1.20000
AFIX   0
N105  3    0.725388    0.101896   -0.148408    21.00000    0.09600    0.02231 =
         0.00339   -0.00270    0.00662    0.00227
C105  1    0.733321    0.397248    0.186832    21.00000    0.10813    0.02439 =
         0.01788   -0.00458   -0.01138    0.00658
PART 2
O201  4    0.785483    0.366294    0.261531   -21.00000    0.11962    0.02133 =
         0.02299   -0.00010   -0.01149    0.01889
N201  3    0.717856    0.361117    0.022495   -21.00000    0.11020    0.01558 =
         0.00754    0.00134   -0.00867    0.00599
C201  1    0.757370    0.267284    0.096919   -21.00000    0.11028    0.02029 =
         0.00498    0.00215   -0.00807    0.00665
AFIX  43
H201  2    0.776182    0.236359    0.145640   -21.00000   -1.20000
AFIX   0
N202  3    0.710954    0.307965   -0.056033   -21.00000    0.11021    0.01900 =
         0.00613    0.00112   -0.00892    0.00611
C202  1    0.745472    0.332249    0.102950   -21.00000    0.11211    0.01844 =
         0.00821    0.00163   -0.00909    0.00855
N203  3    0.735481    0.251725   -0.001598   -21.00000    0.10780    0.01858 =
         0.00435    0.00143   -0.00619    0.00507
N204  3    0.716723    0.067102   -0.065986   -21.00000    0.10148    0.01299 =
         0.00464    0.00698    0.00216    0.00322
C203  1    0.726948    0.186931   -0.050693    21.00000    0.10359    0.01851 =
         0.00594    0.00173    0.00133    0.00203
C204  1    0.718375    0.115436   -0.003715   -21.00000    0.10224    0.01475 =
         0.00705    0.00425    0.00336    0.00246
AFIX  43
H204  2    0.714644    0.108050    0.065723   -21.00000   -1.20000
AFIX   0
N205  3    0.722679    0.091642   -0.151693   -21.00000    0.09798    0.01642 =
         0.00395    0.00510    0.00335    0.00138
C205  1    0.746212    0.378123    0.191272   -21.00000    0.11605    0.02086 =
         0.01456    0.00153   -0.01085    0.01306
PART 0
HKLF 4




REM  OAV-605 in I4(1)/a
REM wR2 = 0.3049, GooF = S = 1.363, Restrained GooF = 1.321 for all data
REM R1 = 0.1073 for 1644 Fo > 4sig(Fo) and 0.1410 for all 2317 data
REM 230 parameters refined using 170 restraints

END

WGHT      0.1986     64.7022

REM Highest difference peak  3.177,  deepest hole -0.907,  1-sigma level  0.199
Q1    1   0.7684  0.4671  0.0300  11.00000  0.05    3.18
Q2    1   0.7127  0.0234 -0.0265  11.00000  0.05    3.02
Q3    1   0.7117  0.4127  0.0211  11.00000  0.05    2.15
Q4    1   0.6520  0.4681  0.0266  11.00000  0.05    1.76
Q5    1   0.7286  0.4697  0.1636  11.00000  0.05    1.07
Q6    1   0.6836  0.3661  0.2861  11.00000  0.05    0.79
Q7    1   0.7205  0.0742 -0.1564  11.00000  0.05    0.78
Q8    1   0.7609  0.0721 -0.0669  11.00000  0.05    0.75
Q9    1   0.7816  0.4603  0.2637  11.00000  0.05    0.72
Q10   1   0.7241  0.2965  0.0022  11.00000  0.05    0.60
;
_shelx_res_checksum   27077

_shelx_hkl_file
;
   2  -2   0  429.56   61.16
   2   2   0  430.86   61.19
   2  -2   0  414.45   61.17
  -2   2   0  393.48   61.16
  -2   2   0  404.40   61.16
  -2  -2   0  429.59   61.18
   2   2   0  425.49   61.18
  -1   3   0    0.19    0.21
   3   1   0   -0.43    0.76
   1  -3   0   -0.38    0.57
   3   1   0   -0.26    0.71
  -3  -1   0    0.04    0.77
   1  -3   0   -0.63    0.77
  -1   3   0    0.54    0.69
   1   3   0   -0.90    0.77
  -1  -3   0    0.95    0.75
   3  -1   0   -1.07    0.67
  -3   1   0   -0.55    0.63
  -3   1   0    1.29    0.57
  -1  -3   0   -0.39    0.79
   3  -1   0    1.77    0.66
   1   3   0    0.24    0.68
  -3   3   0    0.28    0.87
  -3   3   0    0.85    0.70
   3   3   0    0.53    1.01
   3  -3   0    1.36    1.35
  -3  -3   0   -1.43    1.00
   3   3   0    0.90    1.21
   3  -3   0   -1.42    0.96
  -3  -3   0    0.84    1.21
  -4  -2   0    6.66    1.55
   2  -4   0    4.95    1.17
  -4  -2   0    6.49    1.48
   4   2   0    6.09    1.41
   4   2   0    7.33    1.48
  -2   4   0    5.90    1.15
   2  -4   0    3.94    1.40
  -2   4   0    5.53    1.27
   0  -4   0  977.52  141.74
   0  -4   0  922.05  141.72
  -4   0   0  974.73  141.72
   4   0   0  955.13  141.73
   0   4   0 1000.00  141.74
   4   0   0  984.96  141.73
   2   4   0    5.86    1.56
  -4   2   0    7.07    1.36
  -4   2   0    8.23    1.39
  -2  -4   0    5.77    1.62
  -2  -4   0    6.34    1.50
   4  -2   0    6.74    1.38
   2   4   0    5.58    1.44
  -4  -4   0   20.93    3.27
   4  -4   0   20.79    3.29
  -4  -4   0   19.04    3.51
  -4   4   0   18.86    3.01
   4   4   0   18.36    3.35
   4  -4   0   15.65    3.03
   4   4   0   19.64    3.32
  -4   4   0   18.77    3.06
  -5  -3   0   -1.21    1.12
   3  -5   0    0.77    1.31
  -3   5   0   -0.93    0.87
  -5  -3   0    0.93    1.41
   5   3   0   -0.68    1.16
   3  -5   0   -0.41    1.22
  -3   5   0    0.85    0.74
   5   3   0   -1.05    1.19
  -1   5   0    8.50    1.99
   5   1   0   11.63    2.09
  -5  -1   0   13.60    2.34
   1  -5   0    9.69    1.87
   5   1   0   11.08    2.03
   1  -5   0   10.06    2.13
  -5   1   0   18.15    3.05
   5  -1   0   20.70    3.12
   5  -1   0   13.58    3.12
   1   5   0   19.40    3.14
  -1  -5   0   17.47    3.10
  -5   1   0   18.10    3.03
   1   5   0   18.60    3.24
  -1  -5   0   15.55    3.35
   3   5   0    0.40    1.17
   5  -3   0    1.25    0.94
  -3  -5   0   -1.31    1.22
   3   5   0    1.24    1.14
   5  -3   0    0.65    1.04
  -5   3   0   -1.10    0.89
  -3  -5   0   -0.83    1.11
  -5   3   0    0.35    0.91
   5  -5   0    0.41    0.78
   5  -5   0   -1.68    1.19
  -5   5   0   -4.00    1.48
   5   5   0   -1.80    1.13
  -5  -5   0   -1.91    1.37
  -5   5   0    0.38    0.78
  -5  -5   0    0.14    1.13
   5   5   0    1.90    1.18
   4  -6   0   18.29    3.08
   4  -6   0   16.80    2.80
   6   4   0   18.91    3.12
  -6  -4   0   19.61    3.31
  -6  -4   0   17.32    3.03
  -4   6   0   11.57    2.78
  -4   6   0   14.82    2.71
   6   4   0   16.00    3.02
  -6  -2   0    2.78    1.51
   6   2   0    4.99    1.53
   6   2   0    5.51    1.58
  -2   6   0    4.79    1.28
   2  -6   0    6.89    1.67
   2  -6   0    7.55    1.38
  -2   6   0    6.68    1.49
  -6  -2   0    6.85    1.75
   6   0   0  500.67   70.29
  -6   0   0  440.81   70.28
   0  -6   0  491.29   70.32
   6   0   0  464.12   70.30
   0   6   0  498.65   70.31
  -6   0   0  505.30   70.29
   0  -6   0  461.32   70.29
  -2  -6   0   11.03    2.34
  -6   2   0   11.27    2.28
   2   6   0    7.92    2.20
   6  -2   0   11.47    2.36
  -2  -6   0   12.14    2.47
  -6   2   0   14.33    2.31
   2   6   0   13.94    2.44
  -4  -6   0   18.11    3.25
  -4  -6   0   17.46    3.51
   4   6   0   16.09    3.37
   4   6   0   20.26    3.30
   6  -4   0   16.43    3.09
  -6   4   0   18.62    3.40
   6  -4   0   18.89    3.25
  -6   4   0   19.56    3.03
  -6   6   0    1.17    0.91
  -6  -6   0    2.57    1.62
  -6  -6   0    0.32    1.29
   6  -6   0    1.92    0.90
  -6   6   0    0.02    0.97
   6   6   0    0.60    1.32
   6   6   0    2.00    1.28
   6  -6   0    3.50    1.40
  -7  -5   0    0.38    1.55
  -7  -5   0    2.31    2.26
   5  -7   0   -0.04    0.83
   5  -7   0   -0.91    1.34
   7   5   0   -0.65    1.29
  -5   7   0   -0.19    0.93
  -5   7   0    0.66    0.81
   7   5   0    0.43    1.24
   7   3   0    0.32    1.27
  -7  -3   0   -0.40    1.43
  -7  -3   0    0.10    2.35
   3  -7   0   -1.03    1.23
   3  -7   0   -2.37    1.49
   7   3   0    0.75    1.18
  -3   7   0   -0.91    1.03
  -3   7   0   -0.72    0.79
   7   1   0   -3.08    1.24
  -7  -1   0   -0.76    1.42
   1  -7   0   -4.75    1.05
   7   1   0   -3.79    1.19
   1  -7   0   -5.49    1.46
  -7   1   0    2.73    1.33
  -1  -7   0    2.90    1.16
  -7   1   0    2.36    1.16
   7  -1   0    1.01    1.19
   1   7   0    5.38    1.21
   1   7   0    7.48    1.43
   7  -1   0   -3.19    1.27
  -1  -7   0    7.40    1.61
  -3  -7   0    0.83    1.16
   7  -3   0    1.25    1.03
   3   7   0    1.93    1.20
   7  -3   0    1.40    1.13
  -7   3   0    0.48    0.95
  -3  -7   0   -1.51    1.43
  -7   3   0    0.44    0.98
   3   7   0   -0.51    1.22
   7  -5   0    0.69    1.32
  -5  -7   0   -1.16    1.25
  -5  -7   0   -0.24    1.58
  -7   5   0   -1.17    0.97
   5   7   0   -1.07    1.33
   5   7   0   -2.32    1.29
  -7   5   0    0.96    1.04
   7  -5   0   -1.49    0.89
  -7   7   0    1.72    1.06
  -7  -7   0   -0.92    1.35
   7  -7   0    1.60    1.59
   7  -7   0    3.05    1.09
  -7  -7   0   -1.57    1.69
   7   7   0   -0.83    1.36
   7   7   0   -0.79    1.46
  -8  -6   0   -1.26    1.44
   8   6   0    5.30    1.55
  -6   8   0    3.65    1.24
   6  -8   0    5.08    1.15
  -8  -6   0    2.86    1.84
   6  -8   0    4.09    1.66
  -6   8   0    2.82    1.14
   8   6   0    4.66    1.64
  -8  -4   0   30.09    4.32
  -8  -4   0   27.62    4.57
  -4   8   0   23.33    3.96
   8   4   0   29.80    4.34
  -4   8   0   24.39    4.10
   8   4   0   24.25    4.24
   4  -8   0   22.54    4.35
   4  -8   0   22.10    4.05
  -8  -2   0   14.88    3.53
  -2   8   0   18.66    3.26
   2  -8   0   21.16    3.73
   8   2   0   18.10    3.54
  -2   8   0   26.01    3.46
   8   2   0   18.16    3.59
   2  -8   0   18.50    3.33
   0   8   0    5.42    1.60
  -8   0   0    5.17    1.38
   0  -8   0    5.21    1.76
  -8   0   0    4.23    1.59
   8   0   0    7.87    1.67
   0  -8   0    5.15    1.46
   8   0   0    2.98    1.48
   2   8   0   29.77    4.62
  -2  -8   0   28.75    4.83
  -8   2   0   27.25    4.43
  -8   2   0   25.94    4.45
   8  -2   0   26.74    4.49
  -2  -8   0   27.28    4.54
   2   8   0   28.94    4.49
  -4  -8   0   29.73    4.78
  -8   4   0   24.77    4.17
   4   8   0   27.96    4.40
   8  -4   0   28.70    4.33
  -8   4   0   25.59    4.18
   4   8   0   17.87    4.79
   8  -4   0   28.46    4.28
  -4  -8   0   23.93    4.39
  -6  -8   0    3.89    2.04
  -8   6   0    3.07    1.23
   6   8   0    5.76    2.80
   6   8   0    1.55    1.54
   8  -6   0    3.39    1.64
  -8   6   0    3.50    1.17
   8  -6   0    4.93    1.25
  -6  -8   0    3.86    1.53
   8  -8   0    4.69    1.65
  -8   8   0    0.02    0.99
   8  -8   0    1.54    1.16
   8   8   0    4.54    2.52
  -8  -8   0    2.79    2.03
  -8  -8   0   -1.25    1.45
   8   8   0    2.32    1.67
  -7   9   0   -1.08    1.07
   9   7   0   -0.73    1.59
   7  -9   0   -0.86    1.66
   7  -9   0    1.85    1.14
  -9  -7   0   -0.82    1.48
   9   7   0   -0.66    1.49
  -9  -7   0    1.31    1.78
  -7   9   0    0.31    0.99
   9   5   0   -0.66    1.45
  -5   9   0   -0.27    0.93
   5  -9   0   -1.09    1.57
  -5   9   0   -1.81    1.08
   9   5   0   -0.20    1.42
  -9  -5   0   -1.09    1.75
  -9  -5   0   -1.52    1.31
   5  -9   0    0.42    0.98
  -3   9   0   -0.87    1.19
  -9  -3   0   -0.97    1.30
  -9  -3   0    0.21    1.54
  -3   9   0    0.60    0.90
   3  -9   0   -3.84    1.41
   9   3   0   -0.16    1.49
   9   3   0    0.89    1.35
   3  -9   0   -0.78    1.03
  -9  -1   0   -1.06    1.16
   9   1   0   -0.54    1.41
  -1   9   0   -0.86    0.87
   1  -9   0    1.07    1.17
   9   1   0   -2.02    1.52
  -1   9   0   -0.96    1.32
  -9  -1   0   -0.79    1.18
   1  -9   0   -0.31    1.60
   1   9   0    1.71    1.12
   9  -1   0   -1.45    1.31
  -1  -9   0    0.35    1.61
  -9   1   0   -1.13    1.11
  -1  -9   0    0.23    1.16
  -9   1   0   -0.80    1.36
   9  -1   0    1.98    1.39
   1   9   0    2.21    1.41
  -3  -9   0    3.06    1.34
  -3  -9   0   -0.94    1.71
  -9   3   0   -1.25    1.09
   3   9   0   -1.19    1.27
   9  -3   0    2.54    1.36
  -9   3   0   -1.11    1.12
   3   9   0    0.39    1.39
   9  -3   0    3.48    1.27
   5   9   0   -0.68    1.38
  -5  -9   0    3.83    1.81
   5   9   0   -1.45    1.45
   9  -5   0    1.78    1.17
   9  -5   0   -0.23    1.31
  -9   5   0   -0.26    1.01
  -9   5   0    2.01    1.04
  -5  -9   0   -2.25    1.30
   7   9   0    0.70    1.52
   9  -7   0   -0.32    1.15
   9  -7   0    1.05    1.54
  -7  -9   0   -0.82    2.01
  -7  -9   0   -0.52    1.43
  -9   7   0   -0.78    1.02
   7   9   0   -0.93    1.47
   9   9   0    0.44    1.59
  -9   9   0    0.05    1.09
   9   9   0    0.44    1.76
  -9  -9   0   -0.31    2.18
  -9  -9   0   -1.50    1.57
   9  -9   0   -4.14    1.71
  -9   9   0   -1.42    1.10
   9  -9   0    0.22    1.22
 -10  -8   0    2.62    2.17
   8 -10   0    3.47    1.25
  10   8   0    2.03    1.78
  -8  10   0    0.40    1.09
  10   8   0    4.37    2.82
   8 -10   0    1.92    1.86
 -10  -8   0    0.89    1.72
  -6  10   0   16.91    2.97
  10   6   0   22.05    3.52
  -6  10   0   17.57    2.90
   6 -10   0   22.99    3.57
 -10  -6   0   11.70    3.16
  10   6   0   15.62    3.33
 -10  -6   0   10.85    2.89
   6 -10   0   17.19    2.97
  -4  10   0   78.37   11.00
 -10  -4   0   71.82   11.15
  10   4   0   63.78   11.13
  10   4   0   81.02   11.18
   4 -10   0   72.47   11.05
  -4  10   0   74.61   11.05
  10   2   0  116.85   17.14
  -2  10   0  110.02   17.01
 -10  -2   0  117.02   17.11
   2 -10   0  116.06   17.04
  10   2   0  107.50   17.13
   2 -10   0  119.16   17.17
  -2  10   0  121.07   17.09
   0 -10   0  261.69   36.51
   0  10   0  245.85   36.44
 -10   0   0  263.94   36.41
   0 -10   0  241.55   36.41
 -10   0   0  241.03   36.44
  10   0   0  262.02   36.43
  10   0   0  220.92   36.42
 -10   2   0  126.91   18.23
 -10   2   0  123.26   18.27
  -2 -10   0  114.07   18.29
   2  10   0  114.49   18.31
   2  10   0  122.41   18.31
  10  -2   0  138.78   18.30
  -2 -10   0  124.30   18.43
   4  10   0   78.15   11.15
  -4 -10   0   72.27   11.13
  -4 -10   0   80.78   11.36
   4  10   0   64.21   11.16
 -10   4   0   73.17   11.01
  10  -4   0   73.62   11.04
 -10   4   0   75.85   11.01
  10  -6   0   19.58    3.33
  -6 -10   0   11.93    3.17
  10  -6   0   19.59    3.04
 -10   6   0   17.96    2.87
  -6 -10   0   21.69    3.87
   6  10   0   17.08    3.38
   6  10   0    8.65    2.85
  10  -8   0   -0.61    1.66
  -8 -10   0   -0.34    2.21
  -8 -10   0    1.00    1.55
  10  -8   0    1.27    1.28
 -10   8   0    1.05    1.03
 -10   8   0    0.14    1.00
   8  10   0   -0.76    1.68
   8  10   0   -1.97    1.49
  10  10   0    2.58    1.76
  10 -10   0    3.49    1.47
  10 -10   0    4.70    2.07
  10  10   0    1.13    1.99
 -10  10   0    2.43    1.28
 -10 -10   0    4.40    2.69
 -10 -10   0    2.95    1.80
 -10  10   0    2.28    1.22
 -11  -9   0   -0.88    2.42
   9 -11   0   -0.80    1.35
   9 -11   0   -0.18    2.09
  11   9   0   -4.35    1.87
  11   9   0   -1.23    1.68
 -11  -9   0   -0.72    1.81
  11   7   0   -1.19    1.67
 -11  -7   0   -0.74    2.01
 -11  -7   0    1.33    1.61
  -7  11   0   -1.98    1.24
   7 -11   0    2.78    1.20
  11   7   0   -3.07    1.72
   7 -11   0    0.90    1.84
   5 -11   0    1.51    1.81
 -11  -5   0   -0.89    1.73
  -5  11   0   -0.20    1.05
 -11  -5   0   -0.04    1.45
  11   5   0    3.36    1.55
  11   5   0   -4.22    1.70
  -5  11   0    0.32    1.30
   5 -11   0   -0.49    1.09
   3 -11   0   -1.47    1.15
 -11  -3   0   -0.15    1.46
  -3  11   0    0.11    0.98
  11   3   0    0.15    1.46
  -3  11   0   -0.21    1.33
   3 -11   0   -0.55    1.61
  11   3   0   -0.33    1.60
  11   1   0   -0.99    1.84
   1 -11   0   -2.24    1.85
  11   1   0   -2.80    1.54
 -11  -1   0   -3.82    1.64
  -1  11   0    1.91    1.06
 -11  -1   0   -0.62    1.33
   1 -11   0    3.02    1.28
  -1  11   0   -0.76    1.39
   1  11   0    0.05    1.38
  11  -1   0    1.15    1.65
  11  -1   0   -2.31    1.45
 -11   1   0    1.19    1.15
  -1 -11   0    4.98    1.95
  -1 -11   0   -1.28    1.29
 -11   1   0    1.41    1.50
   1  11   0   -0.97    1.38
  11  -3   0    0.45    1.43
 -11   3   0   -1.96    1.38
   3  11   0   -3.89    1.46
  11  -3   0    0.74    1.35
 -11   3   0   -0.17    1.25
  -3 -11   0   -0.09    1.35
  -3 -11   0   -1.43    1.82
   3  11   0   -2.34    1.34
 -11   5   0    1.10    1.12
  -5 -11   0    0.67    2.06
   5  11   0   -1.74    1.50
  -5 -11   0   -0.98    1.44
  11  -5   0    1.20    1.38
  11  -5   0    1.40    1.52
   5  11   0    0.69    1.48
 -11   7   0   -0.39    1.01
  11  -7   0   -0.76    1.64
   7  11   0   -2.03    1.46
 -11   7   0   -0.87    1.02
  -7 -11   0   -3.50    2.13
  -7 -11   0   -0.59    1.61
  11  -7   0   -1.27    1.34
   7  11   0   -2.97    1.60
   9  11   0   -1.30    1.65
   9  11   0   -1.67    1.90
  -9 -11   0   -0.78    1.69
  11  -9   0   -0.36    1.35
  11  -9   0   -4.83    1.90
  -9 -11   0    0.65    2.44
  11 -11   0   -1.22    2.31
  11  11   0    1.59    2.23
 -11 -11   0    0.42    2.85
  11 -11   0    0.64    1.60
 -11 -11   0   -1.95    1.92
  11  11   0   -1.32    1.97
  12  10   0   11.34    2.91
  12  10   0    7.38    2.67
  10 -12   0   13.65    2.98
 -12 -10   0    7.84    3.20
  10 -12   0   12.62    2.32
 -12 -10   0    6.18    3.15
  -8  12   0    5.97    1.59
   8 -12   0    5.32    2.40
  12   8   0    0.47    3.23
 -12  -8   0    5.87    2.63
   8 -12   0    2.65    1.47
  12   8   0    1.16    2.15
  -8  12   0    5.07    1.36
 -12  -8   0    3.74    2.06
   6 -12   0    2.32    2.04
 -12  -6   0    2.23    2.04
  -6  12   0    4.41    1.31
  12   6   0    3.44    1.80
   6 -12   0    4.07    1.40
  12   6   0    2.19    1.94
 -12  -6   0    1.00    1.76
  12   4   0   25.16    4.40
 -12  -4   0   21.21    4.27
  12   4   0   20.70    4.32
  -4  12   0   17.95    4.14
   4 -12   0   36.74    4.65
  -4  12   0   22.87    3.92
 -12  -4   0   28.75    4.57
   4 -12   0   20.06    4.47
  -2  12   0  103.71   14.68
   2 -12   0  111.06   14.90
  12   2   0   84.73   14.78
 -12  -2   0   99.00   14.76
   2 -12   0   93.53   14.69
  12   2   0  108.87   14.82
  -2  12   0  101.49   14.77
 -12  -2   0   91.17   14.81
   0 -12   0  190.04   27.76
  12   0   0  212.52   27.68
   0 -12   0  181.31   27.62
 -12   0   0  188.15   27.62
 -12   0   0  183.93   27.69
   0  12   0  187.33   27.67
  12   0   0  171.59   27.64
 -12   2   0   98.31   15.30
   2  12   0   96.23   15.37
  -2 -12   0  101.68   15.29
 -12   2   0  102.37   15.25
  12  -2   0  111.67   15.32
  -2 -12   0  107.62   15.72
  -4 -12   0   26.58    4.99
  12  -4   0   26.72    4.39
 -12   4   0   25.23    4.29
   4  12   0   19.74    4.44
 -12   4   0   26.24    4.19
  12  -4   0   21.88    4.28
  -4 -12   0   26.16    4.39
   4  12   0   24.75    4.39
   6  12   0   -1.14    1.63
  12  -6   0    3.56    1.56
 -12   6   0    2.88    1.29
 -12   6   0    1.12    1.34
  12  -6   0    3.24    1.76
   6  12   0    4.84    1.88
  -6 -12   0    1.56    2.25
  -6 -12   0    4.37    1.73
  12  -8   0    2.77    1.60
   8  12   0    3.71    2.01
   8  12   0    1.06    1.87
  12  -8   0    2.11    1.99
  -8 -12   0   -0.02    2.66
  -8 -12   0    7.13    1.94
  10  12   0    9.39    2.96
  12 -10   0   19.57    3.14
 -10 -12   0   15.25    3.71
  12 -10   0   14.56    3.15
 -10 -12   0   10.26    2.88
  10  12   0    7.47    2.79
  12  12   0   31.25    4.98
  12  12   0   17.90    4.07
  12 -12   0   27.64    4.36
 -12 -12   0   17.45    4.23
 -12 -12   0   16.51    4.68
  12 -12   0   22.24    4.20
  13  11   0   -2.01    2.17
  11 -13   0    1.69    2.61
  13  11   0    1.34    2.55
 -13 -11   0    2.20    3.11
  11 -13   0   -0.98    1.68
 -13 -11   0   -3.81    2.14
 -13  -9   0    1.67    2.74
   9 -13   0    0.86    1.61
  -9  13   0    0.50    1.38
  13   9   0   -4.02    1.99
  13   9   0   -0.27    2.34
 -13  -9   0    1.42    2.09
   9 -13   0    4.26    2.53
  -7  13   0   -0.66    1.56
 -13  -7   0    1.79    2.09
   7 -13   0    0.52    2.34
  -7  13   0    0.06    1.25
  13   7   0   -0.78    2.10
  13   7   0    1.21    1.93
 -13  -7   0    2.05    2.38
   7 -13   0   -1.78    1.31
 -13  -5   0    0.03    3.16
  -5  13   0    1.11    1.17
  -5  13   0    0.03    1.53
 -13  -5   0   -0.81    2.29
  13   5   0    1.18    1.81
  13   5   0   -1.80    1.95
   5 -13   0    0.06    1.20
   5 -13   0    0.22    2.09
  13   3   0    0.68    1.82
  -3  13   0    0.16    2.76
   3 -13   0   -0.05    1.96
  -3  13   0   -0.66    1.12
  13   3   0   -3.90    1.83
   3 -13   0   -0.41    1.23
 -13  -3   0   -1.74    1.69
 -13  -3   0   -0.25    0.83
   1 -13   0    0.65    1.30
  13   1   0   -2.16    1.69
 -13  -1   0    1.97    1.54
  -1  13   0   -1.37    1.56
  -1  13   0    1.27    1.22
  13   1   0    1.54    1.73
   1 -13   0   -2.77    2.01
 -13  -1   0    0.32    1.90
  13  -1   0    1.83    1.63
  -1 -13   0    3.28    1.49
  -1 -13   0   -0.54    2.16
  13  -1   0   -1.85    1.65
   1  13   0    1.52    1.79
 -13   1   0    0.63    1.45
 -13   1   0   -0.45    1.77
   3  13   0   -1.15    1.39
  -3 -13   0   -2.34    2.18
  13  -3   0   -0.80    1.65
 -13   3   0    2.07    2.32
  13  -3   0   -1.12    1.60
  -3 -13   0    0.05    1.50
 -13   3   0   -2.25    1.57
   3  13   0    0.51    1.68
  -5 -13   0    4.26    2.94
 -13   5   0   -1.60    1.38
   5  13   0   -2.83    1.52
 -13   5   0   -0.15    1.31
  13  -5   0   -2.16    1.54
  13  -5   0   -2.33    1.70
  -5 -13   0    0.26    1.58
   5  13   0   -4.30    1.57
  13  -7   0   -0.99    1.61
 -13   7   0    1.12    1.23
   7  13   0    4.71    2.02
  13  -7   0   -0.56    1.93
  -7 -13   0   -0.36    2.65
   7  13   0   -1.44    1.70
 -13   7   0   -0.78    1.14
  -7 -13   0   -1.83    1.75
  -9 -13   0   -1.26    2.91
  -9 -13   0   -2.48    2.00
  13  -9   0   -4.41    1.70
   9  13   0   -0.89    1.97
   9  13   0   -0.47    2.09
  13  -9   0   -1.12    2.18
  11  13   0    3.16    2.23
  13 -11   0   -0.86    1.90
 -11 -13   0    2.86    3.34
 -11 -13   0   -1.68    2.21
  11  13   0    0.19    2.42
  13 -11   0    0.12    2.29
  13  13   0   -0.43    2.68
 -13 -13   0    1.96    3.50
 -13 -13   0    1.74    2.56
  13 -13   0    2.84    2.01
  13 -13   0   -4.83    2.76
  13  13   0   -1.99    2.32
  12 -14   0   24.83    4.00
  14  12   0   15.24    4.07
  12 -14   0   20.88    4.42
 -14 -12   0   24.83    4.81
  14  12   0   12.08    3.84
  10 -14   0   12.37    2.43
  14  10   0    7.13    2.79
  10 -14   0   12.50    3.31
  14  10   0   11.57    3.12
 -14 -10   0    5.82    3.10
 -14 -10   0   14.50    3.65
 -14  -8   0    1.62    2.26
   8 -14   0    1.55    1.48
  -8  14   0    1.26    1.41
 -14  -8   0   -2.85    2.66
   8 -14   0    0.78    2.49
  14   8   0   -2.09    2.10
  14   8   0   -1.75    2.25
  -6  14   0    8.55    2.29
 -14  -6   0    5.48    2.48
  14   6   0   10.17    2.73
   6 -14   0   11.92    2.89
 -14  -6   0    7.87    2.89
   6 -14   0   11.52    2.10
  -6  14   0   11.65    2.22
  14   6   0    4.76    2.51
   4 -14   0   41.17    7.29
  14   4   0   39.03    7.58
   4 -14   0   57.47    7.87
  -4  14   0   45.42    7.47
  14   4   0   58.10    7.70
  -4  14   0   53.58    7.30
 -14  -4   0   39.36    7.61
   2 -14   0  125.94   20.05
  -2  14   0  131.90   20.17
 -14  -2   0  125.04   20.20
  14   2   0  149.11   20.19
   2 -14   0  155.00   20.29
 -14  -2   0  133.84   20.15
  14   2   0  121.49   20.16
  -2  14   0  145.23   20.05
   0 -14   0  237.60   36.22
  14   0   0  213.39   36.25
  14   0   0  276.47   36.29
 -14   0   0  239.32   36.31
   0  14   0  240.61   36.31
 -14   0   0  265.88   36.24
   0 -14   0  252.98   36.37
 -14   2   0  140.02   21.18
   2  14   0  129.08   21.27
  -2 -14   0  127.61   21.14
 -14   2   0  149.29   21.13
  -2 -14   0  144.34   21.41
   2  14   0  137.14   21.15
  14  -2   0  172.21   21.21
   4  14   0   41.69    7.00
 -14   4   0   41.18    6.79
  -4 -14   0   48.48    7.61
  -4 -14   0   43.56    7.01
  14  -4   0   40.88    6.91
  14  -4   0   51.60    7.05
 -14   4   0   39.71    6.94
  -6 -14   0   13.64    3.35
   6  14   0   13.47    2.61
  14  -6   0   13.59    2.65
  -6 -14   0    9.51    2.55
  14  -6   0   11.84    2.47
 -14   6   0    6.04    2.15
 -14   6   0    9.18    2.10
  -8 -14   0   -1.80    3.00
   8  14   0    2.01    2.20
  14  -8   0    1.75    1.88
  14  -8   0   -2.39    2.15
  -8 -14   0    1.94    2.08
  10  14   0   12.28    2.85
  10  14   0    2.59    3.00
 -10 -14   0    7.93    2.72
 -10 -14   0    3.67    5.32
  14 -10   0    8.68    2.48
  14 -10   0   16.44    3.02
 -12 -14   0    9.31    4.37
  12  14   0    7.44    3.53
  14 -12   0   18.31    3.30
 -12 -14   0   17.76    3.68
  14 -12   0   23.33    4.06
  12  14   0   18.00    3.78
  14  14   0   22.22    4.17
 -14 -14   0   14.65    4.66
  14  14   0    7.76    3.80
  14 -14   0   21.55    4.07
  14 -14   0   20.74    4.21
  13 -15   0   -3.03    3.12
  13 -15   0   -0.40    1.98
  15  13   0    0.42    3.08
 -15 -13   0    0.44    3.64
  15  11   0   -0.65    2.43
  15  11   0   -2.49    2.78
  11 -15   0    6.28    4.54
  11 -15   0   -1.08    1.79
 -15 -11   0    3.22    3.32
 -15  -9   0   -2.75    2.88
  15   9   0    0.33    2.53
  15   9   0    0.18    2.34
   9 -15   0   -3.29    2.76
   9 -15   0   -1.37    1.55
   7 -15   0   -1.39    1.45
  -7  15   0    0.28    1.50
  15   7   0   -0.13    2.34
   7 -15   0   -0.02    2.66
  15   7   0    2.15    2.38
 -15  -7   0    2.23    2.68
   5 -15   0    4.51    2.63
 -15  -5   0   -2.06    2.72
  -5  15   0    1.36    2.38
  15   5   0    0.90    2.15
  15   5   0    0.14    2.33
   5 -15   0    0.00    1.71
  15   3   0    0.54    1.98
 -15  -3   0    2.21    2.03
  -3  15   0   -0.69    1.42
  15   3   0   -4.67    2.12
   3 -15   0   -2.83    1.40
  -3  15   0    1.26    3.91
   3 -15   0    0.72    2.33
 -15  -3   0   -2.89    1.90
 -15  -1   0    2.95    2.10
  15   1   0    1.08    2.05
  -1  15   0    0.37    1.40
   1 -15   0   -1.02    1.43
   1 -15   0   -2.95    2.24
 -15  -1   0    1.39    1.82
  -1  15   0   -2.50    2.06
  15   1   0   -2.11    1.85
   1  15   0   -3.02    1.94
  15  -1   0   -1.60    1.94
 -15   1   0   -3.00    1.57
 -15   1   0    1.52    1.90
  -1 -15   0   -2.57    2.53
  -1 -15   0    1.27    1.64
  -3 -15   0   -0.40    1.80
   3  15   0   -0.39    1.66
  15  -3   0    0.47    1.92
  15  -3   0   -4.21    1.80
  -3 -15   0    0.04    2.74
   3  15   0    2.86    2.07
 -15   3   0    0.44    1.78
 -15   3   0    1.34    1.63
  -5 -15   0   -4.07    2.83
 -15   5   0    0.37    1.43
  -5 -15   0   -1.27    1.94
   5  15   0   -1.08    1.97
 -15   5   0   -1.19    1.55
  15  -5   0   -2.53    1.87
   5  15   0    1.33    2.10
  15  -5   0   -5.37    2.04
  15  -7   0    1.36    2.21
  -7 -15   0   -0.30    3.23
   7  15   0   -0.99    2.18
  -7 -15   0    1.70    2.14
   7  15   0   -1.95    2.07
  15  -7   0   -1.18    1.93
   9  15   0    2.81    2.31
   9  15   0    0.42    2.44
  15  -9   0    0.33    2.12
  -9 -15   0    3.19    2.44
  15  -9   0   -1.33    2.35
  -9 -15   0   -1.39    3.24
 -11 -15   0   -1.23    3.57
  11  15   0   -2.96    2.51
 -11 -15   0    1.41    2.52
  11  15   0   -1.21    2.38
  15 -11   0    0.12    3.82
  15 -11   0   -1.95    2.15
 -13 -15   0   -0.38    3.80
  13  15   0   -0.23    2.90
  13  15   0    3.50    2.82
  15 -13   0   -3.00    2.93
  15 -13   0    1.52    2.33
  15 -15   0   -1.88    2.32
  15 -15   0    1.25    3.26
  15  15   0   -1.99    3.25
 -15 -15   0   -6.62    6.02
  14 -16   0   14.39    3.73
  16  14   0    7.32    3.46
 -16 -14   0    6.26    4.33
  16  14   0   -1.01    3.57
  14 -16   0   11.10    2.69
  16  12   0    5.77    3.32
 -16 -12   0    7.54    3.85
  16  12   0    4.20    2.99
  12 -16   0   15.19    3.53
  12 -16   0    5.85    2.30
  10 -16   0    6.68    4.03
  16  10   0    1.98    2.53
  10 -16   0    5.86    1.87
  16  10   0    3.71    3.00
 -16 -10   0   -1.10    3.19
   8 -16   0    3.16    2.99
   8 -16   0    1.24    1.62
  16   8   0   -0.31    2.44
 -16  -8   0    4.30    2.87
  -8  16   0    1.69    1.64
  16   8   0    0.62    2.64
  -6  16   0    1.96    1.62
  16   6   0    1.12    2.51
  16   6   0    1.60    2.26
 -16  -6   0    2.94    2.73
   6 -16   0    5.00    2.86
   6 -16   0    1.22    1.58
   4 -16   0    9.37    2.92
 -16  -4   0    3.31    2.52
  -4  16   0    5.87    1.79
  16   4   0    2.60    2.56
  16   4   0    5.57    2.43
   4 -16   0    4.16    1.78
   2 -16   0   21.89    3.65
   2 -16   0   13.05    2.82
  16   2   0   11.61    3.15
  16   2   0   19.78    3.48
  -2  16   0   16.72    3.32
 -16  -2   0    9.90    3.27
   0 -16   0   39.41    6.76
   0  16   0   46.15    6.68
 -16   0   0   38.75    7.06
  16   0   0   49.59    7.08
   0 -16   0   43.65    7.41
  16   0   0   33.14    6.90
  -2 -16   0   15.52    3.84
  16  -2   0   16.35    3.25
   2  16   0   11.34    3.48
  -2 -16   0   15.75    3.16
 -16   2   0   14.22    3.43
  16  -2   0   17.25    3.30
  -4 -16   0    4.61    2.17
 -16   4   0    6.19    2.03
  16  -4   0    2.83    2.18
  16  -4   0    5.08    2.25
   4  16   0    4.84    2.07
  -4 -16   0    3.29    3.33
   6  16   0    5.25    2.28
  16  -6   0    0.99    2.32
  -6 -16   0    1.22    2.05
 -16   6   0    4.52    1.55
  16  -6   0    0.88    2.24
  -6 -16   0    2.45    3.46
  -8 -16   0   -0.11    3.46
   8  16   0    2.25    2.30
  16  -8   0    0.16    2.20
  16  -8   0   -0.95    2.32
  -8 -16   0    2.59    2.29
  10  16   0    3.99    2.69
  16 -10   0    3.38    2.45
  16 -10   0    1.09    3.49
 -10 -16   0    6.92    3.82
 -10 -16   0    3.17    2.79
  16 -12   0    5.25    3.25
  16 -12   0   11.93    2.87
  12  16   0    6.62    3.24
 -12 -16   0    7.48    3.45
 -12 -16   0    7.43    4.25
 -14 -16   0   15.87    4.80
  16 -14   0   12.58    3.62
  14  16   0    5.49    3.50
  16 -14   0    4.08    2.83
 -16 -16   0    3.26    4.71
  16 -16   0    1.38    3.59
  16  16   0    9.64    3.93
  16 -16   0    4.34    2.71
 -17 -15   0    1.26    4.40
  17  15   0   -0.75    3.67
  15 -17   0    3.38    2.47
  15 -17   0   -0.68    3.62
  13 -17   0    4.06    2.26
  17  13   0   -2.12    3.40
 -17 -13   0    5.49    3.98
  17  13   0    3.45    3.15
  13 -17   0    0.11    3.44
  17  11   0   -0.88    2.76
 -17 -11   0    0.67    3.47
  11 -17   0    4.56    3.44
  11 -17   0    1.17    1.95
  17  11   0   -0.55    3.23
   9 -17   0    5.60    3.35
   9 -17   0   -1.34    1.62
  -9  17   0   -1.61    2.43
 -17  -9   0    0.45    3.18
  17   9   0    0.48    2.82
  17   9   0    1.11    2.60
  17   7   0    0.37    2.60
  17   7   0    0.56    2.70
   7 -17   0    8.10    3.09
  -7  17   0   -0.41    1.65
   7 -17   0    0.34    1.61
 -17  -7   0    4.11    3.87
 -17  -5   0    1.58    1.80
   5 -17   0   -1.10    2.73
  -5  17   0   -0.53    1.65
  17   5   0   -2.08    2.21
  17   5   0    0.43    2.72
   5 -17   0    1.22    1.82
  -3  17   0    0.42    1.61
  17   3   0   -2.17    2.19
   3 -17   0   -1.47    1.57
  17   3   0   -4.57    2.37
 -17  -3   0   -0.30    2.33
   3 -17   0   -0.67    2.84
  17   1   0    1.12    2.28
  17   1   0    1.10    2.29
  -1  17   0   -1.18    1.63
 -17  -1   0    2.12    2.27
   1 -17   0    1.04    1.73
   1 -17   0    1.37    2.64
   1  17   0    0.72    1.37
  -1 -17   0   -2.82    2.74
  -1 -17   0    0.80    1.90
  17  -1   0    0.49    2.22
   3  17   0    4.01    3.06
  17  -3   0   -0.11    2.15
  -3 -17   0    1.25    3.03
 -17   3   0    0.85    1.90
  17  -3   0   -2.32    2.16
  -3 -17   0   -0.78    1.86
  17  -5   0    2.65    2.40
  -5 -17   0    0.20    3.34
  -5 -17   0   -1.04    1.93
  17  -5   0   -2.92    2.21
 -17   5   0   -0.65    1.68
   5  17   0    0.29    1.96
  17  -7   0    0.88    2.52
   7  17   0    0.85    2.44
  -7 -17   0    3.98    2.32
  17  -7   0   -1.50    2.27
  -7 -17   0    0.77    3.75
  17  -9   0   -2.80    2.29
  -9 -17   0   -1.84    2.49
   9  17   0   -4.07    2.40
  -9 -17   0   -1.58    3.87
  17  -9   0   -0.35    2.51
  17 -11   0   -4.06    2.74
  11  17   0   -2.22    2.82
 -11 -17   0    0.57    4.19
  17 -11   0   -2.34    2.56
 -11 -17   0    1.23    2.83
  17 -13   0   -5.06    2.63
  13  17   0    2.27    3.24
  17 -13   0   -2.47    3.18
 -13 -17   0    1.94    4.51
 -15 -17   0    4.03    4.74
  17 -15   0    0.99    2.75
  17 -15   0   -1.43    3.55
  15  17   0    0.92    3.60
  18  14   0    3.50    4.00
 -18 -14   0    5.69    4.29
  14 -18   0    8.45    4.06
  14 -18   0    6.55    2.56
  18  12   0    5.05    3.68
  12 -18   0    3.13    2.32
  18  12   0    5.01    3.41
  12 -18   0   15.68    3.92
 -18 -12   0    7.48    3.89
  10 -18   0   17.38    3.82
 -18 -10   0    6.00    3.70
  18  10   0    0.58    3.21
  18  10   0    3.44    3.14
  10 -18   0    5.31    2.03
   8 -18   0   -3.10    1.69
 -18  -8   0    2.99    5.04
  18   8   0   -0.97    2.54
   8 -18   0    1.74    3.33
  18   8   0   -2.11    2.85
  -8  18   0   -1.43    3.50
   6 -18   0    5.11    5.35
 -18  -6   0    1.71    2.49
  18   6   0    2.12    2.49
  -6  18   0    2.59    1.89
   6 -18   0   -2.41    1.69
  18   6   0    2.59    2.73
  -4  18   0    5.16    2.13
  18   4   0    3.22    2.67
   4 -18   0    0.97    1.74
  18   4   0    3.66    2.43
   4 -18   0    5.00    3.18
 -18  -4   0    2.01    2.68
  18   2   0   15.35    3.58
 -18  -2   0   12.06    3.62
  18   2   0   16.51    3.70
   2 -18   0   14.49    3.12
   2 -18   0   24.97    4.11
  -2  18   0   15.90    3.16
   0 -18   0   37.60    6.97
   0  18   0   38.09    6.01
   0 -18   0   25.60    5.97
  18   0   0   43.42    6.45
  18  -2   0   14.48    3.47
  18  -2   0   18.70    3.52
  -2 -18   0   13.27    3.21
  -2 -18   0   17.62    4.08
 -18   2   0   15.55    3.32
  18  -4   0    9.31    2.71
   4  18   0    5.22    2.36
  -4 -18   0    6.98    3.69
  18  -4   0    4.12    2.60
  -4 -18   0    7.90    2.52
 -18   4   0    4.01    2.11
  -6 -18   0    2.06    2.28
  -6 -18   0    4.20    3.91
   6  18   0    3.20    2.42
  18  -6   0    5.61    2.86
  18  -6   0    0.57    2.49
  18  -8   0   -2.07    2.52
   8  18   0    0.57    2.61
  -8 -18   0    1.99    4.19
  -8 -18   0    1.04    2.57
  18  -8   0   -0.10    2.56
  18 -10   0    4.02    2.82
 -10 -18   0    5.36    4.76
 -10 -18   0    3.10    2.96
  10  18   0    6.35    3.15
  18 -10   0    5.49    2.91
  12  18   0    7.19    3.41
 -12 -18   0    9.34    4.72
  18 -12   0    0.81    2.95
  18 -12   0    2.98    3.23
  14  18   0    6.89    3.99
 -14 -18   0   15.43    5.39
  18 -14   0    8.84    3.70
  18 -14   0    4.51    3.31
 -19 -13   0    0.03    3.93
  13 -19   0   -2.98    2.10
  13 -19   0   -3.15    3.80
  19  13   0   -2.42    3.84
 -19 -11   0    2.15    3.58
  11 -19   0   -3.48    3.72
  19  11   0   -0.83    3.81
  11 -19   0   -0.04    2.00
  19  11   0   -5.34    2.95
   9 -19   0   -1.20    1.80
  19   9   0    1.59    2.87
   9 -19   0   -6.04    3.56
  19   9   0   -1.24    3.11
 -19  -9   0   -2.19    3.22
  19   7   0    3.54    2.99
  19   7   0    0.66    3.53
  -7  19   0    0.87    2.15
   7 -19   0   -1.90    1.65
   7 -19   0   -1.90    3.28
 -19  -5   0   -3.46    2.66
  19   5   0    0.26    2.83
  -5  19   0    0.50    1.96
   5 -19   0   -1.67    1.61
  19   5   0   -0.33    2.53
   5 -19   0   -0.53    3.13
  19   3   0    5.98    2.74
   3 -19   0    0.96    1.78
  19   3   0   -2.56    2.62
 -19  -3   0    3.59    2.72
  -3  19   0   -4.93    3.76
   3 -19   0    1.73    5.32
   1 -19   0    0.66    1.94
  19   1   0    1.27    2.80
  -1  19   0    4.13    2.00
 -19  -1   0    4.36    4.08
   1 -19   0    0.34    3.07
   1  19   0    1.04    1.90
  -1 -19   0   -3.24    3.05
  -1 -19   0   -1.69    1.88
 -19   1   0    3.60    2.40
  19  -1   0   -6.10    2.47
  -3 -19   0   -1.50    3.16
  19  -3   0    4.53    2.59
  -3 -19   0   -1.59    3.10
  19  -3   0   -1.64    2.45
 -19   3   0   -0.07    2.08
  19  -5   0   -1.24    2.60
  -5 -19   0   -3.36    3.65
   5  19   0   -0.53    2.32
 -19   5   0    0.29    1.97
  19  -5   0   -3.91    2.54
  -5 -19   0   -0.05    2.10
  -7 -19   0   -0.33    2.47
  19  -7   0   -0.58    2.70
   7  19   0   -1.18    2.54
  19  -7   0   -6.51    2.54
  -7 -19   0   -2.21    3.72
  -9 -19   0    0.19    4.41
   9  19   0    0.86    2.96
  19  -9   0    1.05    2.74
  19  -9   0   -0.54    2.81
  -9 -19   0   -3.88    4.02
  19 -11   0   -0.19    3.05
  19 -11   0   -1.41    2.95
  11  19   0   -1.06    3.15
 -11 -19   0    1.76    4.33
  13  19   0   -2.57    3.55
  19 -13   0   -1.33    3.14
  19 -13   0   -7.05    3.32
 -13 -19   0    0.64    4.89
  20  10   0   -4.42    3.54
  10 -20   0    2.56    3.85
  20  10   0   -0.43    3.23
  10 -20   0   -2.24    1.95
 -20 -10   0   -0.91    3.36
  20   8   0    0.01    2.82
   8 -20   0    3.64    3.66
   8 -20   0   -0.26    1.87
  20   8   0    1.53    3.27
 -20  -6   0   -1.02    3.05
   6 -20   0    3.63    3.38
  -6  20   0    2.97    2.17
   6 -20   0    0.37    2.13
  20   6   0   -1.32    2.66
  20   6   0    0.58    2.95
   4 -20   0   -1.18    3.28
 -20  -4   0    1.05    2.87
   4 -20   0    3.17    1.84
  -4  20   0    4.24    2.16
  20   4   0   -3.57    3.04
  20   4   0    1.20    2.83
   2 -20   0    2.78    2.07
   2 -20   0    4.52    3.43
  -2  20   0    2.90    2.54
  20   2   0    4.11    3.00
   0 -20   0    8.42    5.52
  20   0   0    5.83    2.84
   0 -20   0    2.99    2.20
   0  20   0    1.56    2.06
 -20   0   0    1.00    2.64
  20  -2   0    2.58    2.70
  -2 -20   0   -0.97    3.41
  20  -2   0    2.53    2.77
   2  20   0    3.66    1.97
 -20   2   0    2.65    2.36
  -2 -20   0    0.31    2.20
  20  -4   0   -1.99    2.78
  -4 -20   0   -1.80    3.67
  -4 -20   0    0.08    2.36
   4  20   0    7.48    3.76
 -20   4   0    2.43    2.23
  20  -4   0    7.06    2.70
  20  -6   0   -2.24    3.02
  20  -6   0    2.73    2.73
  -6 -20   0    1.72    2.66
  -6 -20   0   11.24    4.07
   6  20   0    3.58    2.52
   8  20   0    0.14    2.73
  20  -8   0    1.00    2.90
  -8 -20   0    0.25    2.97
  -8 -20   0    7.12    4.25
  20  -8   0   -3.68    3.08
  10  20   0   -3.38    3.09
  20 -10   0   -0.50    3.11
 -10 -20   0    4.71    4.66
  20 -10   0   -1.97    3.21
  21   9   0    2.22    3.51
  21   9   0    0.95    3.24
   9 -21   0    3.59    4.17
   9 -21   0   -0.83    1.99
  -7  21   0   -1.05    3.01
 -21  -7   0    3.63    3.19
   7 -21   0    0.04    1.87
  21   7   0   -3.37    2.96
  21   7   0   -2.10    3.10
   7 -21   0    3.78    3.89
 -21  -5   0    1.65    3.11
  21   5   0   -1.19    2.91
  21   5   0   -0.71    3.05
  -5  21   0    0.15    2.34
   5 -21   0   -0.92    1.85
   5 -21   0    2.64    3.58
   3 -21   0   -1.00    1.98
   3 -21   0    2.56    3.49
  21   3   0    2.24    3.05
  21   3   0   -0.61    2.90
  -3  21   0   -0.01    2.21
 -21  -1   0    3.65    2.71
   1 -21   0   -2.01    2.11
  21   1   0   -4.00    2.87
  -1  21   0    0.27    2.31
   1 -21   0   -0.40    3.51
 -21   1   0   -2.18    2.48
  21  -1   0   -2.91    2.72
  21  -1   0   -7.03    2.79
  -1 -21   0    1.06    3.58
  -1 -21   0   -1.46    2.13
   1  21   0   -0.77    2.19
 -21   3   0    0.89    2.46
  -3 -21   0    5.85    3.94
  -3 -21   0   -0.12    2.36
  21  -3   0   -2.71    2.89
  21  -5   0    3.51    2.84
   5  21   0   -3.20    2.67
  -5 -21   0    1.29    6.25
  21  -5   0   -1.88    3.00
  -5 -21   0   -0.70    2.50
  21  -7   0   -3.46    2.78
  -7 -21   0    0.87    5.06
  -7 -21   0   -0.70    2.94
  21  -7   0    0.93    3.38
   7  21   0    0.41    2.71
  -9 -21   0   -0.66    4.73
  21  -9   0   -1.86    3.05
   9  21   0   -0.43    2.94
  -9 -21   0    4.13    3.52
  21  -9   0    1.36    3.39
   6 -22   0   -0.31    2.32
   6 -22   0    5.99    3.96
  22   6   0    4.52    4.38
  22   6   0    0.86    3.39
 -22  -6   0    1.93    3.27
  -6  22   0    1.64    2.87
   4 -22   0   -0.76    2.12
  22   4   0   -2.56    3.14
   4 -22   0    7.52    3.80
  -4  22   0    0.54    2.48
  22   4   0    0.98    3.18
  22   2   0   -0.43    3.13
  -2  22   0    2.16    2.57
   2 -22   0    2.75    3.64
 -22  -2   0    6.67    3.04
   2 -22   0   -2.99    2.13
   0  22   0    3.08    2.40
  22   0   0    5.69    3.18
 -22   0   0    5.23    2.90
  22   0   0   -3.09    3.00
   0 -22   0   -2.26    2.21
   0 -22   0    4.28    3.83
  -2 -22   0    1.06    2.60
   2  22   0    4.05    2.58
  22  -2   0    4.26    3.02
 -22   2   0    1.22    2.77
  22  -2   0   -1.98    3.03
  -2 -22   0    9.10    4.10
  -4 -22   0    6.44    4.09
  -4 -22   0    4.60    2.60
  22  -4   0   -4.69    3.17
  22  -4   0    2.21    2.90
  -6 -22   0   -0.95    4.11
   6  22   0    0.67    2.81
  -6 -22   0   -1.42    2.93
  22  -6   0   -1.09    3.54
  22  -6   0    4.73    2.98
  23   1   0   -4.94    3.30
   1 -23   0    0.81    2.52
   1 -23   0    6.92    4.18
  23   1   0   -2.30    3.21
 -23  -1   0    4.03    3.14
  -1  23   0    1.58    2.98
  -1 -23   0   -0.94    2.77
  -1 -23   0   -1.23    4.11
   1  23   0    0.61    2.59
  23  -1   0   -0.29    3.39
 -23   1   0   -0.96    3.29
  23  -1   0    0.91    3.33
   1   0  -1    1.85    0.62
  -1   0   1    2.76    0.53
   0   1   1    1.35    0.48
   0  -1   1    2.84    0.53
   2   1  -1   44.21    6.43
   1  -2  -1   34.25    6.39
  -2  -1  -1   46.42    6.36
   2   1  -1   48.19    6.41
   1  -2  -1   44.10    6.43
  -2  -1   1   46.61    6.47
   2   1   1   45.32    6.36
  -1   2   1   37.51    6.36
   1  -2   1   41.33    6.32
  -2  -1   1   45.38    6.39
  -1   2   1   41.98    6.42
  -1  -2  -1   50.18    6.79
   2  -1  -1   39.76    6.84
  -1  -2  -1   41.42    6.75
   2  -1  -1   40.69    6.77
   1   2  -1   51.40    6.78
  -1  -2   1   55.79    6.78
   1   2   1   48.95    6.80
   1   2   1   43.10    6.75
  -2   1   1   49.18    6.80
  -2   1   1   36.62    6.76
  -3  -2  -1   30.74    4.40
   2  -3  -1   26.94    4.35
   3   2  -1   31.91    4.57
   3   2  -1   30.54    4.48
   2  -3  -1   27.36    4.54
  -3  -2  -1   27.87    4.60
  -3  -2   1   28.34    4.56
   3   2   1   26.98    4.48
   2  -3   1   22.92    4.22
  -3  -2   1   35.70    4.51
   3   2   1   30.40    4.40
  -2   3   1   28.13    4.47
   2  -3   1   30.97    4.25
  -3   0  -1  104.83   16.06
  -3   0  -1  109.52   16.06
   0  -3  -1  115.83   16.14
   3   0  -1  108.14   16.11
   0  -3  -1  106.35   16.09
   3   0  -1  105.46   16.10
  -3   0   1  102.23   16.10
   0  -3   1  100.15   16.07
   3   0   1  106.77   16.06
   0   3   1  110.63   16.12
   0   3   1  107.64   16.09
   0  -3   1  123.93   16.09
   3   0   1  120.64   16.07
  -3   0   1  112.39   16.11
  -2  -3  -1   32.44    4.60
  -2  -3  -1   26.78    4.45
   3  -2  -1   26.78    4.54
   2   3  -1   30.79    4.50
   2   3  -1   35.60    4.52
   3  -2  -1   26.01    4.45
   2   3   1   27.08    4.57
  -2  -3   1   26.41    4.46
   2   3   1   26.79    4.46
  -3   2   1   25.30    4.49
  -2  -3   1   34.77    4.56
  -4  -3  -1    8.81    1.62
  -4  -3  -1    7.94    1.86
   4   3  -1    5.38    1.62
   3  -4  -1    7.83    1.81
   3  -4  -1    6.69    1.46
   4   3  -1    8.72    1.73
   4   3   1    7.97    1.71
   4   3   1    7.02    1.60
  -3   4   1    7.33    1.74
  -4  -3   1    7.01    1.77
   3  -4   1    8.67    1.44
  -4  -3   1    5.26    1.68
   3  -4   1    8.06    1.39
   4   1  -1   82.71   12.45
  -1   4  -1   93.58   12.36
   1  -4  -1   78.59   12.40
   4   1  -1   89.89   12.47
  -1   4  -1   76.19   12.34
  -4  -1  -1   84.90   12.40
   1  -4  -1   86.87   12.49
   4   1   1   81.37   12.40
  -4  -1   1   81.78   12.43
  -1   4   1   80.74   12.44
   1  -4   1   72.76   12.47
  -4  -1   1   83.55   12.56
  -1   4   1   88.04   12.46
   4   1   1   87.27   12.42
   1  -4   1   89.91   12.39
  -1  -4  -1   88.38   12.74
  -4   1  -1   81.34   12.64
   4  -1  -1   81.94   12.74
  -4   1  -1   82.03   12.64
  -1  -4  -1   93.24   12.81
   4  -1  -1   80.26   12.76
   1   4  -1   94.33   12.74
   1   4   1   89.75   12.78
   1   4   1   83.98   12.74
   4  -1   1   81.83   12.67
  -1  -4   1   97.82   12.78
   4  -1   1   90.39   12.67
  -4   1   1   87.18   12.76
  -1  -4   1   80.19   12.72
   4  -3  -1   11.71    2.01
   4  -3  -1    7.95    1.87
  -3  -4  -1    9.58    1.86
   3   4  -1    9.64    1.86
  -3  -4  -1    8.88    1.72
   3   4  -1    5.88    1.73
   3   4   1    8.57    1.83
  -3  -4   1    6.79    1.72
  -4   3   1    6.77    1.77
   3   4   1    8.97    1.71
  -3  -4   1   15.25    2.44
   4  -3   1    8.01    1.69
   4  -5  -1   15.05    3.12
  -5  -4  -1   18.31    3.17
   5   4  -1   15.21    3.00
   5   4  -1   13.50    3.03
  -5  -4  -1   16.24    2.94
   4  -5  -1   13.40    2.74
   4  -5   1   15.23    2.55
   5   4   1   14.98    3.00
  -4   5   1   14.13    2.78
  -4   5   1   16.28    2.92
  -5  -4   1   19.19    3.02
   5   4   1   17.91    2.95
  -5  -4   1   17.51    3.21
   4  -5   1   16.24    2.71
   5   2  -1    6.49    1.57
   5   2  -1    3.90    1.37
   2  -5  -1    3.32    1.21
  -2   5  -1    5.61    1.01
   2  -5  -1    4.91    1.57
  -2   5  -1    2.91    0.80
  -5  -2  -1    3.38    1.24
  -5  -2   1    1.73    1.25
   2  -5   1    5.39    1.03
   5   2   1    4.12    1.34
   2  -5   1    3.28    1.22
  -5  -2   1    4.33    1.50
  -2   5   1    1.76    1.40
   5   2   1    5.71    1.39
   0   5  -1  871.35  121.30
   5   0  -1  814.32  121.31
   0  -5  -1  764.40  121.30
  -5   0  -1  836.84  121.29
   0  -5  -1  882.69  121.33
  -5   0  -1  820.90  121.28
   5   0  -1  809.48  121.31
   0   5   1  880.70  121.32
   0   5   1  778.89  121.31
   0  -5   1  765.11  121.28
   0  -5   1  925.72  121.32
   5   0   1  821.58  121.32
  -5   0   1  808.90  121.31
   5   0   1  830.23  121.29
   5  -2  -1    7.03    1.31
  -2  -5  -1    1.78    1.22
   2   5  -1    3.80    1.29
  -2  -5  -1    4.64    1.58
   5  -2  -1    2.16    1.39
   2   5  -1    6.76    1.41
   2   5   1    5.80    1.33
  -2  -5   1    4.18    1.30
  -2  -5   1    5.68    1.54
   2   5   1    3.53    1.45
   5  -2   1    4.26    1.10
  -5   2   1    3.77    1.34
   5  -2   1    4.21    1.06
  -4  -5  -1   16.99    2.79
   4   5  -1   16.11    2.85
  -4  -5  -1   16.26    3.06
   5  -4  -1   14.23    2.61
   4   5  -1   15.46    2.78
   5  -4  -1   19.32    2.98
  -4  -5   1   12.20    2.74
  -4  -5   1   12.58    2.66
   4   5   1   14.92    2.83
   5  -4   1   13.57    2.39
  -5   4   1   17.72    2.69
   4   5   1   17.11    2.94
  -5   4   1    8.83    2.39
   5  -4   1   15.75    2.53
  -6  -5  -1    5.82    1.82
   6   5  -1    9.59    1.74
   5  -6  -1    5.90    1.41
   5  -6  -1    9.25    1.86
  -6  -5  -1   12.54    2.05
   6   5  -1    3.96    1.68
  -6  -5   1    8.67    1.90
   5  -6   1    6.16    1.24
   5  -6   1    6.36    1.54
  -5   6   1    6.76    1.63
  -6  -5   1    4.95    1.63
   6   5   1    5.71    1.67
   6   5   1    6.86    1.64
  -5   6   1    4.35    1.37
   3  -6  -1   67.96   10.85
  -3   6  -1   64.67   10.75
  -3   6  -1   81.36   10.78
  -6  -3  -1   73.36   10.97
   3  -6  -1   74.28   10.96
   6   3  -1   77.05   10.95
   6   3  -1   70.31   10.94
  -6  -3  -1   75.25   10.89
   3  -6   1   69.14   10.79
   6   3   1   76.64   10.91
  -6  -3   1   70.39   10.99
  -3   6   1   81.65   10.95
   6   3   1   67.73   10.91
   3  -6   1   76.57   10.86
  -6  -3   1   74.00   10.93
  -6  -1  -1  267.60   39.16
  -6  -1  -1  258.91   39.19
   6   1  -1  258.71   39.19
  -1   6  -1  289.16   39.15
   6   1  -1  271.24   39.19
   1  -6  -1  280.28   39.22
  -1   6  -1  247.03   39.13
   1  -6  -1  255.80   39.17
   1  -6   1  296.83   39.18
  -1   6   1  283.72   39.19
  -6  -1   1  274.85   39.19
   6   1   1  274.97   39.17
   6   1   1  240.86   39.17
  -6  -1   1  249.38   39.23
   1  -6   1  259.56   39.14
   6  -1  -1  270.88   39.71
  -6   1  -1  265.82   39.65
  -6   1  -1  275.88   39.66
   1   6  -1  282.98   39.71
  -1  -6  -1  292.46   39.75
  -1  -6  -1  276.36   39.71
   6  -1  -1  267.34   39.70
  -6   1   1  256.18   39.70
   1   6   1  265.45   39.70
   6  -1   1  271.99   39.68
   6  -1   1  254.67   39.67
  -1  -6   1  300.24   39.74
   1   6   1  270.61   39.73
  -1  -6   1  245.52   39.69
  -3  -6  -1   91.31   11.48
   3   6  -1   76.33   11.35
   3   6  -1   78.22   11.38
   6  -3  -1   70.57   11.32
   6  -3  -1   73.05   11.39
  -3  -6  -1   76.34   11.36
   6  -3   1   73.87   11.26
   3   6   1   74.79   11.37
   6  -3   1   72.88   11.27
   3   6   1   75.01   11.40
  -6   3   1   72.29   11.44
  -3  -6   1   76.56   11.36
  -3  -6   1   87.73   11.48
   5   6  -1    7.25    1.82
   5   6  -1    7.30    1.81
   6  -5  -1    5.88    1.56
   6  -5  -1   10.00    1.96
  -5  -6  -1    7.61    2.03
  -5  -6  -1    6.52    1.72
   5   6   1    8.65    1.78
   5   6   1    6.48    1.85
  -5  -6   1    8.22    2.11
  -6   5   1   12.11    1.98
   6  -5   1    9.84    1.69
  -5  -6   1    7.97    1.78
  -6   5   1    7.85    1.72
   6  -5   1    8.06    1.62
  -7  -6  -1    4.23    1.82
   6  -7  -1    7.17    1.85
   7   6  -1    5.00    1.63
   7   6  -1    2.95    1.55
  -7  -6  -1    2.87    1.43
   7   6   1    1.63    1.50
  -7  -6   1    2.65    1.54
  -6   7   1    3.17    1.36
  -7  -6   1    6.16    2.01
   6  -7   1    2.91    1.06
   7   6   1    0.42    1.55
  -6   7   1    2.98    1.28
   6  -7   1    6.86    1.44
  -7  -4  -1    5.52    1.55
  -4   7  -1   10.20    1.51
   4  -7  -1    5.17    1.84
   7   4  -1    3.99    1.67
   7   4  -1    4.39    1.66
  -7  -4  -1    5.11    2.82
  -4   7  -1    8.96    1.46
   4  -7  -1    7.64    1.43
   4  -7   1    5.80    1.25
   4  -7   1    6.86    1.58
  -7  -4   1    5.51    1.98
  -4   7   1    6.82    1.37
   7   4   1    5.56    1.64
  -7  -4   1    4.58    1.65
  -4   7   1    5.06    1.57
   7   4   1    4.55    1.73
   2  -7  -1   38.91    6.76
   7   2  -1   43.13    6.85
  -2   7  -1   42.70    6.64
  -2   7  -1   50.59    6.70
   7   2  -1   46.84    6.90
  -7  -2  -1   46.40    6.80
   2  -7  -1   48.77    6.96
   2  -7   1   46.34    6.70
   2  -7   1   47.90    6.82
  -2   7   1   44.88    6.83
  -7  -2   1   43.66    7.11
   7   2   1   37.63    6.78
   7   2   1   43.11    6.80
  -7  -2   1   40.64    6.84
   0  -7  -1  391.45   60.02
  -7   0  -1  465.31   60.04
   7   0  -1  392.58   60.03
   0   7  -1  387.03   60.15
   0  -7  -1  438.86   60.07
  -7   0  -1  393.59   60.01
   7   0  -1  397.42   60.04
   0   7   1  396.20   60.03
  -7   0   1  414.88   60.09
   0   7   1  425.26   60.06
   0  -7   1  437.19   60.05
   0  -7   1  373.32   60.01
   7   0   1  416.99   60.01
   7  -2  -1   41.86    6.98
   2   7  -1   45.64    7.11
  -7   2  -1   42.38    7.05
  -2  -7  -1   50.86    7.22
   2   7  -1   39.50    6.96
  -7   2  -1   48.34    6.84
  -2  -7  -1   45.61    6.98
   7  -2  -1   43.20    7.03
  -2  -7   1   45.34    6.99
   2   7   1   49.05    7.06
   7  -2   1   46.08    6.93
  -7   2   1   44.97    7.02
   7  -2   1   48.83    6.90
  -2  -7   1   54.38    7.14
   2   7   1   42.60    6.99
   4   7  -1    9.43    1.70
  -4  -7  -1    4.08    1.63
   4   7  -1    6.72    1.72
   7  -4  -1    7.55    1.72
  -4  -7  -1    6.95    1.89
   7  -4  -1    5.89    1.50
  -4  -7   1    6.68    1.73
   4   7   1    5.81    1.66
   7  -4   1    9.50    1.73
   4   7   1    7.53    1.85
  -7   4   1    6.52    1.59
  -4  -7   1    7.85    1.93
   7  -4   1    5.75    1.43
   6   7  -1    3.27    1.55
   7  -6  -1    4.77    1.79
  -6  -7  -1    5.09    2.53
  -6  -7  -1    4.66    1.95
   7  -6  -1    3.96    1.30
   6   7  -1    3.71    1.56
   7  -6   1    5.10    1.13
   6   7   1    2.22    1.57
  -7   6   1    7.05    1.46
  -6  -7   1    2.47    1.55
   7  -6   1    3.33    1.45
  -6  -7   1    0.55    1.86
   6   7   1    3.42    1.58
  -7   6   1    4.77    1.33
   8   7  -1    1.36    1.45
   8   7  -1    2.93    1.59
   7  -8  -1    2.07    2.78
  -8  -7  -1    0.96    1.39
  -8  -7  -1    1.62    1.78
   7  -8  -1   -0.97    1.12
   7  -8   1    0.80    0.95
  -7   8   1    0.88    1.17
  -7   8   1    1.52    1.32
   8   7   1    1.32    1.60
  -8  -7   1   -0.03    1.88
   8   7   1   -0.73    1.56
   7  -8   1    1.80    2.23
  -8  -7   1   -0.10    1.49
   5  -8  -1   21.69    3.66
  -8  -5  -1   11.55    3.08
   5  -8  -1   18.46    3.11
  -5   8  -1   15.79    2.81
   8   5  -1   19.89    3.44
  -5   8  -1   20.37    2.82
   8   5  -1   21.03    3.44
  -8  -5  -1   14.75    3.25
  -5   8   1   17.02    3.26
   5  -8   1   15.98    2.97
  -8  -5   1   13.22    3.24
   8   5   1   22.61    3.43
   5  -8   1   20.64    3.33
  -5   8   1   17.55    3.07
   8   5   1   17.91    3.36
  -8  -5   1   12.86    3.01
   8   3  -1   67.02   11.23
  -3   8  -1   79.97   11.05
  -3   8  -1   73.42   11.01
   3  -8  -1   75.10   11.10
   8   3  -1   76.46   11.21
   3  -8  -1   83.46   11.29
  -8  -3  -1   76.21   11.16
   8   3   1   83.97   11.21
  -8  -3   1   70.64   11.25
  -3   8   1   73.16   11.06
   3  -8   1   73.72   11.17
   3  -8   1   74.87   11.05
  -3   8   1   80.60   11.17
   8   3   1   60.69   11.15
  -8  -3   1   68.97   11.17
   8   1  -1  257.01   35.70
  -8  -1  -1  250.05   35.66
  -1   8  -1  233.33   35.63
  -8  -1  -1  230.83   35.67
   1  -8  -1  236.85   35.67
   8   1  -1  231.87   35.70
  -1   8  -1  254.07   35.65
   1  -8  -1  265.80   35.74
   1  -8   1  237.20   35.64
   8   1   1  251.19   35.68
  -8  -1   1  248.46   35.69
  -1   8   1  251.11   35.71
  -8  -1   1  230.09   35.81
   8   1   1  212.41   35.66
   1  -8   1  257.89   35.70
  -8   1  -1  238.69   36.18
   1   8  -1  251.60   36.23
  -1  -8  -1  244.04   36.22
  -1  -8  -1  257.90   36.29
   8  -1  -1  251.10   36.24
  -8   1  -1  255.45   36.17
  -1  -8   1  226.86   36.21
   8  -1   1  264.05   36.20
  -8   1   1  250.80   36.22
   8  -1   1  236.33   36.20
   1   8   1  263.82   36.28
  -1  -8   1  260.06   36.27
   1   8   1  238.18   36.22
  -8   1   1  218.45   36.27
   8  -3  -1   75.10   11.38
   8  -3  -1   70.71   11.34
  -8   3  -1   77.28   11.19
  -8   3  -1   78.46   11.19
   3   8  -1   73.35   11.36
  -3  -8  -1   74.76   11.37
  -3  -8  -1   83.05   11.52
   3   8  -1   75.00   11.34
  -3  -8   1   84.81   11.51
  -3  -8   1   71.08   11.34
  -8   3   1   70.36   11.35
   8  -3   1   75.04   11.28
   3   8   1   74.65   11.44
   8  -3   1   77.98   11.27
  -8   3   1   75.40   11.35
   3   8   1   78.27   11.34
  -5  -8  -1   24.91    3.79
   5   8  -1   11.40    3.02
   5   8  -1   19.86    3.35
   8  -5  -1   18.52    3.19
  -5  -8  -1   17.95    3.32
   8  -5  -1   19.52    3.45
   8  -5   1   19.56    2.97
   5   8   1   18.96    3.36
   5   8   1   16.80    3.45
   8  -5   1   20.64    3.17
  -5  -8   1   14.06    3.27
  -8   5   1   11.44    2.83
  -8   5   1   21.06    3.22
  -5  -8   1   15.47    3.28
  -7  -8  -1    2.26    1.47
  -7  -8  -1    3.18    1.97
   7   8  -1    0.34    1.45
   8  -7  -1    2.57    2.62
   7   8  -1   -0.29    1.48
   8  -7  -1    2.02    1.17
   7   8   1    1.73    1.51
  -8   7   1    1.87    1.36
  -8   7   1    1.08    1.21
  -7  -8   1   -0.77    2.02
   8  -7   1    3.68    1.00
   8  -7   1    1.38    1.62
  -7  -8   1    1.04    1.85
   7   8   1    3.30    1.60
   9   8  -1   11.46    3.20
   8  -9  -1   16.40    3.35
   9   8  -1   17.02    3.33
   8  -9  -1   21.97    3.98
  -9  -8  -1   26.05    4.28
  -9  -8  -1   18.51    3.60
  -9  -8   1   23.38    3.72
   8  -9   1   24.37    3.67
   8  -9   1   18.34    3.19
  -8   9   1   14.82    3.40
  -8   9   1   20.27    3.34
   9   8   1   16.70    3.62
  -9  -8   1   17.89    3.61
   9   8   1   21.18    3.71
  -9  -6  -1   20.56    3.13
   6  -9  -1   17.55    3.78
  -6   9  -1   15.61    2.47
   9   6  -1   17.76    3.35
   9   6  -1   12.06    2.80
  -9  -6  -1   10.60    2.87
   9   6   1   19.34    3.25
  -9  -6   1   25.55    3.88
  -6   9   1   19.34    2.89
  -9  -6   1   11.25    2.80
   6  -9   1   11.03    2.97
  -6   9   1   16.68    3.02
   6  -9   1   18.56    2.72
   9   6   1    6.03    2.70
  -9  -4  -1    7.13    2.18
   4  -9  -1   13.84    2.51
   4  -9  -1    9.02    2.10
  -9  -4  -1   11.92    2.55
   9   4  -1   12.06    2.50
   9   4  -1   10.37    2.37
  -4   9  -1   12.52    2.30
  -4   9  -1   14.04    2.13
  -9  -4   1    7.77    2.55
   4  -9   1   14.05    2.35
   9   4   1   11.34    2.31
  -4   9   1   10.32    2.23
  -9  -4   1    8.62    2.27
  -4   9   1   12.04    2.43
   4  -9   1   16.59    2.34
   9   4   1   12.83    2.43
  -9  -2  -1    4.08    1.47
   2  -9  -1    6.13    1.96
  -2   9  -1    5.89    1.43
  -9  -2  -1    4.37    1.63
   9   2  -1    6.06    1.80
  -2   9  -1    3.91    1.18
   9   2  -1    6.57    1.71
   2  -9  -1    4.73    1.39
   2  -9   1    7.39    1.73
  -9  -2   1    7.97    1.82
   2  -9   1    5.60    2.10
   9   2   1    4.68    1.57
  -9  -2   1    2.70    1.58
  -2   9   1    4.04    1.65
   9   2   1    4.63    1.64
   0   9  -1   36.08    5.96
   0  -9  -1   43.03    6.37
   0   9  -1   40.45    6.07
   9   0  -1   38.06    6.17
   9   0  -1   38.93    6.18
  -9   0  -1   39.09    6.08
  -9   0  -1   42.68    6.01
   0  -9  -1   36.45    6.10
   0  -9   1   41.28    6.05
  -9   0   1   34.98    6.09
   0   9   1   36.36    6.19
   0  -9   1   38.28    6.27
   9   0   1   47.48    6.13
   0   9   1   34.35    6.05
   9  -2  -1    3.18    1.64
  -2  -9  -1    5.79    1.56
   2   9  -1    4.45    1.56
   2   9  -1    7.93    1.53
   9  -2  -1    7.21    1.62
  -9   2  -1    5.35    1.31
  -2  -9  -1    5.39    2.08
  -9   2  -1    6.15    1.29
  -2  -9   1    8.15    1.63
   2   9   1    4.50    1.54
   9  -2   1    5.01    1.51
  -9   2   1    3.37    1.44
   2   9   1    8.52    1.81
  -9   2   1    3.86    1.58
   9  -2   1    4.40    1.57
  -2  -9   1    3.90    1.84
  -4  -9  -1    8.12    2.66
   9  -4  -1   16.93    3.02
   4   9  -1   13.78    2.45
  -4  -9  -1   16.87    2.88
   4   9  -1    9.24    2.42
  -9   4   1   11.67    2.35
  -4  -9   1   13.56    2.46
   4   9   1   15.94    2.54
  -4  -9   1   15.23    2.80
   4   9   1    7.79    2.47
  -9   4   1   12.92    2.48
   9  -4   1   15.36    2.62
   9  -6  -1   13.96    3.18
   6   9  -1   12.48    2.87
  -6  -9  -1   12.50    3.07
   6   9  -1   10.71    2.77
   9  -6  -1   17.25    3.04
  -6  -9  -1   19.56    3.18
   9  -6   1   21.88    3.83
   6   9   1   11.23    2.86
  -6  -9   1   11.18    3.09
   9  -6   1   21.06    2.84
  -9   6   1   17.22    3.03
  -9   6   1   16.61    3.10
  -6  -9   1   16.33    2.91
   6   9   1   21.07    3.31
   8   9  -1   11.83    3.19
   8   9  -1   20.78    3.67
  -8  -9  -1   16.71    3.47
   9  -8  -1   28.18    3.90
  -8  -9  -1   18.12    3.52
   9  -8  -1   20.14    3.38
  -8  -9   1   12.73    3.51
  -9   8   1   17.68    3.32
   9  -8   1   24.87    3.50
   8   9   1   12.51    3.17
  -8  -9   1   17.85    3.58
   9  -8   1   18.85    3.14
   8   9   1   18.08    3.69
 -10  -9  -1   14.38    2.88
   9 -10  -1   11.56    2.58
   9 -10  -1    6.90    1.93
  10   9  -1    3.31    2.21
 -10  -9  -1    8.79    2.21
  10   9  -1   10.85    2.36
   9 -10   1   13.26    2.26
  10   9   1    8.98    2.41
  10   9   1    3.66    2.16
   9 -10   1   20.07    3.00
  -9  10   1    8.99    2.05
  -9  10   1   10.03    3.05
 -10  -9   1    5.48    2.23
 -10  -9   1    8.82    2.83
 -10  -7  -1    7.13    2.05
   7 -10  -1    7.41    2.42
   7 -10  -1    8.48    1.81
  10   7  -1    8.81    2.15
 -10  -7  -1    8.12    2.39
  10   7  -1    7.37    2.16
  -7  10   1    4.68    1.87
  10   7   1    7.31    2.08
 -10  -7   1   14.64    2.74
  10   7   1    7.56    2.16
   7 -10   1   10.69    2.15
  -7  10   1    9.17    1.82
 -10  -7   1    6.51    2.11
   7 -10   1   13.44    2.18
  10   5  -1   27.24    4.71
   5 -10  -1   28.69    4.43
 -10  -5  -1   30.19    4.61
  -5  10  -1   25.43    4.24
 -10  -5  -1   28.03    5.53
  10   5  -1   20.66    4.73
  -5  10  -1   25.17    4.21
   5 -10  -1   38.02    4.97
  -5  10   1   30.00    4.38
 -10  -5   1   24.49    4.67
  10   5   1   28.83    4.69
 -10  -5   1   26.79    5.08
   5 -10   1   29.35    4.69
   5 -10   1   28.48    4.32
  -5  10   1   25.07    4.52
  10   5   1   19.30    4.57
   3 -10  -1   64.22    8.34
  10   3  -1   51.17    8.13
  -3  10  -1   50.33    7.86
  -3  10  -1   53.55    7.94
  10   3  -1   45.06    8.15
 -10  -3  -1   50.95    8.04
   3 -10  -1   49.62    7.98
  10   3   1   54.17    8.11
  -3  10   1   58.10    8.09
  10   3   1   42.22    8.07
 -10  -3   1   49.68    8.51
   3 -10   1   61.35    8.24
  -3  10   1   54.82    7.94
 -10  -3   1   56.16    8.10
   3 -10   1   51.48    7.93
  10   1  -1  133.06   22.01
   1 -10  -1  161.84   22.10
 -10  -1  -1  146.88   21.96
   1 -10  -1  145.34   21.96
  10   1  -1  160.67   22.04
  -1  10  -1  154.22   21.92
 -10  -1  -1  130.90   21.99
  -1  10  -1  155.80   21.96
   1 -10   1  158.54   22.04
 -10  -1   1  160.30   22.00
  10   1   1  129.90   21.98
  -1  10   1  144.23   22.02
   1 -10   1  149.43   21.93
  10   1   1  156.09   22.00
  -1 -10  -1  156.84   22.24
   1  10  -1  140.78   22.10
 -10   1  -1  163.02   22.04
  -1 -10  -1  154.05   22.12
 -10   1  -1  143.08   22.07
  10  -1  -1  147.41   22.13
   1  10   1  151.09   22.10
  10  -1   1  144.18   22.10
  10  -1   1  167.36   22.09
 -10   1   1  130.49   22.11
  -1 -10   1  138.52   22.08
  -1 -10   1  155.89   22.21
 -10   1   1  152.30   22.10
   1  10   1  152.87   22.16
  10  -3  -1   51.58    8.03
  -3 -10  -1   55.09    8.37
   3  10  -1   52.23    8.10
  10  -3  -1   54.74    8.12
 -10   3  -1   60.04    7.86
   3  10  -1   44.08    8.05
  -3 -10  -1   48.45    8.08
 -10   3  -1   53.18    7.87
   3  10   1   52.19    8.09
 -10   3   1   55.56    8.07
   3  10   1   48.78    8.12
  -3 -10   1   49.58    8.04
  10  -3   1   53.94    8.04
 -10   3   1   48.38    8.07
  10  -3   1   52.61    7.99
  -3 -10   1   55.24    8.31
   5  10  -1   23.72    4.31
  -5 -10  -1   25.63    4.79
   5  10  -1   21.06    4.34
  10  -5  -1   27.23    4.19
  -5 -10  -1   23.87    4.36
  10  -5  -1   27.13    4.46
  10  -5   1   26.73    4.14
  10  -5   1   25.00    4.06
 -10   5   1   20.85    4.18
 -10   5   1   23.82    4.32
  -5 -10   1   27.93    4.76
   5  10   1   25.07    4.41
   5  10   1   26.65    4.39
  -5 -10   1   22.19    4.33
  -7 -10  -1    9.28    2.41
   7  10  -1    8.81    2.09
  10  -7  -1    7.94    1.81
  10  -7  -1    7.20    2.13
   7  10  -1    5.34    1.99
  -7 -10  -1    6.39    1.99
  10  -7   1    6.98    1.69
  -7 -10   1    8.11    2.10
   7  10   1    7.96    2.12
   7  10   1    6.62    2.12
  -7 -10   1    5.97    2.40
 -10   7   1    7.75    1.95
  10  -7   1    8.11    1.83
 -10   7   1    5.79    1.78
  -9 -10  -1   10.10    2.41
   9  10  -1    5.67    2.32
  10  -9  -1    6.12    2.12
  10  -9  -1   12.27    2.70
  -9 -10  -1    9.63    2.74
   9  10  -1   15.41    2.60
   9  10   1    7.32    2.34
  -9 -10   1    9.29    2.86
  10  -9   1   15.93    2.43
 -10   9   1    9.23    2.94
  10  -9   1   13.33    2.44
  -9 -10   1    7.20    2.30
   9  10   1   10.61    2.47
  10 -11  -1   11.06    2.05
  10 -11  -1   12.32    2.77
  11  10  -1    6.29    2.28
 -11 -10  -1    6.81    2.82
  11  10  -1    9.71    2.50
 -11 -10  -1    5.89    2.25
 -11 -10   1    6.40    2.96
  10 -11   1   11.76    2.50
  10 -11   1    7.59    1.90
  11  10   1    5.50    2.28
 -10  11   1    7.23    1.99
 -11 -10   1    6.13    2.40
  11  10   1    4.72    2.99
   8 -11  -1   24.88    4.19
  11   8  -1   16.96    3.30
 -11  -8  -1   18.16    3.65
  11   8  -1    9.18    3.08
   8 -11  -1   21.94    3.34
 -11  -8  -1   10.18    3.13
  11   8   1   10.51    3.13
 -11  -8   1   16.05    3.64
   8 -11   1   26.92    3.85
  -8  11   1   18.29    3.41
 -11  -8   1   19.38    3.81
  11   8   1   14.12    4.21
   8 -11   1   22.87    3.18
  -8  11   1   21.14    3.32
 -11  -6  -1   17.31    4.06
  -6  11  -1   22.63    3.51
  -6  11  -1   20.89    3.56
   6 -11  -1   17.53    4.19
 -11  -6  -1   24.47    4.42
   6 -11  -1   30.02    4.50
  11   6  -1   24.79    4.31
  11   6  -1   12.40    3.75
  11   6   1   31.86    5.27
 -11  -6   1   23.54    4.72
  -6  11   1   23.32    3.78
  -6  11   1   21.21    3.99
   6 -11   1   25.39    4.22
  11   6   1   17.37    4.04
 -11  -6   1   18.58    4.13
   6 -11   1   27.89    3.70
   4 -11  -1    5.38    1.61
  -4  11  -1    5.49    1.42
   4 -11  -1    6.36    2.22
  11   4  -1    6.26    2.02
  11   4  -1    6.96    2.03
 -11  -4  -1    6.99    1.86
  -4  11  -1    8.83    1.62
  -4  11   1    8.51    1.63
  11   4   1    5.23    1.91
   4 -11   1    7.95    1.95
 -11  -4   1    7.37    2.22
  -4  11   1    4.50    1.82
 -11  -4   1    8.77    1.94
   4 -11   1    7.82    1.60
   2 -11  -1   -1.58    1.25
 -11  -2  -1    2.26    1.43
  -2  11  -1    3.18    1.06
   2 -11  -1    2.48    2.32
  11   2  -1    4.31    1.71
  -2  11  -1    2.66    1.29
 -11  -2  -1    5.82    1.75
  11   2  -1    3.75    1.63
   2 -11   1    4.28    1.84
  -2  11   1    1.53    1.51
  -2  11   1    1.65    0.95
   2 -11   1    1.28    1.22
 -11  -2   1   -0.89    1.48
  11   2   1    3.47    2.37
  11   2   1    2.74    1.56
  11   0  -1   42.68    7.93
 -11   0  -1   53.22    7.80
   0  11  -1   50.78    7.89
   0 -11  -1   53.05    8.17
 -11   0  -1   47.56    7.90
  11   0  -1   59.18    8.07
   0  11  -1   51.74    7.80
   0 -11  -1   48.72    7.88
  11   0   1   64.98    7.97
   0 -11   1   54.54    8.33
   0  11   1   49.17    7.87
 -11   0   1   53.05    7.90
   0  11   1   51.89    7.98
 -11   0   1   47.55    7.93
   0 -11   1   47.69    7.83
   2  11  -1    4.88    1.70
 -11   2  -1    0.93    1.16
  -2 -11  -1    1.64    1.99
   2  11  -1    0.77    1.47
  -2 -11  -1    1.48    1.43
  11  -2  -1    2.19    1.75
 -11   2  -1    4.41    1.31
  11  -2  -1    4.00    1.57
  -2 -11   1    2.49    1.89
  11  -2   1    3.90    1.50
 -11   2   1    1.24    1.33
   2  11   1    4.91    1.46
   2  11   1    4.92    1.60
 -11   2   1    4.02    1.62
  -2 -11   1    2.19    1.40
  11  -2   1    1.80    1.40
   4  11  -1    5.96    1.75
  -4 -11  -1    5.72    1.76
 -11   4  -1    5.92    1.22
  11  -4  -1    4.96    1.87
 -11   4  -1    4.85    1.26
  11  -4  -1    5.99    2.00
  -4 -11  -1   10.96    2.44
   4  11  -1    3.80    1.71
 -11   4   1    5.40    1.64
 -11   4   1    3.31    1.65
  11  -4   1    9.02    1.70
   4  11   1    4.08    1.83
  -4 -11   1    9.04    2.33
   4  11   1    9.05    1.89
  -4 -11   1    3.90    1.64
  11  -6  -1   19.49    4.23
  -6 -11  -1   21.65    4.13
  11  -6  -1   23.35    3.94
  -6 -11  -1   26.09    4.04
   6  11  -1   23.05    4.10
  -6 -11   1   23.63    4.06
  -6 -11   1   26.68    4.75
  11  -6   1   29.41    3.95
   6  11   1   13.79    3.75
 -11   6   1   15.02    3.81
  11  -6   1   20.40    3.77
 -11   6   1   23.50    3.99
   6  11   1   23.47    4.20
  -8 -11  -1   18.78    3.40
  11  -8  -1   15.16    2.73
   8  11  -1   12.41    2.86
  11  -8  -1   17.17    3.08
   8  11  -1   11.19    2.79
  -8 -11  -1   15.80    3.40
  11  -8   1   18.01    2.92
  -8 -11   1   10.44    2.84
   8  11   1   10.97    2.86
 -11   8   1   13.45    2.82
  11  -8   1   14.53    2.77
   8  11   1   14.85    2.92
  -8 -11   1   12.81    3.35
  10  11  -1   12.91    2.64
  10  11  -1    4.19    2.26
 -10 -11  -1    3.38    2.85
 -10 -11  -1    7.11    2.27
  11 -10  -1   11.31    2.70
  11 -10  -1    8.85    2.06
 -10 -11   1    8.90    3.15
 -11  10   1    6.97    1.97
 -11  10   1    8.91    2.15
  10  11   1    9.62    2.52
  11 -10   1   10.38    2.45
  11 -10   1    5.59    1.84
 -10 -11   1    7.31    2.37
  10  11   1    5.76    2.27
 -12 -11  -1    1.32    2.86
  12  11  -1    3.83    3.01
  12  11  -1    1.58    2.21
  11 -12  -1    3.20    2.78
  11 -12  -1    6.33    1.90
 -12 -11  -1    1.38    2.22
  11 -12   1    7.38    2.48
 -12 -11   1    8.10    3.19
  12  11   1    3.16    2.25
 -12 -11   1    4.72    2.37
  12  11   1    3.92    2.62
  11 -12   1    4.89    1.71
   9 -12  -1    4.39    2.70
   9 -12  -1    7.64    1.91
 -12  -9  -1   10.99    2.81
  12   9  -1    5.27    2.36
  12   9  -1    8.38    2.92
 -12  -9  -1    4.93    3.73
 -12  -9   1    6.26    2.35
  12   9   1    6.51    2.57
 -12  -9   1    9.18    2.93
  -9  12   1    9.83    2.03
   9 -12   1   12.99    2.66
  -9  12   1    5.94    1.86
   9 -12   1    6.49    1.79
  12   9   1    2.07    2.20
 -12  -7  -1    6.53    2.07
  -7  12  -1    5.64    1.34
   7 -12  -1   16.72    2.42
 -12  -7  -1    5.32    2.44
  12   7  -1    3.46    3.38
   7 -12  -1    4.92    2.50
  -7  12  -1    6.06    1.38
  -7  12   1    4.73    1.66
   7 -12   1    7.63    2.24
  12   7   1    2.42    2.07
 -12  -7   1    9.16    2.26
  -7  12   1    9.18    1.96
 -12  -7   1    4.55    2.69
  12   7   1    8.89    2.16
   7 -12   1    7.14    1.68
  12   5  -1    5.23    2.96
  -5  12  -1    8.06    1.66
   5 -12  -1    7.91    2.39
   5 -12  -1    7.22    1.73
 -12  -5  -1    5.89    2.01
  12   5  -1    6.59    2.15
 -12  -5  -1    9.29    2.61
  -5  12   1   11.54    2.24
 -12  -5   1    3.52    1.98
  -5  12   1    8.66    1.67
 -12  -5   1    3.98    2.55
   5 -12   1    9.31    2.21
  12   5   1    7.89    2.12
   5 -12   1    5.87    1.59
  12   5   1    4.01    1.96
   3 -12  -1   11.16    2.37
 -12  -3  -1    4.30    1.98
 -12  -3  -1    4.51    1.86
   3 -12  -1    6.24    1.73
  -3  12  -1    4.82    1.71
  12   3  -1    7.44    2.12
  12   3  -1    6.71    2.01
  -3  12  -1    7.05    1.47
 -12  -3   1    9.07    2.33
 -12  -3   1    3.81    1.92
  -3  12   1    6.69    1.63
  12   3   1    6.07    2.01
  -3  12   1    9.65    1.88
   3 -12   1   10.18    2.23
   3 -12   1    5.90    1.67
  12   3   1    5.24    1.94
 -12  -1  -1   21.15    3.95
  -1  12  -1   23.98    3.85
  12   1  -1   23.41    4.25
 -12  -1  -1   15.80    4.01
   1 -12  -1   29.88    4.67
  12   1  -1   27.96    4.32
  -1  12  -1   27.91    4.08
   1 -12  -1   22.76    4.03
  12   1   1   20.69    4.18
   1 -12   1   24.38    3.89
  12   1   1   21.99    4.20
  -1  12   1   21.50    4.19
 -12  -1   1   17.02    3.80
   1 -12   1   26.38    4.49
   1  12  -1   20.04    4.23
  -1 -12  -1   21.53    4.17
 -12   1  -1   26.51    4.21
  12  -1  -1   29.21    4.34
  -1 -12  -1   29.18    4.89
 -12   1  -1   23.57    4.04
   1  12   1   23.42    4.39
  12  -1   1   24.47    4.21
  -1 -12   1   22.65    4.14
   1  12   1   28.54    4.58
  -1 -12   1   23.43    4.69
 -12   1   1   18.54    4.04
 -12   1   1   20.78    4.19
  12  -1   1   28.23    4.29
 -12   3  -1    8.83    1.70
  12  -3  -1   10.11    2.19
  12  -3  -1    7.39    2.04
 -12   3  -1    4.96    1.82
   3  12  -1    6.22    2.08
  -3 -12  -1   11.76    2.58
  -3 -12  -1    8.65    2.07
  12  -3   1   15.88    2.58
  -3 -12   1    7.99    2.01
 -12   3   1   10.59    2.07
 -12   3   1    8.28    2.05
  -3 -12   1    4.86    2.81
   3  12   1    9.89    2.00
   3  12   1    5.45    2.08
  12  -5  -1    8.82    2.13
  -5 -12  -1    2.51    2.51
   5  12  -1    3.83    1.90
   5  12  -1    6.58    1.91
  -5 -12  -1    7.38    2.35
  12  -5  -1    5.73    1.87
  12  -5   1    7.91    1.89
  -5 -12   1   12.95    2.69
   5  12   1    6.82    2.05
  12  -5   1    8.63    1.77
  -5 -12   1    7.28    1.98
   5  12   1    2.40    1.93
 -12   5   1    7.75    1.91
 -12   5   1    5.18    1.80
   7  12  -1    6.16    2.06
  -7 -12  -1    9.86    2.80
  12  -7  -1    4.87    2.23
  -7 -12  -1    5.05    2.05
   7  12  -1    2.67    1.99
  12  -7  -1    6.02    1.95
  12  -7   1    9.01    1.97
   7  12   1    3.99    2.19
 -12   7   1    5.12    2.92
  -7 -12   1    7.26    2.02
  -7 -12   1    3.93    2.86
   7  12   1    9.06    2.25
 -12   7   1    6.49    1.78
  12  -7   1    5.49    1.74
  12  -9  -1   10.27    2.49
  12  -9  -1    8.79    2.02
   9  12  -1    4.41    2.26
  -9 -12  -1    6.94    2.97
  -9 -12  -1    5.28    2.17
   9  12  -1    3.33    2.20
  -9 -12   1    2.16    2.97
 -12   9   1    6.12    2.09
   9  12   1    6.12    2.15
   9  12   1    2.42    2.24
  -9 -12   1    6.11    2.23
 -12   9   1    4.67    1.78
  12  -9   1    7.31    1.77
  12  -9   1    3.41    2.12
 -11 -12  -1    1.73    2.98
 -11 -12  -1    5.89    4.04
  11  12  -1    6.95    2.52
  11  12  -1    3.53    2.21
  12 -11  -1    5.21    1.97
  12 -11  -1    7.33    2.76
  11  12   1    3.00    2.66
  12 -11   1    5.75    2.44
  11  12   1    3.17    2.18
  12 -11   1    1.22    1.77
 -12  11   1    5.57    2.01
 -11 -12   1    6.90    3.22
 -11 -12   1    6.43    2.32
  12 -13  -1    3.51    2.02
  13  12  -1   -0.27    2.36
 -13 -12  -1    4.62    3.39
  13  12  -1    0.15    2.66
 -13 -12  -1    4.26    3.01
  12 -13  -1    0.22    2.93
  12 -13   1    3.07    2.58
  13  12   1    1.39    2.33
  12 -13   1    2.32    1.77
  13  12   1    2.28    2.71
 -13 -12   1    0.71    3.53
 -12  13   1    5.66    2.01
 -13 -12   1    3.71    2.46
  10 -13  -1    9.57    2.34
  10 -13  -1   14.13    3.28
 -13 -10  -1    4.43    2.62
  13  10  -1    5.91    2.68
  13  10  -1    9.84    2.91
 -13 -10  -1    9.43    3.36
  10 -13   1    8.90    2.16
 -13 -10   1    8.53    2.86
 -13 -10   1    9.90    3.38
 -10  13   1    8.79    2.21
  13  10   1    9.51    3.02
  13  10   1    9.76    2.64
  10 -13   1   20.62    3.05
 -13  -8  -1   13.17    3.20
  13   8  -1   16.72    3.29
   8 -13  -1   14.84    3.65
 -13  -8  -1   15.81    3.68
   8 -13  -1   19.54    3.35
  13   8  -1   14.64    3.29
   8 -13   1   20.36    3.42
   8 -13   1   21.50    3.19
  13   8   1    8.64    3.08
  -8  13   1   13.10    3.00
 -13  -8   1   17.93    3.78
  13   8   1   13.59    3.31
  -8  13   1   13.57    3.18
 -13  -8   1   11.43    4.63
  -6  13  -1   18.63    2.72
  13   6  -1   12.84    3.06
   6 -13  -1   26.89    4.26
  -6  13  -1   13.77    2.90
   6 -13  -1   10.56    2.62
 -13  -6  -1    8.76    2.85
 -13  -6  -1   15.32    3.38
  13   6  -1   11.21    2.99
  13   6   1   20.74    3.71
 -13  -6   1   12.26    3.45
  13   6   1   14.09    2.92
   6 -13   1   22.67    3.78
 -13  -6   1   10.75    3.05
   6 -13   1   15.01    2.84
  -6  13   1   16.25    3.06
  -6  13   1   11.10    2.73
  -4  13  -1    6.55    1.44
  13   4  -1    7.01    2.22
  13   4  -1    2.37    2.11
 -13  -4  -1    2.46    1.43
   4 -13  -1    8.29    2.49
  -4  13  -1    3.38    1.64
 -13  -4  -1    5.81    2.29
   4 -13  -1    5.88    1.59
  13   4   1    9.59    2.25
  -4  13   1    5.27    1.53
   4 -13   1    5.60    1.50
  13   4   1    5.64    1.95
 -13  -4   1    7.13    2.05
   4 -13   1    3.32    2.09
  -4  13   1    7.17    1.98
   2 -13  -1    0.18    2.23
   2 -13  -1    4.34    1.42
  -2  13  -1    2.30    1.23
 -13  -2  -1    2.12    1.82
  13   2  -1    7.03    2.01
 -13  -2  -1    0.50    2.85
  13   2  -1    5.02    1.85
  13   2   1    4.25    1.88
  13   2   1    3.99    1.69
 -13  -2   1    1.19    1.68
   2 -13   1    3.20    2.19
  -2  13   1    2.81    1.71
   2 -13   1   -0.24    1.34
  -2  13   1    1.61    1.29
   0 -13  -1   25.29    4.74
   0  13  -1   23.24    4.00
 -13   0  -1   19.13    4.24
   0  13  -1   19.36    4.21
 -13   0  -1   21.27    4.11
  13   0  -1   27.99    4.35
   0 -13  -1   21.53    4.11
 -13   0   1   20.77    4.07
   0  13   1   26.24    4.35
   0 -13   1   17.52    4.03
   0 -13   1   22.48    4.24
 -13   0   1   25.16    4.26
  13   0   1   26.75    4.86
  13   0   1   32.29    4.30
 -13   2  -1    3.43    1.35
   2  13  -1    2.32    1.73
  -2 -13  -1    4.21    2.29
  -2 -13  -1    4.33    1.64
  13  -2  -1   -1.28    1.73
  13  -2  -1    4.79    1.90
 -13   2   1    4.74    3.18
  -2 -13   1    0.57    2.24
  13  -2   1    4.49    1.67
  13  -2   1    3.40    1.66
  -2 -13   1    3.12    1.59
 -13   2   1    0.79    1.74
   2  13   1    2.61    1.82
   2  13   1    3.69    1.62
   4  13  -1    4.40    1.99
  -4 -13  -1   13.01    3.14
  13  -4  -1    6.53    2.01
 -13   4  -1    4.88    1.34
  13  -4  -1   10.10    2.09
   4  13  -1    4.72    1.76
 -13   4  -1    4.93    1.45
  -4 -13  -1    6.60    1.91
  -4 -13   1    5.64    1.88
   4  13   1    4.65    1.90
  -4 -13   1   11.29    2.66
  13  -4   1    7.64    1.83
 -13   4   1    6.74    1.92
  13  -4   1    6.46    1.85
 -13   4   1    3.44    1.78
   4  13   1    3.35    1.92
  13  -6  -1   17.66    3.22
  13  -6  -1   16.42    2.94
   6  13  -1    8.47    2.65
  -6 -13  -1   10.64    3.35
   6  13  -1   13.48    2.71
  -6 -13  -1   12.53    2.66
  -6 -13   1   12.28    3.43
  -6 -13   1   11.07    3.52
   6  13   1   11.54    2.69
   6  13   1   10.08    2.80
  13  -6   1   12.69    2.52
  13  -6   1   17.83    3.12
 -13   6   1   11.16    2.48
  -8 -13  -1   14.69    3.77
  13  -8  -1   12.49    2.88
   8  13  -1   23.49    3.79
  13  -8  -1   13.57    3.26
  -8 -13  -1   13.98    3.09
   8  13  -1    9.26    2.97
  -8 -13   1   21.98    4.49
  13  -8   1   20.93    3.61
 -13   8   1    9.53    2.72
 -13   8   1   12.80    2.75
  13  -8   1   18.83    3.23
  -8 -13   1   15.44    3.08
   8  13   1   10.64    3.10
   8  13   1   14.95    3.19
 -10 -13  -1   10.60    2.87
  10  13  -1    3.82    2.61
  13 -10  -1   12.03    2.55
 -10 -13  -1    5.45    3.32
  10  13  -1    9.89    2.77
  13 -10  -1   13.34    3.01
 -10 -13   1    9.19    4.14
 -13  10   1   10.11    2.34
 -10 -13   1    7.10    2.60
  10  13   1    7.89    2.81
  13 -10   1   11.34    2.66
  13 -10   1   11.32    2.28
  10  13   1    7.34    2.68
  13 -12  -1   -0.44    2.08
  12  13  -1    5.66    2.95
 -12 -13  -1    4.21    2.36
 -12 -13  -1    1.00    3.34
  13 -12  -1    4.14    2.91
 -12 -13   1    3.39    2.95
  12  13   1    1.03    2.36
 -12 -13   1    3.90    3.45
 -13  12   1    3.46    2.03
  13 -12   1    4.58    1.88
  12  13   1    0.45    2.62
  13 -12   1    5.55    2.50
  14  13  -1   -1.17    2.67
  13 -14  -1    5.76    3.20
  14  13  -1   -0.30    2.81
  13 -14  -1    0.92    2.11
 -14 -13  -1    0.96    3.53
 -14 -13   1    5.15    3.70
  14  13   1   -6.87    2.78
  13 -14   1    1.05    1.93
  14  13   1    2.44    2.59
  13 -14   1    6.19    2.93
  14  11  -1    0.81    2.73
  14  11  -1    0.33    2.47
 -14 -11  -1    5.21    3.25
  11 -14  -1    5.70    3.04
  11 -14  -1    5.77    2.09
 -14 -11   1    3.72    3.58
  14  11   1    3.63    2.47
 -14 -11   1    4.89    2.62
  14  11   1    0.50    2.77
  11 -14   1   -1.50    2.71
  11 -14   1    5.77    1.84
  14   9  -1    5.36    2.63
 -14  -9  -1    6.07    2.96
   9 -14  -1   13.14    3.27
  14   9  -1    4.50    2.59
   9 -14  -1    4.54    1.99
 -14  -9   1    0.72    3.08
  -9  14   1    7.63    2.04
  14   9   1    1.94    2.49
 -14  -9   1    7.98    2.70
  14   9   1    8.17    2.75
   9 -14   1    8.79    2.83
   9 -14   1    9.19    1.89
  14   7  -1   14.98    3.55
   7 -14  -1   21.00    4.00
   7 -14  -1   21.98    3.56
 -14  -7  -1   12.58    4.12
  -7  14  -1   15.76    3.27
  -7  14  -1   20.23    3.13
 -14  -7  -1   13.58    3.51
  14   7  -1   13.70    3.87
   7 -14   1   19.70    3.36
  14   7   1   14.62    3.54
  -7  14   1   21.30    3.97
  14   7   1   16.35    3.63
   7 -14   1   17.20    3.62
 -14  -7   1   11.38    3.78
 -14  -7   1   22.78    4.19
  14   5  -1   18.19    4.12
 -14  -5  -1   18.03    4.03
  -5  14  -1   25.63    3.90
   5 -14  -1   29.03    4.07
  14   5  -1   22.83    4.57
   5 -14  -1   29.70    5.06
  -5  14  -1   22.30    4.17
  14   5   1   20.52    4.49
  14   5   1   27.25    4.66
 -14  -5   1   16.35    4.11
 -14  -5   1   17.46    4.48
  -5  14   1   28.22    4.12
   5 -14   1   20.40    3.96
  -5  14   1   20.17    4.41
   5 -14   1   33.29    4.84
   3 -14  -1   13.94    2.65
  -3  14  -1   15.43    2.81
  14   3  -1   21.56    3.68
  -3  14  -1   20.81    2.91
   3 -14  -1   17.19    3.41
 -14  -3  -1   12.23    3.04
 -14  -3  -1    8.55    2.81
  14   3  -1   10.23    2.94
  -3  14   1   11.07    2.93
  14   3   1    8.77    2.90
   3 -14   1   24.22    3.84
  14   3   1   19.35    3.09
 -14  -3   1    7.98    2.87
  -3  14   1   16.45    3.10
  14   1  -1   12.34    2.39
 -14  -1  -1    4.57    2.08
  14   1  -1   11.34    2.40
 -14  -1  -1    4.26    2.35
  -1  14  -1    9.17    2.19
  -1  14  -1    7.13    1.79
   1 -14  -1    7.57    2.79
   1 -14  -1    8.78    2.06
   1 -14   1    6.30    1.94
   1 -14   1    9.61    2.78
 -14  -1   1   10.42    2.64
  -1  14   1    4.39    2.25
  14   1   1    5.14    2.41
  14   1   1    6.01    2.36
 -14  -1   1    9.59    2.24
 -14   1  -1    6.58    2.18
  14  -1  -1    6.97    2.20
   1  14  -1    5.11    1.77
  -1 -14  -1    9.36    2.12
   1  14  -1    6.98    2.32
  14  -1  -1   10.90    2.33
  -1 -14  -1   10.58    2.79
 -14   1  -1    2.61    1.88
 -14   1   1    3.00    2.43
  -1 -14   1    9.15    2.70
  14  -1   1    3.31    2.27
  -1 -14   1   10.86    2.13
 -14   1   1    7.25    2.12
   1  14   1    7.22    2.69
  14  -1   1   13.46    2.28
   1  14   1    9.84    2.45
  14  -3  -1   12.01    2.81
 -14   3  -1   17.69    2.86
   3  14  -1   19.25    3.29
   3  14  -1   13.36    2.90
 -14   3  -1   10.67    2.53
  14  -3  -1   15.97    2.99
  -3 -14  -1   11.94    2.81
  -3 -14  -1   22.98    3.59
 -14   3   1   11.52    2.87
  -3 -14   1   12.31    2.74
   3  14   1   12.62    3.29
   3  14   1   12.63    2.83
  14  -3   1   20.92    3.34
 -14   3   1   11.67    2.79
  -3 -14   1   16.60    3.56
  14  -5  -1   28.95    4.37
  -5 -14  -1   22.49    4.24
   5  14  -1   12.75    3.62
   5  14  -1   25.55    4.12
  -5 -14  -1   22.09    4.30
  14  -5  -1   17.72    3.66
  -5 -14   1   21.29    4.13
  -5 -14   1   21.79    4.27
 -14   5   1   19.72    3.89
   5  14   1   12.44    3.80
   5  14   1   24.02    4.30
  14  -5   1   22.56    3.96
  14  -5   1   27.50    4.11
  14  -7  -1   17.37    3.36
  -7 -14  -1   11.76    3.18
  -7 -14  -1   16.94    4.62
   7  14  -1    7.80    3.11
   7  14  -1   24.40    3.95
  14  -7  -1   20.04    3.26
  -7 -14   1   18.95    4.05
  -7 -14   1   23.71    3.86
  14  -7   1   18.81    3.46
 -14   7   1   16.94    3.07
  14  -7   1   14.51    3.14
   7  14   1    9.52    3.25
   7  14   1   13.94    3.23
   9  14  -1    4.36    2.43
  -9 -14  -1    4.65    2.37
   9  14  -1    7.14    2.47
  -9 -14  -1    8.34    3.49
  14  -9  -1    6.79    2.76
  14  -9  -1    8.05    2.31
   9  14   1    5.12    2.60
  14  -9   1    8.72    2.10
   9  14   1    1.77    2.37
  -9 -14   1    5.76    2.44
  14  -9   1    6.73    2.45
  -9 -14   1    8.41    3.42
 -14   9   1    3.50    1.95
  11  14  -1    3.37    2.53
 -11 -14  -1    0.05    2.40
  11  14  -1    2.85    2.36
  14 -11  -1    3.16    2.84
  14 -11  -1    3.47    2.25
 -11 -14  -1   -4.42    3.28
  11  14   1    3.53    2.48
 -11 -14   1    2.30    3.60
  14 -11   1    4.98    1.98
  11  14   1   -2.19    2.82
 -11 -14   1    1.12    2.38
  14 -11   1    5.27    2.48
  13  14  -1   -3.70    2.56
  14 -13  -1    0.33    2.23
 -13 -14  -1    1.75    3.61
  14 -13  -1    4.50    3.11
  13  14  -1   -3.31    2.63
  14 -13   1    1.00    2.65
  13  14   1    2.02    2.86
  14 -13   1   -1.26    1.95
 -13 -14   1   -3.21    3.88
 -13 -14   1    2.37    2.73
 -15 -14  -1   -0.67    3.91
  15  14  -1   -6.17    2.98
  14 -15  -1    1.01    2.33
  14 -15  -1    2.13    3.40
  15  14  -1   -0.39    3.50
  15  14   1    3.71    3.33
 -15 -14   1   -4.70    4.28
  15  14   1   -0.06    2.84
  14 -15   1    0.05    1.98
  14 -15   1   -1.65    2.95
  15  12  -1    1.09    2.65
  12 -15  -1    5.44    2.13
 -15 -12  -1   -2.18    3.29
  12 -15  -1    8.39    3.43
  15  12  -1    5.57    3.04
  12 -15   1    3.41    1.89
  15  12   1    4.14    2.79
  15  12   1    0.83    3.02
  12 -15   1    2.15    2.84
 -15 -12   1    0.55    3.56
  10 -15  -1    8.55    2.41
  15  10  -1    5.50    2.85
  10 -15  -1   18.86    3.59
  15  10  -1    9.95    3.02
 -15 -10  -1   -1.23    3.19
 -10  15   1    7.16    2.27
  15  10   1    7.81    2.98
  10 -15   1   12.79    2.22
 -15 -10   1   11.33    3.78
  10 -15   1   16.54    3.37
  15  10   1    6.79    3.25
   8 -15  -1   18.17    3.77
  15   8  -1   11.91    3.33
  15   8  -1    4.89    3.08
   8 -15  -1   20.12    3.26
 -15  -8  -1    9.90    3.53
  -8  15   1   14.50    2.80
 -15  -8   1    7.95    3.52
  15   8   1   16.22    3.36
  15   8   1    9.60    3.15
   8 -15   1   17.75    3.11
   8 -15   1   27.74    4.46
  -6  15  -1   12.28    2.24
  15   6  -1   13.07    3.18
  15   6  -1    9.23    2.89
   6 -15  -1   12.63    3.39
   6 -15  -1   16.07    2.93
  15   6   1   10.92    2.89
   6 -15   1   16.33    3.13
   6 -15   1    8.34    2.31
 -15  -6   1   13.55    3.21
  15   6   1   11.73    3.00
 -15  -6   1    6.56    3.01
  -6  15   1   12.48    2.49
  15   4  -1    6.09    2.52
 -15  -4  -1    2.45    2.46
   4 -15  -1   10.72    2.96
  15   4  -1    9.10    2.60
  -4  15  -1   10.11    2.58
   4 -15  -1    7.53    1.98
  -4  15   1    8.92    1.99
   4 -15   1    6.02    1.89
  15   4   1    7.80    2.63
 -15  -4   1   10.34    3.67
  15   4   1    7.74    2.43
 -15  -4   1    7.11    2.45
   4 -15   1    7.97    2.63
 -15  -2  -1    1.40    2.00
 -15  -2  -1    2.12    2.01
  -2  15  -1    4.70    2.11
   2 -15  -1    1.38    1.58
   2 -15  -1   -1.77    2.56
  15   2  -1   -1.84    2.14
  15   2  -1    3.38    2.04
  -2  15  -1    1.12    1.41
  -2  15   1    1.51    2.08
  15   2   1    4.68    1.98
 -15  -2   1    1.20    2.55
   2 -15   1    5.00    2.45
  15   2   1    5.57    2.23
 -15  -2   1    0.81    1.98
   2 -15   1    1.24    1.46
  -2  15   1    2.56    1.56
   0 -15  -1    0.84    1.63
 -15   0  -1    2.68    1.74
  15   0  -1    1.86    2.10
 -15   0  -1    1.67    1.82
   0 -15  -1   -1.28    2.36
   0  15  -1    1.03    1.99
   0  15  -1    2.82    1.59
 -15   0   1   -0.30    1.83
   0 -15   1    1.08    1.60
  15   0   1    0.70    2.86
 -15   0   1    5.94    2.34
   0 -15   1    1.83    2.63
  15   0   1   -0.33    1.94
   0  15   1    1.39    2.06
  15  -2  -1    4.74    2.11
 -15   2  -1    1.76    1.63
  -2 -15  -1    2.87    1.91
  15  -2  -1    0.40    1.99
   2  15  -1    1.91    2.14
  -2 -15  -1    4.74    2.64
 -15   2  -1    1.49    1.69
 -15   2   1    4.74    1.98
  -2 -15   1    2.43    1.71
  15  -2   1    7.95    2.05
   2  15   1    1.42    2.03
   2  15   1    4.76    1.95
  15  -2   1    5.54    2.09
 -15   2   1    1.88    2.39
  -2 -15   1    2.71    2.64
 -15   4  -1    6.72    1.59
   4  15  -1    8.39    2.26
  -4 -15  -1   16.49    3.36
  15  -4  -1    8.37    2.34
  -4 -15  -1    4.05    2.30
   4  15  -1    0.79    2.22
  15  -4  -1    9.19    2.47
 -15   4  -1    6.18    1.64
  15  -4   1    8.96    2.21
   4  15   1    8.72    2.24
   4  15   1    3.34    2.54
  -4 -15   1    8.28    3.09
  -4 -15   1    3.44    2.02
  15  -4   1    9.40    2.24
  -6 -15  -1   11.08    2.62
  15  -6  -1    8.32    2.54
   6  15  -1    7.71    2.79
  -6 -15  -1    8.69    3.49
   6  15  -1    9.48    2.59
  15  -6  -1   12.80    2.85
  -6 -15   1   13.48    3.63
  15  -6   1   11.60    2.55
  -6 -15   1    8.11    2.57
  15  -6   1   12.76    2.71
 -15   6   1   10.06    2.55
   6  15   1    4.92    2.77
   6  15   1   12.48    2.81
   8  15  -1   11.68    3.10
  -8 -15  -1   12.02    4.03
  15  -8  -1   15.76    3.20
  -8 -15  -1   11.46    3.02
   8  15  -1    7.34    3.07
  15  -8  -1   16.70    2.97
   8  15   1   10.09    3.08
  -8 -15   1   13.72    3.16
 -15   8   1    7.16    2.65
  -8 -15   1   15.98    4.08
  15  -8   1   13.81    3.01
  15  -8   1   16.32    2.84
   8  15   1   13.34    3.16
  15 -10  -1    6.78    2.55
  10  15  -1    4.86    2.81
 -10 -15  -1    7.37    5.58
 -10 -15  -1    7.71    3.79
  10  15  -1    6.14    2.77
  15 -10  -1    9.83    3.07
  10  15   1    9.14    2.95
 -10 -15   1    6.94    2.65
  15 -10   1    8.24    2.40
  10  15   1    3.63    2.61
  15 -10   1    9.98    2.60
 -10 -15   1    2.49    3.90
  15 -12  -1    4.02    2.49
  12  15  -1    2.69    3.01
  15 -12  -1    0.67    3.04
 -12 -15  -1   -3.98    4.56
  15 -12   1    2.94    2.24
  15 -12   1    5.84    2.75
 -12 -15   1    6.89    4.03
  12  15   1    4.28    2.63
 -12 -15   1    3.94    2.77
  12  15   1    6.15    2.98
  15 -14  -1   -0.15    2.42
 -14 -15  -1    1.01    3.91
  14  15  -1    3.74    3.06
  15 -14  -1    1.91    3.28
  14  15   1    2.29    3.02
 -14 -15   1    3.59    4.14
  15 -14   1   -0.27    2.16
  15 -14   1   -1.01    2.76
  14  15   1    2.59    3.27
  15 -16  -1    2.18    2.57
 -16 -15  -1    1.01    4.32
  16  15  -1   -0.59    3.38
  15 -16  -1   -0.47    3.62
 -16 -15   1   -0.37    4.39
  16  15   1    5.04    3.65
  15 -16   1   -1.92    3.22
  15 -16   1    0.43    2.26
  16  13  -1    3.17    2.99
  16  13  -1   -0.58    3.14
  13 -16  -1    0.34    3.45
  13 -16  -1   -0.16    2.20
 -16 -13  -1   -1.77    3.66
  16  13   1    1.60    2.97
  13 -16   1   -1.45    1.95
  16  13   1   -3.44    3.40
  13 -16   1   -3.08    3.11
 -16 -13   1    1.48    4.02
 -16 -11  -1    2.33    3.17
  11 -16  -1    1.59    2.02
  16  11  -1    1.84    2.67
  11 -16  -1    1.55    3.30
  16  11  -1   -3.23    2.84
 -16 -11   1   -1.46    3.55
  16  11   1    1.37    2.99
  11 -16   1   -0.39    2.96
  16  11   1    0.75    2.64
  11 -16   1    1.80    1.73
 -16  -9  -1   -2.39    2.74
  16   9  -1    3.87    2.52
  16   9  -1    1.43    2.63
   9 -16  -1    3.15    3.20
   9 -16  -1    1.92    1.75
   9 -16   1    0.84    1.57
  16   9   1   -1.85    2.62
  16   9   1   -0.07    2.44
   9 -16   1    1.91    2.93
 -16  -9   1    0.73    3.15
  -9  16   1    0.16    1.83
  -7  16  -1    2.50    1.38
  16   7  -1    0.26    2.27
  16   7  -1    3.78    2.59
   7 -16  -1    2.44    3.05
 -16  -7   1   -0.07    2.77
   7 -16   1    5.80    2.67
  -7  16   1    3.76    1.86
  16   7   1    9.81    2.76
   7 -16   1    1.67    1.53
  16   7   1    1.62    2.35
  16   5  -1    0.86    2.16
   5 -16  -1    3.73    1.67
  16   5  -1    5.36    2.60
  -5  16  -1    2.16    1.49
   5 -16  -1    4.94    2.81
 -16  -5  -1   -1.32    2.33
  16   5   1    0.85    2.23
  16   5   1    2.06    2.34
  -5  16   1    3.48    1.64
   5 -16   1    0.44    1.54
 -16  -5   1    2.31    2.82
   5 -16   1    2.17    2.57
  16   3  -1    3.89    2.48
  -3  16  -1    4.79    1.79
   3 -16  -1    7.14    2.95
 -16  -3  -1    2.51    2.39
  16   3  -1    0.52    2.28
   3 -16  -1    0.32    1.66
   3 -16   1    2.14    1.58
  16   3   1    4.15    2.18
 -16  -3   1    3.07    2.12
  16   3   1    0.39    2.30
  -3  16   1    4.71    1.72
   3 -16   1    0.49    2.49
  -1  16  -1    0.99    1.58
 -16  -1  -1    0.98    2.19
   1 -16  -1    3.36    1.73
  16   1  -1    4.75    2.38
   1 -16  -1    0.64    2.71
   1 -16   1    0.96    1.65
  -1  16   1    2.61    1.54
 -16  -1   1    2.10    2.84
  16   1   1   -1.42    2.10
  16   1   1    5.73    2.40
   1 -16   1    4.74    2.71
 -16   1  -1    2.65    1.94
  16  -1  -1    2.05    2.13
  -1 -16  -1   -1.21    1.77
  16  -1  -1   -0.35    2.23
   1  16  -1    2.12    1.71
  -1 -16  -1    3.07    2.73
  16  -1   1    1.83    2.15
   1  16   1    2.72    1.85
 -16   1   1    7.88    2.65
  16  -1   1    7.56    2.30
  -1 -16   1    2.74    2.95
  -1 -16   1    0.11    1.72
  16  -3  -1    4.35    2.31
 -16   3  -1    6.50    1.81
  -3 -16  -1    9.78    3.13
  -3 -16  -1    4.99    2.17
  16  -3  -1    3.41    2.36
  16  -3   1    3.16    2.14
  -3 -16   1    3.86    2.06
 -16   3   1    1.76    3.04
   3  16   1    4.35    3.13
   3  16   1    6.13    2.20
  -3 -16   1    2.61    3.04
  16  -5  -1    3.72    2.39
  16  -5  -1    1.86    2.23
  -5 -16  -1    3.09    2.24
  -5 -16  -1    5.84    3.21
   5  16  -1    2.66    2.01
  16  -5   1    4.09    2.08
  -5 -16   1    2.53    2.41
   5  16   1    2.35    2.54
  -5 -16   1    2.61    3.08
 -16   5   1    4.10    2.31
  16  -5   1    1.13    2.04
   5  16   1    2.62    2.16
   7  16  -1   -0.43    2.19
  -7 -16  -1    1.74    2.26
  16  -7  -1    2.64    2.36
  -7 -16  -1    0.89    3.20
  16  -7  -1    3.94    2.48
   7  16   1   -0.51    2.34
  -7 -16   1    0.11    3.32
 -16   7   1    2.09    2.12
  16  -7   1    5.38    2.38
  -7 -16   1    0.67    2.20
  16  -7   1    2.34    2.11
   7  16   1    4.12    2.45
  -9 -16  -1   -0.03    2.40
   9  16  -1    0.95    2.37
  16  -9  -1   -0.53    2.62
  -9 -16  -1   -5.64    3.40
  16  -9  -1    1.99    2.36
   9  16   1   -0.80    2.68
  -9 -16   1   -1.45    3.66
  16  -9   1   -2.37    2.32
  16  -9   1   -2.21    2.05
  -9 -16   1   -0.02    2.34
   9  16   1   -2.10    2.42
  16 -11  -1   -7.73    2.80
 -11 -16  -1   -1.75    3.87
  16 -11  -1    0.95    2.47
 -11 -16  -1   -0.52    2.65
  11  16  -1   -1.71    2.52
 -11 -16   1   -0.66    3.06
  16 -11   1   -2.63    2.24
  16 -11   1    2.04    2.64
  11  16   1    4.77    3.08
 -11 -16   1   -2.58    3.89
 -13 -16  -1    0.71    4.06
  16 -13  -1   -1.46    3.29
  13  16  -1   -1.33    2.98
  16 -13  -1    0.87    2.60
  16 -13   1    1.47    2.35
 -13 -16   1   -1.77    4.06
  16 -13   1    5.38    2.93
  13  16   1   -4.80    3.03
  16 -15  -1   -2.25    3.47
  16 -15  -1   -2.03    2.64
 -15 -16  -1    1.93    6.18
  15  16  -1   -2.94    3.32
 -15 -16   1   -1.24    4.52
  15  16   1    5.71    3.67
  16 -15   1   -3.97    3.10
  16 -15   1    1.78    2.44
  14 -17  -1    2.46    2.43
  17  14  -1    1.21    3.60
  14 -17  -1    2.49    3.72
 -17 -14  -1    4.36    4.21
  17  14   1    0.39    3.66
  14 -17   1    2.50    2.19
  14 -17   1    3.42    3.57
  17  14   1    3.27    3.45
 -17 -14   1   -3.07    4.39
  12 -17  -1    3.39    2.24
 -17 -12  -1    1.20    3.63
  12 -17  -1    2.49    3.64
  17  12  -1    0.18    3.31
 -17 -12   1    6.07    3.90
  17  12   1    0.75    3.06
  17  12   1    1.28    3.32
  12 -17   1    3.78    3.37
  12 -17   1    3.30    1.97
  10 -17  -1   -2.52    3.44
  17  10  -1    2.86    3.09
  10 -17  -1   -0.77    1.94
 -17 -10  -1   10.15    3.42
  17  10  -1   -1.45    2.62
  10 -17   1    2.42    1.66
  17  10   1    2.80    3.08
 -17 -10   1   -2.47    3.51
  17  10   1    0.00    2.67
  10 -17   1   -1.21    3.07
 -10  17   1   -0.60    3.43
   8 -17  -1    6.39    6.44
  17   8  -1    4.53    2.55
 -17  -8  -1   -0.47    2.90
  17   8  -1    1.69    2.78
   8 -17  -1    0.33    1.69
   8 -17   1    0.01    1.58
  17   8   1   -0.77    2.54
  -8  17   1   -0.37    1.92
  17   8   1   -6.58    3.69
 -17  -8   1   -2.21    3.00
   8 -17   1    3.13    3.65
   6 -17  -1    6.87    3.24
   6 -17  -1    3.42    1.73
  -6  17  -1    3.11    1.54
  17   6  -1   -2.99    2.72
  17   6  -1   -0.54    2.50
 -17  -6  -1    2.95    2.43
  17   6   1    1.97    2.45
  17   6   1   -0.90    2.45
   6 -17   1    1.88    1.65
   6 -17   1    1.81    2.80
  -6  17   1    3.02    1.97
  17   4  -1    1.76    2.44
   4 -17  -1    4.95    2.98
   4 -17  -1    3.25    1.68
  17   4  -1   -0.28    2.55
  -4  17  -1    4.30    1.64
 -17  -4  -1    3.52    2.59
  -4  17   1    2.92    1.87
   4 -17   1    2.41    2.65
  17   4   1    1.01    2.28
  17   4   1    4.80    2.55
   4 -17   1    2.29    1.72
   2 -17  -1    5.41    2.09
   2 -17  -1   10.00    3.33
  -2  17  -1   11.73    2.06
  17   2  -1    4.51    2.72
 -17  -2  -1    6.58    2.61
  17   2  -1    6.92    2.63
 -17  -2   1    9.26    3.29
   2 -17   1    5.47    2.01
  -2  17   1    6.50    2.09
   2 -17   1   12.65    3.08
  17   2   1    5.68    2.78
  17   2   1    4.76    2.57
 -17   0  -1    6.28    2.69
   0 -17  -1    9.16    2.57
   0  17  -1   11.76    2.37
  17   0  -1   14.14    2.89
   0 -17  -1   14.67    3.44
  17   0  -1    8.68    2.86
 -17   0   1    5.92    3.34
  17   0   1    9.75    3.55
   0 -17   1    6.26    2.38
   0 -17   1   14.63    3.44
  17   0   1   12.19    2.82
  -2 -17  -1    4.67    2.30
  17  -2  -1    5.57    2.55
  17  -2  -1    5.61    2.53
 -17   2  -1    6.80    2.18
  -2 -17  -1   10.01    3.33
   2  17  -1    3.95    1.96
 -17   2   1    7.20    3.08
   2  17   1    8.98    3.95
  17  -2   1    9.22    2.50
  -2 -17   1   13.16    3.55
  -2 -17   1    8.08    2.23
  17  -4  -1    1.61    2.29
  -4 -17  -1    5.34    3.23
   4  17  -1    0.97    2.33
  -4 -17  -1   -2.11    1.96
  17  -4  -1   -1.21    2.24
   4  17   1    2.48    2.12
  -4 -17   1    0.42    1.90
 -17   4   1    2.84    2.53
  -4 -17   1    2.25    3.30
  17  -4   1    1.20    2.25
  17  -4   1    4.98    2.16
  17  -6  -1   -1.10    2.56
  -6 -17  -1    0.50    3.26
  17  -6  -1    1.12    2.44
   6  17  -1    2.50    2.25
  -6 -17  -1    2.54    2.20
  -6 -17   1   -4.85    3.41
   6  17   1    2.91    2.28
  17  -6   1    2.39    2.22
  17  -6   1   -1.47    2.09
  -6 -17   1    0.39    2.08
 -17   6   1   -0.36    2.29
  17  -8  -1    5.53    2.54
  -8 -17  -1    1.01    3.39
  -8 -17  -1    2.07    2.48
  17  -8  -1    8.66    4.77
   8  17  -1    1.88    2.45
  -8 -17   1    0.62    3.77
   8  17   1    5.24    2.69
  17  -8   1    3.33    2.33
  17  -8   1    0.38    3.73
  -8 -17   1    1.51    2.60
 -10 -17  -1    1.49    2.83
  10  17  -1    4.79    2.72
  17 -10  -1    2.92    2.91
  17 -10  -1    1.06    2.60
 -10 -17  -1    6.38    4.01
 -10 -17   1   -2.29    2.61
  10  17   1    2.50    2.85
  17 -10   1    1.63    2.45
 -10 -17   1    5.16    4.15
  17 -10   1    5.47    2.48
 -12 -17  -1    2.52    3.99
  17 -12  -1    0.33    2.66
  12  17  -1   -0.95    3.00
  17 -12  -1   -1.67    3.07
 -12 -17   1    2.67    3.43
 -12 -17   1    5.00    4.48
  17 -12   1    3.44    2.44
  12  17   1    1.43    3.18
  17 -12   1    2.03    2.70
 -14 -17  -1   -4.96    3.92
  17 -14  -1    1.21    2.90
  14  17  -1    2.67    3.34
  17 -14  -1    0.10    3.49
  17 -14   1   -0.82    3.08
 -14 -17   1    0.65    4.76
  14  17   1    5.10    3.65
  17 -14   1   -1.39    4.16
  18  13  -1    1.60    3.31
  13 -18  -1    2.59    2.29
 -18 -13  -1   -2.55    3.75
  13 -18  -1   -0.20    3.77
  18  13  -1   -3.37    3.43
  18  13   1   -6.68    3.64
 -18 -13   1   -8.26    4.08
  18  13   1   -0.26    5.41
  13 -18   1    0.66    3.64
  13 -18   1    0.46    2.05
  18  11  -1    4.38    3.00
 -18 -11  -1    3.07    3.37
  18  11  -1   -3.78    3.14
  11 -18  -1    6.61    3.75
  11 -18  -1    3.97    2.12
  18  11   1   -1.52    3.33
  18  11   1    0.32    3.10
 -18 -11   1    6.27    3.77
  11 -18   1    0.81    1.87
  11 -18   1    6.63    3.48
  18   9  -1    7.62    3.21
  18   9  -1   -1.79    2.66
   9 -18  -1    2.76    1.87
   9 -18  -1   10.02    3.70
   9 -18   1    2.36    1.82
  18   9   1    1.89    3.03
 -18  -9   1   -2.62    3.37
  -9  18   1    4.46    2.35
  18   9   1    3.11    2.88
   9 -18   1    6.21    3.40
  18   7  -1    1.51    2.99
  18   7  -1    7.13    2.71
  -7  18  -1    4.31    2.03
   7 -18  -1    3.22    1.97
   7 -18  -1    9.91    3.70
 -18  -7  -1    3.54    2.13
   7 -18   1    5.68    1.88
  -7  18   1    7.45    2.24
 -18  -7   1    2.08    3.22
  18   7   1    2.12    2.75
   7 -18   1    4.36    3.13
  18   7   1   11.07    3.15
  18   5  -1    9.60    3.12
 -18  -5  -1    2.85    2.87
  -5  18  -1    6.33    2.09
   5 -18  -1    6.25    2.08
  18   5  -1    7.66    2.95
   5 -18  -1   19.52    3.64
  18   5   1    7.16    2.76
  -5  18   1   12.48    4.59
  18   5   1   11.99    2.92
   5 -18   1   16.38    4.97
   5 -18   1    3.46    1.99
 -18  -3  -1    8.91    3.22
  -3  18  -1   14.25    2.68
   3 -18  -1    8.19    2.62
  18   3  -1   15.70    3.47
  18   3  -1    4.81    3.11
   3 -18  -1   13.13    3.86
 -18  -3   1    9.42    3.36
  18   3   1   19.60    3.49
  18   3   1   12.49    3.20
   3 -18   1   12.27    2.67
   3 -18   1   13.45    3.55
  -3  18   1   15.12    2.83
   1 -18  -1   10.62    2.73
  18   1  -1   18.50    3.34
 -18  -1  -1   11.88    3.33
  -1  18  -1   12.90    2.67
   1 -18  -1   11.52    3.83
  -1  18   1   12.97    2.74
  18   1   1   17.31    3.34
   1 -18   1   10.61    2.69
   1 -18   1   17.14    3.65
 -18  -1   1    9.88    3.27
  18   1   1    5.31    2.97
  -1 -18  -1   11.42    2.97
  18  -1  -1   11.22    3.22
  -1 -18  -1   14.92    3.92
   1  18  -1   13.26    2.78
 -18   1  -1   12.99    2.97
  18  -1  -1   15.64    3.40
 -18   1   1   10.83    3.77
  -1 -18   1   20.30    4.12
  18  -1   1   15.69    3.25
  -1 -18   1   10.54    2.86
 -18   3  -1   10.52    2.78
  18  -3  -1   13.48    3.43
  18  -3  -1   13.43    3.31
  -3 -18  -1   16.21    4.07
  -3 -18  -1   14.25    3.16
  18  -3   1   15.79    3.26
   3  18   1   12.73    3.11
  -3 -18   1   12.14    2.95
  -3 -18   1   24.91    4.54
  18  -3   1   14.79    3.23
 -18   3   1    9.64    3.58
  18  -5  -1   12.74    3.05
   5  18  -1    8.24    2.79
  18  -5  -1   13.34    3.63
  -5 -18  -1    9.52    2.88
  -5 -18  -1   19.16    4.00
   5  18   1    6.41    2.84
  -5 -18   1   10.31    4.13
  -5 -18   1   10.24    2.82
 -18   5   1    9.31    3.14
  18  -5   1   12.51    2.96
  18  -7  -1   10.39    3.00
  -7 -18  -1    8.28    3.77
   7  18  -1    5.51    2.73
  18  -7  -1    2.77    2.77
  -7 -18  -1    1.78    2.61
  18  -7   1    7.65    2.72
  18  -7   1    7.76    2.65
  -7 -18   1    3.69    2.67
  -7 -18   1   12.83    4.05
   7  18   1    9.17    2.81
  18  -9  -1    6.67    2.94
  -9 -18  -1    3.59    3.07
  -9 -18  -1    5.58    3.89
  18  -9  -1    3.84    2.98
   9  18  -1    3.65    2.79
  -9 -18   1    5.78    4.36
   9  18   1   -2.06    2.86
  18  -9   1    3.59    2.69
  -9 -18   1    5.11    2.84
  18  -9   1    2.86    2.51
 -11 -18  -1    8.89    4.14
  11  18  -1    4.73    3.07
  18 -11  -1    4.85    3.05
  18 -11  -1    1.97    3.32
  11  18   1    4.10    3.60
 -11 -18   1    3.96    3.15
  18 -11   1    6.30    2.74
  18 -11   1    2.65    2.83
 -11 -18   1   13.24    4.88
 -13 -18  -1    4.57    4.41
  18 -13  -1   -0.40    3.06
  18 -13  -1   -3.76    3.46
  13  18  -1   -1.50    3.28
 -13 -18   1   -2.28    4.73
  13  18   1   -0.55    3.48
  18 -13   1   -5.78    2.89
  19  12  -1   -1.75    3.28
  19  12  -1    0.97    3.66
  12 -19  -1    4.04    2.18
 -19 -12  -1   -2.70    3.72
  12 -19  -1    0.33    4.03
  19  12   1   -0.90    3.81
  12 -19   1    0.21    1.98
 -19 -12   1   -1.44    3.92
  12 -19   1    4.09    3.71
  19  12   1    4.84    3.46
  19  10  -1   -1.66    2.91
  10 -19  -1   -0.27    1.93
  19  10  -1   -2.86    3.17
  10 -19  -1    4.38    3.84
 -19 -10  -1   -1.64    4.01
  10 -19   1   -2.50    1.75
  19  10   1   -0.25    5.44
 -19 -10   1   -0.89    3.44
  10 -19   1    4.22    3.57
  19  10   1    1.88    3.08
   8 -19  -1   -1.09    1.84
  19   8  -1    4.13    2.78
   8 -19  -1   -5.39    3.67
  19   8  -1    4.28    3.19
  19   8   1   -0.04    2.92
 -19  -8   1    3.06    3.31
  -8  19   1   -2.68    2.13
   8 -19   1    5.52    3.49
   8 -19   1   -1.88    1.67
  19   8   1    0.77    4.96
  -6  19  -1   -0.88    3.12
 -19  -6  -1   -2.39    2.75
   6 -19  -1    0.89    1.77
   6 -19  -1    4.19    3.54
  19   6  -1   -3.01    2.85
  19   6  -1   -7.40    3.39
  19   6   1    2.88    3.58
   6 -19   1    1.48    3.06
   6 -19   1   -0.44    1.64
  19   6   1   -2.34    2.64
  -6  19   1   -1.05    2.12
 -19  -4  -1    2.05    2.73
  19   4  -1   -1.57    2.82
  -4  19  -1    3.88    1.90
   4 -19  -1    1.82    1.74
  19   4  -1    0.61    2.62
   4 -19  -1    2.88    5.30
 -19  -4   1   -3.86    2.66
   4 -19   1    4.81    2.99
  19   4   1    1.12    2.49
   4 -19   1    6.62    2.77
  19   4   1    0.11    3.14
  -4  19   1    2.33    2.52
  -2  19  -1   14.24    3.74
   2 -19  -1    9.27    3.50
  19   2  -1    5.60    3.01
   2 -19  -1    7.67    2.24
 -19  -2  -1    4.98    3.32
   2 -19   1    8.11    2.24
  -2  19   1   10.51    2.45
  19   2   1    3.83    2.60
 -19  -2   1    2.70    2.89
  19   2   1    4.81    4.33
   2 -19   1    4.79    4.66
   0 -19  -1   16.35    3.90
   0  19  -1    7.93    2.38
   0 -19  -1    6.68    2.53
 -19   0  -1    9.91    2.74
  19   0  -1    8.65    3.18
  19   0  -1    3.72    2.90
 -19   0   1    6.72    2.95
   0 -19   1    6.51    2.37
  19   0   1    4.60    3.63
  19   0   1   13.97    4.95
   0 -19   1   14.80    3.68
   0  19   1    9.69    2.44
  -2 -19  -1    3.54    3.38
  19  -2  -1    6.40    2.75
  -2 -19  -1    7.48    4.33
 -19   2  -1    7.57    2.28
   2  19  -1    5.65    2.28
  -2 -19   1    6.55    2.27
 -19   2   1    1.90    2.65
  -2 -19   1    4.29    3.57
   2  19   1    3.07    2.79
  19  -2   1    8.55    2.78
  19  -4  -1   -3.01    2.56
  19  -4  -1    2.86    2.61
  -4 -19  -1    2.69    2.35
  -4 -19  -1    4.72    3.62
  19  -4   1    3.55    2.54
  -4 -19   1    1.93    3.63
   4  19   1    0.74    2.45
 -19   4   1    0.45    2.30
  19  -4   1    4.63    2.40
  -4 -19   1    2.11    4.09
  -6 -19  -1   -3.32    2.31
  19  -6  -1   -2.01    2.73
   6  19  -1   -0.97    2.25
  19  -6  -1   -0.62    2.75
  -6 -19  -1    3.35    3.71
   6  19   1   -0.27    2.44
  -6 -19   1   -1.39    2.30
  19  -6   1    5.56    2.44
  19  -6   1    0.65    2.49
  -6 -19   1    2.97    4.05
  -8 -19  -1    1.28    4.64
  -8 -19  -1    1.62    4.03
   8  19  -1    0.82    2.64
  19  -8  -1   -0.71    2.83
  19  -8  -1   -4.36    2.75
   8  19   1   -1.11    2.76
  19  -8   1   -1.88    2.76
  19  -8   1   -1.60    2.59
  -8 -19   1    0.22    2.64
  -8 -19   1    0.30    4.45
 -10 -19  -1   -1.39    4.17
  10  19  -1   -3.33    2.75
  19 -10  -1    1.07    3.13
  19 -10  -1   -4.80    2.98
 -10 -19   1    2.68    4.69
 -10 -19   1    3.49    3.14
  19 -10   1    0.71    2.85
  10  19   1    2.13    3.18
  19 -10   1   -3.33    2.72
  12  19  -1    7.82    3.32
  19 -12  -1   -0.58    3.19
 -12 -19  -1    2.15    4.45
  19 -12  -1    1.34    3.54
  19 -12   1    1.61    2.99
  12  19   1    2.23    3.52
 -12 -19   1    0.78    5.02
  19 -12   1   -0.67    5.17
  11 -20  -1    1.03    2.25
  20  11  -1    7.02    5.94
 -20 -11  -1    0.40    3.76
  11 -20  -1    9.67    4.33
  20  11  -1    3.16    3.84
  11 -20   1    1.95    2.05
 -20 -11   1    2.18    3.92
  20  11   1    6.22    3.95
  11 -20   1    3.91    3.89
  20  11   1    3.04    3.54
  20   9  -1    0.93    3.77
   9 -20  -1   10.61    3.99
  20   9  -1    2.30    3.02
   9 -20  -1   -0.79    1.99
   9 -20   1    1.84    1.90
  -9  20   1   -0.31    3.23
  20   9   1   -1.20    3.16
  20   9   1    0.48    3.55
   9 -20   1    5.81    3.74
 -20  -9   1    1.59    3.46
 -20  -7  -1   -1.92    3.03
  20   7  -1   -0.18    3.71
  20   7  -1    0.58    3.03
   7 -20  -1    5.55    3.90
   7 -20  -1    4.99    1.98
   7 -20   1    1.97    1.83
  -7  20   1    1.19    2.40
   7 -20   1    8.05    3.42
  20   7   1    1.39    2.90
  20   7   1    1.76    3.15
  20   5  -1    7.63    3.46
   5 -20  -1    2.28    1.95
 -20  -5  -1    4.93    2.92
  20   5  -1    3.38    2.94
  -5  20  -1    5.46    2.37
   5 -20  -1    8.32    3.48
  -5  20   1    5.23    2.42
  20   5   1   -1.64    2.69
 -20  -5   1    1.81    3.12
   5 -20   1    7.39    3.43
  20   5   1    4.21    2.87
   5 -20   1    1.83    1.89
  -3  20  -1   16.83    2.83
   3 -20  -1   26.54    4.45
   3 -20  -1    9.37    2.71
  20   3  -1   10.34    3.59
 -20  -3  -1    8.30    4.97
  20   3   1    8.79    3.19
   3 -20   1   11.37    2.72
 -20  -3   1    5.59    3.45
  20   3   1   11.40    3.59
   3 -20   1   13.85    3.84
  -3  20   1   11.77    2.97
   1 -20  -1   16.28    3.72
  20   1  -1   24.55    4.32
 -20  -1  -1   14.76    3.90
   1 -20  -1   34.40    7.76
  20   1  -1   11.18    4.08
  -1  20  -1   23.14    4.14
   1 -20   1   33.78    5.68
  20   1   1   22.87    4.18
  -1  20   1   25.23    4.44
   1 -20   1   14.38    3.57
 -20  -1   1   15.71    4.08
  20   1   1   18.01    4.06
  -1 -20  -1   31.53    4.94
 -20   1  -1   17.94    3.71
  20  -1  -1   20.87    4.12
  -1 -20  -1   15.12    3.78
   1  20  -1   28.64    4.37
  20  -1  -1   16.24    4.05
  -1 -20   1   24.62    5.32
  -1 -20   1   17.42    3.64
  20  -1   1   17.93    3.99
   1  20   1   13.44    3.42
 -20   1   1   16.27    3.90
  -3 -20  -1   15.87    4.22
   3  20  -1    6.46    2.72
  -3 -20  -1    8.41    2.90
  20  -3  -1    9.95    3.25
  20  -3  -1   14.79    3.81
   3  20   1   14.04    4.99
  -3 -20   1   16.73    5.01
  -3 -20   1    8.01    2.77
 -20   3   1    8.49    3.03
  20  -3   1   14.80    3.21
  20  -3   1   10.63    3.25
  20  -5  -1    7.89    2.93
  20  -5  -1    2.40    3.05
  -5 -20  -1    6.03    3.98
  -5 -20  -1    5.72    2.72
   5  20  -1    2.91    3.15
  -5 -20   1    4.13    4.10
  -5 -20   1    5.65    2.60
  20  -5   1    2.01    2.83
   5  20   1    2.54    2.61
  20  -5   1    9.33    2.78
  -7 -20  -1   -3.43    3.86
  20  -7  -1    0.09    3.15
   7  20  -1    2.35    2.57
  20  -7  -1    0.16    2.95
  -7 -20  -1    3.04    2.89
  -7 -20   1   -2.56    2.61
  20  -7   1   -1.82    2.62
  -7 -20   1   -1.80    4.33
  20  -7   1   -4.89    2.84
   7  20   1    3.10    2.83
   9  20  -1    0.34    2.87
  -9 -20  -1    4.94    3.38
  20  -9  -1   -2.03    3.18
  -9 -20  -1    1.64    4.37
  20  -9  -1    2.89    3.22
  20  -9   1    0.92    2.77
   9  20   1    1.03    3.03
  -9 -20   1   10.90    4.97
  20  -9   1    0.83    2.92
  20 -11  -1   -0.52    3.40
  11  20  -1    3.32    3.24
 -11 -20  -1   -2.98    4.43
  20 -11  -1    6.24    3.56
  20 -11   1   -2.00    4.73
  11  20   1    4.46    4.23
 -11 -20   1   -0.47    5.03
  20 -11   1    6.99    3.17
  21   8  -1    1.54    3.52
   8 -21  -1    6.15    4.32
  21   8  -1   -2.74    3.40
   8 -21  -1   -2.47    2.26
 -21  -8  -1    1.12    3.28
  21   8   1    2.83    3.44
   8 -21   1    2.23    2.00
   8 -21   1    3.64    3.83
  21   8   1   -2.29    3.12
  -8  21   1   -0.02    2.77
  21   6  -1   -0.59    3.13
   6 -21  -1   -2.19    1.83
  21   6  -1   -0.60    3.13
   6 -21  -1    3.19    3.92
 -21  -6  -1   -1.36    3.08
 -21  -6   1    0.93    4.29
  21   6   1    0.13    2.98
   6 -21   1    2.99    1.88
  21   6   1   -0.83    3.13
  -6  21   1   -0.49    2.46
   6 -21   1    6.22    3.57
  -4  21  -1    2.15    2.24
  21   4  -1   -1.25    3.16
 -21  -4  -1    0.49    4.71
   4 -21  -1    2.22    2.03
   4 -21  -1    4.61    3.68
  21   4   1   -1.15    2.91
 -21  -4   1   -2.14    3.05
  -4  21   1    1.12    2.42
   4 -21   1   -1.75    3.23
   4 -21   1    3.87    2.08
  21   4   1    0.03    2.70
  21   2  -1   -0.31    3.08
 -21  -2  -1    0.37    2.72
   2 -21  -1    1.13    2.15
  21   2  -1    2.23    2.98
   2 -21  -1    4.78    3.76
  -2  21  -1    1.23    2.32
  21   2   1    0.52    2.81
 -21  -2   1    3.96    3.05
  21   2   1    7.33    3.10
   2 -21   1   -0.73    2.05
  -2  21   1    4.43    2.44
   2 -21   1    4.76    3.36
  21   0  -1    1.30    2.95
   0 -21  -1    8.03    3.89
   0  21  -1    5.32    2.39
   0 -21  -1    2.59    2.40
  21   0  -1    2.22    2.78
 -21   0  -1    0.87    2.56
  21   0   1    1.66    2.91
   0  21   1    7.79    2.46
 -21   0   1    3.07    2.86
   0 -21   1   -2.83    3.35
   0 -21   1    1.31    2.11
  21  -2  -1   -1.78    2.66
   2  21  -1    1.90    2.20
  -2 -21  -1    6.12    4.23
  21  -2  -1   -2.37    2.92
  -2 -21  -1    0.35    2.38
 -21   2   1    6.06    2.82
  21  -2   1    1.47    2.91
  -2 -21   1    3.32    2.19
  -2 -21   1    4.77    3.79
  21  -2   1    5.61    2.81
  21  -4  -1   -1.82    2.86
  -4 -21  -1    1.31    2.56
  -4 -21  -1   -5.39    5.89
  21  -4  -1   -7.02    2.91
   4  21   1    0.67    2.61
  21  -4   1    1.14    2.72
  -4 -21   1    1.58    2.43
  -4 -21   1   -1.16    4.10
  21  -4   1    0.95    2.92
  21  -6  -1    1.91    3.05
  -6 -21  -1   -2.39    4.10
  -6 -21  -1    0.46    2.72
  21  -6  -1   -2.60    3.31
   6  21  -1    0.20    2.79
  -6 -21   1    1.46    2.69
  21  -6   1    4.40    2.75
  -6 -21   1    1.48    4.32
  21  -6   1   -5.32    2.96
   6  21   1   -0.48    2.68
  21  -8  -1    1.82    3.17
  21  -8  -1    0.08    3.33
   8  21  -1   -0.76    2.69
  -8 -21  -1    2.08    4.43
  -8 -21  -1    0.78    3.28
  21  -8   1   -4.09    3.19
  21  -8   1   -2.89    2.81
   8  21   1   -0.92    2.92
  -8 -21   1    4.54    3.22
  -8 -21   1   10.09    5.66
  22   5  -1   -1.62    3.42
   5 -22  -1    4.45    4.16
   5 -22  -1   -0.60    2.07
 -22  -5  -1    2.01    3.67
  -5  22  -1   -1.70    3.17
  22   5   1    1.07    3.00
  22   5   1    2.76    3.19
   5 -22   1    2.77    3.57
   5 -22   1   -1.15    2.09
 -22  -5   1    5.58    3.38
  -5  22   1   -0.38    2.68
  22   3  -1   -4.09    3.41
   3 -22  -1   -1.06    2.19
 -22  -3  -1   -0.61    2.90
   3 -22  -1    4.74    3.85
  -3  22  -1    1.90    2.41
  22   3  -1    1.77    3.25
   3 -22   1    0.85    2.12
  22   3   1   -0.58    3.11
   3 -22   1    6.72    3.77
  -3  22   1   -0.51    2.64
  22   3   1    0.07    3.00
 -22  -3   1    1.51    3.38
  22   1  -1    2.28    3.34
  -1  22  -1    3.24    2.68
   1 -22  -1    0.74    2.43
 -22  -1  -1    4.61    2.99
   1 -22  -1    8.79    4.00
  22   1  -1    5.45    3.40
  -1  22   1    4.63    2.70
   1 -22   1    9.02    3.67
   1 -22   1    3.14    2.24
 -22  -1   1    4.93    3.14
  22   1   1    9.69    3.22
  -1 -22  -1   -3.60    2.48
  22  -1  -1   -1.15    3.08
   1  22  -1    4.86    2.49
  -1 -22  -1    9.14    4.06
  22  -1  -1    9.55    3.24
 -22   1   1    5.60    3.04
  22  -1   1   -0.50    3.08
  -1 -22   1    1.49    2.38
  22  -1   1    9.49    3.24
   1  22   1    4.17    2.58
  -1 -22   1   10.86    4.04
  22  -3  -1    4.73    5.04
  -3 -22  -1   11.01    4.21
  -3 -22  -1    1.44    2.63
   3  22  -1    2.89    2.37
  22  -3  -1    7.26    3.17
 -22   3   1    0.84    4.31
  22  -3   1   -0.81    3.11
  22  -3   1    9.65    2.96
  -3 -22   1    7.80    4.08
  -3 -22   1   -2.86    2.63
  22  -5  -1   -0.59    3.05
  -5 -22  -1    1.74    4.21
  -5 -22  -1    2.45    2.79
  22  -5  -1    0.74    3.53
  -5 -22   1    2.42    4.08
  22  -5   1    5.75    2.86
  -5 -22   1    0.03    2.71
  22  -5   1   -4.11    3.27
   5  22   1    4.54    2.84
  22  -7  -1   -7.53    3.08
  22  -7   1    0.04    2.87
  23   2  -1   -0.40    3.54
  23   0  -1   -0.18    3.47
  23   0  -1   -1.91    3.35
   0 -23  -1    3.18    4.29
 -23   0   1    3.55    3.17
   0 -23   1   10.63    4.08
   0 -23   1    1.46    2.39
  23   0   1    4.07    3.31
  23   0   1   -2.23    4.27
  23  -2  -1   -2.32    3.45
  23  -2   1   -3.61    3.35
   0   0  -2   -0.04    0.46
   0   0   2   -0.37    0.65
   0   0   2    0.58    0.53
  -1   1  -2    1.69    0.53
  -1   1  -2    1.94    0.50
   1  -1  -2    3.63    1.58
  -1  -1  -2    3.21    0.69
   1   1  -2    3.27    0.74
   1  -1  -2    1.25    0.72
   1   1   2    2.37    0.90
  -1  -1   2    2.59    0.78
   1  -1   2    0.88    0.50
  -1   1   2    1.87    0.97
   1   1   2    1.72    0.73
  -1   1   2    0.37    0.71
  -1  -1   2    1.86    0.73
   2   0  -2  234.40   34.16
  -2   0  -2  232.09   34.14
   0  -2  -2  228.43   34.16
   0   2  -2  235.07   34.13
  -2   0  -2  215.48   34.12
   0  -2  -2  232.99   34.22
   0   2  -2  229.81   34.13
   2   0  -2  235.84   34.17
  -2   0   2  230.52   34.16
   2   0   2  225.66   34.13
   0   2   2  239.62   34.18
   2   0   2  256.63   34.16
  -2   0   2  236.38   34.18
   0  -2   2  240.15   34.14
   0   2   2  229.14   34.16
   0  -2   2  231.19   34.14
   2  -2  -2    5.63    1.31
  -2  -2  -2    8.57    1.33
   2   2  -2    3.54    1.34
   2  -2  -2    6.29    1.56
   2   2  -2    9.42    1.47
   2   2   2    4.72    1.52
  -2   2   2    5.08    1.29
  -2   2   2    6.33    1.55
  -2  -2   2    8.00    1.47
  -2  -2   2    6.57    1.38
   2   2   2    6.10    1.34
   3   1  -2  154.75   21.50
  -3  -1  -2  138.93   21.45
   3   1  -2  153.02   21.50
  -1   3  -2  137.43   21.40
  -3  -1  -2  146.75   21.44
   1  -3  -2  147.54   21.53
   1  -3  -2  143.78   21.47
  -1   3  -2  142.60   21.40
   1  -3   2  144.55   21.41
  -3  -1   2  154.89   21.50
   3   1   2  141.26   21.47
  -1   3   2  151.44   21.52
  -1   3   2  142.75   21.47
   3   1   2  152.04   21.45
   3  -1  -2  147.71   22.16
  -1  -3  -2  161.84   22.17
   3  -1  -2  145.08   22.12
  -1  -3  -2  148.47   22.12
   3  -1   2  140.94   22.04
   1   3   2  154.63   22.13
  -1  -3   2  151.22   22.13
   3  -1   2  147.78   22.05
  -1  -3   2  156.32   22.11
   1   3   2  149.94   22.17
  -3   1   2  145.30   22.15
  -3   1   2  162.20   22.15
  -3  -3  -2    1.58    1.10
   3  -3  -2    1.23    1.55
   3   3  -2    3.20    1.20
   3   3  -2    2.60    1.32
   3  -3  -2    1.94    1.12
  -3  -3  -2    2.44    1.37
  -3  -3   2    3.18    1.29
  -3   3   2    0.85    1.42
   3   3   2    2.71    1.19
  -3  -3   2    4.06    1.49
   3   3   2    0.49    1.33
  -3   3   2    4.34    1.16
  -4  -2  -2   96.23   13.87
   2  -4  -2   90.35   13.89
   2  -4  -2   92.24   14.01
   4   2  -2   94.68   13.94
   4   2   2   88.06   13.92
   2  -4   2   93.02   13.79
   4   2   2   98.70   13.88
  -2   4   2   93.82   13.96
  -4  -2   2  102.21   13.94
   2  -4   2   91.97   13.81
  -4  -2   2  101.63   13.98
  -2   4   2   86.04   13.96
   0   4  -2    1.84    0.90
  -4   0  -2    1.32    0.83
   0  -4  -2    4.05    1.44
   4   0  -2    3.76    1.30
  -4   0  -2    1.68    0.96
   4   0  -2    2.91    1.19
   0  -4  -2    2.45    1.19
   0  -4   2    3.33    1.01
  -4   0   2    4.70    1.30
   0   4   2    1.44    1.07
   0  -4   2    2.65    1.18
  -4   0   2    2.51    1.24
   4   0   2    1.78    1.10
   4   0   2    2.62    0.97
   0   4   2    3.39    1.49
   4  -2  -2   99.29   14.51
   2   4  -2   97.52   14.45
   4  -2  -2   93.93   14.45
  -2  -4  -2   92.09   14.45
  -2  -4  -2   99.32   14.52
   2   4  -2  109.11   14.48
  -2  -4   2  101.46   14.44
  -4   2   2  100.13   14.52
   2   4   2   91.35   14.45
  -4   2   2   99.06   14.46
   2   4   2   89.46   14.50
  -2  -4   2  100.31   14.49
   4  -4  -2   25.45    4.06
   4   4  -2   24.46    3.97
   4  -4  -2   20.95    3.79
  -4  -4  -2   20.77    4.09
  -4  -4  -2   20.72    3.78
   4   4  -2   24.72    3.84
  -4  -4   2   23.49    3.86
  -4   4   2   17.30    3.96
   4   4   2   20.30    3.97
   4   4   2   25.52    3.84
  -4  -4   2   29.19    4.08
   3  -5  -2   14.79    2.94
   3  -5  -2   16.07    3.45
  -5  -3  -2   18.06    3.06
   5   3  -2   19.31    3.29
   5   3  -2   17.03    3.26
  -3   5   2   15.67    2.99
  -5  -3   2   23.04    3.38
  -5  -3   2   17.02    3.19
   5   3   2   18.93    3.24
   3  -5   2   16.77    2.78
  -3   5   2   15.39    3.00
   5   3   2   17.31    3.12
   3  -5   2   18.10    2.71
   1  -5  -2   84.18   11.49
   5   1  -2   75.69   11.43
   1  -5  -2   70.98   11.37
  -1   5  -2   71.31   11.26
  -5  -1  -2   79.11   11.32
   5   1  -2   79.74   11.44
  -5  -1  -2   71.35   11.35
   1  -5   2   76.10   11.29
  -5  -1   2   78.16   11.42
  -1   5   2   71.53   11.37
   5   1   2   80.85   11.34
   5   1   2   71.15   11.38
  -5  -1   2   78.94   11.45
  -1   5   2   79.80   11.47
   1  -5   2   83.73   11.35
  -1  -5  -2   85.51   11.99
   5  -1  -2   76.08   11.93
   1   5  -2   89.45   11.90
   5  -1  -2   76.61   11.90
  -1  -5  -2   76.50   11.89
   5  -1   2   72.29   11.80
   1   5   2   78.12   11.89
  -5   1   2   81.68   11.91
   5  -1   2   81.17   11.79
   1   5   2   81.92   11.96
  -1  -5   2   79.36   11.85
  -5   1   2   79.47   11.94
  -1  -5   2   85.37   11.92
   5  -3  -2   15.85    3.12
   3   5  -2   22.08    3.79
   5  -3  -2   18.60    3.32
  -3  -5  -2   16.28    3.16
   3   5  -2   20.80    3.30
  -3  -5  -2   16.81    3.41
   3   5   2   20.04    3.14
   3   5   2   16.27    3.29
  -3  -5   2   20.20    3.37
  -5   3   2   12.39    2.94
  -3  -5   2   19.43    3.17
   5  -5  -2   30.94    5.31
   5   5  -2   33.41    5.21
   5  -5  -2   28.24    5.11
  -5  -5  -2   41.72    5.36
  -5  -5  -2   38.61    5.16
   5   5  -2   33.34    5.31
   5   5   2   31.16    5.25
   5   5   2   37.92    5.20
  -5  -5   2   33.99    5.22
   5  -5   2   29.67    4.87
  -5  -5   2   36.37    5.40
  -5   5   2   24.77    5.23
   5  -5   2   32.42    4.83
   4  -6  -2   77.89   11.16
   6   4  -2   71.67   11.13
  -6  -4  -2   74.02   11.13
   6   4  -2   78.21   11.11
  -6  -4  -2   76.90   11.09
   6   4   2   87.12   11.08
   4  -6   2   72.97   10.93
   4  -6   2   66.02   10.90
   6   4   2   66.90   11.10
  -4   6   2   70.56   11.11
  -6  -4   2   76.10   11.10
  -6  -4   2   78.96   11.18
   6   2  -2   60.57    9.11
   6   2  -2   58.65    9.12
   2  -6  -2   58.68    9.20
   2  -6  -2   54.67    9.03
  -6  -2  -2   56.96    9.08
  -2   6  -2   56.61    8.88
  -6  -2   2   70.94    9.12
   2  -6   2   59.85    8.93
   2  -6   2   61.11    8.98
  -6  -2   2   63.83    9.19
   6   2   2   59.60    9.04
   6   2   2   71.30    9.03
  -2   6   2   53.15    9.02
  -2   6   2   63.18    9.12
   6   0  -2    4.67    1.44
   0  -6  -2    2.02    1.19
   0   6  -2    3.19    1.24
   6   0  -2    3.20    1.46
  -6   0  -2    2.21    0.97
  -6   0  -2    3.22    1.09
   0  -6  -2    6.50    1.68
   0   6  -2    1.57    1.05
  -6   0   2    8.53    2.46
  -6   0   2    3.99    1.30
   0   6   2    4.89    1.58
   0   6   2    3.22    1.26
   6   0   2    3.44    1.12
   6   0   2    2.13    1.10
   0  -6   2    2.49    1.12
   0  -6   2    2.47    1.34
   6  -2  -2   54.01    9.30
  -2  -6  -2   66.73    9.41
  -2  -6  -2   65.32    9.30
   2   6  -2   69.89    9.36
   6  -2  -2   65.80    9.35
   6  -2   2   55.91    9.14
   2   6   2   57.11    9.28
   2   6   2   63.38    9.35
  -2  -6   2   69.78    9.36
  -6   2   2   62.25    9.34
   6  -2   2   60.09    9.15
  -2  -6   2   61.33    9.27
  -4  -6  -2   78.01   10.69
   6  -4  -2   69.66   10.64
   4   6  -2   73.55   10.56
  -4  -6  -2   85.49   10.60
   4   6  -2   82.84   10.68
   6  -4  -2   68.61   10.55
   4   6   2   67.53   10.64
  -4  -6   2   66.35   10.57
   4   6   2   80.07   10.62
  -4  -6   2   82.87   10.68
  -6   4   2   64.98   10.63
   6  -4   2   59.21   10.40
   6  -4   2   62.37   10.41
   6   6  -2  135.48   19.59
   6  -6  -2  131.16   19.50
   6   6  -2  136.48   19.54
  -6  -6  -2  142.96   19.62
  -6  -6  -2  136.22   19.51
   6  -6  -2  133.92   19.59
   6   6   2  143.34   19.53
  -6  -6   2  125.81   19.55
  -6   6   2  129.69   19.49
   6  -6   2  128.41   19.41
  -6   6   2  116.47   19.52
   6   6   2  117.23   19.55
  -6  -6   2  146.65   19.64
   7   5  -2   19.88    2.99
   5  -7  -2    7.16    2.22
   7   5  -2   10.71    2.56
  -7  -5  -2   18.54    2.77
   5  -7  -2   13.41    2.75
  -7  -5  -2   14.46    2.96
   7   5   2   17.12    3.00
   5  -7   2   12.67    2.54
   5  -7   2   17.10    2.26
  -7  -5   2   10.16    2.51
  -7  -5   2   12.84    2.68
  -5   7   2    9.96    2.39
   7   5   2   23.04    2.95
  -5   7   2   11.93    2.54
   7   3  -2    1.67    1.45
   7   3  -2    2.67    1.50
   3  -7  -2    1.44    1.16
   3  -7  -2    0.05    1.63
  -7  -3  -2    1.90    1.21
  -3   7  -2    2.97    0.60
   7   3   2    3.69    1.37
  -7  -3   2    2.02    1.59
  -3   7   2    1.71    1.40
  -7  -3   2    1.20    1.40
   7   3   2    1.23    1.35
   3  -7   2    2.80    0.93
   3  -7   2    2.59    1.11
   7   1  -2   23.41    3.86
  -1   7  -2   27.04    3.65
   1  -7  -2   22.10    4.11
   1  -7  -2   20.69    3.72
  -7  -1  -2   23.25    3.60
  -7  -1  -2   19.04    3.72
  -1   7  -2   19.58    3.48
  -1   7   2   22.05    3.77
  -7  -1   2   19.47    3.80
   7   1   2   20.92    4.27
  -1   7   2   20.73    3.98
   7   1   2   18.84    3.68
   1  -7   2   26.73    3.76
  -7  -1   2   20.80    4.02
   1  -7   2   23.69    3.55
  -1  -7  -2   21.63    4.05
  -1  -7  -2   22.87    3.69
   1   7  -2   21.56    3.72
  -7   1  -2   22.37    3.43
   7  -1  -2   20.28    3.77
   7  -1  -2   23.52    3.87
  -7   1  -2   21.94    3.44
  -1  -7   2   23.69    3.62
  -7   1   2   21.98    3.89
  -1  -7   2   21.07    3.92
   1   7   2   19.30    3.86
   7  -1   2   23.26    3.55
  -7   1   2   16.29    3.89
   1   7   2   22.43    3.73
   7  -1   2   20.72    3.54
  -3  -7  -2    2.84    1.33
   3   7  -2    4.66    1.48
   7  -3  -2    2.84    1.28
  -3  -7  -2    3.01    1.70
   3   7  -2    2.32    1.40
   7  -3  -2    4.63    1.59
   3   7   2    4.67    1.41
  -3  -7   2    3.29    1.31
  -3  -7   2    6.02    1.74
   7  -3   2    3.41    0.99
  -7   3   2    2.38    1.47
   7  -3   2    3.26    0.96
   3   7   2    2.62    1.54
  -5  -7  -2   13.19    2.48
   5   7  -2   10.57    2.25
   7  -5  -2    7.59    2.07
   7  -5  -2   10.54    2.41
   5   7  -2   17.19    2.64
  -5  -7  -2   18.16    3.00
  -7   5   2    8.80    2.05
  -5  -7   2   14.78    2.63
  -7   5   2    5.27    2.17
   5   7   2    9.12    2.21
  -5  -7   2   21.88    3.35
   7  -5   2    9.52    1.88
   5   7   2   18.94    2.78
   7   7  -2   11.06    1.97
  -7  -7  -2    9.40    2.28
   7  -7  -2    6.39    1.74
  -7  -7  -2    7.59    1.79
   7   7  -2    8.02    2.11
   7  -7  -2    5.57    2.12
   7  -7   2    7.72    1.64
  -7   7   2    4.39    1.79
   7   7   2    7.73    1.86
   7  -7   2    9.08    1.66
  -7   7   2    4.66    1.89
   7   7   2    5.59    1.96
  -7  -7   2    7.93    1.92
  -7  -7   2    9.60    2.45
   8   6  -2  107.50   17.28
  -8  -6  -2  107.49   17.30
  -8  -6  -2  117.27   17.21
   8   6  -2  121.45   17.26
  -8  -6   2  135.18   17.40
   6  -8   2  120.41   17.14
  -6   8   2  116.64   17.19
   8   6   2  128.29   17.25
   8   6   2   99.82   17.25
   6  -8   2  121.77   17.07
  -6   8   2  102.87   17.22
  -8  -6   2  114.04   17.27
   8   4  -2   78.13   10.98
   4  -8  -2   77.83   10.88
   4  -8  -2   80.11   11.07
   8   4  -2   70.81   10.99
  -8  -4  -2   73.38   10.89
   8   4   2   64.84   10.95
  -8  -4   2   62.63   10.95
  -4   8   2   69.44   10.94
  -8  -4   2   72.54   11.05
   8   4   2   80.65   10.93
   4  -8   2   75.47   10.85
   4  -8   2   68.83   10.75
  -2   8  -2   51.83    8.15
   8   2  -2   54.21    8.43
   8   2  -2   63.02    8.44
  -8  -2  -2   51.83    8.35
   2  -8  -2   59.59    8.55
   2  -8  -2   50.44    8.32
  -8  -2  -2   57.84    8.31
  -2   8  -2   63.80    8.24
  -2   8   2   50.36    8.26
   2  -8   2   52.72    8.21
  -2   8   2   54.10    8.41
   8   2   2   57.59    8.35
  -8  -2   2   52.43    8.39
   8   2   2   48.48    8.34
   2  -8   2   58.54    8.32
  -8  -2   2   55.38    8.51
  -8   0  -2    6.31    1.36
   8   0  -2    4.54    1.77
   8   0  -2    3.13    1.74
   0   8  -2    6.68    1.44
   0  -8  -2    5.75    2.02
   0  -8  -2    7.21    1.73
  -8   0  -2    7.85    1.56
   0   8  -2    7.68    1.57
   8   0   2    8.52    1.71
  -8   0   2    7.21    1.96
   0  -8   2    4.94    1.51
   8   0   2    4.61    1.58
   0  -8   2   10.55    1.87
  -8   0   2    7.21    1.71
   0   8   2    8.38    1.69
   0   8   2    4.62    1.76
   8  -2  -2   55.35    8.36
  -2  -8  -2   60.60    8.46
  -2  -8  -2   58.08    8.30
   8  -2  -2   56.32    8.30
   2   8  -2   52.85    8.27
   2   8   2   57.59    8.45
   8  -2   2   47.68    8.13
   8  -2   2   50.58    8.14
   2   8   2   62.11    8.28
  -2  -8   2   62.68    8.42
  -8   2   2   48.07    8.26
  -2  -8   2   51.16    8.22
  -4  -8  -2   72.39   10.86
   8  -4  -2   64.63   10.67
   4   8  -2   77.20   10.69
   4   8  -2   63.01   10.70
   8  -4  -2   70.29   10.81
  -4  -8  -2   83.38   10.73
   8  -4   2   66.65   10.55
  -4  -8   2   70.76   10.69
  -4  -8   2   81.53   10.89
   4   8   2   77.46   10.72
   4   8   2   68.28   10.77
   8  -4   2   69.23   10.55
  -8   4   2   67.09   10.74
   6   8  -2   93.62   16.66
   8  -6  -2  105.46   16.61
  -6  -8  -2  112.56   16.77
   6   8  -2  122.04   16.64
   8  -6  -2  117.57   16.75
  -6  -8  -2  122.03   16.65
  -6  -8   2  109.49   16.65
   6   8   2   99.09   16.69
  -8   6   2   94.50   16.63
   6   8   2  133.45   16.68
   8  -6   2  110.83   16.49
  -8   6   2  111.94   16.62
  -6  -8   2  131.32   16.83
   8  -6   2  112.96   16.53
   8  -8  -2  117.71   16.48
   8  -8  -2  122.79   16.67
  -8  -8  -2  114.97   16.54
  -8  -8  -2  106.36   16.67
   8   8  -2  116.52   16.55
   8   8  -2   94.94   16.58
   8  -8   2  113.57   16.44
   8  -8   2  112.30   16.35
  -8   8   2   88.80   16.49
  -8  -8   2  102.17   16.55
  -8   8   2  112.89   16.50
   8   8   2  117.71   16.55
  -8  -8   2  129.69   16.77
   9   7  -2   34.62    5.38
   9   7  -2   25.69    5.41
   7  -9  -2   31.46    5.13
   7  -9  -2   35.20    5.63
  -9  -7  -2   37.48    5.26
  -9  -7  -2   30.90    5.60
  -9  -7   2   34.95    5.79
  -9  -7   2   31.65    5.39
   9   7   2   23.34    5.31
  -7   9   2   23.88    5.25
   7  -9   2   33.74    5.19
   7  -9   2   34.87    4.93
   9   7   2   35.63    5.39
  -7   9   2   31.50    5.20
   9   5  -2   46.95    7.46
   5  -9  -2   54.63    7.66
  -9  -5  -2   43.35    7.33
  -9  -5  -2   41.97    7.51
   9   5  -2   47.40    7.50
   5  -9  -2   48.46    7.30
   5  -9   2   51.69    7.14
   9   5   2   34.08    7.38
  -5   9   2   41.23    7.40
   9   5   2   52.51    7.40
   5  -9   2   53.26    7.46
  -9  -5   2   52.39    7.63
  -5   9   2   49.60    7.29
  -9  -5   2   46.76    7.43
   9   3  -2   11.32    2.67
  -3   9  -2   13.71    2.31
  -9  -3  -2   16.93    2.93
   3  -9  -2   12.67    2.83
  -9  -3  -2   10.25    2.53
   3  -9  -2   14.57    2.50
  -3   9  -2   18.53    2.58
   9   3  -2   17.53    3.18
   3  -9   2   15.97    2.91
  -9  -3   2   13.13    2.81
  -9  -3   2   12.17    2.61
   9   3   2   17.44    3.01
   9   3   2   12.02    2.55
   3  -9   2   14.30    2.58
  -3   9   2    9.21    2.62
  -9  -1  -2   13.01    2.44
   1  -9  -2   14.38    2.96
   1  -9  -2   13.26    2.51
  -9  -1  -2   12.44    2.57
   9   1  -2   12.88    2.68
  -1   9  -2   13.28    2.37
  -1   9  -2   13.34    2.72
   9   1   2   16.80    2.60
   9   1   2   16.88    3.34
  -1   9   2   11.38    2.64
  -9  -1   2   16.32    3.76
  -9  -1   2   14.39    2.62
   1  -9   2   17.67    2.71
   1  -9   2   14.59    2.65
   9  -1  -2   15.23    2.57
  -1  -9  -2   14.03    2.51
   1   9  -2   12.83    2.44
  -1  -9  -2   15.05    2.79
   1   9  -2    9.99    2.40
  -9   1  -2   11.28    2.25
   9  -1  -2   12.77    2.57
  -9   1  -2   11.24    2.37
   9  -1   2   14.31    2.37
  -9   1   2   12.75    2.45
   1   9   2   14.09    2.53
  -1  -9   2   12.69    2.38
   9  -1   2   17.26    2.69
  -1  -9   2   13.80    2.62
   1   9   2   13.21    2.69
   3   9  -2   16.09    3.25
  -3  -9  -2   16.11    3.21
   3   9  -2   17.65    3.14
   9  -3  -2   14.86    3.29
  -3  -9  -2   18.83    3.31
   9  -3  -2   18.31    3.52
  -9   3   2   15.69    3.36
   3   9   2   11.59    2.98
  -3  -9   2   20.93    3.77
   9  -3   2   17.18    2.95
   3   9   2   22.73    3.29
  -9   3   2   15.57    3.30
   9  -3   2   15.17    3.01
  -3  -9   2   17.23    3.22
   9  -5  -2   42.23    7.23
  -5  -9  -2   53.61    7.34
  -5  -9  -2   48.48    7.07
   5   9  -2   43.37    7.07
   9  -5  -2   33.50    7.04
   5   9  -2   52.30    7.04
  -9   5   2   32.16    7.08
  -5  -9   2   55.88    7.42
   5   9   2   37.07    7.31
   9  -5   2   42.38    6.87
   5   9   2   57.15    7.15
  -5  -9   2   50.29    7.04
   7   9  -2   22.27    4.64
   9  -7  -2   23.88    4.72
   7   9  -2   35.04    4.42
   9  -7  -2   25.55    4.32
  -7  -9  -2   26.70    4.91
  -7  -9  -2   24.17    4.35
  -9   7   2   23.72    4.34
   7   9   2   27.06    5.47
  -7  -9   2   24.94    4.32
  -7  -9   2   31.05    5.05
   9  -7   2   19.22    3.99
   7   9   2   34.41    4.50
   9  -7   2   22.17    4.15
  -9   7   2   18.98    4.31
  -9  -9  -2   34.39    5.97
   9   9  -2   38.15    5.58
   9  -9  -2   33.47    5.86
   9  -9  -2   34.23    5.38
  -9  -9  -2   28.84    5.49
   9   9  -2   27.94    5.61
  -9   9   2   28.33    5.36
   9   9   2   43.16    5.62
   9   9   2   21.83    5.62
  -9  -9   2   42.68    6.21
  -9   9   2   28.09    5.50
   9  -9   2   35.09    5.36
  -9  -9   2   34.83    5.53
   8 -10  -2   63.49    8.83
 -10  -8  -2   51.72    8.81
   8 -10  -2   59.05    8.45
  10   8  -2   54.68    8.57
  10   8  -2   39.56    8.59
 -10  -8  -2   47.58    8.53
  -8  10   2   45.16    8.77
  10   8   2   47.13    8.61
   8 -10   2   61.72    8.27
  10   8   2   68.74    8.74
   8 -10   2   63.99    8.48
 -10  -8   2   61.34    9.03
 -10  -8   2   46.82    8.63
  -8  10   2   54.46    8.48
 -10  -6  -2   46.75    7.78
  10   6  -2   42.44    7.91
   6 -10  -2   55.72    7.72
   6 -10  -2   59.04    8.12
  10   6  -2   57.82    7.91
   6 -10   2   52.54    7.55
  10   6   2   51.93    7.88
 -10  -6   2   41.20    7.95
  -6  10   2   48.86    7.71
   6 -10   2   60.30    7.74
  10   6   2   44.49    7.85
  -6  10   2   38.03    7.77
 -10  -6   2   52.18    8.21
  -4  10  -2   38.11    5.70
 -10  -4  -2   36.74    5.97
  10   4  -2   33.17    6.10
  10   4  -2   37.35    6.10
   4 -10  -2   42.80    6.45
   4 -10  -2   43.18    5.92
  10   4   2   42.31    6.06
  -4  10   2   30.66    5.76
   4 -10   2   37.94    5.77
  -4  10   2   36.88    6.06
 -10  -4   2   39.87    6.29
 -10  -4   2   34.30    6.09
   4 -10   2   41.58    5.99
  10   4   2   36.01    6.07
  10   2  -2   15.73    3.61
  10   2  -2   26.86    4.03
 -10  -2  -2   16.58    3.85
  -2  10  -2   21.74    3.42
   2 -10  -2   21.36    4.33
  -2  10  -2   22.23    3.59
   2 -10  -2   20.65    3.71
 -10  -2  -2   24.26    3.69
 -10  -2   2   22.93    3.90
 -10  -2   2   23.07    4.13
  10   2   2   21.33    3.89
  -2  10   2   22.44    4.00
   2 -10   2   18.16    3.53
   2 -10   2   23.29    4.22
  -2  10   2   20.61    3.92
  10   2   2   19.12    3.77
   0 -10  -2   14.53    2.41
   0  10  -2   10.94    2.39
   0  10  -2   15.03    2.34
  10   0  -2   10.90    2.45
   0 -10  -2   10.19    2.76
  10   0  -2   12.61    2.55
 -10   0  -2    9.61    2.14
 -10   0  -2    9.58    2.29
 -10   0   2   11.91    2.41
  10   0   2   10.34    2.32
   0 -10   2   14.01    2.28
  10   0   2    9.90    2.30
   0  10   2   13.17    2.63
   0  10   2   11.31    2.32
   0 -10   2   16.74    3.03
   2  10  -2   18.92    3.58
  10  -2  -2   15.52    3.64
  -2 -10  -2   21.61    4.13
  -2 -10  -2   23.21    3.67
  10  -2  -2   26.64    3.78
 -10   2  -2   19.13    3.16
 -10   2   2   16.52    3.58
 -10   2   2   13.84    3.25
  10  -2   2   21.34    3.47
  -2 -10   2   25.51    4.01
   2  10   2   20.42    3.83
   2  10   2   24.03    3.66
  10  -2   2   18.52    3.54
  -2 -10   2   16.66    3.50
   4  10  -2   30.95    6.32
   4  10  -2   41.27    6.28
  -4 -10  -2   40.50    6.39
  -4 -10  -2   45.95    6.66
  10  -4  -2   43.20    6.32
  10  -4   2   37.39    6.20
  -4 -10   2   37.87    6.32
  -4 -10   2   44.71    6.68
 -10   4   2   41.39    6.40
  10  -4   2   40.54    6.16
   4  10   2   48.36    6.43
   4  10   2   34.16    6.42
 -10   4   2   38.64    6.39
   6  10  -2   54.75    7.20
  10  -6  -2   39.02    7.36
  10  -6  -2   38.98    7.15
   6  10  -2   37.26    7.20
  -6 -10  -2   51.77    7.52
  -6 -10  -2   52.61    7.23
 -10   6   2   56.01    7.22
   6  10   2   42.86    7.27
  -6 -10   2   58.13    7.57
  10  -6   2   45.07    7.01
 -10   6   2   40.07    7.18
   6  10   2   58.13    7.31
  -6 -10   2   39.58    7.18
  10  -6   2   40.25    6.95
  10  -8  -2   67.19    8.22
  10  -8  -2   50.12    7.88
  -8 -10  -2   49.51    8.31
   8  10  -2   40.01    7.95
   8  10  -2   57.22    7.97
  -8 -10  -2   55.80    7.96
  10  -8   2   56.65    7.80
  10  -8   2   50.83    7.64
   8  10   2   36.51    7.95
   8  10   2   58.06    8.01
 -10   8   2   40.90    8.07
  -8 -10   2   55.98    8.39
  -8 -10   2   42.86    7.90
 -10 -10  -2   29.46    5.04
  10  10  -2   20.70    5.13
  10 -10  -2   24.45    5.28
  10  10  -2   32.28    5.09
 -10 -10  -2   21.50    4.99
  10 -10  -2   35.75    5.49
 -10 -10   2   22.41    5.17
 -10  10   2   28.74    4.84
  10 -10   2   33.24    4.92
  10  10   2   36.27    6.34
  10 -10   2   36.23    4.53
  10  10   2   23.02    5.18
 -10 -10   2   21.35    5.09
 -10  10   2   20.95    4.85
  11   9  -2    4.56    2.03
  11   9  -2    3.53    2.05
   9 -11  -2    4.71    1.93
 -11  -9  -2    7.53    2.55
 -11  -9  -2    2.88    1.87
   9 -11  -2    2.45    2.37
  11   9   2    3.75    2.13
 -11  -9   2    5.72    2.83
  -9  11   2    3.15    1.74
 -11  -9   2   -2.10    1.92
   9 -11   2    4.21    1.35
   9 -11   2    2.22    1.93
  11   9   2    1.70    2.11
  -9  11   2    4.20    1.77
  11   7  -2    3.95    1.94
 -11  -7  -2    3.09    2.13
  11   7  -2    2.51    1.74
   7 -11  -2    0.29    1.51
 -11  -7  -2    1.45    1.69
   7 -11  -2   10.03    2.41
   7 -11   2    3.20    1.69
   7 -11   2    4.68    1.26
  11   7   2    2.87    1.81
  -7  11   2   -0.49    2.94
  -7  11   2    2.58    1.51
 -11  -7   2    3.76    1.84
  11   7   2   -0.50    1.84
 -11  -7   2    2.50    2.46
   5 -11  -2   -0.99    1.37
  11   5  -2    1.68    1.76
   5 -11  -2    2.57    2.12
  11   5  -2    4.62    1.83
 -11  -5  -2    5.22    1.60
   5 -11   2    4.17    1.21
  -5  11   2    4.79    1.40
  -5  11   2    4.17    1.66
   5 -11   2    3.11    1.60
 -11  -5   2   -0.03    2.19
  11   5   2    3.94    1.83
 -11  -5   2    0.96    1.67
  11   5   2    0.76    1.61
   3 -11  -2    2.94    1.38
  -3  11  -2    1.41    0.92
  -3  11  -2    2.37    1.23
 -11  -3  -2    0.63    1.57
  11   3  -2    3.59    1.78
   3 -11  -2   -0.94    2.36
  11   3  -2    6.19    1.75
 -11  -3  -2    2.38    1.41
   3 -11   2    1.03    1.54
   3 -11   2    4.52    1.20
  -3  11   2    3.49    1.58
 -11  -3   2    2.24    1.53
  11   3   2    0.22    1.44
  11   3   2    2.61    1.68
 -11  -3   2    3.46    1.83
 -11  -1  -2   -1.57    1.36
 -11  -1  -2    0.65    1.15
  -1  11  -2    0.45    1.26
  -1  11  -2   -2.01    0.99
  11   1  -2   -1.32    1.60
   1 -11  -2   -0.05    1.29
   1 -11  -2    0.03    1.94
   1 -11   2   -1.56    1.64
  -1  11   2    0.42    1.24
  11   1   2   -0.56    1.47
 -11  -1   2   -1.05    1.66
  11   1   2   -1.90    1.60
   1 -11   2   -0.56    1.25
 -11  -1   2   -1.65    1.40
  -1  11   2    2.02    1.69
 -11   1  -2   -0.20    1.21
 -11   1  -2    0.11    0.92
   1  11  -2    1.60    1.38
  -1 -11  -2    0.53    1.35
  11  -1  -2    1.20    1.93
  -1 -11  -2    1.64    1.87
   1  11  -2    0.20    1.14
  11  -1  -2    3.22    1.61
  -1 -11   2    0.06    1.21
   1  11   2   -1.73    1.50
  11  -1   2    0.13    1.32
  11  -1   2   -0.11    1.35
   1  11   2   -1.09    1.33
  -1 -11   2   -2.41    1.95
 -11   1   2   -1.26    1.29
 -11   1   2    0.18    0.62
  -3 -11  -2    2.18    1.50
  11  -3  -2    3.03    1.55
   3  11  -2    1.46    1.52
  -3 -11  -2    1.20    2.00
  11  -3  -2    2.51    1.82
   3  11  -2    5.02    1.55
  -3 -11   2    1.08    1.46
  11  -3   2    3.08    1.32
   3  11   2    2.53    1.74
 -11   3   2    2.44    1.55
 -11   3   2    0.31    1.84
  -3 -11   2    3.95    2.03
   3  11   2    3.64    1.45
  11  -3   2    5.29    1.42
  11  -5  -2    4.21    1.57
   5  11  -2    1.52    1.56
  -5 -11  -2    3.88    1.64
   5  11  -2    1.65    1.48
  11  -5  -2    7.71    2.04
  -5 -11  -2    5.00    2.19
   5  11   2    2.62    1.70
   5  11   2    4.63    1.88
  -5 -11   2    3.24    1.60
 -11   5   2    4.23    1.91
  11  -5   2    3.20    1.40
  -5 -11   2    3.30    2.21
 -11   5   2    2.43    1.70
   7  11  -2    0.15    1.60
  -7 -11  -2   -1.26    2.26
  11  -7  -2   -2.91    1.53
  11  -7  -2    0.50    2.01
  -7 -11  -2    2.75    1.63
   7  11  -2    2.59    1.71
   7  11   2   -0.35    1.72
  -7 -11   2    3.42    2.39
 -11   7   2    2.94    1.79
 -11   7   2   -0.10    2.85
   7  11   2    3.47    1.87
  -7 -11   2    6.55    2.75
  11  -7   2   -4.00    1.37
  11  -7   2   -2.73    1.23
  11  -9  -2    7.07    2.00
  11  -9  -2    9.00    2.49
  -9 -11  -2    3.41    2.59
  -9 -11  -2    2.90    2.01
   9  11  -2    3.35    1.99
   9  11  -2    6.40    2.12
  11  -9   2    5.18    1.48
  -9 -11   2    5.54    2.81
   9  11   2    5.57    2.17
   9  11   2    2.60    2.09
  -9 -11   2    4.30    2.06
 -11   9   2    4.61    1.87
  11  -9   2    1.24    1.76
 -11 -11  -2    1.37    2.75
 -11 -11  -2    1.91    2.41
  11  11  -2   -0.84    2.15
  11 -11  -2    3.09    1.79
  11 -11  -2   -2.17    2.60
  11  11  -2   -3.00    2.11
 -11 -11   2   -0.23    2.95
  11 -11   2   -1.61    1.33
  11  11   2   -1.94    2.28
  11 -11   2    0.88    1.97
  11  11   2    0.68    2.07
 -11 -11   2    2.54    2.14
  12  10  -2    0.87    2.31
 -12 -10  -2    1.20    2.11
  12  10  -2    5.54    2.31
  10 -12  -2    4.57    2.80
  10 -12  -2    5.06    1.96
 -12 -10  -2    0.84    2.72
 -12 -10   2    7.21    3.22
  12  10   2    4.80    2.46
  10 -12   2    7.68    2.33
  10 -12   2    5.55    1.58
 -12 -10   2   -0.44    2.22
  12  10   2    3.88    2.21
  12   8  -2    6.12    2.46
   8 -12  -2   10.94    2.21
   8 -12  -2   14.69    3.17
 -12  -8  -2    8.98    2.50
 -12  -8  -2   10.97    2.87
  12   8  -2    6.78    2.54
  -8  12   2    4.16    2.26
  -8  12   2   10.50    2.22
   8 -12   2   13.64    2.38
 -12  -8   2   10.94    3.23
  12   8   2    6.92    2.44
   8 -12   2   12.47    2.47
  12   8   2    9.61    2.63
 -12  -8   2    7.62    2.47
  12   6  -2   10.23    2.68
   6 -12  -2   15.55    2.79
 -12  -6  -2    8.50    2.77
 -12  -6  -2    4.21    3.14
   6 -12  -2   14.25    3.00
  12   6   2   11.69    2.60
  -6  12   2   15.35    2.78
   6 -12   2   14.36    2.38
 -12  -6   2    6.93    2.50
   6 -12   2   20.88    3.04
  12   6   2    5.66    2.45
  -6  12   2    8.70    2.41
 -12  -6   2    8.83    3.04
  -4  12  -2   12.47    2.17
   4 -12  -2   15.13    2.85
  12   4  -2    7.98    2.44
  12   4  -2    8.07    2.82
 -12  -4  -2   10.88    2.34
   4 -12  -2   12.47    2.22
 -12  -4  -2    9.69    2.42
  -4  12  -2   14.32    2.50
  12   4   2   10.27    2.43
  -4  12   2    8.00    2.36
 -12  -4   2    6.75    2.43
  12   4   2    8.87    2.45
   4 -12   2   11.09    2.09
   4 -12   2   14.25    2.55
  -4  12   2   13.82    2.55
 -12  -4   2    9.27    2.83
  -2  12  -2   15.82    2.65
  -2  12  -2   14.28    2.86
  12   2  -2   13.67    2.86
   2 -12  -2   17.27    3.25
 -12  -2  -2   13.67    2.73
  12   2  -2   19.18    3.20
 -12  -2  -2   12.82    2.61
   2 -12  -2   13.55    2.62
  12   2   2   16.24    2.78
   2 -12   2   14.19    2.86
   2 -12   2   11.12    2.45
 -12  -2   2   11.26    2.69
  -2  12   2   13.33    2.86
  12   2   2   13.29    2.73
   0 -12  -2   15.56    3.16
  12   0  -2   19.38    3.38
  12   0  -2   18.60    3.31
 -12   0  -2   14.52    3.21
 -12   0  -2   19.40    3.17
   0  12  -2   14.05    3.24
   0 -12  -2   24.15    3.88
   0  12  -2   18.29    3.22
  12   0   2   19.38    3.22
   0  12   2   15.86    3.30
 -12   0   2   19.36    3.62
  12   0   2   18.26    3.21
   0 -12   2   23.05    3.53
   0 -12   2   13.73    3.30
   0  12   2   17.63    3.14
 -12   2  -2   12.58    2.54
 -12   2  -2   14.05    2.58
  12  -2  -2   12.68    2.63
   2  12  -2   10.97    2.57
  -2 -12  -2   15.13    2.65
  12  -2  -2   12.80    2.76
  -2 -12  -2   21.63    3.76
  12  -2   2   15.12    2.63
  12  -2   2   13.27    2.53
   2  12   2   12.52    2.61
 -12   2   2   15.87    2.74
   2  12   2   13.15    2.73
  -2 -12   2   15.99    2.96
 -12   2   2   10.23    2.50
  -2 -12   2   11.27    2.53
  12  -4  -2    8.02    2.18
   4  12  -2   10.29    2.93
  12  -4  -2   11.34    2.45
  -4 -12  -2    7.22    2.62
   4  12  -2    7.46    2.18
  -4 -12  -2    7.80    2.33
  -4 -12   2    7.76    2.13
  12  -4   2    9.06    2.13
 -12   4   2   14.60    2.52
 -12   4   2    8.42    2.28
  12  -4   2   14.28    2.55
  -4 -12   2   15.05    2.75
   4  12   2    7.04    2.34
   4  12   2   10.10    2.26
   6  12  -2    5.44    2.37
  -6 -12  -2   13.83    2.49
  12  -6  -2    9.09    2.45
  12  -6  -2   11.19    2.71
   6  12  -2    9.96    2.37
  -6 -12  -2   12.50    2.95
  12  -6   2   12.33    2.17
  -6 -12   2   12.17    3.07
   6  12   2   12.88    2.64
   6  12   2    7.42    2.53
  12  -6   2   16.27    2.71
  -6 -12   2    8.41    2.40
 -12   6   2    8.21    2.31
 -12   6   2   16.20    2.66
  12  -8  -2    7.12    2.20
  -8 -12  -2   11.39    2.97
   8  12  -2    5.09    2.24
  12  -8  -2   10.28    2.68
   8  12  -2    3.70    2.17
  -8 -12  -2    8.61    2.30
  12  -8   2    9.53    1.87
   8  12   2    9.30    2.50
   8  12   2    6.89    2.40
  -8 -12   2    6.59    2.26
  12  -8   2   10.65    2.06
 -12   8   2    4.53    2.12
 -12   8   2    8.70    2.46
  12 -10  -2    3.49    2.69
 -10 -12  -2    1.46    2.10
  10  12  -2    1.68    2.28
 -10 -12  -2   -0.85    2.76
  12 -10  -2    7.91    2.05
  10  12  -2    2.62    2.26
 -12  10   2    2.75    2.49
 -10 -12   2    3.20    2.23
  12 -10   2    6.85    1.64
  10  12   2   -1.16    2.20
 -10 -12   2    3.04    3.17
  12 -10   2    6.10    2.00
 -12 -12  -2   -4.35    3.09
  12  12  -2    0.44    2.33
 -12 -12  -2    0.23    2.29
  12 -12  -2    2.38    2.89
  12  12  -2   -4.09    2.25
  12 -12  -2    1.74    1.88
  12  12   2    0.16    2.53
  12  12   2    1.16    2.25
  12 -12   2   -0.31    2.20
 -12 -12   2    0.74    2.26
  12 -12   2    1.35    1.57
 -12 -12   2   -1.81    3.11
  13  11  -2    3.52    2.36
  13  11  -2   -1.06    2.48
  11 -13  -2   -2.09    1.80
 -13 -11  -2   -0.47    2.88
  11 -13  -2    3.22    3.00
  11 -13   2    0.96    1.49
 -13 -11   2   -1.76    2.29
 -11  13   2    0.10    1.89
  13  11   2   -4.63    2.48
  13  11   2   -0.53    2.21
 -13 -11   2   -3.41    3.10
  11 -13   2    3.86    2.41
  13   9  -2    2.10    2.33
   9 -13  -2    4.46    2.84
 -13  -9  -2    1.41    2.12
  13   9  -2    0.24    2.14
   9 -13  -2   -0.61    1.91
 -13  -9  -2   -0.54    2.75
  13   9   2   -4.27    2.29
 -13  -9   2   -2.49    3.17
  13   9   2   -0.97    2.45
   9 -13   2    0.79    1.38
  -9  13   2    1.08    2.13
   9 -13   2   -0.44    2.22
 -13  -9   2   -4.81    3.87
  13   7  -2   -2.50    2.19
 -13  -7  -2   -1.82    1.92
   7 -13  -2    0.20    1.51
 -13  -7  -2   -2.40    2.24
  13   7  -2    1.54    2.05
   7 -13  -2   -1.04    2.56
  13   7   2   -0.63    2.12
 -13  -7   2   -1.19    2.71
  -7  13   2   -0.43    1.59
 -13  -7   2    1.20    2.01
   7 -13   2   -0.39    1.97
   7 -13   2   -3.52    1.15
  13   7   2   -1.30    1.92
  -7  13   2    1.29    1.83
  13   5  -2   -3.14    1.89
 -13  -5  -2   -1.46    1.67
 -13  -5  -2   -1.82    1.53
   5 -13  -2    1.96    2.44
  -5  13  -2   -0.37    0.90
  13   5  -2    0.16    1.94
  -5  13  -2   -0.70    1.99
   5 -13  -2    2.50    1.47
 -13  -5   2   -0.34    1.83
  13   5   2    2.42    1.85
 -13  -5   2   -3.00    2.29
  13   5   2    0.15    1.86
   5 -13   2   -0.22    1.77
  -5  13   2   -1.48    1.89
   5 -13   2    1.89    1.25
  -5  13   2   -1.81    1.32
  -3  13  -2    0.26    1.31
 -13  -3  -2    2.98    1.78
  13   3  -2   -1.26    1.94
 -13  -3  -2   -0.91    1.57
  -3  13  -2    2.02    1.22
   3 -13  -2   -0.37    2.29
   3 -13  -2   -0.63    1.32
  13   3  -2   -0.54    1.84
   3 -13   2    3.63    2.07
  13   3   2   -4.68    1.71
  -3  13   2   -0.01    0.97
 -13  -3   2    5.02    2.23
  -3  13   2    2.60    2.14
  13   3   2   -1.49    1.59
   3 -13   2    2.58    1.21
 -13  -3   2   -1.29    1.66
  -1  13  -2    1.20    2.61
  -1  13  -2    2.99    1.33
   1 -13  -2    2.83    2.37
  13   1  -2    6.37    1.98
 -13  -1  -2    1.82    1.66
   1 -13  -2    6.07    1.68
 -13  -1  -2    2.18    2.60
  -1  13   2    1.06    1.77
   1 -13   2   -0.80    1.41
 -13  -1   2    1.09    1.71
  13   1   2    2.74    1.83
  13   1   2    2.53    1.82
  -1  13   2    5.63    1.54
   1 -13   2    0.57    2.03
   1  13  -2    1.29    1.36
  13  -1  -2    0.89    1.82
  -1 -13  -2    0.65    2.19
  -1 -13  -2    2.56    1.67
 -13   1  -2    1.62    1.24
 -13   1  -2    3.78    1.66
  13  -1  -2    3.28    1.94
 -13   1   2    3.88    2.21
  13  -1   2    5.28    1.71
   1  13   2    5.23    1.70
   1  13   2    3.78    1.86
  -1 -13   2    4.85    1.59
  -1 -13   2    0.93    2.23
 -13   1   2    4.57    1.99
  13  -1   2    6.34    1.73
  13  -3  -2   -0.46    1.88
  -3 -13  -2    2.15    1.80
  13  -3  -2    2.73    1.74
  -3 -13  -2    3.25    2.38
  -3 -13   2   -0.03    2.28
 -13   3   2   -1.17    1.84
  -3 -13   2    0.22    1.50
   3  13   2    1.83    1.86
   3  13   2    0.15    1.60
  13  -3   2   -0.17    1.42
 -13   3   2   -1.32    1.72
  13  -3   2    3.73    1.63
  13  -5  -2   -2.90    2.05
   5  13  -2   -0.24    1.68
  -5 -13  -2   -1.66    2.34
  13  -5  -2   -0.52    1.70
  -5 -13  -2    1.80    1.73
 -13   5   2    1.03    1.70
  13  -5   2   -0.58    1.52
  -5 -13   2   -0.63    1.61
   5  13   2   -3.58    1.61
  -5 -13   2    1.34    2.40
 -13   5   2   -3.32    1.91
   5  13   2    0.09    1.87
  13  -7  -2    1.18    2.26
   7  13  -2   -1.13    1.82
  -7 -13  -2   -1.62    1.78
  -7 -13  -2   -6.00    2.50
  13  -7  -2   -2.20    2.73
  -7 -13   2   -2.40    2.64
 -13   7   2   -1.65    1.69
  13  -7   2    0.94    1.53
  13  -7   2   -1.03    1.59
  -7 -13   2    1.18    1.87
   7  13   2    0.53    2.03
 -13   7   2   -1.17    2.30
   7  13   2    0.36    1.93
   9  13  -2   -2.97    2.10
  13  -9  -2    2.96    1.95
  -9 -13  -2   -1.24    2.08
  13  -9  -2    0.57    2.60
   9  13  -2    1.09    2.56
  -9 -13  -2    2.98    2.87
  -9 -13   2   -0.39    3.02
   9  13   2   -2.73    2.16
  -9 -13   2    1.16    2.03
 -13   9   2   -0.49    2.35
  13  -9   2    0.72    1.88
   9  13   2   -2.08    2.31
  13  -9   2    3.40    1.56
  11  13  -2   -0.15    2.31
  13 -11  -2   -1.59    2.83
 -11 -13  -2   -0.55    2.21
  13 -11  -2    2.15    2.06
 -11 -13  -2    1.72    3.11
  11  13  -2   -0.43    2.41
  11  13   2    0.05    2.67
 -11 -13   2   -1.41    3.28
 -13  11   2   -1.13    2.39
  13 -11   2    3.86    2.08
  11  13   2    2.06    2.30
 -11 -13   2   -4.08    2.28
  13 -11   2   -1.42    1.64
 -13 -13  -2   -0.99    3.19
  13 -13  -2   -3.19    3.36
  13 -13  -2    2.23    2.26
  13  13  -2   -1.41    2.46
  13  13  -2    6.14    3.01
  13 -13   2    1.56    1.72
  13  13   2   -2.30    2.84
 -13 -13   2    5.65    4.52
 -13  13   2    2.72    2.54
  13 -13   2   -2.02    2.52
  13  13   2   -0.80    2.47
 -13 -13   2   -1.99    2.59
  14  12  -2    1.02    2.69
  14  12  -2    2.40    4.09
  12 -14  -2    0.48    2.05
 -14 -12  -2   -2.23    2.97
  12 -14  -2   -0.53    3.87
  12 -14   2    2.08    1.69
  14  12   2   -3.25    2.87
  12 -14   2    1.27    2.94
 -14 -12   2   -2.50    3.36
  14  12   2    1.18    2.50
 -14 -12   2   -0.48    2.61
  14  10  -2    3.68    2.57
 -14 -10  -2   -0.05    2.92
  14  10  -2   -1.97    2.25
  10 -14  -2    2.97    1.91
  10 -14  -2    0.19    2.88
 -14 -10   2   -0.32    3.25
 -14 -10   2   -2.05    2.47
  14  10   2    2.65    2.72
  14  10   2    1.14    2.28
  10 -14   2    1.98    2.48
  10 -14   2    0.10    1.47
 -10  14   2   -0.15    1.98
  14   8  -2   -4.75    2.39
  14   8  -2    2.18    2.26
   8 -14  -2    0.42    1.70
 -14  -8  -2    3.53    3.22
   8 -14  -2    3.08    2.90
   8 -14   2    0.06    1.34
   8 -14   2   -1.52    2.17
 -14  -8   2   -3.96    3.16
 -14  -8   2    2.51    2.26
  14   8   2   -0.13    2.54
  14   8   2   -3.25    2.16
  -8  14   2    0.84    1.84
   6 -14  -2   -0.73    2.60
  14   6  -2   -0.26    2.21
  14   6  -2   -0.90    2.14
 -14  -6  -2    1.38    2.08
   6 -14  -2    0.87    1.51
 -14  -6   2   -3.11    2.12
 -14  -6   2   -5.63    2.87
  14   6   2    1.79    2.04
   6 -14   2   -1.70    1.22
  14   6   2   -0.02    2.10
   6 -14   2   -2.60    2.01
  -6  14   2   -0.87    1.50
   4 -14  -2    0.24    1.44
   4 -14  -2    4.19    2.49
  -4  14  -2    0.97    1.09
  14   4  -2   -0.19    2.09
 -14  -4  -2    3.55    2.02
  -4  14  -2    1.41    1.62
 -14  -4  -2    2.51    1.88
  14   4  -2   -0.88    2.02
  14   4   2    4.13    1.99
 -14  -4   2   -0.14    1.98
 -14  -4   2    1.55    2.51
  14   4   2    0.25    1.82
   4 -14   2   -1.62    2.15
  -4  14   2    5.27    1.60
   4 -14   2   -1.37    1.29
  -4  14   2   -0.62    1.94
  -2  14  -2    4.73    1.34
  14   2  -2    3.48    2.09
 -14  -2  -2    3.15    1.93
 -14  -2  -2    2.82    1.72
   2 -14  -2    3.41    2.69
   2 -14  -2    2.48    1.57
  -2  14  -2    3.01    1.73
   2 -14   2    6.11    1.72
  14   2   2   -0.05    1.83
  -2  14   2    5.38    2.10
 -14  -2   2    0.91    1.91
  14   2   2    2.26    2.04
 -14  -2   2    3.99    3.10
   2 -14   2    6.02    2.22
   0  14  -2    3.17    1.43
  14   0  -2    1.35    1.94
   0 -14  -2   -0.27    2.51
   0 -14  -2    0.75    1.58
 -14   0  -2   -1.76    1.42
   0  14  -2    1.61    1.74
  14   0  -2   -0.31    1.92
   0 -14   2   -2.97    2.03
   0  14   2    0.17    2.02
 -14   0   2    1.23    1.92
   0 -14   2    1.06    1.46
   0  14   2    0.83    1.98
  14   0   2   -1.90    1.91
 -14   0   2   -0.79    1.68
  14   0   2    0.96    1.83
   2  14  -2    1.23    1.92
  -2 -14  -2    5.73    2.57
  14  -2  -2    4.31    1.98
  -2 -14  -2    2.09    1.89
   2  14  -2    5.28    1.60
 -14   2  -2    6.85    1.55
  14  -2  -2    6.91    2.18
 -14   2  -2    5.29    1.44
  -2 -14   2    4.17    2.53
 -14   2   2    3.93    2.19
  14  -2   2    3.00    1.85
   2  14   2    3.49    2.17
  -2 -14   2    4.64    1.74
  14  -2   2    4.86    1.97
 -14   2   2    5.78    2.01
   2  14   2    5.17    2.00
   4  14  -2    0.37    1.63
  -4 -14  -2   -1.25    1.80
   4  14  -2   -1.02    1.87
  -4 -14  -2   -0.90    2.37
  14  -4  -2    1.15    1.84
  14  -4  -2    2.62    2.23
  14  -4   2   -0.19    1.62
  -4 -14   2   -0.54    1.68
 -14   4   2   -0.67    1.83
  -4 -14   2   -3.53    2.51
 -14   4   2    1.63    2.00
   4  14   2    1.91    1.83
   4  14   2   -0.89    2.06
  -6 -14  -2    0.94    2.08
   6  14  -2   -2.85    1.76
  14  -6  -2    5.42    2.40
  -6 -14  -2    3.76    3.06
   6  14  -2   -1.78    1.88
  14  -6  -2    1.97    2.07
  14  -6   2   -2.18    1.74
  -6 -14   2    3.94    3.03
  -6 -14   2   -1.03    1.89
   6  14   2    0.15    2.05
  14  -6   2    0.92    1.59
 -14   6   2   -1.13    2.31
   6  14   2    1.24    2.05
  -8 -14  -2   -1.12    2.81
  -8 -14  -2   -1.77    1.98
   8  14  -2   -2.91    2.14
   8  14  -2    4.69    2.20
  14  -8  -2    0.08    2.01
  14  -8  -2   -4.64    2.50
  14  -8   2    2.20    1.87
 -14   8   2    1.01    2.49
   8  14   2   -1.28    2.27
  14  -8   2    2.65    1.67
   8  14   2   -1.24    2.32
  -8 -14   2   -4.01    3.14
  -8 -14   2    5.13    2.16
  14 -10  -2    1.08    2.81
  14 -10  -2    2.56    2.19
 -10 -14  -2    1.06    2.40
 -10 -14  -2    1.55    2.98
  10  14  -2    0.81    2.38
  10  14  -2   -1.96    2.39
  10  14   2   -1.65    3.10
 -14  10   2    2.09    2.56
  14 -10   2   -0.99    2.06
  10  14   2    0.33    2.30
 -10 -14   2    3.60    3.45
 -10 -14   2    3.38    2.29
  14 -10   2    0.69    1.75
  14 -12  -2    3.45    2.33
  12  14  -2   -4.73    2.51
  14 -12  -2   -4.46    3.64
 -12 -14  -2    1.80    3.34
  12  14  -2   -5.30    2.48
  12  14   2    0.27    2.45
  14 -12   2   -0.34    2.41
  14 -12   2   -0.29    1.80
 -12 -14   2    4.01    4.13
 -12 -14   2    1.30    3.85
 -14  12   2   -0.86    2.62
  12  14   2    0.83    2.89
  14  14  -2   -4.58    2.84
  14 -14  -2    0.29    3.24
  14 -14  -2   -0.19    2.32
 -14 -14  -2    3.88    3.48
  14 -14   2   -3.60    2.49
 -14 -14   2   -4.03    3.90
 -14  14   2   -0.83    4.06
  14  14   2    1.61    2.97
  14  14   2   -3.86    3.02
  14 -14   2    1.20    1.99
 -15 -13  -2    7.66    3.52
  13 -15  -2    4.54    3.45
  13 -15  -2    0.94    2.33
  15  13  -2   -0.87    2.68
  15  13  -2   -2.60    2.98
  13 -15   2   -2.89    2.69
 -15 -13   2   -5.04    4.05
  15  13   2    1.00    2.58
  15  13   2   -0.76    3.18
  13 -15   2    1.12    1.80
  11 -15  -2   -2.61    4.47
  15  11  -2   -1.89    2.46
  11 -15  -2    1.47    2.06
  15  11  -2   -4.52    2.55
 -15 -11  -2    0.75    3.17
 -15 -11   2    1.35    3.31
 -11  15   2   -0.90    2.02
  11 -15   2    0.14    1.56
  15  11   2    0.32    3.01
  15  11   2   -1.19    2.46
  11 -15   2    2.13    4.27
   9 -15  -2    2.11    1.92
  15   9  -2   -0.51    2.47
 -15  -9  -2   -1.52    2.74
   9 -15  -2   -2.57    3.02
  15   9  -2    2.78    2.36
 -15  -9   2   -3.58    3.18
  15   9   2   -0.42    4.53
  -9  15   2   -3.52    1.90
   9 -15   2    0.75    2.46
   9 -15   2   -1.53    1.40
  15   9   2    1.21    2.72
   7 -15  -2    0.65    1.61
  15   7  -2    1.69    2.52
   7 -15  -2    7.75    3.13
  15   7  -2   -3.55    2.18
 -15  -7   2    0.43    2.39
  15   7   2    3.98    2.16
   7 -15   2    1.83    1.38
 -15  -7   2    1.23    3.14
  -7  15   2    1.25    1.76
  15   7   2   -3.94    2.28
   7 -15   2   -1.15    2.28
  15   5  -2   -2.59    2.24
   5 -15  -2    4.57    2.95
  -5  15  -2    1.49    1.82
  -5  15  -2    3.32    1.27
  15   5  -2    4.22    2.53
 -15  -5  -2   -0.47    2.29
   5 -15  -2    4.04    1.67
   5 -15   2    3.71    1.54
  15   5   2    5.26    2.28
  15   5   2    5.68    2.39
 -15  -5   2    1.39    2.97
   5 -15   2    5.42    2.34
 -15  -5   2    4.18    2.27
  -5  15   2    7.07    1.77
   3 -15  -2    8.16    2.98
   3 -15  -2    5.21    1.94
  15   3  -2    6.73    2.51
  15   3  -2    7.76    2.40
 -15  -3  -2    4.12    2.31
  -3  15  -2    5.88    1.67
   3 -15   2    7.68    1.79
  15   3   2    5.36    2.28
 -15  -3   2    0.97    2.21
 -15  -3   2   -1.31    2.78
  -3  15   2    9.20    1.93
   3 -15   2   10.35    2.69
  15   3   2    4.64    2.43
  15   1  -2    2.04    2.28
  15   1  -2    5.85    2.38
   1 -15  -2    6.99    2.91
 -15  -1  -2    6.66    1.95
  -1  15  -2    6.81    1.63
 -15  -1  -2    4.49    2.15
   1 -15  -2    5.38    1.86
 -15  -1   2    4.70    2.24
  -1  15   2    3.03    2.26
 -15  -1   2    0.40    1.61
   1 -15   2    6.74    2.66
  15   1   2    7.04    2.31
  15   1   2    2.00    2.24
   1 -15   2    5.61    1.75
 -15   1  -2    5.67    1.94
  -1 -15  -2    9.06    2.90
  -1 -15  -2    6.98    2.08
   1  15  -2    8.09    2.43
   1  15  -2    4.95    1.92
  15  -1  -2    9.26    2.40
 -15   1  -2    5.22    1.73
  15  -1  -2    6.08    2.45
 -15   1   2    1.76    2.17
  15  -1   2    3.34    2.24
  15  -1   2    3.76    2.14
  -1 -15   2    7.77    1.97
   1  15   2    7.49    1.98
 -15   1   2    6.71    2.58
  -1 -15   2   11.23    2.84
   1  15   2    5.66    2.40
   3  15  -2    6.46    2.43
  15  -3  -2    6.40    2.31
  -3 -15  -2    4.62    2.19
  -3 -15  -2   10.27    2.98
  15  -3  -2    7.02    2.53
   3  15   2    4.20    2.20
  15  -3   2    6.46    2.18
   3  15   2    2.38    2.39
  15  -3   2    3.29    2.02
 -15   3   2    5.60    2.49
  -3 -15   2   10.31    2.95
  -3 -15   2    3.66    1.90
  -5 -15  -2    1.77    2.83
  -5 -15  -2    1.39    2.12
  15  -5  -2    4.08    2.11
   5  15  -2   -0.03    2.46
  15  -5  -2    3.08    2.40
   5  15  -2    4.00    1.94
  -5 -15   2    2.25    1.96
  -5 -15   2    3.81    2.99
  15  -5   2    2.29    1.96
 -15   5   2    6.72    2.36
  15  -5   2    1.45    1.95
   5  15   2   -0.58    2.18
   5  15   2    7.30    2.23
   7  15  -2   -1.10    2.02
  15  -7  -2    0.78    2.15
  -7 -15  -2    1.99    2.96
  -7 -15  -2    2.75    2.22
  15  -7  -2    1.62    2.67
   7  15   2   -1.35    2.46
  15  -7   2    1.92    1.86
  15  -7   2    3.21    2.01
 -15   7   2    2.36    2.26
   7  15   2    0.08    2.35
  -7 -15   2    7.43    3.33
  -7 -15   2    3.43    2.10
  15  -9  -2    1.42    2.79
  15  -9  -2    2.10    2.23
   9  15  -2    1.51    2.28
  -9 -15  -2   -0.95    2.54
 -15   9   2    2.61    2.22
  -9 -15   2   -9.15    3.31
  -9 -15   2   -0.84    2.14
   9  15   2   -0.77    2.43
   9  15   2    3.16    2.60
  15  -9   2   -1.10    1.81
  15  -9   2    0.33    1.99
 -11 -15  -2   -3.30    2.51
  11  15  -2   -5.08    2.38
 -11 -15  -2    0.83    3.26
  15 -11  -2   -2.37    2.35
 -15  11   2    3.08    2.64
  11  15   2   -1.07    2.46
  15 -11   2    1.17    1.92
 -11 -15   2    1.21    3.80
  11  15   2    2.48    3.03
 -11 -15   2   -0.83    2.51
  15 -11   2   -2.17    3.13
  15 -13  -2   -1.01    2.50
  15 -13  -2   -4.18    3.23
 -13 -15  -2   -1.47    3.50
  13  15  -2   -3.96    4.22
 -15  13   2    0.03    3.14
  15 -13   2    1.75    2.53
  13  15   2    0.28    3.15
  13  15   2   -2.36    2.74
 -13 -15   2   -1.05    2.87
 -13 -15   2   -2.59    4.13
 -15 -15  -2    0.95    3.68
  15 -15  -2    1.26    2.56
  15 -15  -2   -3.92    3.62
  15  15  -2   -0.75    3.22
  15 -15   2   -3.95    1.94
  15  15   2   -0.49    3.09
  15  15   2    0.36    3.60
  15 -15   2    0.35    2.83
 -15 -15   2    5.36    4.51
  14 -16  -2    1.25    3.75
 -16 -14  -2    2.30    3.52
  14 -16  -2    4.96    2.56
  16  14  -2   -2.97    3.21
  16  14   2   -1.66    5.22
  14 -16   2   -0.31    2.98
 -16 -14   2   -0.44    4.42
  16  14   2   -2.79    3.49
  14 -16   2   -0.23    2.08
  12 -16  -2   -2.85    3.40
  12 -16  -2    2.82    2.16
 -16 -12  -2    2.99    3.39
  16  12  -2   -1.88    2.61
  16  12  -2   -2.36    3.04
  12 -16   2    0.32    1.67
  16  12   2   -1.37    3.09
  12 -16   2   -0.70    2.81
  16  12   2    1.20    2.81
 -16 -12   2   -2.57    3.88
  16  10  -2    2.33    2.82
 -16 -10  -2    2.03    3.11
  16  10  -2    0.42    2.44
  10 -16  -2    1.10    2.01
  10 -16  -2    2.65    4.22
 -10  16   2    4.34    2.19
  10 -16   2    0.83    3.01
  16  10   2   -1.71    3.00
 -16 -10   2    5.36    3.51
  16  10   2    1.06    2.64
  10 -16   2   -1.07    1.56
   8 -16  -2    2.15    1.74
  16   8  -2    1.07    2.36
   8 -16  -2    6.31    3.20
  16   8  -2    0.70    2.70
  16   8   2    4.44    2.78
  -8  16   2   -3.18    2.12
   8 -16   2    2.75    1.49
 -16  -8   2    6.79    3.34
   8 -16   2    2.63    2.51
  16   8   2   -1.09    2.38
  16   6  -2   -1.66    2.45
   6 -16  -2    5.34    1.85
  16   6  -2    4.70    2.69
   6 -16  -2    6.97    3.28
 -16  -6  -2    9.47    2.75
 -16  -6   2   -1.00    3.32
  16   6   2    6.35    2.59
   6 -16   2    3.03    1.62
  16   6   2    0.99    2.34
   6 -16   2    9.71    2.61
  -6  16   2    5.31    2.00
  -4  16  -2    1.42    1.33
  16   4  -2    3.98    2.54
 -16  -4  -2   -2.82    2.28
   4 -16  -2    0.93    2.70
  16   4  -2   -1.67    2.20
   4 -16  -2   -0.61    1.58
  16   4   2    0.33    2.22
  16   4   2   -0.11    2.07
  -4  16   2    0.92    1.72
   4 -16   2   -1.13    2.31
   4 -16   2    2.34    1.44
 -16  -2  -2   -0.03    2.16
  -2  16  -2   -0.07    2.34
   2 -16  -2   -2.82    2.88
   2 -16  -2   -1.47    1.67
  16   2  -2    4.03    2.38
  -2  16   2   -2.04    1.31
  16   2   2   -2.49    2.23
   2 -16   2    1.18    1.86
   2 -16   2   -0.13    2.63
  16   2   2   -1.57    2.09
 -16   0  -2   -1.91    1.90
   0 -16  -2    0.46    1.78
   0 -16  -2   -1.53    2.75
  16   0  -2    2.99    2.30
   0  16  -2    2.40    1.62
  16   0  -2    2.59    2.29
   0  16   2    4.80    1.92
   0 -16   2   -2.52    2.58
  16   0   2    0.40    2.20
   0 -16   2   -0.10    1.58
  16   0   2    1.58    2.13
 -16   0   2   -3.95    2.62
   2  16  -2   -0.55    1.63
 -16   2  -2    0.61    1.50
  -2 -16  -2    1.58    3.06
  16  -2  -2   -1.49    2.25
  16  -2  -2    2.97    2.15
  -2 -16  -2   -0.02    2.80
  -2 -16   2    0.88    2.76
   2  16   2   -2.28    2.47
 -16   2   2    0.88    2.51
  16  -2   2    0.49    1.96
   2  16   2    7.14    2.12
  16  -2   2    2.26    2.08
  -2 -16   2    1.54    1.71
  16  -4  -2    0.98    2.38
  16  -4  -2    0.86    2.21
  -4 -16  -2    3.10    2.97
  -4 -16  -2    0.86    2.11
  16  -4   2    0.48    1.97
   4  16   2    2.14    2.28
  -4 -16   2   -1.53    1.87
   4  16   2   -0.53    2.03
  -4 -16   2   -1.22    2.96
 -16   4   2   -2.33    2.33
  -6 -16  -2    7.22    3.21
  16  -6  -2    2.73    2.56
  -6 -16  -2    1.45    2.31
   6  16  -2    4.75    2.18
 -16   6   2    1.43    2.43
  -6 -16   2   -0.01    3.23
  -6 -16   2    4.77    2.70
   6  16   2    5.87    2.71
  16  -6   2   -0.03    2.06
   6  16   2    7.01    2.31
  16  -6   2    0.82    1.96
   8  16  -2    4.22    2.30
  16  -8  -2   -2.49    2.33
  -8 -16  -2    4.24    3.32
  -8 -16  -2    1.55    2.34
  16  -8  -2   -0.44    2.75
 -16   8   2   -0.45    2.33
   8  16   2    0.40    2.51
  -8 -16   2    4.16    2.41
  -8 -16   2    5.24    3.69
  16  -8   2    7.09    2.09
   8  16   2    0.53    2.72
  16  -8   2    3.60    2.14
  10  16  -2   -0.82    2.40
 -10 -16  -2    3.76    2.61
  16 -10  -2   -2.98    3.45
 -10 -16  -2   -0.10    3.43
  16 -10  -2    2.27    2.46
 -10 -16   2   -3.37    3.62
 -16  10   2    2.27    2.29
 -10 -16   2    0.86    2.49
  16 -10   2    0.33    2.80
  16 -10   2   -0.63    2.12
  10  16   2   -2.25    2.53
  10  16   2    4.65    3.43
  16 -12  -2   -3.11    3.25
  12  16  -2   -3.36    2.64
  16 -12  -2    0.96    2.59
 -12 -16  -2   -3.25    4.14
 -16  12   2    0.99    2.53
  12  16   2   -2.56    3.00
  16 -12   2   -2.83    2.42
 -12 -16   2   -5.13    4.09
 -12 -16   2   -0.71    2.87
  12  16   2   -1.60    2.92
 -14 -16  -2    3.41    3.77
  16 -14  -2   -0.69    2.68
  16 -14  -2   -2.20    3.60
  14  16  -2   -1.36    3.04
 -14 -16   2   -6.18    4.29
  16 -14   2    3.94    2.83
  16 -14   2   -0.89    2.20
  14  16   2   -1.60    3.49
  16 -16  -2   -0.27    4.11
  16 -16  -2   -1.59    2.66
  16  16  -2   -1.22    3.70
 -16 -16  -2    1.25    3.97
  16 -16   2    1.75    3.08
  16 -16   2   -1.91    2.15
 -16 -16   2    1.76    4.83
  16  16   2   -2.60    3.85
 -17 -15  -2    3.53    3.88
  15 -17  -2    3.87    2.63
  15 -17  -2   -4.36    3.84
  17  15  -2   -2.44    3.73
 -17 -15   2   -2.43    4.74
  17  15   2   -1.27    3.86
  15 -17   2   -1.11    2.05
  17  15   2    1.62    5.64
  15 -17   2   -1.34    3.19
  13 -17  -2    4.43    3.96
  13 -17  -2    2.32    2.39
 -17 -13  -2    0.95    3.43
  17  13  -2    6.39    3.51
  17  13   2   -3.84    3.21
  13 -17   2    0.12    3.16
 -17 -13   2    6.26    4.30
  17  13   2   -3.75    3.53
  11 -17  -2    1.46    2.15
  17  11  -2   -1.71    4.42
 -17 -11  -2   -0.05    3.11
  17  11  -2   -4.12    2.89
  11 -17  -2   -3.35    3.55
  11 -17   2    6.77    3.07
  17  11   2    5.98    3.08
  17  11   2   -0.08    3.27
 -11  17   2   -2.17    2.31
  11 -17   2    2.37    1.74
 -17 -11   2   -1.53    3.79
   9 -17  -2    4.61    3.49
  17   9  -2    4.14    2.88
   9 -17  -2    0.51    1.97
  17   9  -2    2.87    2.53
 -17  -9  -2    2.83    3.23
  17   9   2    4.25    2.98
 -17  -9   2    6.10    3.61
  -9  17   2   -2.75    2.09
  17   9   2   -0.98    3.18
   9 -17   2   -2.41    1.49
   9 -17   2   -1.05    2.77
 -17  -7  -2   -0.24    2.58
  17   7  -2   -2.01    2.73
   7 -17  -2    8.03    3.56
  17   7  -2    2.97    2.68
   7 -17  -2   -2.36    1.64
  -7  17   2    1.42    4.55
 -17  -7   2    1.09    3.13
  17   7   2    1.76    2.53
   7 -17   2    3.72    4.23
   7 -17   2    3.04    1.55
  17   7   2   -2.51    2.63
  -5  17  -2   -0.25    1.35
  17   5  -2    0.20    2.54
 -17  -5  -2   -2.93    2.41
   5 -17  -2   -0.46    1.68
  17   5  -2    2.30    3.57
   5 -17  -2    0.50    3.04
  17   5   2   -2.52    2.36
  17   5   2    0.93    2.25
   5 -17   2   -1.29    2.53
 -17  -5   2   -1.01    3.47
  -5  17   2   -0.96    1.79
   5 -17   2    0.25    1.52
   3 -17  -2    0.83    1.73
 -17  -3  -2    2.83    2.36
  -3  17  -2    2.32    1.53
   3 -17  -2   -2.77    2.87
  17   3  -2   -1.34    2.38
  -3  17   2    0.32    1.82
  17   3   2   -4.04    2.36
  17   3   2    0.49    2.27
   3 -17   2    3.94    2.57
   3 -17   2    1.24    1.64
   1 -17  -2    0.30    2.98
  -1  17  -2    2.77    1.58
  17   1  -2    2.35    2.40
 -17  -1  -2    3.22    2.26
  17   1  -2    5.90    2.59
   1 -17  -2    3.61    1.88
 -17  -1   2   -4.42    2.89
   1 -17   2    0.17    1.71
   1 -17   2    0.42    2.83
  17   1   2    3.28    2.30
  17   1   2    0.70    2.37
   1  17  -2    2.42    1.80
  17  -1  -2    2.14    2.38
  17  -1  -2    2.68    2.30
  -1 -17  -2    0.16    1.93
  -1 -17  -2    0.71    3.06
 -17   1  -2    1.07    1.76
  -1 -17   2   -2.47    2.75
 -17   1   2    3.52    2.98
  -1 -17   2    1.90    1.83
   1  17   2    2.02    2.02
  17  -1   2   -0.63    2.20
  17  -1   2    1.44    2.24
  -3 -17  -2   -2.42    3.06
  17  -3  -2   -3.46    2.21
   3  17  -2    0.93    1.67
  -3 -17  -2    5.16    2.22
  17  -3  -2   -0.85    2.45
  17  -3   2   -0.47    2.00
   3  17   2   -1.30    2.01
  -3 -17   2    4.71    3.13
 -17   3   2    0.53    2.71
  -3 -17   2    1.75    1.87
  -5 -17  -2   -1.02    2.10
  17  -5  -2    3.47    2.44
   5  17  -2   -3.07    2.39
  17  -5  -2   -0.54    2.57
  -5 -17  -2    0.33    3.20
  17  -5   2   -2.30    2.09
   5  17   2    4.58    2.38
  -5 -17   2   -0.57    3.20
  17  -5   2   -2.69    2.01
 -17   5   2   -2.04    2.59
  -5 -17   2    3.69    2.08
  -7 -17  -2    0.38    2.24
  17  -7  -2   -1.13    2.47
  17  -7  -2   -1.47    2.75
   7  17  -2    1.50    2.10
  -7 -17  -2    5.13    3.46
   7  17   2   -2.30    2.34
 -17   7   2   -0.52    2.48
  17  -7   2    7.23    2.18
  -7 -17   2   -1.26    2.27
  -7 -17   2    0.52    3.62
  17  -7   2    2.68    2.63
  17  -9  -2   -4.52    2.93
  17  -9  -2    3.82    2.76
  -9 -17  -2   -4.83    3.38
  -9 -17  -2   -2.15    2.59
   9  17  -2    1.14    2.52
  17  -9   2    4.80    2.32
 -17   9   2   -0.04    2.44
   9  17   2   -1.25    2.81
  -9 -17   2    4.36    2.55
  -9 -17   2    4.28    3.99
  17  -9   2   -0.25    2.15
  17 -11  -2    0.44    3.18
  17 -11  -2   -0.98    2.63
 -11 -17  -2   -1.82    3.70
  11  17  -2   -1.79    2.73
 -11 -17   2    1.35    4.31
 -11 -17   2   -0.08    4.37
  11  17   2   -4.15    2.99
  17 -11   2   -0.22    2.44
 -17  11   2   -0.88    2.73
  17 -13  -2    0.78    2.93
  17 -13  -2    7.63    3.76
  13  17  -2    3.10    4.61
 -13 -17  -2   -1.91    3.85
  17 -13   2    3.06    2.67
  13  17   2    2.46    3.38
 -13 -17   2    1.14    4.69
  17 -13   2   -1.33    2.36
  17 -15  -2   -0.02    2.91
  17 -15  -2    2.14    4.06
 -15 -17  -2   -5.60    4.27
  15  17  -2   -0.10    3.51
 -15 -17   2    1.78    4.98
  15  17   2   -2.05    3.83
  17 -15   2   -5.08    2.95
  17 -15   2   -0.66    2.30
 -18 -14  -2   -1.55    3.56
  18  14  -2    4.34    3.80
  14 -18  -2    2.56    2.68
  14 -18  -2    1.28    4.13
  14 -18   2    1.52    3.43
  18  14   2    2.55    3.99
  14 -18   2    1.80    2.09
  18  14   2   -1.04    4.96
  18  12  -2    1.13    3.07
  12 -18  -2    3.36    2.30
  18  12  -2    3.43    3.44
  12 -18  -2    7.63    3.89
 -18 -12  -2    2.30    3.33
  12 -18   2    3.00    1.92
  12 -18   2    9.22    3.42
  18  12   2   -0.98    3.24
  18  12   2    4.45    5.38
 -18 -12   2    3.53    4.19
 -18 -10  -2    3.59    4.32
  18  10  -2    4.89    3.36
  18  10  -2    1.81    2.94
  10 -18  -2    5.85    2.44
  10 -18  -2   11.13    4.07
 -18 -10   2    3.50    3.86
  10 -18   2    6.46    1.97
  18  10   2    8.28    3.67
  18  10   2    7.66    3.30
 -10  18   2    6.09    2.67
  10 -18   2   10.42    3.53
   8 -18  -2   10.61    2.80
  18   8  -2   15.38    3.64
 -18  -8  -2   12.26    3.28
  18   8  -2    7.98    3.49
   8 -18  -2   19.96    4.35
  18   8   2   17.49    3.73
 -18  -8   2   14.37    4.06
   8 -18   2   10.79    2.60
   8 -18   2   15.70    3.53
  -8  18   2   13.38    3.12
  18   8   2   12.98    3.51
  18   6  -2   20.36    4.01
   6 -18  -2   20.48    3.66
 -18  -6  -2   10.94    3.71
  18   6  -2   12.28    3.68
   6 -18  -2   22.59    5.37
 -18  -6   2   14.80    4.10
  18   6   2    7.29    3.53
   6 -18   2   12.27    2.93
  -6  18   2   27.48    4.68
  18   6   2   20.59    3.87
   6 -18   2   29.30    4.93
 -18  -4  -2   12.60    4.18
  -4  18  -2   19.25    4.00
  18   4  -2   14.89    4.26
   4 -18  -2   25.38    4.23
   4 -18  -2   20.07    4.61
   4 -18   2   19.61    4.01
  -4  18   2   28.18    4.44
  18   4   2   38.91    4.95
   4 -18   2   23.27    4.88
  18   4   2   18.55    4.15
  18   2  -2   27.59    5.29
   2 -18  -2   17.98    4.16
 -18  -2  -2   18.87    4.43
  -2  18  -2   30.98    4.43
  18   2  -2   21.84    4.60
   2 -18  -2   34.76    5.33
  -2  18   2   31.19    4.76
   2 -18   2   21.14    4.45
   2 -18   2   28.38    5.52
  18   2   2   17.20    4.41
 -18  -2   2   20.82    5.08
  18   2   2   34.72    5.28
  18   0  -2   16.21    4.39
   0  18  -2   29.21    4.43
 -18   0  -2   26.11    4.67
   0 -18  -2   24.33    5.09
  18   0  -2   27.58    5.13
   0 -18  -2   21.91    4.64
 -18   0   2   22.59    4.98
  18   0   2   28.31    5.12
   0 -18   2   20.89    4.42
  18   0   2   15.03    4.31
   0 -18   2   32.72    5.13
  18  -2  -2   25.25    4.88
  18  -2  -2   27.86    5.53
  -2 -18  -2   38.70    6.50
   2  18  -2   30.13    5.07
  -2 -18  -2   22.92    4.79
  18  -2   2   22.24    4.76
 -18   2   2   21.07    5.22
   2  18   2   31.00    5.14
  -2 -18   2   36.32    6.32
  18  -2   2   32.35    5.29
  -2 -18   2   23.22    4.93
  -4 -18  -2   19.77    4.65
  -4 -18  -2   17.60    3.80
  18  -4  -2   18.72    3.94
  18  -4  -2   26.76    4.69
 -18   4   2   20.03    4.32
   4  18   2   26.80    4.68
  -4 -18   2    8.66    3.54
  18  -4   2   19.89    3.83
  -4 -18   2   23.16    4.72
  18  -6  -2   21.66    4.56
  18  -6  -2   19.74    4.57
   6  18  -2   14.46    3.66
  -6 -18  -2   23.13    4.75
  -6 -18  -2   13.87    3.75
  18  -6   2   19.45    3.77
  18  -6   2   21.92    4.21
 -18   6   2   12.71    3.99
  -6 -18   2   23.38    4.99
  -6 -18   2   11.86    3.67
   6  18   2   31.25    4.73
  18  -8  -2   18.64    3.66
  -8 -18  -2    7.87    3.97
  -8 -18  -2   13.38    4.41
  18  -8  -2   17.61    3.83
   8  18  -2   12.64    3.32
  -8 -18   2    9.51    3.39
   8  18   2   12.92    3.60
 -18   8   2   14.79    3.60
  18  -8   2   15.42    3.32
  18  -8   2   15.55    3.32
  -8 -18   2   15.00    4.75
  18 -10  -2    6.18    3.42
  10  18  -2    8.78    3.03
  18 -10  -2    9.47    3.29
 -10 -18  -2    4.54    4.00
  18 -10   2   17.86    4.35
 -18  10   2    8.32    3.95
  10  18   2    5.64    4.12
 -10 -18   2    7.79    3.19
 -10 -18   2    3.08    4.60
  18 -10   2    5.25    2.83
  12  18  -2    1.87    3.07
  18 -12  -2    3.58    3.53
 -12 -18  -2    4.08    4.14
  18 -12  -2    4.78    3.11
 -12 -18   2   12.96    5.04
 -12 -18   2    0.16    4.35
  12  18   2    4.45    3.63
  18 -12   2    3.26    2.57
  18 -12   2    1.58    2.63
  18 -14  -2    2.77    3.98
  18 -14  -2    4.78    3.45
  14  18  -2    1.97    3.45
 -14 -18  -2    2.97    4.39
  18 -14   2    7.00    2.68
 -14 -18   2    6.01    5.47
  18 -14   2    5.01    2.95
  14  18   2   -4.98    3.67
  19  11  -2   -0.02    3.00
  11 -19  -2    5.67    2.21
  11 -19  -2    5.25    4.08
  19  11  -2   -3.51    3.34
  19  11   2    0.24    3.24
 -19 -11   2   -1.22    4.03
  19  11   2    2.04    3.67
  11 -19   2   -0.28    1.83
 -11  19   2    1.54    3.07
  11 -19   2   -0.57    3.34
   9 -19  -2    9.02    4.05
  19   9  -2   -0.38    3.04
  19   9  -2    5.56    3.33
   9 -19  -2    1.35    1.99
   9 -19   2    4.57    3.28
   9 -19   2    1.39    1.78
 -19  -9   2   -1.79    3.51
  -9  19   2    2.18    2.49
  19   9   2    1.86    3.05
  19   9   2    7.24    3.56
   7 -19  -2    0.65    1.87
   7 -19  -2   -1.16    3.81
  19   7  -2    4.32    3.13
  19   7  -2   -1.67    2.72
 -19  -7  -2    3.67    3.01
   7 -19   2    1.30    1.69
  19   7   2   -3.27    2.67
   7 -19   2    4.20    2.98
 -19  -7   2    3.12    3.24
  -7  19   2    2.69    2.31
  19   7   2    0.90    3.11
   5 -19  -2    0.57    3.71
  -5  19  -2   -4.13    3.00
   5 -19  -2    5.85    1.94
 -19  -5  -2    1.98    2.65
  19   5  -2   -2.13    2.87
  19   5   2    1.43    2.61
  19   5   2    1.92    2.89
   5 -19   2    1.43    1.79
  -5  19   2    1.50    2.25
   5 -19   2   -2.52    2.79
   3 -19  -2    2.47    1.91
  19   3  -2   -2.43    2.86
  -3  19  -2   -0.38    1.76
   3 -19  -2    0.28    3.36
  19   3  -2   -1.32    2.76
 -19  -3  -2    2.35    2.50
  19   3   2   -0.17    2.96
  -3  19   2    0.10    2.03
 -19  -3   2   -0.43    3.52
   3 -19   2    0.31    1.89
   3 -19   2   -4.51    2.74
  19   3   2   -1.60    2.41
  -1  19  -2    1.86    2.00
  19   1  -2   -2.29    2.75
 -19  -1  -2    1.75    2.21
   1 -19  -2   -1.05    1.90
  19   1  -2   -0.16    2.66
   1 -19  -2    3.61    3.53
  19   1   2    2.35    2.70
   1 -19   2   -0.53    1.80
  -1  19   2    0.85    1.88
  19   1   2    2.21    2.59
 -19  -1   2    4.70    3.60
  19  -1  -2    1.31    2.67
  -1 -19  -2   -1.98    3.35
   1  19  -2   -3.69    1.75
  19  -1  -2   -2.98    2.57
  -1 -19  -2   -0.47    2.61
  19  -1   2   -0.53    2.53
  -1 -19   2   -1.19    1.88
   1  19   2    2.30    2.18
  -1 -19   2    3.78    3.45
 -19   1   2    0.66    3.31
  19  -1   2    0.00    2.53
  19  -3  -2   -3.62    2.52
  -3 -19  -2    1.54    2.36
   3  19  -2    1.54    2.08
  -3 -19  -2    3.66    3.68
  19  -3  -2   -4.88    2.97
  19  -3   2    2.83    2.37
  -3 -19   2   -6.17    3.52
 -19   3   2   -1.73    3.20
   3  19   2    1.93    2.08
  -3 -19   2    1.65    2.12
  -5 -19  -2   -0.92    2.46
  19  -5  -2   -4.64    2.72
  -5 -19  -2    0.89    3.66
  19  -5  -2   -0.77    2.70
  -5 -19   2    2.11    3.71
  19  -5   2   -0.15    2.28
  -5 -19   2    0.94    2.63
   5  19   2    1.12    2.63
  19  -5   2    1.88    2.51
 -19   5   2   -1.09    3.03
   7  19  -2    1.67    2.55
  19  -7  -2   -0.38    2.99
  -7 -19  -2   -0.48    2.77
  19  -7  -2    0.02    3.00
  -7 -19  -2    2.12    3.83
   7  19   2    3.56    2.83
  -7 -19   2   -0.87    2.59
 -19   7   2   -0.78    2.96
  19  -7   2   -3.93    2.49
  19  -7   2   -1.12    2.37
  -7 -19   2    6.05    4.22
  19  -9  -2    2.94    3.12
  -9 -19  -2    5.10    3.47
  -9 -19  -2    2.08    4.23
  19  -9  -2    2.33    3.26
   9  19  -2    2.94    2.71
  19  -9   2   -0.12    2.70
  -9 -19   2    8.31    4.59
  -9 -19   2    0.73    2.98
   9  19   2    3.87    2.96
  19  -9   2    2.25    2.49
  19 -11  -2   -1.13    3.22
 -11 -19  -2   -0.64    4.25
  19 -11  -2    4.25    3.51
  11  19  -2    3.91    3.05
  19 -11   2    2.24    2.71
 -11 -19   2    3.46    3.45
  19 -11   2    1.22    2.73
  11  19   2   -0.92    3.44
 -11 -19   2    3.29    4.79
  10 -20  -2    5.68    4.49
  10 -20  -2    8.65    3.21
  20  10  -2   15.35    6.34
  10 -20   2   21.13    4.13
  20  10   2   17.83    4.05
 -20 -10   2    7.93    4.30
  10 -20   2    5.13    2.26
  20  10   2    3.42    3.55
 -10  20   2    6.38    3.30
  20   8  -2   11.34    3.94
 -20  -8  -2   16.31    3.99
   8 -20  -2   10.77    3.07
  20   8  -2   24.57    5.70
   8 -20  -2   25.41    4.94
  -8  20   2   17.94    3.61
  20   8   2    9.87    3.98
 -20  -8   2   13.93    4.38
   8 -20   2   18.75    4.12
   8 -20   2   11.98    2.94
  20   8   2   19.55    4.29
   6 -20  -2   21.35    4.21
   6 -20  -2   29.74    5.33
 -20  -6  -2   14.07    4.21
  20   6  -2   23.65    6.35
   6 -20   2   44.66    5.76
  20   6   2   11.02    4.14
 -20  -6   2    7.22    4.71
  20   6   2   31.49    5.41
   6 -20   2   17.34    3.59
  -6  20   2   27.66    4.88
  20   4  -2   17.99    6.61
 -20  -4  -2   14.10    3.80
  -4  20  -2   32.30    5.15
   4 -20  -2    9.42    3.09
   4 -20  -2   20.81    4.46
   4 -20   2   12.45    3.10
  -4  20   2   18.46    3.46
  20   4   2   12.70    3.66
  20   4   2   21.36    3.90
   4 -20   2   32.91    5.23
 -20  -4   2    4.28    4.66
  20   2  -2   10.09    3.63
   2 -20  -2   20.26    5.24
 -20  -2  -2    8.25    3.31
  -2  20  -2   13.91    2.99
   2 -20  -2   10.05    2.96
  20   2  -2   16.51    3.89
   2 -20   2   10.77    2.86
   2 -20   2   12.56    3.82
  20   2   2   19.00    3.62
 -20  -2   2   18.72    4.68
  -2  20   2   19.65    3.33
  20   2   2    9.99    3.40
  20   0  -2   12.12    3.46
   0 -20  -2   14.53    3.65
  20   0  -2    9.34    3.41
   0 -20  -2   20.08    4.42
 -20   0  -2    7.26    3.86
 -20   0   2   11.63    4.22
   0 -20   2   11.62    2.76
  20   0   2   13.71    3.30
  20   0   2   14.53    3.42
   0 -20   2   13.50    4.01
   0  20   2    3.99    2.71
   2  20  -2   24.01    4.35
  -2 -20  -2   15.70    4.81
  -2 -20  -2   14.55    3.86
  20  -2  -2   20.25    4.07
  20  -2  -2   11.59    4.02
  -2 -20   2   31.21    5.15
  20  -2   2   21.35    3.96
 -20   2   2   18.18    4.74
  -2 -20   2   13.12    3.43
   2  20   2   17.69    4.24
  20  -4  -2   12.78    3.89
  20  -4  -2   15.74    3.94
  -4 -20  -2    9.64    3.62
  -4 -20  -2   24.95    4.92
   4  20  -2   14.64    3.59
  20  -4   2   18.13    3.82
 -20   4   2   11.03    4.32
   4  20   2   28.41    4.72
  -4 -20   2   25.57    7.27
  20  -4   2   26.47    4.52
  -4 -20   2   12.72    3.56
  -6 -20  -2   14.50    4.26
  20  -6  -2   23.75    4.49
  20  -6  -2   22.41    4.72
  -6 -20  -2   41.83    6.97
   6  20  -2   19.09    4.48
  -6 -20   2   16.32    4.25
 -20   6   2   13.25    5.03
  20  -6   2   19.37    4.28
  -6 -20   2   30.63    7.60
   6  20   2   30.37    5.37
  20  -6   2   24.98    4.81
  -8 -20  -2   12.00    4.76
   8  20  -2   15.13    3.63
  -8 -20  -2   12.64    3.99
  20  -8  -2   12.21    4.01
  20  -8  -2   13.10    4.00
  20  -8   2   25.33    4.39
   8  20   2   13.31    3.82
  20  -8   2   16.28    3.71
  -8 -20   2   12.33    3.79
  -8 -20   2   14.74    5.47
  20 -10  -2    4.06    3.61
  20 -10  -2    8.34    3.85
  10  20  -2    4.94    3.11
 -10 -20  -2    8.17    4.69
 -10 -20   2    4.49    3.50
  20 -10   2   14.49    3.41
 -10 -20   2    7.49    5.30
  20 -10   2    8.38    3.02
  10  20   2    9.62    4.47
   9 -21  -2    2.26    4.32
 -21  -9  -2   -0.51    3.27
   9 -21  -2    0.39    2.17
  21   9  -2    3.87    3.90
  21   9  -2    3.56    3.53
   9 -21   2    2.08    2.02
  21   9   2    3.79    3.78
  21   9   2    3.63    3.53
   9 -21   2    5.27    3.79
  -9  21   2    2.92    3.42
 -21  -9   2   -2.36    3.66
   7 -21  -2    1.76    4.21
   7 -21  -2   -0.42    2.05
  21   7  -2    3.04    3.43
 -21  -7  -2    1.96    3.08
   7 -21   2    4.27    3.42
  21   7   2    2.60    3.36
  21   7   2    1.56    3.14
   7 -21   2    0.29    2.05
 -21  -7   2   -3.19    4.27
  -7  21   2   -1.30    2.60
   5 -21  -2    0.66    2.02
  21   5  -2    0.62    3.32
   5 -21  -2    5.88    4.04
 -21  -5  -2    3.26    2.88
   5 -21   2    0.56    3.26
   5 -21   2   -0.52    1.99
  -5  21   2    1.47    2.63
  21   5   2    3.09    2.91
  21   5   2    0.30    3.06
   3 -21  -2    2.54    2.09
 -21  -3  -2    1.48    2.68
   3 -21  -2   -1.39    3.58
  21   3  -2   -0.08    3.16
  -3  21  -2    0.19    2.19
  21   3  -2    6.02    3.21
  -3  21   2    2.85    2.38
  21   3   2    0.82    2.84
  21   3   2   -1.92    2.66
 -21  -3   2   -0.42    3.09
   3 -21   2   -2.24    2.29
   3 -21   2    6.16    3.39
   1 -21  -2    1.67    3.67
  21   1  -2   -5.16    2.96
  21   1  -2   -1.04    2.97
   1 -21  -2    1.04    2.39
 -21  -1  -2    0.63    3.76
  -1  21  -2   -1.96    2.13
  21   1   2   -0.99    2.85
   1 -21   2   -1.01    2.02
 -21  -1   2    1.79    2.89
  -1  21   2    0.73    2.38
  21   1   2   -1.40    3.01
   1 -21   2    5.04    3.49
   1  21  -2   -1.34    2.48
  -1 -21  -2   -2.78    2.42
  21  -1  -2   -1.13    2.90
  -1 -21  -2    4.35    4.13
  21  -1  -2    0.18    3.03
  21  -1   2   -3.35    2.71
  -1 -21   2    1.30    2.07
 -21   1   2   -2.04    2.76
  -1 -21   2    0.67    3.30
  21  -3  -2    1.27    3.02
   3  21  -2   -1.72    2.27
  -3 -21  -2   -7.97    4.54
  -3 -21  -2   -0.47    2.55
  21  -3  -2    3.95    2.94
  -3 -21   2    4.25    3.87
   3  21   2    2.57    2.54
  21  -3   2    0.56    2.94
 -21   3   2    2.13    3.76
  -3 -21   2   -2.47    2.19
  21  -3   2    2.54    2.74
  21  -5  -2    0.91    3.04
  -5 -21  -2    3.37    4.19
  -5 -21  -2    0.27    2.78
  21  -5  -2    0.40    3.44
   5  21   2    2.20    2.85
  -5 -21   2   -0.21    2.45
 -21   5   2    7.55    4.88
  -5 -21   2   -1.26    4.44
  21  -5   2   -0.01    2.96
  21  -5   2    0.77    2.64
   7  21  -2    0.26    2.86
  21  -7  -2    0.95    3.07
  -7 -21  -2    1.33    4.38
  21  -7  -2   -2.79    3.48
  -7 -21  -2   -1.21    3.09
   7  21   2   -0.68    3.01
  -7 -21   2    3.45    3.12
  21  -7   2   -1.02    3.12
  21  -7   2    7.43    2.70
  -7 -21   2    5.81    4.87
  21  -9  -2    2.77    3.78
  -9 -21  -2   -4.21    4.48
   9  21  -2    0.80    2.94
  21  -9  -2   -0.64    3.44
  21  -9   2    2.57    3.25
  -9 -21   2   -0.40    5.01
   9  21   2   -0.13    3.26
  21  -9   2    1.22    2.74
   6 -22  -2   18.70    4.82
  22   6  -2    7.70    3.82
   6 -22  -2    2.38    2.37
 -22  -6  -2    6.49    3.38
   6 -22   2    3.33    2.35
  22   6   2    2.81    3.39
  -6  22   2    8.76    3.22
  22   6   2    4.97    3.43
   6 -22   2   10.68    3.82
 -22  -4  -2    4.39    3.19
  22   4  -2    1.14    4.22
   4 -22  -2    4.30    2.47
  22   4  -2   11.16    3.68
   4 -22  -2   12.30    4.59
   4 -22   2   15.97    3.99
  -4  22   2    5.68    3.26
  22   4   2    8.27    3.35
   4 -22   2    8.24    2.43
  22   4   2    6.76    3.18
 -22  -4   2    2.59    3.41
  22   2  -2   10.85    3.73
  -2  22  -2   14.08    2.99
   2 -22  -2   13.91    4.57
   2 -22  -2    5.58    2.86
  22   2  -2    1.46    3.55
 -22  -2   2    3.51    3.39
  22   2   2    6.74    3.41
  -2  22   2    9.76    3.05
   2 -22   2   11.89    3.77
   2 -22   2    6.15    2.52
  22   2   2   10.07    3.30
  22   0  -2    7.08    3.54
   0 -22  -2    6.71    3.13
  22   0  -2   10.65    3.80
   0  22  -2   12.54    2.95
   0 -22  -2   15.51    4.51
   0  22   2    8.99    3.22
   0 -22   2   12.43    4.08
  22   0   2   16.14    3.63
 -22   0   2    7.46    3.50
   0 -22   2    9.04    2.71
  -2 -22  -2   16.56    4.52
   2  22  -2    9.61    2.86
  22  -2  -2    5.63    3.35
  -2 -22  -2    9.31    3.17
  22  -2  -2    9.27    3.74
  -2 -22   2   14.10    4.17
  -2 -22   2    4.67    2.77
  22  -2   2   13.49    3.37
 -22   2   2    3.95    3.26
  22  -2   2    5.78    3.47
  -4 -22  -2    6.60    3.12
  22  -4  -2   11.77    3.93
  -4 -22  -2   18.71    4.80
  22  -4  -2    6.80    3.39
   4  22  -2    1.35    2.77
   4  22   2    7.83    2.93
  22  -4   2    6.66    3.39
  -4 -22   2   12.93    4.49
  -4 -22   2    3.90    2.90
  22  -4   2    5.69    3.11
  22  -6  -2    7.90    3.71
  -6 -22  -2    3.62    3.45
  -6 -22  -2    6.97    5.24
  22  -6  -2    9.62    4.13
  22  -6   2    9.30    3.54
  -6 -22   2   12.80    4.92
   6  22   2    8.68    3.36
  22  -6   2    5.58    3.07
  -6 -22   2    4.47    3.30
  -1   0  -3    3.34    0.97
  -1   0  -3    3.34    0.97
   0  -1  -3    4.11    1.02
   0  -1  -3    2.37    1.29
   1   0  -3    3.15    1.13
   0   1  -3    3.77    0.98
   1   0  -3    2.51    1.24
  -1   0   3    4.86    1.29
   1   0   3    3.56    0.99
   0  -1   3    3.92    0.99
  -1   0   3    4.70    1.12
   0   1   3    1.88    0.99
   1   0   3    3.51    1.19
   0   1   3    3.15    1.34
   0  -1   3    5.06    1.13
   2   1  -3    1.62    1.03
   2   1  -3    2.33    1.24
  -2  -1  -3    0.98    0.88
   1  -2  -3    3.90    1.46
  -1   2  -3    1.73    0.68
  -2  -1  -3    0.17    0.60
  -1   2  -3    1.68    0.79
   1  -2  -3    2.18    0.87
   2   1   3    1.26    0.97
   2   1   3    3.65    1.21
  -2  -1   3    1.13    1.16
   1  -2   3    2.57    0.92
   1  -2   3    1.80    0.70
  -2  -1   3    1.65    1.15
  -1   2   3   -0.12    1.34
  -1   2   3    3.32    1.07
   2  -1  -3    1.74    1.20
  -1  -2  -3    2.42    1.32
  -1  -2  -3    1.26    1.05
  -2   1  -3    3.44    0.69
   2  -1  -3    2.08    1.00
  -2   1  -3    0.73    0.70
   1   2  -3    2.74    0.96
   2  -1   3    2.07    0.75
   2  -1   3    2.98    0.91
  -1  -2   3    3.35    1.13
   1   2   3    1.71    1.03
  -2   1   3    3.02    1.14
   1   2   3    1.46    1.24
  -2   1   3    2.28    1.34
  -1  -2   3    1.59    1.14
   3   2  -3   10.13    2.02
  -3  -2  -3   11.77    2.14
   2  -3  -3    9.01    2.18
   2  -3  -3    8.09    1.85
   3   2  -3   13.88    2.52
  -2   3   3    9.21    2.15
   3   2   3   10.17    2.11
   2  -3   3    9.37    1.84
   2  -3   3   13.28    1.75
  -3  -2   3   10.69    2.02
  -2   3   3    7.59    1.83
   3   2   3   12.25    1.94
   0   3  -3   57.59    7.87
   0  -3  -3   56.70    8.10
  -3   0  -3   53.22    7.82
   0  -3  -3   50.38    7.94
  -3   0  -3   49.80    7.87
   3   0  -3   53.65    7.98
   3   0  -3   45.70    8.01
   0   3   3   58.78    8.09
   0  -3   3   56.99    7.90
   3   0   3   54.79    7.85
  -3   0   3   48.47    7.99
   0   3   3   49.12    7.96
   3   0   3   51.64    7.93
   0  -3   3   54.07    7.92
  -3   0   3   49.38    8.01
   2   3  -3   12.55    2.26
   3  -2  -3    7.52    1.78
  -2  -3  -3   10.51    2.11
   3  -2  -3   10.45    2.02
  -2  -3  -3    9.09    2.04
   2   3   3   11.63    2.07
  -3   2   3    8.73    1.90
  -2  -3   3   11.45    2.22
   3  -2   3    9.83    1.61
   3  -2   3    9.16    1.65
   2   3   3   10.36    1.86
  -3   2   3    8.14    2.03
   4   3  -3    3.83    1.58
   3  -4  -3    5.30    1.72
  -4  -3  -3    6.00    1.40
   3  -4  -3    6.46    1.36
   4   3  -3    5.87    1.51
  -4  -3   3    5.76    1.69
   4   3   3    6.40    1.46
   4   3   3    5.31    1.64
  -4  -3   3    4.47    1.57
  -3   4   3    7.86    1.78
  -3   4   3    5.90    1.39
  -1   4  -3   19.09    2.69
   4   1  -3   21.37    3.19
  -4  -1  -3   18.88    2.80
  -1   4  -3   15.37    2.67
   4   1  -3   13.81    2.86
  -4  -1  -3   14.47    2.97
   1  -4  -3   21.20    3.41
   1  -4  -3   14.45    3.06
   4   1   3   15.81    2.90
  -4  -1   3   15.25    3.15
  -1   4   3   15.50    3.36
  -1   4   3   14.67    3.01
  -4  -1   3   18.77    3.22
   1  -4   3   18.57    2.80
   4   1   3   16.76    2.90
   1   4  -3   12.49    2.64
   4  -1  -3   16.76    3.02
  -1  -4  -3   17.16    2.96
   1   4  -3   19.39    2.90
   4  -1  -3   15.82    3.17
  -1  -4  -3   16.74    3.28
   4  -1   3   15.80    2.74
   1   4   3   15.60    3.01
   1   4   3   15.97    3.24
  -4   1   3   16.52    3.09
  -1  -4   3   15.70    3.01
  -4   1   3   16.07    3.09
   4  -1   3   17.55    2.60
  -1  -4   3   16.62    2.90
  -3  -4  -3    8.23    2.06
   3   4  -3    6.18    1.74
   4  -3  -3    6.90    1.54
   3   4  -3    5.96    1.69
   4  -3  -3    6.37    1.73
  -3  -4  -3    9.30    1.58
   3   4   3    6.80    1.81
  -3  -4   3    7.72    1.80
  -3  -4   3    5.23    1.59
  -4   3   3    5.01    1.69
  -4   3   3    6.35    1.53
   3   4   3    9.19    1.62
   4  -5  -3   64.07    9.68
   5   4  -3   60.85    9.56
  -5  -4  -3   63.92    9.51
  -5  -4  -3   60.69    9.62
   4  -5  -3   57.02    9.49
  -4   5   3   62.77    9.76
  -5  -4   3   72.76    9.70
   5   4   3   71.82    9.54
   5   4   3   54.49    9.59
  -4   5   3   65.16    9.87
  -5  -4   3   67.20    9.58
  -5  -2  -3   93.79   13.01
   5   2  -3   89.54   13.08
  -5  -2  -3   86.01   13.17
   2  -5  -3   81.99   13.03
   2  -5  -3   90.79   13.16
   5   2  -3   89.42   13.08
   2  -5   3   82.96   12.91
   2  -5   3   92.71   12.94
  -2   5   3   83.47   13.03
   5   2   3   80.98   13.05
  -5  -2   3   87.05   13.11
  -2   5   3   93.95   13.10
  -5  -2   3   84.50   13.06
   5   2   3   92.74   12.99
   0  -5  -3  308.33   46.61
   0  -5  -3  326.90   46.66
   5   0  -3  316.79   46.64
   0   5  -3  329.46   46.57
   5   0  -3  319.62   46.63
   0   5  -3  297.26   46.56
  -5   0  -3  313.76   46.56
  -5   0  -3  323.29   46.55
  -5   0   3  306.48   46.62
   5   0   3  328.65   46.56
   5   0   3  293.39   46.58
   0  -5   3  345.80   46.60
   0  -5   3  331.78   46.66
   0   5   3  332.40   46.66
  -5   0   3  313.52   46.63
   0   5   3  303.96   46.61
   5  -2  -3   85.01   13.08
  -2  -5  -3  100.88   13.18
   5  -2  -3   87.32   13.14
  -2  -5  -3   84.70   13.07
  -2  -5   3   82.67   13.05
   2   5   3   86.66   13.08
  -5   2   3   81.02   13.10
   5  -2   3   88.97   12.92
  -5   2   3   92.55   13.09
  -2  -5   3   99.56   13.12
   5  -2   3   83.70   12.93
   2   5   3   89.40   13.14
   5  -4  -3   56.90    9.53
   4   5  -3   59.46    9.55
  -4  -5  -3   61.96    9.54
   5  -4  -3   69.47    9.71
  -4  -5  -3   67.41    9.68
   4   5  -3   67.48    9.61
   4   5   3   61.16    9.56
   4   5   3   58.51    9.64
  -4  -5   3   66.06    9.65
  -4  -5   3   69.79    9.61
  -5   4   3   68.98   10.15
   5  -6  -3   22.13    3.67
   5  -6  -3   13.33    3.70
  -6  -5  -3   15.47    3.73
  -6  -5  -3   23.59    3.71
   6   5  -3   17.67    3.96
   6   5  -3   23.33    3.86
  -6  -5   3   28.78    4.18
  -6  -5   3   22.09    3.90
  -5   6   3   24.38    3.76
   6   5   3   28.05    3.84
   6   5   3   20.91    3.93
  -5   6   3   20.78    3.98
  -6  -3  -3    3.15    1.17
   3  -6  -3    2.75    1.22
   3  -6  -3    3.11    1.76
   6   3  -3    2.88    1.39
   6   3   3    4.96    1.45
   6   3   3    5.03    1.27
  -3   6   3    2.70    1.28
   3  -6   3    3.20    0.99
   3  -6   3    3.12    0.83
  -6  -3   3    2.81    1.69
  -6  -3   3    3.18    1.39
   1  -6  -3    3.35    1.33
  -1   6  -3    3.65    0.95
  -6  -1  -3    2.58    1.35
   6   1  -3    5.59    1.49
  -6  -1  -3    4.84    1.12
   1  -6  -3    3.48    1.73
  -1   6  -3    6.59    1.07
   6   1  -3    4.17    1.53
  -1   6   3    2.93    1.61
   1  -6   3    4.62    1.27
   6   1   3    4.18    1.23
  -6  -1   3    4.88    1.56
   6   1   3    3.69    1.37
  -6  -1   3    5.03    1.46
  -1   6   3    4.78    1.34
   1  -6   3    3.74    1.14
   6  -1  -3    4.67    1.41
  -1  -6  -3    5.59    1.41
   6  -1  -3    4.80    1.60
   1   6  -3    4.09    1.36
  -1  -6  -3    3.32    1.68
   6  -1   3    5.25    1.10
  -1  -6   3    3.16    1.47
   1   6   3    4.82    1.42
  -6   1   3    3.74    1.52
  -1  -6   3    4.29    1.28
   6  -1   3    2.93    1.20
   1   6   3    4.31    1.66
  -6   1   3    4.01    1.45
  -3  -6  -3    2.40    1.29
   3   6  -3    1.95    1.35
   6  -3  -3    1.66    1.47
   3   6  -3    2.59    1.20
  -3  -6  -3    5.33    1.71
   6  -3  -3    3.45    1.30
  -3  -6   3    3.68    1.56
   3   6   3    2.52    1.29
  -6   3   3   -1.20    1.60
   3   6   3    4.91    1.56
  -3  -6   3   -0.36    1.24
  -5  -6  -3   18.81    3.88
  -5  -6  -3   17.07    3.58
   6  -5  -3   19.28    3.95
   6  -5  -3   19.09    3.48
   5   6  -3   24.20    3.64
   5   6  -3   19.38    3.73
  -6   5   3   21.60    3.67
  -5  -6   3   24.78    3.69
   5   6   3   19.78    3.87
  -5  -6   3   24.16    3.89
   5   6   3   18.72    3.72
  -6   5   3   16.03    3.43
   6  -7  -3    6.51    1.96
   7   6  -3    9.99    2.20
   6  -7  -3   11.50    2.49
   7   6  -3   10.49    2.31
  -7  -6  -3   10.50    2.41
  -7  -6  -3    6.56    2.04
  -7  -6   3    8.84    2.21
   6  -7   3   14.18    1.76
   6  -7   3   10.51    1.94
  -6   7   3    8.92    2.18
   7   6   3   12.41    2.26
  -7  -6   3    9.57    2.48
   7   6   3    8.23    2.26
   7   4  -3   43.97    7.28
   4  -7  -3   47.19    7.15
  -7  -4  -3   49.91    7.15
   4  -7  -3   50.75    7.50
   7   4  -3   45.42    7.34
  -7  -4   3   44.86    7.28
   4  -7   3   44.93    6.94
  -4   7   3   44.25    7.14
  -4   7   3   45.09    7.32
   4  -7   3   48.02    7.01
  -7  -4   3   49.97    7.40
   7   4   3   44.14    7.27
   7   4   3   49.34    7.18
  -7  -2  -3   36.79    6.32
   2  -7  -3   34.73    6.28
  -2   7  -3   38.39    5.99
   7   2  -3   45.66    6.39
  -7  -2  -3   43.65    6.19
   7   2  -3   41.78    6.42
   2  -7  -3   42.28    6.53
  -2   7  -3   45.70    6.05
   2  -7   3   43.09    6.19
  -7  -2   3   40.16    6.50
   7   2   3   39.46    6.24
   7   2   3   36.15    6.31
   2  -7   3   37.50    6.10
  -2   7   3   34.73    6.27
  -7  -2   3   45.11    6.37
  -2   7   3   42.91    6.46
  -7   0  -3   92.18   13.92
   0   7  -3   87.44   13.91
  -7   0  -3   91.95   13.89
   7   0  -3  100.48   14.08
   0  -7  -3  102.41   14.14
   7   0  -3   96.40   14.04
   0  -7  -3   96.16   14.01
   7   0   3   87.10   13.97
  -7   0   3   93.05   14.07
   0  -7   3   98.25   14.02
  -7   0   3   97.95   14.21
   7   0   3   96.16   13.94
   0   7   3   95.05   14.09
   0   7   3   94.82   14.03
   2   7  -3   46.11    6.78
   7  -2  -3   43.44    6.89
   7  -2  -3   40.19    6.76
  -2  -7  -3   43.84    6.76
  -2  -7  -3   51.29    6.97
   7  -2   3   43.47    6.55
   2   7   3   49.07    6.91
   7  -2   3   39.71    6.57
  -7   2   3   47.42    6.87
  -7   2   3   42.51    7.36
  -2  -7   3   43.41    6.86
  -2  -7   3   42.54    6.69
   2   7   3   41.36    6.77
   4   7  -3   44.26    7.11
   4   7  -3   45.93    7.18
  -4  -7  -3   48.13    7.31
   7  -4  -3   44.08    7.10
   7  -4  -3   45.45    7.32
   4   7   3   46.43    7.24
  -4  -7   3   41.61    7.11
  -7   4   3   39.95    7.21
  -7   4   3   49.81    7.24
  -4  -7   3   53.19    7.29
   4   7   3   49.41    7.17
  -6  -7  -3   10.81    2.27
   6   7  -3    8.45    2.17
   7  -6  -3    7.73    1.95
  -6  -7  -3    7.73    1.93
   6   7  -3   10.14    2.06
   7  -6  -3   11.35    2.39
   6   7   3    5.61    2.16
  -6  -7   3   10.96    2.09
  -6  -7   3    7.93    2.33
  -7   6   3   10.10    2.07
   6   7   3    9.88    2.15
   7  -8  -3    2.79    1.30
  -8  -7  -3    0.19    1.79
   8   7  -3   -1.02    1.66
   8   7  -3    2.10    1.64
  -8  -7  -3    0.61    1.45
  -7   8   3    1.72    1.12
  -8  -7   3   -1.57    2.46
   8   7   3   -1.37    1.53
  -8  -7   3    2.85    1.98
  -7   8   3   -0.09    1.51
   7  -8   3    3.95    0.78
   8   7   3    3.36    1.72
   5  -8  -3    2.33    1.30
   8   5  -3    2.41    1.63
   8   5  -3    1.93    1.77
  -8  -5  -3   -1.03    1.32
   5  -8  -3    2.28    2.04
  -8  -5   3    0.38    2.41
  -8  -5   3    5.63    1.90
   8   5   3    0.46    1.49
   5  -8   3    4.12    0.82
   8   5   3    0.32    1.56
   5  -8   3    3.89    1.07
  -5   8   3    0.59    1.60
   3  -8  -3   10.90    2.50
   8   3  -3   10.73    2.19
  -8  -3  -3   10.73    1.96
   3  -8  -3    9.52    2.02
  -8  -3  -3   11.32    2.15
   3  -8   3   12.70    2.33
  -3   8   3   10.34    2.23
  -8  -3   3    9.35    2.43
  -3   8   3    9.46    2.52
   8   3   3    8.37    2.02
  -8  -3   3    8.46    2.20
   8   3   3    6.41    2.03
   3  -8   3   11.34    2.01
   8   1  -3    5.08    1.71
   8   1  -3    6.20    1.68
  -8  -1  -3    5.57    1.32
   1  -8  -3    5.55    2.03
   1  -8  -3    6.17    1.53
  -8  -1  -3    4.79    1.51
  -1   8  -3    4.44    1.15
   1  -8   3    4.88    1.31
  -1   8   3    6.00    1.55
   8   1   3    6.98    1.46
  -8  -1   3    2.86    1.61
   8   1   3    5.23    1.50
  -8  -1   3    3.90    1.89
   1  -8   3    7.45    1.64
  -1   8   3    2.88    1.83
   1   8  -3    4.94    1.56
  -1  -8  -3    7.09    2.01
  -1  -8  -3    6.83    1.58
   1   8  -3    3.20    1.27
   8  -1  -3    4.47    1.72
   8  -1  -3    4.61    1.63
  -8   1   3    1.15    1.72
   1   8   3    3.79    1.52
   1   8   3    4.56    2.80
  -1  -8   3    5.97    1.66
  -1  -8   3    6.11    1.48
  -8   1   3    6.73    1.62
   8  -1   3    5.37    1.32
   8  -1   3    4.37    1.38
  -3  -8  -3    8.35    1.98
   8  -3  -3    8.83    2.27
   8  -3  -3    8.00    1.90
  -3  -8  -3   11.09    2.36
   3   8  -3    8.72    2.01
   3   8   3    9.80    2.01
   3   8   3    6.46    2.10
  -3  -8   3   12.32    1.99
  -3  -8   3    8.34    2.15
  -8   3   3    7.81    2.02
   8  -3   3    8.29    1.59
  -8   3   3    8.64    2.13
   8  -3   3    9.76    1.91
   5   8  -3    1.33    1.39
   8  -5  -3    3.79    1.78
   5   8  -3    0.75    1.64
  -5  -8  -3    2.56    1.80
  -5  -8  -3   -1.28    1.49
   8  -5  -3    1.13    1.35
  -5  -8   3    4.97    1.94
   5   8   3    1.24    1.75
   5   8   3    2.36    1.52
   8  -5   3    4.73    0.90
  -8   5   3    7.66    1.68
  -5  -8   3    1.37    1.50
   7   8  -3    1.87    1.48
   8  -7  -3   -0.50    1.39
  -7  -8  -3    2.77    1.47
  -7  -8  -3    3.52    1.96
   8  -7  -3   -1.60    3.02
   7   8  -3    0.91    1.61
   8  -7   3    2.72    0.81
   8  -7   3    0.57    1.01
  -7  -8   3    2.44    1.93
  -8   7   3    3.21    1.43
   7   8   3    2.17    1.76
   7   8   3    3.50    1.71
  -7  -8   3    5.30    1.60
  -8   7   3    1.24    1.56
  -9  -8  -3   -2.05    1.90
   9   8  -3    2.30    1.76
   8  -9  -3    0.24    2.11
   8  -9  -3    1.29    1.40
   9   8  -3   -1.19    1.72
  -9  -8  -3    0.70    1.61
   9   8   3   -0.42    1.68
   8  -9   3    1.98    0.85
   8  -9   3    3.34    1.27
   9   8   3   -1.07    1.71
  -9  -8   3    2.26    1.66
  -8   9   3    3.37    1.67
  -9  -8   3   -2.04    2.31
  -8   9   3    2.46    1.55
  -9  -6  -3    7.91    2.54
   9   6  -3   10.41    2.53
  -9  -6  -3    7.72    2.26
   6  -9  -3   15.39    2.72
   6  -9  -3   16.11    3.30
   9   6  -3   11.58    2.52
   9   6   3    7.58    2.51
  -9  -6   3   10.49    2.75
  -9  -6   3   11.26    2.49
   9   6   3   15.30    2.48
   6  -9   3   15.22    2.50
   6  -9   3   16.31    2.17
  -6   9   3    8.85    2.49
   9   4  -3   47.56    8.53
   9   4  -3   54.78    8.51
  -9  -4  -3   51.45    8.35
   4  -9  -3   66.64    8.73
   4  -9  -3   55.90    8.37
  -4   9   3   56.78    8.42
  -9  -4   3   51.39    8.48
  -9  -4   3   59.31    8.64
  -4   9   3   55.23    8.50
   9   4   3   43.49    8.46
   9   4   3   59.96    8.43
   4  -9   3   63.63    8.42
   4  -9   3   53.20    8.20
   2  -9  -3   62.60    8.99
   9   2  -3   64.43    8.82
   2  -9  -3   55.37    8.69
  -9  -2  -3   55.34    8.63
   9   2  -3   60.31    8.81
  -9  -2  -3   49.72    8.70
  -2   9  -3   59.34    8.46
  -9  -2   3   62.51    8.91
  -2   9   3   60.09    8.68
  -9  -2   3   62.03    8.78
   9   2   3   45.78    8.72
   9   2   3   60.95    8.69
   2  -9   3   61.77    8.70
  -2   9   3   52.35    8.83
   2  -9   3   49.75    8.54
   0   9  -3  160.77   24.15
  -9   0  -3  164.08   24.12
   0  -9  -3  180.77   24.37
   0  -9  -3  170.22   24.24
   0   9  -3  167.42   24.19
   9   0  -3  161.44   24.25
   9   0  -3  167.69   24.29
  -9   0  -3  164.03   24.15
   0   9   3  158.88   24.29
   9   0   3  143.98   24.18
   0   9   3  170.49   24.25
   9   0   3  177.44   24.19
  -9   0   3  174.94   24.28
   0  -9   3  168.27   24.26
  -9   0   3  159.44   24.30
   0  -9   3  144.42   24.24
  -2  -9  -3   71.08    9.62
   9  -2  -3   60.45    9.50
   2   9  -3   65.30    9.39
   9  -2  -3   61.67    9.42
  -2  -9  -3   63.94    9.39
   2   9   3   62.35    9.41
   9  -2   3   67.86    9.23
  -2  -9   3   73.03    9.55
   9  -2   3   56.80    9.23
  -9   2   3   57.63    9.39
  -2  -9   3   56.83    9.31
   2   9   3   58.46    9.50
  -9   2   3   51.71    9.45
   4   9  -3   55.36    8.45
   9  -4  -3   58.99    8.47
   9  -4  -3   53.95    8.33
   4   9  -3   51.85    8.34
  -4  -9  -3   47.80    8.52
  -4  -9  -3   49.21    8.30
  -4  -9   3   63.01    8.58
  -9   4   3   58.20    8.40
   4   9   3   51.88    8.33
   9  -4   3   57.11    8.08
  -4  -9   3   47.28    8.27
   4   9   3   53.50    8.99
   9  -4   3   55.17    8.07
   6   9  -3    9.20    2.45
   9  -6  -3    9.91    2.24
  -6  -9  -3    6.96    2.31
   9  -6  -3   14.28    2.78
  -6  -9  -3   11.27    2.70
   6   9  -3   15.22    2.76
  -9   6   3   10.59    2.38
   6   9   3    7.98    2.45
   6   9   3   12.19    2.45
  -6  -9   3   10.29    2.35
  -6  -9   3   14.83    2.86
   9  -6   3   22.22    2.75
  -9   6   3    9.77    2.26
   8   9  -3   -0.96    1.74
   9  -8  -3    0.86    2.04
  -8  -9  -3   -1.51    1.98
   8   9  -3    1.23    1.73
   9  -8  -3    1.87    1.51
  -8  -9  -3    1.33    1.52
   8   9   3    0.27    1.80
  -8  -9   3   -1.29    2.38
  -9   8   3   -0.06    1.45
   9  -8   3    4.01    1.19
   9  -8   3    2.79    0.88
  -9   8   3   -0.87    1.46
  -8  -9   3    2.31    1.75
   8   9   3    1.88    1.88
  10   9  -3    9.52    2.51
  10   9  -3    9.71    2.50
 -10  -9  -3    9.85    2.43
 -10  -9  -3    8.72    2.72
   9 -10  -3   10.12    2.24
   9 -10  -3    8.27    2.85
   9 -10   3   11.47    2.20
  10   9   3   11.90    2.61
  10   9   3    8.13    2.52
  -9  10   3    4.99    2.38
 -10  -9   3   10.51    2.48
 -10  -9   3   11.73    3.21
   9 -10   3   12.71    2.15
  -9  10   3   10.97    2.33
 -10  -7  -3   11.20    3.08
  10   7  -3    7.30    2.58
   7 -10  -3   10.36    2.83
  10   7  -3    9.49    2.54
   7 -10  -3   16.47    2.80
 -10  -7  -3   12.53    2.42
  10   7   3   16.01    2.68
  -7  10   3    9.85    2.26
 -10  -7   3    7.81    2.46
  10   7   3    7.17    2.50
   7 -10   3   13.90    2.62
  -7  10   3   11.09    2.48
   7 -10   3   15.26    2.19
 -10  -7   3    9.57    2.89
 -10  -5  -3   15.31    3.06
  10   5  -3   12.65    2.84
  10   5  -3   12.76    3.74
   5 -10  -3   17.60    3.05
   5 -10  -3   15.64    3.22
 -10  -5   3    9.15    3.03
   5 -10   3   20.82    2.94
  -5  10   3   12.20    2.80
   5 -10   3   19.19    2.57
  10   5   3   14.32    2.82
 -10  -5   3   11.82    2.78
  10   5   3    9.20    2.74
 -10  -3  -3   13.69    3.72
   3 -10  -3   24.04    3.95
  -3  10  -3   23.06    3.45
 -10  -3  -3   24.94    3.88
  10   3  -3   22.38    4.11
   3 -10  -3   26.40    4.51
  10   3   3   28.71    4.03
  -3  10   3   21.60    3.85
 -10  -3   3   17.42    4.04
  10   3   3   18.48    4.00
   3 -10   3   24.66    3.87
  -3  10   3   17.15    3.76
 -10  -3   3   25.48    4.41
   3 -10   3   25.01    3.62
  10   1  -3    2.43    1.79
 -10  -1  -3    8.69    1.65
  -1  10  -3    3.94    1.29
   1 -10  -3    6.77    1.58
  -1  10  -3    6.72    1.59
   1 -10  -3    6.27    2.10
 -10  -1  -3    4.80    1.39
  10   1  -3    2.28    1.76
  -1  10   3    5.71    1.63
 -10  -1   3    4.51    1.72
 -10  -1   3    6.42    2.08
  10   1   3    8.00    1.67
  -1  10   3    3.55    1.83
   1 -10   3    4.87    1.42
  10   1   3    6.88    1.93
   1 -10   3    8.24    2.01
 -10   1  -3    6.57    1.27
   1  10  -3    4.17    1.45
  10  -1  -3    2.08    1.82
  -1 -10  -3    3.28    2.15
 -10   1  -3    6.82    1.20
  -1 -10  -3    4.26    1.71
   1  10  -3    9.12    1.78
  10  -1  -3    7.10    1.88
  -1 -10   3    5.09    2.30
  -1 -10   3    5.09    1.53
  10  -1   3    3.43    1.58
 -10   1   3    5.85    2.13
   1  10   3    6.61    1.75
   1  10   3    5.34    1.93
 -10   1   3    8.22    1.83
  10  -1   3    6.97    1.83
  -3 -10  -3   23.89    4.63
  10  -3  -3   19.29    4.12
  10  -3  -3   22.68    3.87
   3  10  -3   18.82    3.87
  -3 -10  -3   22.02    4.32
  -3 -10   3   14.20    3.70
  -3 -10   3   25.18    4.25
   3  10   3   22.02    4.12
  10  -3   3   17.56    3.51
   3  10   3   23.70    3.92
 -10   3   3   21.25    3.96
  10  -3   3   24.11    3.55
  10  -5  -3   16.66    3.18
  -5 -10  -3   14.09    3.14
  -5 -10  -3   16.73    3.30
  10  -5  -3   17.37    3.10
   5  10  -3   15.28    3.14
   5  10  -3    9.55    2.77
 -10   5   3   17.38    3.36
  -5 -10   3   14.66    3.18
   5  10   3   11.87    2.87
   5  10   3    7.32    2.77
  10  -5   3   17.62    2.65
  10  -5   3   18.39    2.67
  -5 -10   3   17.52    3.20
   7  10  -3    7.02    2.49
  10  -7  -3   12.48    2.79
  10  -7  -3   10.80    2.36
  -7 -10  -3    9.98    2.80
   7  10  -3   17.70    3.02
  -7 -10  -3    8.27    2.45
 -10   7   3    8.66    2.36
 -10   7   3   12.59    2.48
  10  -7   3   14.77    2.36
   7  10   3   11.84    2.56
  10  -7   3   15.11    2.23
   7  10   3    9.18    2.64
  -7 -10   3    9.82    2.48
  -7 -10   3   10.77    2.97
  10  -9  -3   10.17    2.27
   9  10  -3    8.30    2.51
  -9 -10  -3    8.46    2.37
   9  10  -3    6.88    2.43
  10  -9  -3   12.78    2.87
  -9 -10  -3    7.85    2.74
 -10   9   3    8.82    2.39
   9  10   3   10.53    2.73
  -9 -10   3    5.21    2.37
   9  10   3    7.47    2.61
  -9 -10   3   14.79    3.24
 -10   9   3    8.22    2.26
  10  -9   3   18.03    2.58
  10  -9   3   11.69    2.10
  11  10  -3   10.87    2.48
 -11 -10  -3    3.42    2.74
 -11 -10  -3    3.34    2.24
  10 -11  -3    5.39    2.13
  10 -11  -3   10.47    3.04
  11  10  -3    9.33    2.54
 -11 -10   3   10.25    3.38
 -10  11   3    5.45    2.36
  10 -11   3   10.14    1.75
 -11 -10   3    5.94    2.52
  11  10   3    8.82    2.64
  11  10   3    4.60    2.56
  10 -11   3   10.44    2.23
   8 -11  -3    8.31    2.51
  11   8  -3    7.01    2.19
 -11  -8  -3    4.60    2.25
   8 -11  -3    3.67    1.75
  11   8  -3    5.82    2.23
  11   8   3    7.55    2.15
 -11  -8   3    2.70    2.11
   8 -11   3    5.08    1.28
  11   8   3    1.72    2.01
  -8  11   3    4.80    1.96
  -8  11   3    2.80    1.78
 -11  -8   3    1.00    2.88
   8 -11   3    4.18    1.73
   6 -11  -3    2.48    2.44
   6 -11  -3    4.65    1.56
  11   6  -3    3.30    1.94
 -11  -6  -3    3.61    1.72
  11   6  -3    4.91    1.91
   6 -11   3    3.30    1.19
  11   6   3    3.61    1.85
   6 -11   3    7.16    1.70
  -6  11   3    3.05    1.45
 -11  -6   3    0.85    2.34
 -11  -6   3    2.65    1.83
  11   6   3    5.38    1.97
  -6  11   3    4.20    1.92
  11   4  -3    5.68    2.03
 -11  -4  -3    4.40    1.71
   4 -11  -3    5.11    1.77
   4 -11  -3    7.53    2.40
 -11  -4  -3    7.67    2.03
  11   4  -3    9.19    2.20
   4 -11   3    6.74    1.47
 -11  -4   3    2.58    1.85
  -4  11   3    6.12    2.09
  11   4   3    5.86    1.94
   4 -11   3    5.19    1.81
  11   4   3    8.59    1.95
 -11  -4   3    7.74    2.32
  11   2  -3    0.54    1.76
 -11  -2  -3    5.43    1.68
  -2  11  -3    3.10    1.40
   2 -11  -3    4.57    1.43
  -2  11  -3    3.29    1.03
   2 -11  -3    2.64    2.18
 -11  -2  -3    0.18    1.30
  11   2  -3    1.92    1.80
  11   2   3    3.59    1.61
  -2  11   3    4.47    1.77
  -2  11   3    3.08    1.48
   2 -11   3    6.15    1.64
 -11  -2   3    3.03    2.06
   2 -11   3    3.47    1.30
 -11  -2   3    3.87    1.70
   0  11  -3   10.33    2.12
  11   0  -3    8.46    2.40
 -11   0  -3    9.56    2.05
   0 -11  -3   17.36    2.94
 -11   0  -3   11.70    2.25
   0 -11  -3   10.77    2.32
   0  11  -3   11.94    2.38
  11   0  -3   14.87    2.60
 -11   0   3   13.12    4.14
   0 -11   3   13.73    2.30
   0  11   3   14.59    2.57
   0  11   3   12.00    2.36
   0 -11   3   15.95    2.64
  11   0   3   12.00    2.33
 -11   0   3    7.19    2.38
  11   0   3   13.84    2.37
   2  11  -3    2.87    1.67
  -2 -11  -3    4.22    2.23
  -2 -11  -3    6.05    1.62
  11  -2  -3    7.61    2.24
   2  11  -3    2.64    1.40
  11  -2  -3    6.58    1.75
  -2 -11   3    4.70    1.87
  11  -2   3    2.76    1.45
 -11   2   3    3.59    1.64
  -2 -11   3    5.82    1.64
   2  11   3    5.13    1.77
  11  -2   3    3.29    1.45
   2  11   3    3.93    2.05
  -4 -11  -3    6.26    1.89
  11  -4  -3    8.49    2.25
  -4 -11  -3    4.96    2.29
   4  11  -3    8.03    2.09
   4  11  -3    7.32    1.75
  11  -4  -3    7.70    1.87
  -4 -11   3   11.11    2.53
   4  11   3    4.65    1.88
  11  -4   3    6.61    1.68
  11  -4   3    8.41    1.57
 -11   4   3    3.71    1.99
 -11   4   3    7.24    2.02
  -4 -11   3    4.27    1.84
   4  11   3    5.33    2.05
   6  11  -3    3.71    1.75
   6  11  -3    4.70    1.91
  -6 -11  -3    4.66    1.73
  -6 -11  -3    4.55    2.25
  11  -6  -3    3.78    1.74
  11  -6  -3    4.39    2.21
  -6 -11   3    0.69    2.74
   6  11   3    4.43    1.98
 -11   6   3    7.02    2.75
  -6 -11   3    3.88    1.78
   6  11   3    1.33    1.84
  11  -6   3    3.77    1.33
   8  11  -3    4.12    1.99
  -8 -11  -3    3.36    1.84
   8  11  -3    5.06    1.98
  11  -8  -3    1.14    2.32
  -8 -11  -3    2.34    2.46
  11  -8  -3    1.59    1.73
   8  11   3    7.56    2.19
   8  11   3    3.96    2.19
  11  -8   3    3.40    1.48
 -11   8   3    6.01    1.91
  -8 -11   3    1.75    3.15
  -8 -11   3    6.83    2.05
  11  -8   3    4.37    1.30
 -10 -11  -3    4.30    2.82
  10  11  -3    3.48    2.46
 -10 -11  -3    9.11    3.81
  10  11  -3    9.67    2.49
  11 -10  -3   15.54    3.04
  11 -10  -3    7.32    2.29
 -10 -11   3    8.75    3.32
  11 -10   3    8.65    2.08
  10  11   3    5.87    2.72
 -10 -11   3    5.70    2.44
 -11  10   3    7.86    2.38
  11 -10   3   10.32    1.77
  10  11   3    6.23    2.51
  12  11  -3    7.82    2.72
  12  11  -3    7.50    2.65
 -12 -11  -3    9.64    3.16
 -12 -11  -3    2.92    2.60
  11 -12  -3    6.48    2.43
  11 -12  -3   12.19    3.24
  12  11   3    1.24    2.65
  12  11   3   10.52    2.93
  11 -12   3   10.40    1.85
 -12 -11   3   10.73    3.76
  11 -12   3    7.73    2.48
 -11  12   3    8.15    2.44
 -12 -11   3    7.02    2.80
   9 -12  -3   23.20    3.99
  12   9  -3   16.33    3.71
 -12  -9  -3   22.61    4.22
  12   9  -3   15.02    3.70
 -12  -9  -3   16.71    3.96
   9 -12  -3   26.38    4.27
 -12  -9   3   14.58    3.80
  -9  12   3   20.90    4.24
 -12  -9   3   22.19    4.45
  12   9   3   25.22    4.50
   9 -12   3   26.01    4.03
  12   9   3   16.70    3.88
   9 -12   3   18.49    3.40
  12   7  -3   14.95    3.66
 -12  -7  -3   18.92    4.14
 -12  -7  -3   13.86    3.51
   7 -12  -3   24.59    3.84
   7 -12  -3   30.91    5.02
  12   7  -3   22.27    4.23
  12   7   3   24.88    4.33
  -7  12   3   17.91    3.60
   7 -12   3   21.20    3.38
 -12  -7   3   20.17    4.20
   7 -12   3   21.44    3.88
 -12  -7   3   22.04    4.28
  12   7   3   11.74    3.63
  -7  12   3   27.55    3.96
  12   5  -3   32.21    5.24
   5 -12  -3   36.88    4.88
   5 -12  -3   33.45    5.64
 -12  -5  -3   29.30    5.03
  12   5  -3   28.19    5.47
 -12  -5  -3   29.96    5.10
  -5  12   3   16.57    4.51
   5 -12   3   43.93    5.00
  12   5   3   34.16    5.08
  -5  12   3   27.27    5.54
  12   5   3   25.86    5.04
   5 -12   3   23.84    4.54
 -12  -5   3   29.95    5.14
 -12  -5   3   28.57    5.50
   3 -12  -3   20.14    4.05
 -12  -3  -3   30.38    4.31
  -3  12  -3   22.58    3.64
   3 -12  -3   26.98    4.37
 -12  -3  -3   21.60    4.29
  12   3  -3   23.79    4.57
  -3  12   3   29.95    4.11
   3 -12   3   19.19    3.82
  12   3   3   20.46    4.18
 -12  -3   3   13.82    3.87
  12   3   3   34.82    4.28
 -12  -3   3   21.53    4.22
   3 -12   3   22.97    4.23
  -3  12   3   22.82    4.39
  -1  12  -3    9.18    1.77
  12   1  -3   11.20    2.61
  12   1  -3    6.85    2.23
 -12  -1  -3    6.71    1.81
 -12  -1  -3    8.20    1.99
  -1  12  -3   13.05    2.04
   1 -12  -3    6.87    1.98
  -1  12   3    5.80    2.23
 -12  -1   3    4.17    2.48
  -1  12   3    8.13    2.00
   1 -12   3    9.27    1.88
  12   1   3    7.04    2.02
  12   1   3   12.95    2.21
   1 -12   3    9.76    2.27
 -12  -1   3    7.14    2.16
  12  -1  -3    4.61    2.10
   1  12  -3   10.38    1.88
 -12   1  -3    6.08    1.52
   1  12  -3    5.06    2.04
  -1 -12  -3   11.16    2.10
  -1 -12  -3    7.14    2.52
 -12   1  -3   11.78    2.06
  12  -1  -3   12.54    2.33
  -1 -12   3   12.92    2.46
  -1 -12   3    5.06    1.92
  12  -1   3   10.83    2.03
  12  -1   3    5.99    1.96
 -12   1   3    7.51    2.17
   1  12   3    7.47    2.37
   1  12   3    8.62    2.01
  -3 -12  -3   21.59    4.27
   3  12  -3   24.46    4.40
  12  -3  -3   25.73    4.36
  -3 -12  -3   29.06    4.90
  12  -3  -3   24.98    4.52
  12  -3   3   27.37    4.04
  -3 -12   3   23.37    4.73
 -12   3   3   17.34    3.99
 -12   3   3   21.21    4.40
  -3 -12   3   20.14    4.18
   3  12   3   16.27    4.04
   3  12   3   26.22    4.39
  12  -3   3   30.11    3.99
  -5 -12  -3   33.16    5.36
  -5 -12  -3   26.35    5.75
  12  -5  -3   37.80    5.63
   5  12  -3   24.26    5.40
  12  -5  -3   31.01    5.33
   5  12  -3   30.46    5.32
  12  -5   3   32.61    4.98
   5  12   3   36.79    5.40
  -5 -12   3   34.43    5.83
   5  12   3   21.38    5.39
 -12   5   3   31.22    5.53
  -5 -12   3   31.35    5.26
  12  -5   3   34.72    4.99
 -12   5   3   24.13    5.34
  -7 -12  -3   17.32    3.79
   7  12  -3   12.93    3.37
  12  -7  -3   27.96    4.51
   7  12  -3   25.26    3.88
  12  -7  -3   16.80    3.30
  -7 -12  -3   23.51    4.01
  12  -7   3   22.42    3.25
   7  12   3   24.10    4.13
  -7 -12   3   13.04    3.29
  -7 -12   3   19.94    3.91
  12  -7   3   17.16    3.25
   7  12   3   15.86    3.50
 -12   7   3   10.57    3.21
  -9 -12  -3   21.67    4.35
   9  12  -3   22.24    4.29
  -9 -12  -3   18.37    4.18
  12  -9  -3   14.85    3.60
  12  -9  -3   30.60    4.92
   9  12   3   24.99    5.10
  -9 -12   3   13.59    3.73
  12  -9   3   23.01    3.49
  -9 -12   3   32.62    5.49
  12  -9   3   21.85    3.73
   9  12   3   11.96    3.71
  11  12  -3   11.98    2.74
 -11 -12  -3    7.48    3.25
  12 -11  -3   11.78    3.11
  11  12  -3    3.41    2.96
  12 -11  -3    6.54    2.42
 -11 -12  -3    6.15    2.64
  11  12   3    7.60    2.93
 -11 -12   3    4.20    2.73
  12 -11   3    8.10    1.86
  11  12   3    4.35    2.81
  12 -11   3   11.83    2.35
 -11 -12   3   12.10    3.72
  13  12  -3   -0.35    2.64
 -13 -12  -3    8.53    3.02
  12 -13  -3    2.49    2.11
  13  12  -3    4.11    2.47
  12 -13  -3   -2.10    3.06
 -13 -12   3   -1.02    2.66
 -13 -12   3   -1.39    4.26
  12 -13   3    2.49    1.91
  13  12   3    1.61    2.57
  13  12   3    0.22    2.75
 -12  13   3    1.13    2.19
  12 -13   3    3.31    2.21
 -13 -10  -3    5.49    2.76
  13  10  -3    3.74    2.40
  13  10  -3    2.01    2.96
  10 -13  -3    7.38    3.07
  10 -13  -3    5.29    2.05
  10 -13   3    2.04    2.19
 -13 -10   3    9.93    3.67
  13  10   3    8.69    2.84
  13  10   3    0.08    2.40
 -13 -10   3   10.39    3.44
 -10  13   3    3.73    2.21
  10 -13   3    1.84    1.45
   8 -13  -3    3.75    1.83
 -13  -8  -3    6.35    2.36
   8 -13  -3    6.50    2.92
  13   8  -3    7.39    3.70
  13   8  -3    1.94    2.25
 -13  -8  -3    5.54    2.77
  13   8   3    5.50    2.47
  -8  13   3    4.42    2.01
 -13  -8   3    7.51    3.24
  13   8   3    5.96    2.41
 -13  -8   3    3.46    2.41
   8 -13   3    3.35    1.49
   8 -13   3    5.33    2.14
  13   6  -3    5.89    2.44
   6 -13  -3    9.00    2.91
 -13  -6  -3    5.34    2.11
 -13  -6  -3    3.53    1.96
   6 -13  -3    5.82    1.92
  13   6  -3    2.38    2.23
 -13  -6   3    4.19    3.04
  13   6   3    8.99    2.41
  -6  13   3    3.20    1.77
 -13  -6   3    3.40    2.18
   6 -13   3    6.98    1.54
  -6  13   3    6.23    2.17
   6 -13   3    9.45    2.07
  13   6   3    3.62    2.12
  -4  13  -3    6.75    1.20
 -13  -4  -3    5.69    1.95
 -13  -4  -3    5.38    2.16
   4 -13  -3    3.03    1.80
   4 -13  -3    3.39    2.75
  13   4  -3    8.26    2.26
  13   4   3    5.83    2.07
  -4  13   3    7.31    2.22
   4 -13   3    7.31    1.54
 -13  -4   3    3.99    2.08
  13   4   3    2.26    1.99
 -13  -4   3    6.37    2.60
   4 -13   3    6.88    2.09
  13   2  -3    1.88    1.91
   2 -13  -3    6.45    2.37
   2 -13  -3    2.20    1.62
  -2  13  -3    4.12    2.05
 -13  -2  -3    2.16    1.56
 -13  -2  -3    1.04    1.78
  13   2  -3    4.07    1.98
  -2  13  -3    3.26    1.55
  -2  13   3    3.64    2.18
   2 -13   3    6.10    2.01
  13   2   3    2.65    1.79
 -13  -2   3    2.66    2.17
 -13  -2   3    2.87    1.84
   2 -13   3    1.86    1.38
  13   2   3   -0.37    1.93
  -2  13   3    2.87    2.50
  13   0  -3    1.84    1.85
   0  13  -3    1.99    1.22
   0  13  -3    0.85    1.56
 -13   0  -3    2.27    1.43
   0 -13  -3   -0.86    1.42
  13   0  -3    0.17    1.86
   0 -13  -3    1.59    2.31
   0  13   3   -0.31    1.50
  13   0   3    0.79    1.58
  13   0   3    2.89    1.58
   0 -13   3    0.21    1.95
   0  13   3    3.66    2.05
 -13   0   3   -3.29    2.02
 -13   0   3    0.90    1.88
   0 -13   3    2.29    1.38
   2  13  -3    2.52    1.51
  -2 -13  -3    4.40    2.46
  13  -2  -3    4.71    2.13
  13  -2  -3    4.04    1.87
   2  13  -3    3.49    1.87
   2  13   3    8.14    1.82
 -13   2   3   -0.78    1.22
  -2 -13   3    4.88    1.65
  13  -2   3    4.17    1.67
  13  -2   3    3.71    1.59
  -2 -13   3    1.87    2.15
   2  13   3    4.71    1.95
 -13   2   3    2.69    2.05
  -4 -13  -3    4.55    2.63
  13  -4  -3    3.30    2.08
  -4 -13  -3    7.80    2.15
   4  13  -3    4.46    2.18
  13  -4  -3    7.89    2.45
  -4 -13   3    3.93    1.93
 -13   4   3    8.78    2.66
   4  13   3    9.30    2.17
  -4 -13   3    8.81    2.71
   4  13   3    5.94    2.22
 -13   4   3    7.07    2.19
  13  -4   3    8.05    1.87
  13  -4   3    6.33    1.79
   6  13  -3    2.12    2.24
  13  -6  -3    9.82    2.62
   6  13  -3    2.84    1.90
  13  -6  -3    8.78    2.18
  -6 -13  -3    4.82    2.73
  -6 -13  -3    5.50    2.18
 -13   6   3    7.26    2.14
 -13   6   3    4.49    2.54
  13  -6   3    6.69    1.72
   6  13   3    3.61    2.17
   6  13   3    4.71    2.26
  -6 -13   3    7.35    2.82
  -6 -13   3    1.73    1.99
  13  -8  -3   11.09    2.93
   8  13  -3    5.65    2.20
  13  -8  -3    2.52    2.14
  -8 -13  -3    5.35    2.82
  -8 -13  -3    3.74    2.17
   8  13  -3    4.95    2.31
  -8 -13   3    7.07    3.29
  13  -8   3    3.14    1.60
  13  -8   3    6.49    1.80
   8  13   3    5.33    2.44
  -8 -13   3    5.25    2.19
 -13   8   3    4.61    2.73
   8  13   3    3.18    2.37
 -10 -13  -3    3.46    2.43
  10  13  -3    2.79    2.44
  13 -10  -3    5.75    2.33
  13 -10  -3   11.79    3.16
 -10 -13  -3   -0.06    2.90
  10  13  -3    5.00    2.49
 -13  10   3    3.82    3.35
  10  13   3    7.61    2.69
  13 -10   3    4.48    1.99
 -10 -13   3    4.13    2.45
 -10 -13   3    3.26    3.55
  10  13   3    8.98    2.82
  13 -10   3    4.28    1.67
  13 -12  -3    3.81    2.34
  13 -12  -3    6.58    3.13
  12  13  -3    1.50    2.60
 -12 -13  -3   -1.11    3.10
  12  13  -3    4.24    2.56
  12  13   3    2.95    3.01
 -12 -13   3   -3.19    3.63
 -12 -13   3    0.79    2.58
  13 -12   3    2.12    2.10
  12  13   3    0.62    2.54
  13 -12   3   -0.55    2.52
  13 -14  -3   -0.73    3.46
  13 -14  -3    6.19    4.19
 -14 -13  -3    3.64    3.38
  14  13  -3    4.44    2.92
  13 -14   3   -2.74    2.36
 -14 -13   3    3.55    3.28
  13 -14   3    3.45    1.68
 -14 -13   3    5.42    3.98
  14  13   3   -1.63    2.66
  14  13   3   -2.85    3.01
  11 -14  -3    3.71    3.32
  14  11  -3    5.09    2.74
  14  11  -3    2.00    3.98
  11 -14  -3    2.07    2.08
 -14 -11  -3    5.71    2.82
  11 -14   3    1.23    1.52
  14  11   3    7.82    2.92
 -11  14   3    2.08    2.36
 -14 -11   3    2.70    2.77
 -14 -11   3    3.55    3.82
  14  11   3   -1.50    2.40
  11 -14   3    6.19    2.41
   9 -14  -3   13.83    2.67
   9 -14  -3   11.00    3.62
 -14  -9  -3    1.78    4.14
  14   9  -3   12.19    3.12
  14   9  -3    9.08    2.91
 -14  -9   3    5.92    3.02
   9 -14   3   10.46    2.19
  -9  14   3   12.98    2.72
   9 -14   3   14.00    2.84
  14   9   3    8.93    3.15
 -14  -9   3   14.36    4.19
  14   9   3   11.20    3.01
   7 -14  -3   23.32    3.86
  14   7  -3    8.62    3.15
   7 -14  -3   20.21    3.48
  14   7  -3   11.54    3.29
  -7  14   3   22.17    3.58
  14   7   3   10.54    3.02
 -14  -7   3    8.79    3.15
 -14  -7   3   10.62    3.90
   7 -14   3   14.29    2.84
   7 -14   3   15.34    2.98
  14   7   3   11.00    3.23
   5 -14  -3   23.23    4.11
  14   5  -3   29.45    4.74
 -14  -5  -3   16.41    3.96
   5 -14  -3   33.88    5.40
 -14  -5   3   23.58    4.58
  -5  14   3   21.42    4.06
   5 -14   3   20.30    3.77
  14   5   3   21.25    4.35
  14   5   3   27.09    4.54
 -14  -5   3   18.34    4.07
   5 -14   3   29.50    4.60
  -5  14   3   12.20    4.18
  14   3  -3   22.01    4.00
 -14  -3  -3   21.01    4.33
 -14  -3  -3   21.80    4.13
   3 -14  -3   20.97    3.98
  -3  14  -3   24.08    3.53
   3 -14  -3   32.14    5.18
  14   3  -3   15.27    3.89
  14   3   3   28.49    4.30
 -14  -3   3   14.55    3.79
 -14  -3   3   17.82    4.12
  -3  14   3   15.88    3.92
  14   3   3   19.31    4.12
   3 -14   3   26.16    4.46
   3 -14   3   20.77    3.72
   1 -14  -3   14.11    3.58
 -14  -1  -3   12.48    2.72
  14   1  -3   11.68    3.11
  14   1  -3   16.62    3.19
  -1  14  -3   18.16    3.07
 -14  -1  -3   16.39    3.94
  -1  14  -3   14.89    2.92
   1 -14  -3   17.50    2.99
  -1  14   3   15.07    2.94
 -14  -1   3   18.23    3.61
  14   1   3   19.69    3.67
   1 -14   3   15.44    2.98
  -1  14   3    9.44    3.21
  14   1   3   12.09    2.94
 -14  -1   3   12.69    3.11
   1 -14   3   21.20    3.36
  -1 -14  -3   15.61    3.67
   1  14  -3   19.22    3.14
  14  -1  -3   11.56    3.10
  14  -1  -3   13.13    3.10
 -14   1  -3   17.09    2.82
   1  14  -3   13.85    2.74
 -14   1  -3   16.12    3.02
  -1 -14  -3   12.72    2.94
 -14   1   3   12.28    2.99
  -1 -14   3   13.68    2.80
   1  14   3   17.35    3.02
  14  -1   3   13.65    2.99
  -1 -14   3   15.00    3.46
  14  -1   3   18.21    3.02
   3  14  -3   17.16    3.74
   3  14  -3   24.32    4.52
  -3 -14  -3   32.71    5.13
  14  -3  -3   17.81    3.95
  -3 -14  -3   20.19    4.29
  14  -3  -3   22.72    4.35
   3  14   3   31.09    4.47
   3  14   3   16.41    3.89
  14  -3   3   29.23    4.00
  -3 -14   3   14.30    3.64
 -14   3   3   20.45    4.10
  -3 -14   3   27.24    4.85
  14  -3   3   22.12    4.02
 -14   3   3   18.29    3.87
   5  14  -3   22.41    4.29
  -5 -14  -3   15.72    4.10
  -5 -14  -3   16.98    3.74
  14  -5  -3   17.71    3.74
  14  -5  -3   31.55    4.75
   5  14  -3   17.02    3.86
  -5 -14   3   23.17    4.27
  -5 -14   3   14.73    3.64
   5  14   3   29.33    4.45
  14  -5   3   30.76    3.88
   5  14   3   13.29    3.80
 -14   5   3   24.29    4.24
  -7 -14  -3   13.27    3.13
  14  -7  -3   13.94    3.09
  14  -7  -3   10.54    3.47
   7  14  -3   10.95    2.93
  -7 -14  -3    9.70    3.64
   7  14  -3    9.30    3.21
  14  -7   3   22.88    3.15
   7  14   3   11.60    3.24
 -14   7   3   18.14    3.55
  -7 -14   3   10.70    3.87
   7  14   3    9.52    3.13
  14  -7   3   19.50    3.24
  -7 -14   3   16.11    4.18
  -9 -14  -3    6.91    3.94
  -9 -14  -3    6.04    3.40
   9  14  -3   12.44    2.88
  14  -9  -3   12.91    3.39
   9  14  -3   11.33    3.21
  14  -9  -3   10.18    2.81
 -14   9   3   20.95    4.76
  -9 -14   3   11.86    3.99
   9  14   3   17.38    4.77
  14  -9   3   11.33    2.29
   9  14   3    2.99    2.93
  14  -9   3   11.48    2.42
  -9 -14   3    7.88    2.83
 -11 -14  -3    0.88    4.07
  14 -11  -3    1.74    2.51
 -11 -14  -3    3.97    3.37
  14 -11  -3    7.57    3.18
  11  14  -3    5.70    2.59
 -11 -14   3    9.20    3.92
  11  14   3    1.96    2.68
 -11 -14   3    5.03    2.61
  14 -11   3    3.56    2.08
  11  14   3    2.68    2.84
  14 -11   3    0.92    1.88
 -14  11   3    4.19    3.01
  14 -13  -3    4.31    2.89
 -13 -14  -3   -0.07    3.22
  14 -13  -3    0.44    3.35
  13  14  -3    3.90    2.82
  13  14   3   -1.68    3.03
  14 -13   3    1.63    1.74
 -13 -14   3    1.46    2.77
  14 -13   3   -2.18    2.21
 -13 -14   3    1.90    3.90
 -14  13   3    3.80    3.11
  13  14   3    1.78    2.67
  15  14  -3    5.19    3.13
  14 -15  -3   -0.34    2.56
 -15 -14  -3    2.07    3.43
  14 -15  -3    1.90    3.69
  15  14   3    0.26    2.96
 -14  15   3    4.06    3.74
 -15 -14   3    0.22    4.17
  14 -15   3    3.30    1.83
  14 -15   3   -0.79    2.54
  15  14   3   -8.36    3.38
  15  12  -3    2.45    2.82
 -15 -12  -3    3.06    3.12
  12 -15  -3    5.35    2.36
  15  12  -3    0.37    2.57
  12 -15  -3   -1.10    3.59
  15  12   3    1.83    3.15
  15  12   3   -1.73    2.63
  12 -15   3    3.57    1.96
 -15 -12   3    2.90    4.20
  12 -15   3    3.43    2.51
 -12  15   3   -1.42    2.34
  15  10  -3    4.51    2.58
  10 -15  -3    2.52    3.36
 -15 -10  -3   -1.50    2.76
  10 -15  -3   -0.84    1.95
  15  10  -3    0.97    2.39
  10 -15   3   -1.36    1.44
  10 -15   3    2.09    2.40
 -10  15   3   -1.89    2.74
  15  10   3    1.80    2.50
  15  10   3    1.34    2.76
 -15 -10   3  -11.32    3.63
   8 -15  -3    2.17    3.24
  15   8  -3   -1.38    2.42
   8 -15  -3    2.64    1.94
  15   8  -3    1.13    2.55
   8 -15   3   -0.66    2.18
 -15  -8   3   -2.32    3.48
   8 -15   3   -0.35    1.38
  -8  15   3    1.31    2.07
  15   8   3   -1.18    2.33
 -15  -8   3    0.36    2.64
  15   8   3    4.12    2.71
  15   6  -3   -2.31    2.32
   6 -15  -3   -3.32    3.05
   6 -15  -3    1.14    1.73
 -15  -6  -3    0.14    2.30
  15   6  -3   -3.27    2.25
  -6  15   3    0.18    1.83
   6 -15   3    0.19    1.33
  15   6   3    0.24    2.35
   6 -15   3    0.92    2.07
 -15  -6   3    0.04    3.12
  15   6   3   -1.27    2.06
 -15  -6   3   -1.14    2.27
  -4  15  -3    0.66    1.01
   4 -15  -3   -0.56    1.68
  15   4  -3   -0.49    2.25
 -15  -4  -3    0.36    2.11
   4 -15  -3   -0.05    2.86
  -4  15   3    0.04    1.42
 -15  -4   3   -3.51    2.79
   4 -15   3    1.83    1.40
 -15  -4   3   -0.29    2.13
   4 -15   3    2.80    2.43
  15   4   3    1.96    2.23
  15   4   3   -2.39    1.99
   2 -15  -3    4.01    1.74
  15   2  -3    1.74    2.25
   2 -15  -3    6.58    2.83
  -2  15  -3    2.91    1.36
  15   2  -3    3.52    2.29
 -15  -2  -3    2.75    3.20
   2 -15   3    1.48    1.51
 -15  -2   3   -1.25    2.04
   2 -15   3    0.29    2.25
  -2  15   3    2.63    2.26
  15   2   3    3.80    2.06
  15   2   3    4.12    2.16
  -2  15   3    1.39    1.73
  15   0  -3    5.12    2.27
   0  15  -3    3.89    1.72
   0 -15  -3    2.69    1.99
 -15   0  -3    6.36    1.91
 -15   0  -3    4.34    1.65
  15   0  -3    6.66    2.43
   0 -15  -3   11.89    3.15
   0  15   3    3.69    2.25
   0 -15   3    2.91    1.71
 -15   0   3    6.24    2.29
   0 -15   3    9.79    2.71
  15   0   3    8.09    2.20
  15   0   3    4.14    2.17
   0  15   3    5.38    1.96
  15  -2  -3    1.26    2.17
  -2 -15  -3   -2.11    1.74
  -2 -15  -3    3.85    2.98
   2  15  -3    5.30    1.67
  15  -2  -3    1.72    2.30
  15  -2   3    4.20    2.03
   2  15   3    2.01    2.18
  15  -2   3   -0.27    2.00
  -2 -15   3    3.21    1.68
  -2 -15   3    6.83    2.80
 -15   2   3    0.36    2.39
   2  15   3    6.26    1.96
  15  -4  -3   -0.89    2.09
  -4 -15  -3   -0.73    2.85
  15  -4  -3   -0.35    2.36
  -4 -15  -3   -1.54    2.07
  -4 -15   3   -0.06    1.73
  -4 -15   3    0.22    2.64
   4  15   3    1.21    2.10
 -15   4   3    0.45    2.41
  15  -4   3    1.55    1.77
  15  -4   3    0.73    1.96
   4  15   3    0.10    2.21
  -6 -15  -3   -3.42    2.01
  15  -6  -3    0.56    2.28
   6  15  -3   -0.75    1.89
  15  -6  -3   -1.61    2.60
  -6 -15  -3    1.32    2.80
  15  -6   3   -2.26    1.66
  -6 -15   3    1.34    2.01
  -6 -15   3   -1.03    2.85
  15  -6   3   -2.57    1.71
 -15   6   3   -1.93    2.88
   6  15   3   -0.25    2.73
   6  15   3   -0.49    2.15
  -8 -15  -3    4.05    3.32
  15  -8  -3   -1.27    2.24
  15  -8  -3    0.70    2.77
   8  15  -3   -0.97    2.13
  -8 -15  -3   -0.47    2.22
  -8 -15   3    4.42    3.31
   8  15   3   -2.38    2.43
  15  -8   3   -0.80    1.70
  -8 -15   3    3.94    2.19
   8  15   3   -4.60    3.88
  15  -8   3    4.73    1.91
 -15   8   3   -8.67    5.79
  10  15  -3    2.36    2.33
 -10 -15  -3   -0.95    3.17
  15 -10  -3   -2.63    2.48
 -10 -15  -3    1.65    2.56
  15 -10  -3   -0.52    3.07
 -10 -15   3   -1.05    2.40
  15 -10   3   -0.24    1.89
 -10 -15   3   -1.52    3.47
  15 -10   3   -4.33    2.06
  10  15   3   -3.55    2.74
 -15  10   3    1.38    3.12
  10  15   3   -3.82    4.52
  15 -12  -3   -2.82    2.60
  12  15  -3    2.34    2.70
  15 -12  -3    0.70    3.39
 -12 -15  -3   -3.87    3.26
 -15  12   3   -3.71    3.12
  15 -12   3    0.17    2.23
  12  15   3    3.36    3.05
  12  15   3    2.22    2.96
  15 -12   3    0.60    1.83
 -12 -15   3    0.72    3.95
 -12 -15   3    3.03    5.46
  15 -14  -3    2.48    2.71
 -14 -15  -3   -0.45    3.63
  15 -14  -3    0.65    3.68
  14  15  -3    1.38    3.16
  15 -14   3    1.87    1.92
 -14 -15   3   -2.63    4.24
  15 -14   3   -1.45    2.37
  14  15   3   -0.31    2.96
  14  15   3   -2.15    3.38
 -15  14   3    4.29    4.91
  15 -16  -3    3.74    2.77
  15 -16  -3   -3.36    4.03
 -16 -15  -3    4.22    3.75
  16  15  -3    1.80    3.48
  15 -16   3    1.34    2.82
 -16 -15   3    1.32    4.89
  16  15   3    1.55    3.46
  15 -16   3   -0.13    1.91
  16  15   3   -1.45    3.91
  13 -16  -3    0.99    2.85
 -16 -13  -3    3.58    3.47
  13 -16  -3    3.82    3.93
  16  13  -3    2.96    3.04
  13 -16   3    0.61    1.66
  16  13   3   -3.95    3.37
 -16 -13   3   -6.94    4.12
  13 -16   3   -2.18    2.76
  16  13   3    2.60    3.02
  11 -16  -3   -1.01    2.06
  16  11  -3   -2.42    2.80
  11 -16  -3    0.13    3.45
  16  11  -3   -4.31    2.80
 -16 -11  -3    4.31    3.03
  11 -16   3   -0.11    1.56
 -16 -11   3   -5.22    3.55
  16  11   3    4.05    3.17
  16  11   3    1.97    2.71
 -11  16   3   -2.25    2.38
  11 -16   3   -0.15    2.66
  16   9  -3    2.20    2.62
  16   9  -3    0.69    2.67
   9 -16  -3    2.53    3.37
   9 -16  -3    2.82    1.97
  16   9   3    3.55    2.56
 -16  -9   3   -0.79    3.79
   9 -16   3    1.69    1.50
   9 -16   3    0.22    4.11
  16   9   3    1.21    2.93
  -9  16   3    3.47    4.29
   7 -16  -3    6.55    3.21
  16   7  -3    0.35    2.49
   7 -16  -3    2.99    1.88
 -16  -7  -3    1.50    2.47
  16   7  -3    3.52    2.72
  -7  16   3    3.62    2.08
  16   7   3    5.53    2.68
  16   7   3    4.03    2.36
   7 -16   3    5.50    2.45
   7 -16   3   -0.68    1.42
 -16  -7   3   -5.06    3.44
 -16  -5  -3    5.03    2.48
  16   5  -3    5.74    2.79
   5 -16  -3    3.20    3.29
   5 -16  -3    3.69    1.93
  16   5   3    4.22    2.51
  16   5   3    4.46    2.36
 -16  -5   3    7.34    3.54
   5 -16   3    4.42    1.66
  -5  16   3    2.43    1.85
   5 -16   3    6.33    2.49
  16   3  -3    7.76    2.72
   3 -16  -3   13.33    2.31
  16   3  -3    7.30    2.79
  -3  16  -3    8.61    1.80
 -16  -3  -3   11.03    2.59
   3 -16  -3   11.48    3.27
  -3  16   3    0.26    1.85
  16   3   3   10.28    2.61
 -16  -3   3    8.22    3.37
   3 -16   3    8.75    2.97
   3 -16   3    7.02    2.00
  16   3   3    8.42    2.50
  16   1  -3    8.13    2.71
   1 -16  -3    7.53    3.19
  16   1  -3    5.42    2.62
   1 -16  -3    7.94    2.31
 -16  -1  -3    9.69    2.32
   1 -16   3    5.92    2.31
  16   1   3   10.39    2.70
   1 -16   3    6.97    2.94
  16   1   3    7.58    2.49
  16  -1  -3    6.04    2.64
  16  -1  -3   10.29    2.96
  -1 -16  -3    9.95    3.47
  -1 -16  -3    6.82    2.61
   1  16  -3   10.70    2.21
 -16   1  -3    8.41    2.06
  -1 -16   3    9.55    3.28
   1  16   3    8.72    2.39
 -16   1   3    7.86    3.11
  -1 -16   3    4.06    2.16
  16  -1   3   12.60    2.62
  16  -1   3   12.40    2.61
  16  -3  -3    9.92    2.95
  -3 -16  -3   10.27    3.43
   3  16  -3   12.02    2.31
  -3 -16  -3    7.58    2.62
  16  -3  -3    4.83    2.78
  16  -3   3    8.70    2.44
   3  16   3    6.51    2.60
   3  16   3    5.41    2.84
  -3 -16   3    9.80    2.41
  -3 -16   3   14.02    3.42
 -16   3   3    7.41    3.02
  16  -3   3    9.22    2.58
  16  -5  -3    4.06    2.81
  -5 -16  -3    3.89    3.26
  -5 -16  -3    2.15    2.32
  16  -5  -3    1.61    2.48
   5  16   3    8.17    2.43
   5  16   3    3.16    2.55
  -5 -16   3    8.32    3.46
  -5 -16   3    2.99    2.13
 -16   5   3    5.61    2.77
  16  -5   3    3.02    1.97
  16  -7  -3    4.92    2.86
  -7 -16  -3    4.43    2.50
   7  16  -3    3.82    2.12
  16  -7  -3    0.22    2.43
  -7 -16  -3   -0.47    3.25
  16  -7   3    1.83    1.85
  -7 -16   3    0.17    2.10
  16  -7   3    0.79    1.98
   7  16   3    2.36    2.50
   7  16   3    2.38    2.45
  -7 -16   3   -2.59    3.38
  16  -9  -3   -4.93    3.17
  -9 -16  -3    3.51    3.58
  16  -9  -3    2.55    2.63
   9  16  -3    3.29    2.34
  -9 -16  -3    4.23    2.70
 -16   9   3    2.61    3.15
  -9 -16   3    4.39    3.95
  16  -9   3    7.92    2.53
  -9 -16   3    3.46    2.58
   9  16   3    2.54    3.34
   9  16   3   -0.08    2.80
  16 -11  -3    2.31    3.38
  16 -11  -3    2.18    2.81
  11  16  -3    0.42    2.54
 -11 -16  -3   -0.48    4.14
  16 -11   3   -2.43    2.08
 -16  11   3   -1.21    3.32
  11  16   3    3.73    3.07
 -11 -16   3    0.68    2.75
  16 -11   3    0.97    1.98
 -11 -16   3    2.97    4.14
  11  16   3   -2.58    2.75
  13  16  -3   -5.11    2.85
  16 -13  -3   -3.95    3.70
  16 -13  -3    1.12    2.90
 -13 -16  -3    6.82    3.78
 -16  13   3   -3.23    6.19
  16 -13   3    0.02    2.00
  16 -13   3   -1.34    2.35
  13  16   3    0.09    3.37
 -13 -16   3    1.45    3.38
  13  16   3   -0.22    3.06
 -13 -16   3    3.96    4.59
 -15 -16  -3    5.10    4.10
  16 -15  -3   -2.61    4.00
  16 -15  -3   -1.73    2.80
  15  16  -3   -1.73    3.26
  16 -15   3   -2.56    2.61
 -15 -16   3    0.95    4.87
  16 -15   3   -0.47    1.97
  15  16   3    0.10    3.85
  14 -17  -3    3.28    2.69
  17  14  -3    6.90    3.72
  14 -17  -3   10.29    4.25
 -17 -14  -3    3.35    3.66
 -17 -14   3    2.16    4.90
  14 -17   3    3.90    3.06
  17  14   3    5.55    5.03
  14 -17   3    1.48    1.98
  12 -17  -3    2.13    2.41
  17  12  -3    5.13    5.13
  17  12  -3    7.21    3.25
 -17 -12  -3    4.55    3.29
  12 -17  -3    9.88    4.04
 -17 -12   3    2.14    3.97
  17  12   3    4.63    3.55
 -12  17   3   -0.60    2.61
  17  12   3    7.15    3.21
  12 -17   3   -0.56    1.68
  12 -17   3   -0.34    2.96
  17  10  -3    0.77    3.57
 -17 -10  -3   10.39    4.62
  17  10  -3    2.14    2.94
  10 -17  -3    2.73    2.10
  10 -17  -3   -2.55    3.40
  10 -17   3    3.52    2.78
  17  10   3    1.84    3.26
 -10  17   3    0.14    2.51
  10 -17   3    2.83    1.62
  17  10   3    0.19    2.73
 -17 -10   3    4.27    3.93
  17   8  -3    0.20    2.65
 -17  -8  -3    2.05    2.64
   8 -17  -3    0.09    1.81
  17   8  -3    1.92    2.92
   8 -17  -3    0.21    5.22
   8 -17   3   -0.63    1.52
   8 -17   3   -4.16    2.51
  17   8   3    1.06    2.47
 -17  -8   3    1.66    3.97
  -8  17   3   -3.78    2.52
  17   8   3   -5.73    2.80
 -17  -6  -3    0.27    2.55
   6 -17  -3   -0.34    3.37
   6 -17  -3    0.24    1.76
  17   6  -3   -0.32    2.72
   6 -17   3    1.06    1.52
  17   6   3   -3.01    2.59
  -6  17   3    1.06    2.13
 -17  -6   3   -1.26    3.57
   6 -17   3    4.48    2.84
  17   6   3    1.32    2.48
   4 -17  -3    6.59    2.35
  17   4  -3    4.03    3.17
  17   4  -3   10.19    2.98
 -17  -4  -3    6.54    2.83
   4 -17  -3    9.71    3.77
  -4  17  -3    9.88    1.92
  17   4   3    7.97    2.84
 -17  -4   3   10.79    3.83
  -4  17   3   11.12    2.46
   4 -17   3    6.42    2.12
   4 -17   3   16.66    3.30
  17   4   3   10.56    2.94
   2 -17  -3   23.15    4.90
  -2  17  -3   31.91    4.56
  17   2  -3   32.22    5.49
  17   2  -3   17.68    4.79
 -17  -2  -3   25.99    5.12
   2 -17  -3   37.27    6.15
  17   2   3   29.35    5.22
   2 -17   3   36.94    5.90
  17   2   3   24.10    4.79
   2 -17   3   20.69    4.62
   0 -17  -3   37.32    6.85
   0 -17  -3   39.01    7.42
   0  17  -3   45.16    6.11
  17   0  -3   25.29    6.15
  17   0  -3   42.77    6.72
 -17   0  -3   36.09    6.19
   0 -17   3   56.14    7.13
  17   0   3   27.40    6.41
   0 -17   3   33.52    6.09
  17   0   3   52.10    6.56
 -17   0   3   26.76    6.39
   0  17   3   40.47    6.35
   2  17  -3   30.86    4.90
  -2 -17  -3   36.11    6.40
  17  -2  -3   17.34    4.84
  -2 -17  -3   25.76    5.25
  17  -2  -3   31.83    5.61
   2  17   3   37.66    5.18
  17  -2   3   24.35    4.78
 -17   2   3   28.16    5.21
  17  -2   3   30.82    5.21
  -2 -17   3   39.24    6.12
  -2 -17   3   19.10    4.55
  17  -4  -3    7.75    2.96
   4  17  -3    8.30    2.27
  17  -4  -3    9.75    3.05
  -4 -17  -3    7.20    3.58
  -4 -17  -3    4.80    2.68
   4  17   3   11.55    2.83
  -4 -17   3    7.51    2.40
  17  -4   3   10.34    2.53
 -17   4   3    8.33    3.21
  -4 -17   3    7.92    3.43
  17  -6  -3    2.36    3.05
   6  17  -3    2.32    3.12
  17  -6  -3   -0.30    2.47
  -6 -17  -3    1.94    3.34
  -6 -17  -3    3.32    2.39
  -6 -17   3    5.12    2.98
  17  -6   3   -1.16    2.09
  17  -6   3    3.16    2.01
   6  17   3    4.31    2.54
  -6 -17   3    1.37    3.31
  -8 -17  -3   -1.82    3.43
  17  -8  -3   -0.99    2.69
   8  17  -3   -1.47    2.25
  17  -8  -3    0.62    4.01
  -8 -17  -3    3.13    2.53
 -17   8   3   -2.69    2.86
  -8 -17   3   -1.83    2.26
  17  -8   3    1.45    2.00
   8  17   3   -0.55    2.62
  -8 -17   3   -5.82    3.72
  17  -8   3    2.56    2.43
  10  17  -3   -0.10    2.54
  17 -10  -3    3.09    3.33
  17 -10  -3    1.24    3.21
 -10 -17  -3    1.06    3.69
  17 -10   3    1.42    2.16
 -10 -17   3    2.69    4.35
 -17  10   3   -2.20    2.95
  17 -10   3    4.01    2.14
 -10 -17   3   -2.64    2.54
  10  17   3    0.28    3.04
  17 -12  -3    2.68    2.99
 -12 -17  -3    3.16    4.05
  17 -12  -3   -1.50    3.60
  12  17  -3    4.42    2.92
 -12 -17   3    2.32    3.18
  17 -12   3    3.16    2.41
  17 -12   3    1.25    2.23
 -17  12   3    1.57    5.25
  12  17   3    2.41    3.36
 -12 -17   3    6.37    4.64
  17 -14  -3   -2.49    4.03
 -14 -17  -3    8.58    6.38
  14  17  -3    0.32    3.55
  17 -14  -3    1.79    3.17
  17 -14   3    5.46    2.28
 -14 -17   3    5.10    5.05
  14  17   3   -2.71    3.73
  17 -14   3    3.30    2.63
  13 -18  -3   -0.02    2.59
 -18 -13  -3    4.94    3.63
  13 -18  -3   -1.65    4.16
  18  13  -3   -1.37    3.52
  18  13   3    0.26    3.44
  18  13   3   -0.86    3.84
  13 -18   3   -0.10    1.86
  13 -18   3    9.95    3.30
 -18 -13   3    5.83    7.15
 -18 -11  -3    3.99    3.66
  18  11  -3    1.61    3.29
  11 -18  -3    1.70    2.32
  11 -18  -3    0.88    3.93
  18  11  -3    4.51    3.33
 -11  18   3    3.70    2.84
  18  11   3    6.94    3.34
 -18 -11   3    9.86    4.35
  18  11   3    5.22    3.86
  11 -18   3    9.00    3.27
  18   9  -3    3.85    3.40
  18   9  -3    9.82    3.43
   9 -18  -3   18.95    4.32
   9 -18  -3   10.51    2.63
 -18  -9  -3    6.63    3.80
  -9  18   3   13.09    3.06
   9 -18   3   13.97    3.29
  18   9   3    8.60    3.41
 -18  -9   3   11.88    4.28
  18   9   3   13.92    6.88
   9 -18   3    6.07    2.20
  18   7  -3   14.20    3.67
   7 -18  -3   11.96    4.57
 -18  -7  -3    5.84    3.15
   7 -18  -3   11.64    2.61
   7 -18   3    6.78    2.24
   7 -18   3   13.62    3.28
  -7  18   3   11.37    2.84
 -18  -7   3   11.88    4.55
  18   7   3   10.98    4.30
  18   7   3   10.98    3.21
  18   5  -3   13.09    3.51
   5 -18  -3   11.87    2.71
 -18  -5  -3    6.65    3.13
   5 -18  -3   23.47    4.22
  18   5   3   13.77    3.42
 -18  -5   3   10.83    4.28
   5 -18   3   10.42    2.54
  -5  18   3   11.86    2.86
  18   5   3    9.29    3.15
   5 -18   3   13.07    3.33
  18   3  -3    5.92    3.06
  -3  18  -3    8.44    2.09
 -18  -3  -3    6.50    2.75
   3 -18  -3   17.33    4.05
   3 -18  -3    6.31    2.42
  18   3  -3   10.43    3.23
   3 -18   3   14.13    4.97
  -3  18   3   10.41    2.54
   3 -18   3    7.73    2.22
  18   3   3    3.96    2.85
 -18  -3   3    7.62    4.71
  18   3   3   14.69    3.00
  18   1  -3   -0.24    2.58
   1 -18  -3    4.41    2.14
  -1  18  -3    3.13    1.70
  18   1  -3    8.26    2.75
   1 -18  -3    3.56    3.43
 -18  -1  -3    3.09    2.20
  18   1   3    2.27    2.43
   1 -18   3    4.54    3.34
   1 -18   3    5.00    1.88
 -18  -1   3   -1.59    3.03
  -1  18   3    3.05    2.50
  18   1   3    0.61    2.46
  -1 -18  -3    0.16    2.13
  18  -1  -3    1.44    2.76
  18  -1  -3    7.14    2.73
  -1 -18  -3    9.95    3.70
   1  18  -3    7.16    2.03
  18  -1   3    1.07    2.80
  -1 -18   3    2.85    1.91
 -18   1   3   -1.22    3.20
   1  18   3    5.45    2.17
  18  -1   3    4.35    2.41
  -1 -18   3    2.18    3.05
  -3 -18  -3    6.77    2.85
  18  -3  -3    5.79    3.06
   3  18  -3    9.80    2.44
  18  -3  -3    9.47    3.01
  -3 -18  -3    8.93    3.81
   3  18   3    5.91    2.54
  18  -3   3    2.05    4.38
  18  -3   3    7.11    2.73
  -3 -18   3    7.97    2.57
  -3 -18   3   17.55    3.69
 -18   3   3    9.11    3.38
  18  -5  -3   18.81    4.35
  -5 -18  -3    9.72    3.36
  18  -5  -3   10.22    3.63
  -5 -18  -3   19.43    4.37
  18  -5   3   13.95    3.15
   5  18   3   21.53    3.76
  -5 -18   3   12.13    3.24
  18  -5   3   15.85    3.28
  -5 -18   3   16.05    4.40
  18  -7  -3   13.29    3.73
  18  -7  -3   13.80    3.40
   7  18  -3   10.48    3.03
  -7 -18  -3   17.41    4.26
  -7 -18  -3   10.86    4.41
   7  18   3   12.38    3.36
  18  -7   3    9.99    2.78
  18  -7   3   13.69    3.00
  -7 -18   3    6.07    3.04
  -7 -18   3   14.47    4.45
 -18   7   3   11.98    3.58
  -9 -18  -3    8.80    4.40
   9  18  -3   12.28    3.17
  18  -9  -3   14.66    5.40
  18  -9  -3   10.19    3.81
  18  -9   3   12.38    2.97
  18  -9   3   12.87    2.76
 -18   9   3    9.37    3.60
  -9 -18   3    7.90    3.23
   9  18   3   13.09    3.86
  -9 -18   3    6.75    4.60
  18 -11  -3    0.97    3.65
  18 -11  -3    5.19    3.23
 -11 -18  -3    3.97    4.18
  11  18  -3    4.72    2.89
 -11 -18   3    0.19    4.58
  18 -11   3    5.17    2.51
  11  18   3    9.41    3.60
 -18  11   3   -1.51    3.86
  18 -11   3    4.68    2.45
 -11 -18   3    6.69    4.00
  18 -13  -3   -5.03    3.89
 -13 -18  -3    6.89    4.38
  13  18  -3    3.07    3.11
  18 -13  -3    2.10    3.33
  18 -13   3   -7.46    2.37
 -13 -18   3   -1.05    5.03
  18 -13   3    3.67    2.44
  13  18   3   -7.40    3.68
  12 -19  -3    0.62    2.53
  19  12  -3    1.73    3.54
  12 -19  -3    8.71    4.51
  12 -19   3    4.74    3.38
  19  12   3    7.62    4.18
  12 -19   3    2.94    2.00
  19  12   3    3.07    3.73
 -12  19   3   -3.75    3.14
 -19 -12   3   -4.35    4.23
  19  10  -3    3.66    3.31
  19  10  -3    2.08    3.38
  10 -19  -3    1.19    2.20
  10 -19  -3    8.78    4.18
 -10  19   3   -1.18    2.76
  10 -19   3    2.03    1.79
  10 -19   3    5.72    3.21
  19  10   3   -3.02    3.52
 -19 -10   3    1.89    3.99
  19  10   3    2.45    3.28
 -19  -8  -3    3.04    3.07
   8 -19  -3   -1.50    2.00
  19   8  -3    3.41    3.12
   8 -19  -3    0.07    3.87
 -19  -8   3   -3.64    3.58
  19   8   3   -0.52    2.97
  19   8   3   -3.18    3.13
   8 -19   3    2.27    2.88
  -8  19   3   -3.40    2.58
   8 -19   3    1.30    1.72
   6 -19  -3    0.23    3.75
 -19  -6  -3   -0.03    2.70
  19   6  -3    3.23    3.09
   6 -19  -3   -0.41    2.01
  -6  19   3    3.85    2.52
   6 -19   3    2.56    2.82
   6 -19   3   -1.70    1.75
 -19  -6   3    7.36    4.13
  19   6   3    2.72    2.81
  19   6   3   -4.11    2.88
  19   4  -3    3.10    3.04
   4 -19  -3    8.25    4.54
  -4  19  -3    5.21    1.98
  19   4  -3    6.03    3.17
   4 -19  -3    3.33    2.06
 -19  -4  -3    0.95    2.63
  -4  19   3    7.20    2.43
   4 -19   3    3.07    1.97
  19   4   3    4.96    2.73
  19   4   3    5.89    2.89
 -19  -4   3   10.74    4.36
   4 -19   3   10.25    3.02
  19   2  -3    9.61    3.48
   2 -19  -3   18.45    4.04
  19   2  -3   14.66    3.49
  -2  19  -3   17.52    2.73
 -19  -2  -3   11.94    3.04
   2 -19  -3   10.34    2.86
   2 -19   3   10.50    2.72
  19   2   3   19.06    3.26
  -2  19   3    6.07    2.53
 -19  -2   3    7.81    3.56
  19   2   3    9.07    3.21
   2 -19   3   18.54    3.84
   0  19  -3   25.54    4.39
  19   0  -3   11.24    4.28
  19   0  -3   22.77    4.41
   0 -19  -3   19.55    4.09
 -19   0  -3   25.80    5.46
   0 -19  -3   31.83    5.14
  19   0   3   19.77    4.17
   0 -19   3   14.53    3.79
   0 -19   3   30.85    5.51
  19   0   3   24.76    4.34
 -19   0   3   22.68    5.00
   0  19   3   30.74    5.54
  -2 -19  -3   12.14    3.55
  -2 -19  -3   20.94    4.67
   2  19  -3   19.48    3.35
  19  -2  -3   15.81    4.82
  19  -2  -3   10.58    3.70
  19  -2   3   16.86    3.67
  19  -2   3   26.21    4.30
 -19   2   3    9.19    4.20
  -2 -19   3   15.69    6.41
   2  19   3   20.09    3.52
  -2 -19   3   10.73    3.25
  19  -4  -3    5.64    3.02
  -4 -19  -3    7.87    2.80
  -4 -19  -3    8.75    4.03
   4  19  -3    6.56    2.38
  19  -4  -3    4.32    2.97
  -4 -19   3    4.51    3.84
  -4 -19   3    3.38    2.41
  19  -4   3    8.47    2.52
   4  19   3    3.23    2.79
  -6 -19  -3   -1.72    3.29
  19  -6  -3   -1.67    3.02
  19  -6  -3    0.64    3.03
  -6 -19  -3    6.62    4.05
  -6 -19   3    2.83    3.88
  19  -6   3    6.04    2.32
  -6 -19   3    2.77    2.51
  19  -6   3   -0.39    2.49
 -19   6   3    1.38    3.15
   6  19   3    5.56    2.90
  -8 -19  -3   -2.79    4.06
  19  -8  -3   -3.96    3.14
  -8 -19  -3    5.29    3.00
  19  -8  -3    3.43    3.37
   8  19  -3    2.27    2.55
  19  -8   3    3.83    2.64
  -8 -19   3   -1.37    2.60
  -8 -19   3    5.35    4.35
 -19   8   3   -0.84    3.13
  19  -8   3    1.06    2.23
   8  19   3   -2.27    2.91
  19 -10  -3   -1.72    3.51
 -10 -19  -3    4.92    4.44
  10  19  -3    3.11    2.82
  19 -10  -3    1.97    3.25
 -19  10   3    6.94    3.59
  19 -10   3    3.10    2.60
 -10 -19   3    2.49    3.12
 -10 -19   3    1.71    4.75
  10  19   3   -2.40    3.27
  19 -10   3    6.04    2.33
  19 -12  -3    1.36    4.08
 -12 -19  -3    2.76    4.60
  19 -12  -3    3.20    3.44
  12  19  -3    4.91    3.15
 -12 -19   3    1.36    5.13
  19 -12   3    0.39    2.60
  12  19   3   -3.74    3.74
  19 -12   3    4.72    2.64
  20   9  -3    4.68    3.55
   9 -20  -3    0.05    2.22
 -20  -9  -3    4.85    3.27
   9 -20  -3    4.09    4.32
  -9  20   3   -0.97    2.81
 -20  -9   3    1.52    3.79
  20   9   3   -1.91    3.57
   9 -20   3    0.00    1.82
   9 -20   3    1.11    3.25
   7 -20  -3    0.49    3.95
 -20  -7  -3   -0.68    2.93
   7 -20  -3    1.40    2.15
  20   7  -3    2.38    3.52
   7 -20   3    2.66    1.95
  -7  20   3    1.92    2.73
  20   7   3    1.87    3.04
 -20  -7   3    2.05    3.60
   7 -20   3    6.24    3.14
  20   7   3    3.32    3.33
   5 -20  -3   12.72    4.13
 -20  -5  -3    0.20    2.84
   5 -20  -3    2.83    2.11
  20   5  -3   -4.20    3.09
  20   5  -3    5.76    3.85
 -20  -5   3   -2.55    8.34
  -5  20   3    2.40    2.52
   5 -20   3    2.63    1.91
   5 -20   3    5.50    2.91
  20   5   3   -2.75    2.84
  20   5   3    1.09    2.82
   3 -20  -3   12.34    4.09
 -20  -3  -3    3.59    2.82
   3 -20  -3    6.27    2.40
  20   3  -3    1.20    4.97
  20   3   3    1.82    2.93
  -3  20   3    9.13    2.66
   3 -20   3   12.91    3.35
  20   3   3    7.58    3.07
   3 -20   3    7.07    2.21
  -1  20  -3    7.39    2.26
   1 -20  -3   11.03    4.27
  20   1  -3    8.82    3.39
   1 -20  -3    2.75    2.61
  20   1  -3    8.47    3.19
  20   1   3    5.29    2.96
   1 -20   3    5.18    3.58
 -20  -1   3    9.87    4.14
   1 -20   3    9.04    2.26
  20   1   3    4.80    2.94
  -1 -20  -3   11.82    4.47
  -1 -20  -3    6.33    2.87
  20  -1  -3    5.99    3.33
  20  -1  -3   13.56    3.42
   1  20  -3    9.85    3.91
  -1 -20   3    6.82    2.59
 -20   1   3   16.03    4.19
  -1 -20   3   10.23    4.10
  20  -1   3    6.76    3.05
   1  20   3   10.60    2.93
  20  -1   3    8.12    3.05
  20  -3  -3    1.71    3.06
  20  -3  -3    6.86    3.16
   3  20  -3    2.05    2.36
  -3 -20  -3    6.63    2.81
  -3 -20  -3    2.10    4.01
  20  -3   3    3.59    2.81
 -20   3   3    4.02    5.83
  -3 -20   3    9.32    3.99
  -3 -20   3    3.50    2.32
   3  20   3    5.90    2.51
  -5 -20  -3    1.08    4.08
  20  -5  -3   -4.12    3.21
  20  -5  -3    6.29    3.14
   5  20  -3    3.72    2.90
  -5 -20  -3   -2.89    2.96
  -5 -20   3    5.16    4.14
   5  20   3    7.63    3.01
  -5 -20   3    4.39    3.41
  20  -5   3    1.36    2.80
 -20   5   3    5.80    3.63
  20  -5   3    4.05    2.56
  20  -7  -3    5.99    3.24
  -7 -20  -3    1.07    2.92
  -7 -20  -3   -1.00    4.21
   7  20  -3   -1.66    2.84
  20  -7  -3    3.07    3.32
  -7 -20   3    1.75    4.38
  -7 -20   3    1.27    2.73
   7  20   3    2.58    3.03
  20  -7   3   -1.34    2.38
 -20   7   3   -0.68    3.51
  20  -9  -3   -0.89    3.54
  20  -9  -3   -2.24    3.58
  -9 -20  -3    6.01    4.65
   9  20  -3   -3.47    2.56
 -20   9   3    2.13    3.78
  20  -9   3   -0.55    2.73
  -9 -20   3    0.27    5.37
  -9 -20   3    4.23    3.12
  20  -9   3    2.89    2.41
   9  20   3   -2.07    3.97
 -21  -8  -3   -0.98    3.33
   8 -21  -3    5.65    4.46
   8 -21  -3    4.00    2.37
  21   8  -3   11.99    3.73
 -21  -8   3    0.26    3.76
   8 -21   3    1.24    2.09
   8 -21   3    2.38    3.35
  -8  21   3   -0.08    3.10
  21   8   3    5.26    3.74
  21   8   3    2.31    3.41
   6 -21  -3    1.14    2.24
   6 -21  -3   12.70    4.51
  21   6  -3   -2.75    3.50
  21   6  -3    3.11    3.50
 -21  -6  -3    0.90    3.12
  21   6   3    5.81    3.19
 -21  -6   3   11.12    5.99
  21   6   3    3.31    3.43
   6 -21   3    8.64    3.42
   6 -21   3    0.75    2.09
  -6  21   3    3.95    3.30
   4 -21  -3    4.46    4.05
 -21  -4  -3    6.81    2.97
  21   4  -3   -1.35    3.23
   4 -21  -3    2.01    2.27
  21   4  -3    1.96    3.50
  21   4   3    6.11    3.21
   4 -21   3   -0.40    3.02
  -4  21   3    6.57    2.74
   4 -21   3    3.71    2.07
  21   4   3    3.50    2.91
   2 -21  -3   10.19    4.15
  -2  21  -3   12.48    4.01
  21   2  -3   11.16    3.53
  21   2  -3    2.00    3.41
  -2  21   3    9.60    2.91
  21   2   3    4.77    3.08
   2 -21   3    9.79    3.63
 -21  -2   3    4.43    4.27
  21   2   3    9.75    3.20
   0 -21  -3   17.32    4.54
  21   0  -3   10.12    3.51
  21   0  -3    6.13    3.47
   0 -21  -3    5.94    2.85
   0  21  -3   10.46    2.54
 -21   0   3    3.72    4.18
  21   0   3    7.25    3.05
   0 -21   3    4.56    2.35
   0 -21   3    6.35    3.92
  21   0   3    3.14    2.99
  21  -2  -3    7.27    3.27
  -2 -21  -3    3.18    2.92
   2  21  -3    6.73    4.19
  -2 -21  -3    3.22    4.97
  21  -2  -3    4.23    3.31
  -2 -21   3    5.69    2.47
 -21   2   3    0.78    5.74
  21  -2   3    8.90    2.94
  -2 -21   3   12.36    4.31
   2  21   3    8.22    2.74
  -4 -21  -3   -0.50    2.98
  21  -4  -3    5.03    3.59
  21  -4  -3    6.44    3.22
   4  21  -3    5.12    2.43
  -4 -21  -3    8.20    4.16
  -4 -21   3    1.90    2.51
  21  -4   3    0.74    2.98
 -21   4   3    5.35    3.88
  21  -4   3    2.25    2.91
   4  21   3    0.36    2.53
  -4 -21   3    3.37    4.14
  21  -6  -3    5.72    3.24
  -6 -21  -3   -1.01    4.41
  -6 -21  -3    0.38    3.29
  21  -6  -3    1.17    3.66
  21  -6   3    7.07    2.69
  -6 -21   3    7.09    4.54
  -6 -21   3    4.82    2.91
 -21   6   3    4.58    3.98
   6  21   3    4.25    3.11
  21  -6   3    3.23    3.21
  21  -8  -3    2.33    3.64
  -8 -21  -3    8.69    4.78
  21  -8  -3   -5.52    4.64
   8  21  -3   -3.27    4.32
   8  21   3    8.40    3.49
  -8 -21   3    1.91    4.82
  -8 -21   3    6.40    3.08
 -21   8   3    0.86    4.57
  21  -8   3   -3.23    3.01
   5 -22  -3   -3.07    4.41
   5 -22  -3    0.48    2.35
  22   5  -3   -3.05    3.71
  22   5  -3    0.07    3.50
 -22  -5  -3   -0.58    3.13
   5 -22   3   -4.76    3.37
   5 -22   3   -0.05    2.09
  22   5   3    2.30    3.26
  -5  22   3   -0.64    3.66
  22   5   3    4.29    3.16
  22   3  -3   -5.02    3.32
  22   3  -3    1.92    3.48
   3 -22  -3   -0.81    4.37
   3 -22  -3   -1.20    2.47
 -22  -3  -3   -0.51    4.76
  22   3   3    4.56    3.30
  22   3   3    3.75    3.02
 -22  -3   3    1.68    3.34
   3 -22   3    2.93    2.11
  -3  22   3    1.29    2.72
   3 -22   3    5.79    3.48
  22   1  -3    0.27    3.40
  -1  22  -3    4.74    2.90
   1 -22  -3   -0.05    2.66
   1 -22  -3    6.56    4.11
  22   1  -3    5.77    3.22
   1 -22   3    2.49    2.21
   1 -22   3   10.10    3.52
 -22  -1   3    5.89    4.42
  22   1   3    0.14    2.75
  22   1   3    3.66    2.96
  -1  22   3    3.51    3.06
  -1 -22  -3    2.28    4.13
  22  -1  -3    8.07    3.32
  22  -1  -3   -0.73    3.42
   1  22  -3    5.65    2.50
  -1 -22  -3    7.79    3.04
   1  22   3    2.29    2.91
  -1 -22   3    2.87    2.45
 -22   1   3    6.26    5.45
  -1 -22   3    2.19    3.91
  22  -1   3    4.25    3.08
  -3 -22  -3   10.38    4.70
  -3 -22  -3   -2.94    2.86
  22  -3  -3    4.14    3.24
   3  22  -3    3.50    3.05
  22  -3  -3   -2.81    3.57
 -22   3   3    4.88    4.26
  -3 -22   3    2.62    2.55
   3  22   3    1.07    2.60
  -3 -22   3   -0.46    4.34
  22  -3   3   -7.77    3.08
  22  -3   3   -0.63    2.83
   5  22  -3    1.74    2.63
  22  -5  -3    1.65    3.29
  -5 -22  -3    0.38    3.48
  -5 -22  -3    9.32    5.87
  22  -5  -3   -2.92    3.70
   5  22   3    2.75    2.70
  -5 -22   3    2.21    3.03
  22  -5   3   -0.68    3.20
 -22   5   3    4.66    4.41
  22  -5   3   -1.60    2.93
  -5 -22   3   -2.17    4.74
   0   0  -4  634.23   93.05
   0   0   4  634.83   93.06
   0   0   4  639.04   93.08
   1   1  -4  111.61   16.91
  -1   1  -4  121.51   16.90
   1  -1  -4   88.64   17.19
  -1   1  -4  126.27   16.88
   1  -1  -4  114.62   16.92
  -1  -1  -4  111.94   16.91
  -1  -1   4  114.52   16.94
   1   1   4  113.33   16.98
  -1   1   4  110.28   16.94
  -1  -1   4  114.75   16.96
  -1   1   4  114.17   16.99
   1   1   4  108.91   16.92
   1  -1   4  123.23   16.93
   1  -1   4  120.36   16.90
   2   0  -4  283.58   42.41
  -2   0  -4  296.84   42.39
   2   0  -4  317.02   42.46
   0   2  -4  280.88   42.38
   0  -2  -4  288.67   42.40
   0  -2  -4  250.71   42.56
   0   2  -4  294.58   42.38
  -2   0  -4  284.22   42.37
  -2   0   4  293.13   42.42
   2   0   4  285.42   42.38
   0  -2   4  280.34   42.40
   0   2   4  285.39   42.45
   2   0   4  324.34   42.43
  -2   0   4  282.55   42.44
   0   2   4  297.64   42.41
   0  -2   4  281.24   42.39
   2  -2  -4  110.95   16.67
   2  -2  -4  109.81   16.60
   2   2  -4  116.66   16.60
  -2   2  -4  109.92   16.51
  -2  -2  -4  114.74   16.58
  -2   2  -4  111.52   16.50
   2   2  -4  115.48   16.63
   2  -2   4  111.18   16.53
  -2   2   4  112.64   16.68
   2   2   4  118.72   16.60
   2   2   4  111.56   16.65
  -2  -2   4  111.19   16.62
  -2   2   4  115.25   16.62
  -2  -2   4  113.35   16.63
   2  -2   4  107.15   16.54
   3   1  -4   53.12    7.92
  -3  -1  -4   55.82    7.89
   3   1  -4   53.64    7.95
  -1   3  -4   50.38    7.76
   1  -3  -4   52.81    8.04
  -1   3  -4   51.87    7.73
  -3  -1  -4   56.05    7.80
   1  -3  -4   49.20    7.88
  -1   3   4   49.57    8.03
   3   1   4   50.21    7.83
  -3  -1   4   53.69    7.96
   1  -3   4   49.46    7.78
   1  -3   4   52.12    7.81
   3   1   4   55.47    7.92
  -3  -1   4   57.06    7.95
  -1   3   4   47.88    7.89
  -3   1  -4   51.07    7.48
  -3   1  -4   48.17    7.45
   1   3  -4   51.19    7.60
   3  -1  -4   49.48    7.63
  -1  -3  -4   50.59    7.62
   3  -1  -4   49.85    7.77
  -1  -3  -4   43.09    8.23
  -1  -3   4   50.31    7.63
   3  -1   4   49.61    7.51
   1   3   4   53.64    7.76
  -1  -3   4   53.83    7.62
   3  -1   4   51.94    7.57
  -3   1   4   49.11    7.70
  -3   1   4   52.74    7.68
   1   3   4   50.14    7.66
  -3  -3  -4   37.28    5.48
   3   3  -4   37.52    5.54
   3   3  -4   34.16    5.58
   3  -3  -4   39.86    5.78
   3  -3  -4   33.69    5.47
  -3  -3   4   37.87    5.56
  -3   3   4   34.99    5.69
   3   3   4   36.82    5.50
   3   3   4   32.38    5.65
   3  -3   4   36.21    5.30
   3  -3   4   32.68    5.26
  -3   3   4   34.08    5.52
   4   2  -4   31.45    4.85
  -4  -2  -4   28.91    4.76
   4   2  -4   30.84    4.91
   2  -4  -4   31.25    5.07
   2  -4  -4   29.03    4.79
   2  -4   4   30.48    4.60
  -4  -2   4   31.74    4.92
   2  -4   4   28.31    4.63
   4   2   4   29.55    4.91
  -2   4   4   30.47    4.84
   4   2   4   34.31    4.77
  -2   4   4   29.53    5.02
  -4  -2   4   27.89    4.86
   4   0  -4   84.31   12.79
   0  -4  -4   81.01   12.72
   0   4  -4   88.27   12.65
  -4   0  -4   90.83   12.67
   0   4  -4   93.08   12.71
   4   0  -4   87.72   12.76
  -4   0  -4   82.62   12.62
   0  -4  -4   88.96   12.85
  -4   0   4   86.74   12.79
   4   0   4   87.11   12.66
   4   0   4   81.81   12.71
   0   4   4   83.58   12.75
   0  -4   4   83.37   12.69
   0  -4   4   85.37   12.80
   0   4   4   84.31   12.83
  -4   0   4   82.85   12.77
   4  -2  -4   33.66    5.01
   4  -2  -4   28.21    4.80
  -2  -4  -4   29.87    4.81
  -2  -4  -4   27.07    4.97
  -4   2   4   28.35    4.94
  -2  -4   4   31.56    4.82
   2   4   4   30.27    4.83
   2   4   4   30.08    5.03
   4  -2   4   31.08    4.54
   4  -2   4   29.46    4.60
  -4   2   4   32.11    4.88
  -4  -4  -4   20.01    3.36
  -4  -4  -4   15.51    3.37
   4  -4  -4   22.24    3.90
   4  -4  -4   17.59    3.42
   4   4  -4   18.77    3.52
  -4   4   4   22.62    3.79
  -4   4   4   22.94    3.55
  -4  -4   4   22.28    3.70
  -4  -4   4   16.81    3.53
   4   4   4   19.13    3.71
   4   4   4   21.94    3.46
   3  -5  -4   18.46    3.02
  -5  -3  -4   17.20    2.87
   5   3  -4   18.10    3.14
   5   3  -4   18.22    3.19
   3  -5  -4   13.23    2.95
   5   3   4   16.73    2.92
   3  -5   4   14.78    2.57
   5   3   4   20.93    2.92
  -5  -3   4   17.16    2.94
  -5  -3   4   11.33    2.81
  -3   5   4   17.97    3.01
  -3   5   4   16.84    3.28
   3  -5   4   13.47    2.58
  -1   5  -4   20.18    3.06
  -5  -1  -4   20.49    3.17
  -1   5  -4   18.85    3.07
   5   1  -4   18.62    3.56
   1  -5  -4   19.08    3.43
   1  -5  -4   24.82    3.87
  -5  -1  -4   19.50    3.36
   5   1  -4   21.88    3.55
  -1   5   4   19.87    3.65
   1  -5   4   18.08    3.25
  -1   5   4   18.53    3.43
  -5  -1   4   19.13    3.53
   5   1   4   19.73    3.49
   5   1   4   19.70    3.28
  -5  -1   4   17.60    3.61
   1   5  -4   14.93    3.23
  -1  -5  -4   23.21    3.45
  -1  -5  -4   18.07    3.38
   5  -1  -4   17.62    3.50
   1   5  -4   24.90    3.33
   5  -1  -4   15.49    3.66
   1   5   4   16.70    3.72
  -5   1   4   26.11    3.62
   1   5   4   21.73    3.46
   5  -1   4   18.30    3.26
  -5   1   4   19.28    3.53
  -1  -5   4   18.45    3.38
  -1  -5   4   19.37    3.44
   5  -1   4   20.04    3.12
   3   5  -4   15.89    3.49
   3   5  -4   20.06    3.28
   5  -3  -4   19.35    3.29
  -3  -5  -4   13.89    3.10
   5  -3  -4   18.19    3.23
  -5   3   4   17.81    3.50
  -3  -5   4   23.45    3.46
  -3  -5   4   16.53    3.29
   3   5   4   16.49    3.27
  -5   3   4   20.06    3.38
   3   5   4   14.59    3.10
  -5  -5  -4   20.98    3.46
  -5  -5  -4   18.97    3.44
   5   5  -4   16.02    3.64
   5   5  -4   18.13    3.54
   5  -5  -4   22.69    3.89
   5  -5  -4   18.66    3.44
  -5  -5   4   20.41    3.85
   5   5   4   17.61    3.43
  -5  -5   4   21.30    3.63
   5   5   4   15.24    3.52
  -5   5   4   19.83    3.61
  -5   5   4   21.16    3.74
   6   4  -4    3.57    1.64
  -6  -4  -4    4.01    1.50
   4  -6  -4    7.58    1.93
   4  -6  -4    4.36    1.52
   6   4  -4    7.11    2.97
   6   4   4    2.21    1.78
  -6  -4   4    8.65    2.00
   6   4   4    7.66    1.65
  -6  -4   4    2.94    1.64
  -4   6   4    4.11    1.79
   4  -6   4    8.17    1.24
  -4   6   4    4.00    1.54
   6   2  -4    5.82    1.76
   6   2  -4    6.37    1.64
  -6  -2  -4    5.53    1.55
   2  -6  -4    7.62    2.05
   2  -6  -4    5.32    1.53
  -6  -2  -4    4.72    1.36
  -2   6   4    3.66    1.52
  -2   6   4    6.03    1.84
   2  -6   4    4.93    1.28
   2  -6   4    7.75    1.40
   6   2   4    6.88    1.72
   6   2   4    6.65    1.51
  -6  -2   4    3.97    1.66
  -6  -2   4    8.45    1.88
   0  -6  -4    7.16    2.09
  -6   0  -4    7.22    1.48
   0  -6  -4    7.08    1.81
   0   6  -4    7.27    1.63
  -6   0  -4    8.45    1.54
   0   6  -4    8.81    1.57
   6   0  -4    7.27    1.91
   6   0  -4   11.85    1.91
   0   6   4    9.74    1.83
  -6   0   4    5.65    1.91
   0  -6   4    8.09    1.72
   0   6   4    6.75    2.05
   0  -6   4    7.60    1.83
   6   0   4    8.04    1.76
  -6   0   4    7.72    1.93
   6   0   4    7.88    1.57
   2   6  -4    6.67    1.59
   2   6  -4    2.49    1.18
  -2  -6  -4    7.57    1.91
   6  -2  -4    6.81    1.94
   6  -2  -4    5.35    1.67
  -2  -6  -4    5.03    1.55
  -2  -6   4    9.37    1.84
   6  -2   4    7.20    1.17
   6  -2   4    7.88    1.33
   2   6   4    4.64    1.86
  -6   2   4    3.23    1.71
  -2  -6   4    7.73    1.63
  -6   2   4    6.00    1.96
   2   6   4    7.00    1.65
   4   6  -4    5.42    1.72
  -4  -6  -4    4.44    1.53
  -4  -6  -4    5.41    1.98
   6  -4  -4    3.86    1.93
   4   6  -4    6.15    2.32
   6  -4  -4    4.76    1.50
   4   6   4    4.84    1.64
  -6   4   4    6.51    1.80
   4   6   4    6.90    2.00
  -6   4   4    5.36    1.74
  -4  -6   4    4.93    1.64
  -4  -6   4    6.14    1.91
  -6  -6  -4   -0.45    1.71
   6  -6  -4   -0.60    1.73
   6  -6  -4   -2.74    1.21
   6   6  -4    1.23    1.41
  -6  -6  -4    0.18    1.23
   6   6   4   -0.87    1.53
  -6  -6   4   -3.21    1.56
  -6   6   4   -0.65    1.55
  -6   6   4   -1.39    1.27
  -6  -6   4    0.80    1.45
   6   6   4   -1.93    1.31
   5  -7  -4    0.27    1.23
  -7  -5  -4    1.54    1.34
   7   5  -4    2.28    1.71
   7   5  -4   -0.51    1.47
   5  -7  -4    5.65    1.96
  -5   7   4    2.59    1.65
  -7  -5   4    0.89    1.54
   7   5   4    6.15    1.67
   7   5   4    6.30    1.75
   5  -7   4    3.13    0.77
  -5   7   4    3.91    1.39
   5  -7   4    4.78    0.95
  -7  -5   4    5.66    1.97
  -7  -3  -4    3.61    1.27
   7   3  -4    3.29    1.59
   3  -7  -4    5.65    1.94
  -7  -3  -4    2.72    1.55
   3  -7  -4    3.46    1.31
   7   3  -4    0.56    1.52
   7   3   4    3.42    1.30
   3  -7   4    1.89    0.97
   3  -7   4    2.95    1.20
  -7  -3   4    1.89    1.46
  -7  -3   4    4.27    1.81
  -3   7   4    0.96    1.63
   7   3   4    0.74    1.55
  -3   7   4    3.69    1.34
  -7  -1  -4    0.95    0.92
  -1   7  -4    0.20    0.84
   1  -7  -4    0.09    1.67
   1  -7  -4    1.18    1.29
  -7  -1  -4   -0.81    1.06
  -1   7  -4    0.03    0.73
   7   1  -4   -0.66    1.44
   7   1  -4    1.03    1.43
   1  -7   4   -1.65    1.04
   7   1   4   -1.70    1.34
  -1   7   4    0.12    1.28
  -7  -1   4   -3.40    1.55
  -1   7   4   -0.09    1.85
   1  -7   4    0.76    1.23
  -7  -1   4   -1.48    1.31
   7   1   4    0.30    1.05
   1   7  -4   -0.69    1.13
   7  -1  -4    0.75    1.51
   1   7  -4    0.74    1.00
  -1  -7  -4   -0.95    1.24
  -1  -7  -4   -1.11    1.64
   7  -1  -4   -0.21    1.27
   1   7   4    0.14    1.54
   7  -1   4    0.27    0.86
  -7   1   4    3.53    1.53
  -1  -7   4   -0.81    1.35
   7  -1   4    2.12    1.15
  -1  -7   4   -0.91    1.12
   1   7   4    1.31    1.21
  -7   1   4   -1.53    1.32
  -3  -7  -4    1.86    1.88
   7  -3  -4    1.47    1.38
  -3  -7  -4    2.16    1.43
   7  -3  -4    2.17    1.74
  -3  -7   4    2.69    1.41
   3   7   4    2.70    1.71
  -3  -7   4    2.99    1.76
  -7   3   4    3.40    1.48
  -7   3   4    2.63    1.55
   7  -3   4    3.14    0.93
   7  -3   4    1.78    0.80
   3   7   4    3.37    1.55
   7  -5  -4    2.18    1.32
   5   7  -4    1.63    1.38
  -5  -7  -4    0.18    1.36
   7  -5  -4    5.65    1.85
  -5  -7  -4    1.02    1.86
  -7   5   4    2.45    1.72
  -5  -7   4    2.73    1.93
  -7   5   4    1.79    1.64
   5   7   4   -0.19    1.66
   5   7   4    3.98    1.61
  -5  -7   4    2.29    1.53
   7  -7  -4    1.81    1.90
  -7  -7  -4    1.22    1.80
   7  -7  -4    1.21    1.35
  -7  -7  -4    0.62    1.37
   7   7  -4    2.09    1.59
  -7   7   4    1.50    1.40
  -7   7   4    5.37    1.73
  -7  -7   4    2.44    1.87
   7   7   4   -0.23    1.56
  -7  -7   4    0.20    1.54
   7   7   4   -2.58    1.61
   8   6  -4    1.40    1.64
   6  -8  -4    3.96    2.05
   6  -8  -4    2.90    1.24
  -8  -6  -4   -0.70    1.75
  -8  -6  -4    2.74    1.41
   6  -8   4    2.95    1.08
  -8  -6   4    3.26    2.06
   8   6   4    2.45    1.67
  -6   8   4    4.51    1.53
   8   6   4    1.27    1.68
  -6   8   4    2.66    1.63
  -8  -6   4    1.33    2.47
   6  -8   4    2.92    0.76
   4  -8  -4    5.23    1.57
   4  -8  -4    5.92    2.10
  -8  -4  -4    5.39    1.53
  -8  -4  -4    4.19    1.78
   8   4  -4    5.71    2.03
   8   4  -4    2.50    1.75
   4  -8   4    6.05    1.22
   8   4   4    9.78    1.78
  -8  -4   4    8.12    2.90
  -8  -4   4    4.47    2.12
   8   4   4    5.12    1.81
  -4   8   4    6.33    1.56
   4  -8   4    5.57    1.40
  -4   8   4    5.57    1.96
   8   2  -4    2.10    1.65
   2  -8  -4    3.09    2.07
   8   2  -4    3.90    1.68
   2  -8  -4    1.80    1.41
  -2   8  -4    4.36    0.95
  -8  -2  -4    4.00    1.25
  -2   8  -4    5.96    0.90
  -8  -2  -4    2.27    1.46
   2  -8   4    3.37    1.44
  -8  -2   4    2.24    1.67
  -2   8   4    0.47    1.81
  -2   8   4    2.83    1.37
   2  -8   4    2.02    1.14
  -8  -2   4    2.00    1.89
   8   2   4    6.27    1.50
   8   2   4    1.83    1.73
   8   0  -4   -0.63    1.49
  -8   0  -4    0.90    0.95
   8   0  -4    3.32    1.68
   0  -8  -4    1.69    1.27
   0  -8  -4    4.77    1.92
   0   8  -4    0.86    1.07
   0   8  -4    1.28    0.96
  -8   0  -4    0.15    0.82
   0  -8   4    1.26    1.17
   0   8   4    2.40    1.35
  -8   0   4    2.28    1.48
   8   0   4    1.73    1.12
  -8   0   4   -0.71    1.71
   8   0   4   -0.07    1.32
   0  -8   4    1.59    1.43
   0   8   4    1.51    1.60
   8  -2  -4    4.59    1.91
   8  -2  -4    5.53    1.65
  -2  -8  -4    2.37    1.87
  -2  -8  -4    5.08    1.94
   2   8  -4    3.90    1.34
   2   8   4    6.07    1.91
  -8   2   4    4.97    1.71
  -2  -8   4    6.17    1.57
   2   8   4    4.24    1.64
  -2  -8   4    4.48    1.82
   8  -2   4    6.76    1.27
  -8   2   4    4.62    1.77
   8  -2   4    2.72    1.33
   8  -4  -4    7.13    1.70
  -4  -8  -4    6.71    1.74
   8  -4  -4    5.92    2.01
  -4  -8  -4    5.89    2.20
   4   8  -4    4.01    1.63
  -4  -8   4    7.17    1.99
  -8   4   4    6.94    2.02
  -8   4   4    7.10    1.84
  -4  -8   4    6.87    1.75
   4   8   4    5.83    1.78
   4   8   4    0.42    1.89
   6   8  -4   -1.89    1.45
  -6  -8  -4    4.63    1.51
  -6  -8  -4    0.81    1.99
   8  -6  -4    1.94    1.96
   8  -6  -4    2.61    1.34
   6   8  -4   -0.59    1.62
   6   8   4    4.91    1.81
  -8   6   4    6.02    1.60
   6   8   4    3.07    1.70
  -6  -8   4    0.41    1.54
  -6  -8   4    4.20    2.07
  -8   6   4    3.42    1.77
   8   8  -4   -1.18    1.83
   8  -8  -4    2.88    2.18
   8   8  -4    4.02    1.80
  -8  -8  -4    4.31    2.11
  -8  -8  -4    2.95    1.63
   8  -8  -4    3.11    1.50
   8   8   4    5.33    1.90
  -8  -8   4    2.19    2.13
   8   8   4   -0.31    1.78
  -8  -8   4    0.29    2.76
  -8   8   4    2.21    1.76
   9   7  -4   13.00    2.66
  -9  -7  -4   17.64    3.04
   9   7  -4   10.57    2.77
  -9  -7  -4   10.67    3.10
   7  -9  -4   20.87    3.01
   7  -9  -4    9.95    2.91
   9   7   4   18.67    3.28
   9   7   4    8.09    2.61
  -7   9   4    8.77    2.58
   7  -9   4   14.47    2.37
  -9  -7   4   10.66    2.91
  -9  -7   4    9.37    2.55
   5  -9  -4   14.68    3.14
   9   5  -4   12.08    2.91
  -9  -5  -4   15.91    3.06
   5  -9  -4   16.76    3.16
   9   5  -4   11.07    2.81
   9   5   4   16.82    3.36
  -5   9   4   10.39    2.90
   5  -9   4   15.90    2.55
   9   5   4   18.99    3.33
  -9  -5   4   11.78    2.85
   5  -9   4   21.28    2.81
  -9  -5   4   21.24    3.85
   3  -9  -4   26.68    4.28
  -9  -3  -4   24.89    4.16
  -9  -3  -4   25.61    4.40
   3  -9  -4   30.35    4.91
   9   3  -4   23.12    4.52
   9   3  -4   26.63    4.53
  -9  -3   4   24.14    4.83
  -3   9   4   24.39    4.56
   3  -9   4   22.04    4.00
  -9  -3   4   24.19    4.51
   9   3   4   29.42    5.17
  -3   9   4   26.48    4.30
   3  -9   4   21.82    4.23
   9   3   4   28.67    4.44
  -1   9  -4   37.15    5.48
   1  -9  -4   45.11    6.21
  -9  -1  -4   39.59    5.67
  -1   9  -4   34.13    5.55
   9   1  -4   34.15    5.89
   9   1  -4   34.53    5.96
  -9  -1  -4   41.39    5.58
   1  -9  -4   35.91    5.79
   9   1   4   34.09    5.78
  -9  -1   4   41.22    6.06
  -9  -1   4   34.74    5.90
  -1   9   4   34.74    5.81
   1  -9   4   31.52    6.39
   9   1   4   27.17    6.11
  -1   9   4   34.68    6.00
   1  -9   4   33.30    5.64
   9  -1  -4   44.21    6.17
   1   9  -4   39.15    5.80
  -1  -9  -4   41.01    6.28
  -1  -9  -4   37.10    6.02
   9  -1  -4   40.07    6.09
  -9   1   4   37.85    6.10
   9  -1   4   42.64    5.84
   1   9   4   32.93    6.17
  -1  -9   4   28.50    6.09
   1   9   4   37.71    5.99
   9  -1   4   35.84    5.87
  -1  -9   4   32.17    5.88
  -9   1   4   39.27    6.20
  -3  -9  -4   29.05    5.12
   3   9  -4   30.01    4.82
   9  -3  -4   28.01    4.99
   9  -3  -4   27.98    4.72
  -3  -9  -4   27.65    4.71
  -9   3   4   24.09    4.78
  -9   3   4   25.57    4.77
   9  -3   4   27.22    4.33
  -3  -9   4   30.10    4.90
   9  -3   4   29.96    4.34
  -3  -9   4   25.60    4.56
   3   9   4   23.03    5.12
   3   9   4   26.78    4.74
   9  -5  -4   13.57    3.09
   9  -5  -4   21.02    3.20
  -5  -9  -4   12.58    2.84
   5   9  -4   17.38    3.27
  -5  -9  -4   12.44    3.09
   5   9  -4   12.82    2.82
   5   9   4   19.15    3.31
   5   9   4   12.56    2.95
  -5  -9   4   17.94    3.21
  -9   5   4   17.06    3.29
  -9   5   4   12.75    2.86
  -5  -9   4   12.96    3.08
   9  -7  -4   16.66    3.06
   9  -7  -4   13.68    2.51
   7   9  -4    8.61    2.63
  -7  -9  -4   16.12    3.00
   7   9  -4   10.64    2.45
  -7  -9  -4    9.41    2.45
   7   9   4    7.05    2.61
   7   9   4   13.87    2.65
  -9   7   4   12.16    2.62
  -7  -9   4   13.84    2.62
  -7  -9   4   15.35    2.94
   9   9  -4   -2.29    1.76
   9  -9  -4    8.34    2.56
   9   9  -4    2.46    2.01
   9  -9  -4    3.13    1.68
  -9  -9  -4    3.53    2.14
  -9  -9  -4    0.12    1.75
  -9  -9   4    0.67    2.31
   9  -9   4    2.40    0.86
  -9  -9   4    3.94    1.95
   9  -9   4    2.00    1.10
  -9   9   4    2.15    1.82
   9   9   4    3.64    2.07
   9   9   4   -0.07    1.97
  -9   9   4    3.32    1.62
 -10  -8  -4   -0.16    2.01
 -10  -8  -4    2.11    2.04
  10   8  -4    6.14    2.03
   8 -10  -4    1.57    1.62
   8 -10  -4    3.45    2.29
  10   8  -4    3.39    1.94
   8 -10   4    1.32    0.88
 -10  -8   4   -1.90    1.83
  10   8   4   -0.25    1.94
  -8  10   4    2.76    1.84
  -8  10   4    0.81    1.22
 -10  -8   4    4.24    2.47
  10   8   4   -3.32    1.88
   8 -10   4    0.70    1.18
  10   6  -4    5.79    2.11
   6 -10  -4    4.78    2.43
 -10  -6  -4    8.58    1.83
   6 -10  -4    6.18    1.80
  10   6   4    5.21    2.11
  -6  10   4    5.40    2.05
   6 -10   4   11.02    1.62
  10   6   4    4.03    1.97
   6 -10   4    5.05    1.58
 -10  -6   4    6.96    2.51
 -10  -6   4    2.44    1.96
   4 -10  -4   16.93    2.88
 -10  -4  -4   11.58    2.68
   4 -10  -4   16.01    3.14
  10   4  -4   11.21    2.67
  10   4  -4   11.87    2.61
 -10  -4  -4   15.29    2.80
  10   4   4   14.31    2.56
 -10  -4   4   11.56    2.59
   4 -10   4   12.95    2.39
  -4  10   4   10.71    2.63
 -10  -4   4   14.26    2.94
  -4  10   4    9.49    2.41
   4 -10   4   15.95    2.67
  10   4   4   10.42    2.66
   2 -10  -4   45.25    6.89
  -2  10  -4   41.57    6.74
  -2  10  -4   45.16    6.66
   2 -10  -4   49.09    7.27
  10   2  -4   39.19    7.01
 -10  -2  -4   42.51    6.79
  10   2  -4   47.97    7.07
 -10  -2  -4   48.26    6.94
 -10  -2   4   45.92    7.02
 -10  -2   4   51.12    7.28
  10   2   4   40.23    6.95
  -2  10   4   37.70    7.08
   2 -10   4   44.87    6.92
  -2  10   4   51.06    6.93
   2 -10   4   36.63    6.73
  10   2   4   48.14    6.88
 -10   0  -4   95.95   14.39
   0 -10  -4  107.22   14.67
  10   0  -4  102.37   14.57
   0 -10  -4   98.94   14.49
   0  10  -4   96.79   14.35
 -10   0  -4  100.47   14.29
  10   0  -4   91.37   14.52
   0  10   4  100.78   14.49
   0 -10   4   81.99   14.40
  10   0   4   91.20   14.42
   0  10   4   91.80   14.57
  10   0   4  102.56   14.40
   0 -10   4   99.83   14.51
 -10   0   4   99.64   14.55
 -10   0   4   99.04   14.59
  10  -2  -4   47.58    7.21
   2  10  -4   40.43    6.84
  -2 -10  -4   40.14    7.31
  10  -2  -4   43.53    7.05
  -2 -10  -4   45.65    7.06
 -10   2   4   47.82    7.16
  -2 -10   4   42.73    6.92
  -2 -10   4   46.26    7.15
   2  10   4   42.43    7.16
  10  -2   4   44.46    6.82
   2  10   4   47.98    7.07
 -10   2   4   41.44    7.07
  10  -2   4   48.99    6.81
  -4 -10  -4   15.15    2.89
  10  -4  -4   20.69    4.24
  10  -4  -4   17.36    2.96
   4  10  -4   20.21    3.09
  -4 -10  -4   14.31    3.24
  10  -4   4   13.66    2.69
  10  -4   4   14.38    2.74
   4  10   4   11.10    3.13
  -4 -10   4   12.79    2.82
 -10   4   4   21.52    3.57
  -4 -10   4   20.62    3.77
   4  10   4   14.65    3.01
  10  -6  -4    7.41    2.49
  10  -6  -4    4.82    1.88
   6  10  -4    7.51    2.19
   6  10  -4    6.68    1.81
  -6 -10  -4    3.79    1.88
  -6 -10  -4    5.10    2.40
 -10   6   4    6.48    2.11
   6  10   4    5.39    2.07
  10  -6   4    9.10    1.54
  -6 -10   4    6.13    3.92
  10  -6   4    7.95    1.29
  -6 -10   4    1.94    1.94
   6  10   4    1.18    2.07
  -8 -10  -4    1.17    2.24
  10  -8  -4    3.04    2.40
  -8 -10  -4    0.39    1.72
   8  10  -4    1.24    1.82
  10  -8  -4   -0.70    1.64
   8  10  -4   -0.24    2.08
  10  -8   4    3.98    0.87
  -8 -10   4   -1.52    2.82
  10  -8   4    3.02    1.07
 -10   8   4   -0.56    1.59
  -8 -10   4    4.86    3.18
   8  10   4    0.20    2.26
   8  10   4   -1.14    2.20
 -10   8   4    3.26    1.91
  10  10  -4    4.73    2.71
  10  10  -4    7.60    2.56
  10 -10  -4    7.77    2.39
 -10 -10  -4   11.57    3.00
  10 -10  -4   10.11    3.11
 -10 -10  -4   10.31    2.56
  10 -10   4   13.18    1.98
 -10  10   4    9.77    2.50
  10  10   4    8.47    2.88
 -10 -10   4   10.48    2.75
  10 -10   4    9.53    2.07
 -10 -10   4   10.97    3.71
 -10  10   4    7.18    2.51
 -11  -9  -4    6.59    2.59
   9 -11  -4    6.01    1.91
  11   9  -4    5.82    2.24
 -11  -9  -4    1.53    2.00
   9 -11  -4   10.82    2.92
  11   9  -4    4.85    2.32
  -9  11   4    6.07    2.13
  11   9   4    5.81    2.42
 -11  -9   4    7.02    3.17
   9 -11   4    3.50    1.60
 -11  -9   4    1.69    2.22
  11   9   4    1.13    2.43
  -9  11   4    3.12    2.18
   9 -11   4    2.30    1.17
  11   7  -4    1.63    1.99
   7 -11  -4    2.35    2.44
   7 -11  -4    2.39    1.68
 -11  -7  -4    2.69    1.71
 -11  -7   4    2.77    2.46
  11   7   4    1.71    2.02
 -11  -7   4   -0.79    1.84
   7 -11   4    2.08    0.98
  -7  11   4    0.25    0.91
  11   7   4    2.32    1.93
  -7  11   4    0.79    1.86
   7 -11   4    4.74    1.55
  11   5  -4    4.21    2.18
 -11  -5  -4    7.50    2.21
  11   5  -4    4.48    2.28
   5 -11  -4    7.21    2.71
 -11  -5  -4   11.84    3.25
   5 -11  -4    7.18    1.92
 -11  -5   4    7.30    2.23
 -11  -5   4    6.47    2.50
   5 -11   4    7.56    1.54
   5 -11   4    8.47    1.92
  11   5   4   10.61    2.16
  -5  11   4    7.77    1.89
  11   5   4    6.53    2.14
  -5  11   4    6.10    2.16
  11   3  -4   31.98    5.83
  11   3  -4   33.96    5.71
 -11  -3  -4   33.71    5.45
 -11  -3  -4   30.01    5.66
   3 -11  -4   32.66    5.49
 -11  -3   4   30.11    6.03
  11   3   4   34.39    5.61
  -3  11   4   27.98    5.75
   3 -11   4   37.41    5.49
  -3  11   4   40.17    5.56
   3 -11   4   30.24    5.27
 -11  -3   4   34.25    5.69
  11   3   4   39.92    5.58
  -1  11  -4   55.71    8.07
 -11  -1  -4   55.93    8.12
   1 -11  -4   58.54    8.29
  11   1  -4   49.40    8.39
   1 -11  -4   61.85    8.67
 -11  -1  -4   53.29    8.21
  11   1  -4   61.07    8.45
  -1  11   4   44.32    8.47
  11   1   4   63.00    8.27
 -11  -1   4   48.96    8.61
  11   1   4   48.62    8.28
 -11  -1   4   49.11    8.37
  -1  11   4   62.97    8.34
   1 -11   4   42.70    8.14
   1 -11   4   53.27    8.38
  -1 -11  -4   49.25    9.13
  11  -1  -4   52.33    8.58
   1  11  -4   49.87    8.35
  -1 -11  -4   56.29    8.82
  11  -1  -4   64.31    8.72
  11  -1   4   51.96    8.39
 -11   1   4   51.97    8.71
 -11   1   4   59.16    8.60
   1  11   4   55.61    8.68
  11  -1   4   64.64    8.40
  -1 -11   4   44.75    8.39
   1  11   4   62.19    8.55
  -1 -11   4   58.71    8.66
  -3 -11  -4   34.67    5.82
   3  11  -4   30.37    5.89
  11  -3  -4   36.89    6.07
  11  -3  -4   35.06    5.86
   3  11  -4   28.11    5.53
  -3 -11  -4   34.49    6.24
  11  -3   4   47.08    5.55
  11  -3   4   34.76    5.52
   3  11   4   31.45    6.02
  -3 -11   4   40.68    6.22
   3  11   4   39.48    5.93
  -3 -11   4   30.82    5.71
 -11   3   4   33.18    5.93
 -11   3   4   38.42    5.98
  -5 -11  -4    6.52    2.56
  11  -5  -4    7.20    2.47
  11  -5  -4    9.68    2.12
   5  11  -4    6.87    2.24
   5  11  -4    5.39    1.99
  -5 -11  -4    7.18    2.04
   5  11   4   12.37    2.20
 -11   5   4    5.09    2.16
   5  11   4    3.33    2.20
  -5 -11   4    6.87    2.65
  -5 -11   4    2.54    1.91
  11  -5   4    8.72    1.61
  11  -5   4   10.55    1.90
   7  11  -4    6.61    1.89
  11  -7  -4    9.15    2.57
  -7 -11  -4   -1.51    2.26
  -7 -11  -4   -2.24    1.77
  11  -7  -4    4.80    1.84
   7  11  -4    3.95    2.04
 -11   7   4    4.59    1.84
   7  11   4   -0.73    1.91
 -11   7   4    4.17    1.97
  -7 -11   4    5.20    2.74
  -7 -11   4    0.98    1.87
  11  -7   4    5.09    1.14
   7  11   4    1.31    2.11
  -9 -11  -4    1.35    3.08
   9  11  -4    0.98    2.71
  -9 -11  -4    2.94    2.60
  11  -9  -4    3.98    1.95
   9  11  -4    3.23    2.06
  11  -9  -4    5.51    2.73
  -9 -11   4   -1.77    2.91
 -11   9   4    3.70    2.08
   9  11   4    2.52    2.32
  11  -9   4    5.29    1.39
   9  11   4    5.40    2.41
  -9 -11   4    2.71    2.11
  11  -9   4    4.68    1.73
 -11   9   4    2.33    2.06
 -11 -11  -4    3.82    2.96
  11 -11  -4    9.05    2.50
  11 -11  -4    5.63    3.27
  11  11  -4    6.11    3.45
 -11 -11  -4    5.52    2.62
  11  11  -4   11.43    2.69
 -11 -11   4    9.55    2.88
  11  11   4   12.75    3.06
 -11  11   4    7.33    2.58
  11 -11   4   12.61    2.22
 -11 -11   4    8.66    3.72
  11  11   4    8.83    2.88
  11 -11   4    9.48    1.80
 -12 -10  -4   13.01    3.51
  10 -12  -4   10.91    3.01
  10 -12  -4   22.34    4.06
  12  10  -4    9.79    3.30
  12  10  -4   12.78    3.19
  12  10   4   14.09    3.56
 -12 -10   4   14.11    3.42
 -12 -10   4   13.89    4.13
  12  10   4   13.40    4.65
  10 -12   4   22.50    3.37
  10 -12   4   14.80    2.88
 -10  12   4   15.43    3.18
  12   8  -4    3.55    2.33
 -12  -8  -4   -0.88    2.48
   8 -12  -4    3.57    1.86
  12   8  -4    2.62    2.33
 -12  -8  -4   -0.67    1.90
   8 -12  -4   -0.78    2.80
   8 -12   4    5.24    1.71
  -8  12   4    3.55    1.90
  12   8   4    2.09    2.27
   8 -12   4    3.49    1.19
 -12  -8   4    7.88    2.99
 -12  -8   4    0.61    2.05
  12   8   4    4.84    2.34
  -8  12   4    3.75    3.43
   6 -12  -4   22.51    3.37
 -12  -6  -4   11.06    2.82
   6 -12  -4   21.84    3.69
 -12  -6  -4   10.03    3.01
  12   6  -4   10.84    3.11
   6 -12   4   18.23    2.67
  -6  12   4   12.12    3.04
 -12  -6   4   15.24    3.49
  12   6   4   13.18    3.05
   6 -12   4   19.90    3.26
  12   6   4   12.06    3.04
 -12  -6   4   11.00    3.07
  12   4  -4   40.85    6.51
   4 -12  -4   40.80    6.22
   4 -12  -4   39.14    6.87
 -12  -4  -4   37.72    6.22
 -12  -4  -4   35.10    6.43
  12   4  -4   32.49    6.45
  -4  12   4   34.64    6.85
  12   4   4   37.16    6.32
 -12  -4   4   37.71    6.74
   4 -12   4   35.41    5.97
  -4  12   4   42.38    7.33
 -12  -4   4   31.41    6.40
  12   4   4   49.37    6.36
   4 -12   4   44.56    6.22
  12   2  -4   91.54   14.88
 -12  -2  -4   99.95   14.80
  12   2  -4  108.17   15.00
  -2  12  -4  100.53   14.62
   2 -12  -4   95.51   14.77
 -12  -2  -4   96.08   15.08
   2 -12  -4  119.42   15.12
  -2  12  -4  102.53   14.58
  -2  12   4  107.93   14.81
   2 -12   4   99.71   14.80
  12   2   4   88.39   14.78
 -12  -2   4   95.39   14.88
  -2  12   4   89.50   14.91
 -12  -2   4   97.67   15.02
  12   2   4  110.56   14.77
   2 -12   4   85.92   14.66
  12   0  -4  148.89   25.14
   0  12  -4  164.70   24.99
  12   0  -4  190.33   25.20
   0 -12  -4  189.01   25.27
 -12   0  -4  179.85   24.96
   0 -12  -4  178.64   25.12
 -12   0  -4  171.87   24.94
   0  12   4  164.85   25.19
  12   0   4  160.88   25.06
 -12   0   4  155.69   25.22
   0 -12   4  164.80   25.16
   0  12   4  186.75   25.12
   0 -12   4  145.95   25.08
 -12   0   4  171.64   25.16
  12   0   4  176.68   25.04
  -2 -12  -4  108.01   15.00
  12  -2  -4   92.06   14.80
   2  12  -4  101.70   14.64
   2  12  -4   78.82   15.13
  12  -2  -4  100.86   14.90
  -2 -12  -4  106.31   14.77
  -2 -12   4  105.03   14.90
 -12   2   4   92.51   14.82
  12  -2   4  116.47   14.63
  -2 -12   4   86.27   14.67
   2  12   4  106.54   14.81
 -12   2   4   94.07   14.98
   2  12   4   96.55   14.88
  12  -2   4   87.53   14.61
   4  12  -4   31.65    6.58
  12  -4  -4   42.93    6.52
  -4 -12  -4   47.28    6.95
  -4 -12  -4   45.95    6.52
  12  -4  -4   48.04    6.80
 -12   4   4   24.18    6.50
   4  12   4   31.41    6.58
  -4 -12   4   32.70    6.35
  12  -4   4   37.82    6.14
  -4 -12   4   49.38    6.92
  12  -4   4   44.29    6.13
   4  12   4   43.15    6.55
   6  12  -4    9.14    2.84
  -6 -12  -4    9.83    2.72
  12  -6  -4   14.75    3.16
  12  -6  -4   13.10    2.71
   6  12  -4   13.32    2.63
  -6 -12  -4   12.18    3.32
   6  12   4    9.09    2.92
  -6 -12   4   11.04    2.69
  12  -6   4   19.25    2.56
 -12   6   4   10.10    2.78
   6  12   4   10.00    2.76
  -6 -12   4   14.95    3.40
   8  12  -4    1.60    2.23
  -8 -12  -4   -6.41    2.53
  12  -8  -4    1.94    1.91
  -8 -12  -4    1.45    2.04
   8  12  -4    7.31    2.15
  12  -8  -4    5.94    2.75
  12  -8   4    3.42    1.36
  -8 -12   4    0.90    3.13
  12  -8   4    4.78    1.41
  -8 -12   4    2.31    2.14
   8  12   4    3.02    2.33
  10  12  -4    9.11    3.21
  12 -10  -4   13.90    3.66
 -10 -12  -4   13.19    3.69
  10  12  -4   12.81    3.07
  12 -10  -4   12.53    3.07
 -10 -12  -4   15.47    3.16
  10  12   4   15.47    3.43
 -10 -12   4   22.64    4.29
  12 -10   4   16.49    2.69
 -10 -12   4   11.19    3.32
  10  12   4    9.44    3.37
 -12  10   4    8.80    3.11
  12 -10   4   20.93    3.05
  12 -12  -4   27.17    4.70
  12  12  -4    9.19    4.22
  12 -12  -4   23.40    4.62
  12  12  -4   28.62    4.79
 -12 -12  -4   20.20    4.52
  12  12   4   30.08    5.27
 -12  12   4   15.48    4.02
 -12 -12   4   18.42    5.12
  12 -12   4   24.62    3.63
 -12 -12   4   16.33    4.25
  12  12   4   14.77    4.28
  12 -12   4   29.47    4.11
  11 -13  -4    9.88    2.55
  13  11  -4    7.99    2.97
  13  11  -4    7.93    2.81
 -13 -11  -4    2.93    3.02
  11 -13  -4    6.33    3.42
  11 -13   4    8.00    1.78
 -13 -11   4    3.74    4.70
  13  11   4    8.33    2.99
 -11  13   4    3.35    2.68
  13  11   4    8.40    3.09
  11 -13   4   11.58    2.38
 -13 -11   4   10.36    4.65
 -13  -9  -4    3.56    3.51
  13   9  -4    0.86    2.45
  13   9  -4    2.49    2.64
   9 -13  -4    3.79    2.08
   9 -13  -4    6.62    3.07
  13   9   4    3.24    2.70
 -13  -9   4    2.79    2.55
   9 -13   4    6.09    1.41
 -13  -9   4    6.52    3.59
  -9  13   4    8.79    2.32
   9 -13   4    3.26    2.02
  13   9   4    3.42    2.53
 -13  -7  -4    2.10    2.03
   7 -13  -4    6.97    2.93
   7 -13  -4    4.86    1.98
  13   7  -4    4.81    2.60
   7 -13   4    8.84    2.11
 -13  -7   4    6.39    3.04
   7 -13   4    4.80    1.46
 -13  -7   4    6.25    2.53
  13   7   4    7.94    2.53
  13   7   4    4.49    2.39
  -7  13   4    7.31    2.03
   5 -13  -4    5.94    2.84
 -13  -5  -4    2.45    2.15
   5 -13  -4    3.10    1.78
  13   5  -4    3.99    2.50
 -13  -5  -4   -0.03    1.87
  13   5  -4    1.91    2.17
 -13  -5   4    2.83    2.76
   5 -13   4    3.95    1.32
  13   5   4    0.40    1.91
 -13  -5   4   -0.75    2.00
  13   5   4    5.14    2.13
  -5  13   4    3.60    2.09
   5 -13   4    0.43    1.80
   3 -13  -4    6.79    2.63
   3 -13  -4    4.35    1.81
 -13  -3  -4    2.85    1.75
  -3  13  -4    3.72    1.43
  -3  13  -4    6.61    1.19
  13   3  -4    6.05    2.26
 -13  -3  -4    8.12    2.19
   3 -13   4    6.30    1.62
  13   3   4    4.41    2.33
 -13  -3   4    6.76    2.63
   3 -13   4    9.23    2.14
  -3  13   4    4.48    2.22
  -3  13   4    5.45    1.92
  13   3   4    5.45    2.06
 -13  -3   4    5.92    2.12
  13   1  -4    6.83    2.44
  -1  13  -4    8.72    2.66
 -13  -1  -4    9.51    2.19
   1 -13  -4   13.19    3.00
   1 -13  -4   10.70    2.30
  13   1  -4    8.30    2.50
 -13  -1  -4    7.63    1.93
  -1  13   4   10.51    2.32
   1 -13   4   11.31    2.58
   1 -13   4   10.67    2.04
 -13  -1   4    6.57    2.85
  13   1   4   10.33    2.30
 -13  -1   4    6.61    2.43
  -1  13   4    8.15    2.53
  13   1   4   10.94    2.34
   1  13  -4    9.14    2.59
  13  -1  -4   10.56    2.57
  13  -1  -4    6.64    2.65
  -1 -13  -4   10.38    3.44
  -1 -13  -4   11.81    2.49
   1  13  -4    9.76    2.12
 -13   1   4   10.23    2.92
  -1 -13   4    9.19    2.65
   1  13   4   12.66    2.45
   1  13   4    7.18    2.67
  13  -1   4    9.96    2.31
  -1 -13   4    9.97    2.30
  13  -1   4   13.70    2.37
  13  -3  -4    8.74    2.35
   3  13  -4    4.27    1.75
   3  13  -4    7.29    2.22
  -3 -13  -4    5.45    2.02
  13  -3  -4    4.63    2.12
  -3 -13  -4    4.87    2.70
  -3 -13   4    4.80    1.92
  13  -3   4    7.13    1.86
 -13   3   4    4.54    2.23
   3  13   4    6.53    2.26
  -3 -13   4    3.89    2.30
  13  -3   4    7.16    1.77
   3  13   4    5.27    2.13
   5  13  -4    3.75    2.95
  -5 -13  -4    2.90    2.66
  -5 -13  -4    2.29    2.03
  13  -5  -4    2.37    2.55
   5  13  -4    3.25    2.23
  13  -5  -4    3.42    2.11
  -5 -13   4    5.63    2.75
   5  13   4    2.37    2.16
   5  13   4    1.51    2.08
 -13   5   4    2.99    2.41
  -5 -13   4    3.62    1.83
  13  -5   4    6.40    1.59
  13  -5   4   -0.28    1.42
 -13   5   4    3.71    2.17
   7  13  -4    2.29    2.32
  13  -7  -4    7.86    2.90
  13  -7  -4    4.95    2.26
   7  13  -4    3.03    2.06
  -7 -13  -4    3.74    2.89
  -7 -13  -4    3.28    2.15
  -7 -13   4    3.89    2.15
 -13   7   4    9.10    2.74
   7  13   4    5.44    2.44
   7  13   4    1.55    2.37
  -7 -13   4   15.05    3.38
  13  -7   4    4.27    1.56
  13  -9  -4    3.49    3.22
  -9 -13  -4    7.22    2.29
   9  13  -4    2.98    2.50
  13  -9  -4    1.97    2.28
  -9 -13  -4    3.43    2.90
   9  13  -4    2.42    2.29
   9  13   4    6.00    2.71
  -9 -13   4    1.51    3.44
   9  13   4    6.00    2.60
  13  -9   4    1.00    1.42
  13  -9   4    7.19    1.62
  -9 -13   4    4.56    2.31
  13 -11  -4    7.50    3.50
  13 -11  -4   10.25    2.66
  11  13  -4    6.31    2.69
 -11 -13  -4    7.67    3.34
  13 -11   4    6.09    2.05
  13 -11   4    7.44    1.75
  11  13   4    5.16    2.82
 -11 -13   4    5.22    3.88
 -11 -13   4    6.95    2.84
  11  13   4   11.20    3.20
 -13 -13  -4    2.75    3.25
  13  13  -4    7.26    2.84
  13 -13  -4   -6.39    5.79
  13 -13  -4    4.36    2.57
  13 -13   4    4.90    1.57
 -13 -13   4   10.90    3.45
  13  13   4    1.14    2.98
  13 -13   4    5.86    3.02
 -13  13   4   -3.29    3.71
 -13 -13   4    4.22    4.03
  13  13   4    6.16    3.24
  14  12  -4    8.77    3.92
  12 -14  -4   15.02    3.34
  12 -14  -4   19.98    6.27
  14  12  -4   15.98    3.81
 -14 -12  -4   17.20    4.11
 -14 -12   4    9.36    3.79
  12 -14   4   16.24    3.02
  14  12   4   16.56    4.09
  14  12   4   10.89    3.74
 -14 -12   4   23.73    4.89
  12 -14   4   18.18    4.25
  14  10  -4   12.10    4.68
 -14 -10  -4    3.58    3.85
  14  10  -4   14.15    3.17
  10 -14  -4   21.87    4.01
  10 -14  -4   12.45    2.86
 -14 -10   4    7.94    3.22
 -14 -10   4   11.65    4.15
 -10  14   4    9.53    3.01
  14  10   4    8.08    3.42
  14  10   4    9.33    4.45
  10 -14   4   12.17    2.72
   8 -14  -4    4.15    2.04
  14   8  -4    4.03    2.59
 -14  -8  -4   -0.56    2.09
   8 -14  -4   14.31    3.21
  14   8   4    3.88    2.56
 -14  -8   4    4.16    3.60
  14   8   4    3.15    2.56
   8 -14   4    4.97    2.04
   8 -14   4    2.10    1.38
 -14  -8   4    4.52    2.54
  -8  14   4    6.86    2.21
   6 -14  -4   11.07    3.41
   6 -14  -4    9.47    2.44
  14   6  -4    4.71    2.80
 -14  -6  -4    9.77    2.81
  14   6   4   17.92    2.91
 -14  -6   4    5.18    2.64
 -14  -6   4   11.42    3.39
   6 -14   4   10.18    1.96
   6 -14   4   14.19    2.65
  14   6   4    9.25    2.74
  -6  14   4    3.76    2.07
   4 -14  -4   16.44    4.03
  14   4  -4   19.03    3.63
   4 -14  -4   14.28    3.18
 -14  -4  -4   14.86    3.46
  14   4  -4   12.21    3.52
  14   4   4   13.86    3.40
   4 -14   4   29.44    4.12
   4 -14   4   14.98    3.31
  14   4   4   31.40    4.11
  -4  14   4   25.89    3.96
 -14  -4   4   19.13    4.02
  -4  14   4   19.50    3.64
 -14  -4   4   12.66    3.45
  14   2  -4   35.29    6.36
   2 -14  -4   38.12    6.07
 -14  -2  -4   39.57    6.42
   2 -14  -4   38.18    6.85
 -14  -2  -4   32.37    5.90
  14   2  -4   51.40    6.48
  -2  14  -4   38.74    5.65
  -2  14   4   40.02    6.44
 -14  -2   4   29.60    6.66
 -14  -2   4   30.80    6.31
   2 -14   4   27.16    5.82
  14   2   4   44.28    6.18
  -2  14   4   39.62    6.14
   2 -14   4   40.96    6.39
  14   2   4   29.16    6.06
 -14   0  -4   64.33    9.73
   0  14  -4   68.53    9.84
  14   0  -4   53.98   10.17
 -14   0  -4   67.17    9.81
   0 -14  -4   72.12   10.57
   0 -14  -4   64.07   10.56
  14   0  -4   74.62   10.28
   0  14   4   67.23   10.55
   0  14   4   68.83   10.08
 -14   0   4   48.95   10.52
 -14   0   4   60.66   10.19
   0 -14   4   69.24   10.25
  14   0   4   63.12   10.01
   2  14  -4   38.51    6.04
   2  14  -4   36.25    6.73
  -2 -14  -4   39.11    6.34
  14  -2  -4   44.50    6.60
  14  -2  -4   30.26    6.37
  -2 -14  -4   47.90    7.04
 -14   2   4   33.07    6.47
  -2 -14   4   35.37    6.63
   2  14   4   43.17    6.30
  -2 -14   4   30.26    6.06
   2  14   4   27.00    6.46
  14  -2   4   35.03    6.07
  14  -2   4   47.22    6.12
  14  -4  -4   30.72    4.69
  -4 -14  -4   24.02    4.27
   4  14  -4   10.62    3.12
  14  -4  -4   22.76    4.28
  -4 -14  -4   22.45    4.18
  -4 -14   4   14.69    3.93
  -4 -14   4   21.21    3.89
 -14   4   4   19.50    3.94
  14  -4   4   15.60    3.30
  14  -4   4   24.31    3.64
   4  14   4   23.66    4.34
 -14   4   4   16.29    4.91
   4  14   4   17.37    3.74
  14  -6  -4   13.61    3.27
  -6 -14  -4    7.95    3.31
   6  14  -4    6.89    3.41
  14  -6  -4   10.12    2.70
  -6 -14  -4    6.51    2.57
 -14   6   4    8.01    3.19
  -6 -14   4    9.11    2.43
  14  -6   4    9.54    2.03
   6  14   4    8.42    2.75
  -6 -14   4    6.48    3.19
   6  14   4    8.66    2.84
  -8 -14  -4    9.36    3.11
  14  -8  -4    1.35    3.06
   8  14  -4    6.65    2.39
  -8 -14  -4    5.89    3.01
  14  -8  -4    5.79    2.47
   8  14   4    0.75    2.68
  -8 -14   4    2.61    2.31
  -8 -14   4    2.93    3.36
 -14   8   4    7.29    3.01
  14  -8   4    7.33    1.74
  14  -8   4    4.19    1.73
   8  14   4    6.62    3.32
  14 -10  -4   13.36    3.88
  10  14  -4    9.89    3.03
 -10 -14  -4   12.21    3.70
  14 -10  -4    9.30    3.12
 -10 -14  -4   10.37    3.71
  10  14   4   16.40    3.60
 -14  10   4   15.08    3.72
 -10 -14   4   13.30    4.16
  14 -10   4   15.78    2.80
  10  14   4   11.32    3.41
  14 -10   4   10.93    2.48
 -10 -14   4    9.75    3.14
  12  14  -4   16.21    3.54
 -12 -14  -4   18.79    4.16
  14 -12  -4   17.26    3.55
  14 -12  -4   14.34    6.78
  12  14   4    6.85    3.66
  14 -12   4   11.44    3.54
  12  14   4   10.61    3.83
  14 -12   4   16.32    2.97
 -12 -14   4   13.24    4.46
 -12 -14   4   12.54    3.70
 -14 -14  -4    5.08    3.73
  14 -14  -4    7.68    4.14
  14 -14  -4   11.52    3.09
  14 -14   4    8.44    2.12
 -14 -14   4   14.43    6.20
 -14 -14   4   18.19    4.69
  14 -14   4    9.92    2.70
  14  14   4    5.42    3.29
  14  14   4    7.21    3.75
  13 -15  -4   -3.55    3.77
  13 -15  -4    3.81    2.52
  15  13  -4    2.42    2.93
 -15 -13  -4    1.88    3.37
 -13  15   4    0.53    2.68
  13 -15   4    8.35    2.41
 -15 -13   4   -2.90    4.23
  13 -15   4   -0.03    1.52
  15  13   4   -0.04    2.90
  15  13   4   14.40    3.63
  15  11  -4    4.59    2.99
  11 -15  -4   13.65    5.76
  15  11  -4    5.74    2.89
 -15 -11  -4    3.29    3.02
  11 -15  -4    7.64    2.39
  11 -15   4    3.06    2.59
  11 -15   4    6.45    1.65
  15  11   4    2.91    3.22
 -11  15   4    2.07    3.29
  15  11   4    2.52    2.76
 -15 -11   4    6.79    5.32
   9 -15  -4    3.92    2.22
  15   9  -4    5.36    2.83
   9 -15  -4    5.57    3.61
   9 -15   4    8.51    2.31
   9 -15   4    7.00    1.64
  15   9   4    1.46    2.66
  -9  15   4    0.35    2.48
 -15  -9   4    3.41    2.96
  15   9   4    3.89    2.92
 -15  -9   4   11.96    3.94
   7 -15  -4    6.89    3.45
  15   7  -4    5.81    2.70
 -15  -7  -4    6.90    2.69
   7 -15  -4    8.44    2.09
  -7  15   4    5.22    2.19
  15   7   4    2.49    2.65
   7 -15   4    4.53    1.55
   7 -15   4    4.27    2.21
  15   7   4    0.77    2.42
 -15  -7   4    8.12    3.80
 -15  -7   4    0.16    2.49
   5 -15  -4    7.72    3.26
  15   5  -4    8.57    2.67
  15   5  -4    2.00    2.72
   5 -15  -4    8.71    2.03
 -15  -5  -4    4.16    2.44
  15   5   4    4.81    2.35
   5 -15   4    6.53    2.50
 -15  -5   4    1.81    2.49
   5 -15   4    4.13    1.68
 -15  -5   4    2.63    3.17
  15   5   4    9.76    2.63
  15   3  -4   10.24    2.83
  -3  15  -4    8.71    1.76
  15   3  -4    3.30    2.74
   3 -15  -4   15.81    3.61
   3 -15  -4    7.87    2.41
  15   3   4    9.27    2.62
  -3  15   4   10.02    3.31
 -15  -3   4    8.67    3.28
 -15  -3   4    7.30    2.74
   3 -15   4    9.78    2.10
   3 -15   4   13.94    2.75
  15   1  -4   18.11    3.40
  -1  15  -4   14.27    2.70
  15   1  -4   13.06    3.40
   1 -15  -4   13.79    3.23
   1 -15  -4   17.87    3.80
 -15  -1  -4   15.15    3.03
  -1  15   4   15.73    3.16
  15   1   4   13.96    3.09
 -15  -1   4   11.66    3.34
 -15  -1   4   15.92    3.74
  -1  15   4   18.12    3.80
  15   1   4   18.48    3.20
   1 -15   4   13.53    2.84
   1 -15   4   17.22    3.57
  15  -1  -4   12.47    3.26
   1  15  -4   13.43    2.86
  15  -1  -4   17.90    3.52
  -1 -15  -4   17.39    3.26
  -1 -15  -4   18.70    4.00
  -1 -15   4   17.06    3.08
   1  15   4    5.54    3.27
  15  -1   4   18.87    3.28
   1  15   4   18.61    3.29
  15  -1   4   16.50    3.19
  -1 -15   4   16.48    3.55
   3  15  -4    7.37    2.34
  -3 -15  -4   13.09    3.52
  15  -3  -4   10.81    2.85
  -3 -15  -4    9.17    2.79
  15  -3  -4    9.35    3.07
  15  -3   4   10.93    2.56
   3  15   4    8.39    2.88
  -3 -15   4    7.03    3.23
   3  15   4   14.00    2.88
 -15   3   4   12.66    3.18
  15  -3   4   11.57    2.62
  -3 -15   4   12.96    2.57
  15  -5  -4    4.42    2.83
  -5 -15  -4    5.76    3.12
  -5 -15  -4    7.73    2.56
  15  -5  -4    4.37    2.66
 -15   5   4    8.60    3.22
  -5 -15   4    6.75    2.22
  -5 -15   4    8.10    3.06
   5  15   4    0.30    2.94
   5  15   4    4.19    2.57
  15  -5   4    8.73    1.99
  15  -5   4    5.54    2.10
   7  15  -4    5.23    2.20
  -7 -15  -4    4.13    3.33
  -7 -15  -4    4.77    2.68
  15  -7  -4    3.31    2.51
  15  -7  -4    3.04    3.02
  -7 -15   4    0.93    3.09
  15  -7   4    8.80    3.05
   7  15   4    7.18    2.78
  15  -7   4    4.58    1.80
 -15   7   4    1.68    3.19
  -7 -15   4    4.00    2.88
  -9 -15  -4    6.85    3.44
  -9 -15  -4    2.84    2.41
   9  15  -4    8.09    2.53
  15  -9  -4   -0.13    3.23
  15  -9  -4    2.60    2.59
  -9 -15   4    1.84    3.49
  15  -9   4    1.73    1.76
 -15   9   4    2.81    3.33
   9  15   4    5.67    3.33
   9  15   4    2.38    2.68
  -9 -15   4    3.77    2.45
  15  -9   4    2.47    1.83
  15 -11  -4    4.92    2.73
 -11 -15  -4    4.43    3.51
  15 -11  -4   -2.48    4.39
  11  15  -4    0.70    2.55
  15 -11   4   -4.30    3.57
  11  15   4    6.48    4.85
 -11 -15   4    8.17    4.18
  15 -11   4    7.40    1.85
 -11 -15   4    4.40    2.89
  11  15   4   11.83    3.28
 -15  11   4    2.30    3.66
 -13 -15  -4    3.78    3.66
  15 -13  -4    3.88    2.89
  13  15  -4    5.23    2.90
  15 -13  -4   -1.30    3.83
 -13 -15   4    8.32    4.51
 -15  13   4    8.10    3.68
  15 -13   4    1.37    2.20
  15 -13   4    3.01    1.70
  13  15   4    0.63    3.46
 -13 -15   4    2.58    3.23
  15  15  -4    2.43    3.18
  15 -15  -4   -3.66    2.71
  15 -15  -4   -0.11    3.99
 -15 -15  -4    2.82    3.68
 -15 -15   4   -2.05    4.53
  15  15   4    0.03    3.72
  15 -15   4    2.03    1.66
  15 -15   4    2.97    2.40
 -15  15   4   -0.78    4.00
  15  15   4   -0.74    3.56
  14 -16  -4    7.08    4.10
  16  14  -4    6.04    3.43
 -16 -14  -4    7.20    3.60
  14 -16  -4    2.29    2.84
  14 -16   4    2.17    2.57
  16  14   4    3.24    3.39
  14 -16   4    1.14    1.67
 -16 -14   4    0.33    4.68
  16  14   4    3.89    3.76
 -16 -12  -4    9.07    3.59
  12 -16  -4    7.70    2.73
  12 -16  -4   12.49    4.18
  16  12  -4    9.57    3.35
  12 -16   4    4.95    1.98
 -12  16   4    5.04    3.02
  16  12   4   10.23    3.72
  12 -16   4   16.18    2.88
  16  12   4    5.15    3.36
 -16 -12   4    8.63    4.88
  16  10  -4    6.47    2.96
  10 -16  -4    5.63    2.41
  10 -16  -4    5.57    4.01
  10 -16   4    2.66    1.98
  10 -16   4   10.48    2.60
  16  10   4    8.37    3.35
 -16 -10   4   12.50    4.54
 -10  16   4    5.35    2.94
 -16  -8  -4    1.56    2.68
   8 -16  -4    5.06    2.08
   8 -16  -4    7.17    3.39
  16   8  -4    3.06    2.88
  -8  16   4    2.55    2.38
  16   8   4    0.77    2.61
   8 -16   4    5.49    1.60
 -16  -8   4    5.98    3.81
  16   8   4   -0.67    2.86
 -16  -6  -4    5.92    2.59
  16   6  -4    4.82    2.72
   6 -16  -4    8.07    3.36
  16   6  -4   -0.59    2.57
   6 -16  -4   -0.62    1.85
   6 -16   4    4.43    1.60
 -16  -6   4   10.72    3.80
   6 -16   4    2.42    2.24
  -6  16   4    2.70    2.09
  16   6   4    3.74    2.65
  16   6   4    4.57    2.50
   4 -16  -4    5.96    3.27
  16   4  -4    4.82    2.62
  16   4  -4   -0.88    2.54
 -16  -4  -4    5.61    2.90
   4 -16  -4    0.20    1.89
   4 -16   4    3.12    1.63
   4 -16   4    9.01    2.54
  16   4   4    0.48    2.35
  16   4   4    3.33    2.33
 -16  -4   4   -0.01    3.05
  -2  16  -4    3.75    1.44
  16   2  -4    4.27    2.42
   2 -16  -4   10.02    3.40
 -16  -2  -4    3.45    2.30
  16   2  -4    3.18    2.86
   2 -16  -4    6.57    2.09
  16   2   4   -1.04    2.24
  16   2   4    3.18    2.41
  -2  16   4    5.03    2.23
   2 -16   4    3.47    1.71
 -16  -2   4    2.54    3.09
   2 -16   4    7.21    2.68
   0 -16  -4   16.78    3.71
   0 -16  -4   15.31    2.82
  16   0  -4    4.56    2.96
  16   0  -4    9.15    3.02
 -16   0  -4   10.69    2.15
   0  16  -4   14.13    3.50
   0 -16   4   11.04    3.28
   0  16   4   12.33    2.69
  16   0   4   11.34    2.74
   0 -16   4    9.45    2.42
  16   0   4    7.38    2.78
 -16   0   4    7.81    3.86
  16  -2  -4   -3.11    2.36
  -2 -16  -4    7.90    3.16
  -2 -16  -4    3.78    2.14
   2  16  -4    4.11    1.77
  16  -2  -4    4.79    2.45
 -16   2   4    2.74    2.28
  16  -2   4    2.46    2.20
   2  16   4    3.15    2.48
  16  -2   4    2.64    2.08
  -2 -16   4    6.13    2.94
  -2 -16   4    2.77    1.88
   2  16   4    1.49    2.12
  -4 -16  -4    6.04    2.53
   4  16  -4    5.31    2.00
  -4 -16  -4    4.40    3.24
  16  -4  -4    6.08    2.70
  16  -4  -4    3.12    2.85
  16  -4   4    6.46    2.24
  16  -4   4    3.34    2.11
   4  16   4    2.78    2.60
  -4 -16   4    8.20    3.23
   4  16   4    5.06    2.51
 -16   4   4    3.21    3.26
  -6 -16  -4    2.03    2.51
  -6 -16  -4   -0.05    3.25
   6  16  -4    1.94    3.38
  16  -6  -4    5.50    2.90
  16  -6  -4   -0.28    2.57
  -6 -16   4   -0.13    3.25
  -6 -16   4    2.68    2.19
   6  16   4    6.85    2.63
 -16   6   4    3.51    3.48
   6  16   4    4.54    2.70
  16  -6   4    8.51    1.94
   8  16  -4    5.17    2.43
  16  -8  -4    2.53    2.77
  -8 -16  -4    5.71    2.61
  16  -8  -4    1.33    3.27
  -8 -16  -4    3.53    3.64
  -8 -16   4    6.26    3.68
   8  16   4    7.86    3.01
  -8 -16   4    5.31    2.53
 -16   8   4    4.72    3.62
  16  -8   4    3.69    1.92
  16  -8   4    6.60    1.98
   8  16   4    7.41    3.03
  16 -10  -4    1.98    3.64
  10  16  -4    7.20    2.72
 -10 -16  -4    6.51    3.91
  16 -10  -4    6.53    3.01
 -10 -16   4    6.96    2.92
  10  16   4    7.74    3.13
 -10 -16   4   13.66    4.16
  10  16   4    1.71    3.05
  16 -10   4    6.79    2.18
  16 -10   4    3.61    2.05
 -16  10   4    7.82    3.88
 -12 -16  -4    2.39    3.86
  12  16  -4    8.01    3.11
  16 -12  -4    5.39    3.13
  16 -12  -4   11.23    4.19
 -12 -16   4    8.10    5.06
  16 -12   4    8.64    2.38
  16 -12   4    8.70    2.20
 -12 -16   4    8.77    4.69
  12  16   4    3.42    3.35
  12  16   4    8.66    3.67
 -16  12   4    6.73    4.00
  14  16  -4   -2.58    3.52
 -14 -16  -4    3.70    3.92
  16 -14  -4   -0.07    2.99
  16 -14  -4    4.63    4.17
  16 -14   4    6.68    2.41
 -16  14   4    4.82    4.26
  14  16   4    9.79    3.80
  14  16   4    4.38    3.42
 -14 -16   4   -6.52    4.55
  16 -14   4    3.03    1.85
  13 -17  -4    8.26    4.32
  13 -17  -4   -0.19    2.56
  17  13  -4    0.13    3.29
 -17 -13  -4    3.33    3.43
  17  13   4   -2.05    3.87
 -17 -13   4    4.84    4.89
  17  13   4    2.68    3.52
  13 -17   4    3.40    2.81
 -13  17   4   -2.41    2.92
  13 -17   4    2.48    1.69
  17  11  -4    0.18    3.05
  11 -17  -4    1.48    2.42
  11 -17  -4    7.07    3.96
  17  11   4    0.02    3.08
 -11  17   4    0.57    2.81
 -17 -11   4   -0.11    4.77
  11 -17   4    6.08    2.76
  11 -17   4   -0.83    1.57
   9 -17  -4   -3.01    3.43
   9 -17  -4   -1.40    1.96
 -17  -9  -4    0.15    2.83
  17   9  -4    2.40    3.04
   9 -17   4    1.55    1.56
  -9  17   4   -0.91    2.60
   9 -17   4    2.13    2.40
 -17  -9   4   -1.10    4.38
  17   9   4   -1.13    2.70
  17   9   4    1.72    3.14
   7 -17  -4    1.65    1.93
  17   7  -4   -5.73    2.75
   7 -17  -4    0.46    3.57
 -17  -7  -4    0.01    2.64
  17   7  -4    0.70    2.81
  17   7   4   -3.70    2.87
  17   7   4    1.09    2.53
  -7  17   4   -1.07    2.19
   7 -17   4   -3.05    1.54
 -17  -7   4   -0.76    3.89
   7 -17   4    0.73    2.43
   5 -17  -4    0.06    1.93
  17   5  -4   -1.18    2.66
   5 -17  -4   -2.19    3.40
  17   5  -4    5.48    2.91
 -17  -5  -4   -0.93    2.62
  17   5   4   -0.50    2.62
  17   5   4   -5.20    2.31
   5 -17   4    7.01    4.00
  -5  17   4    2.85    2.07
 -17  -5   4    0.57    3.64
   5 -17   4    1.88    1.68
  17   3  -4    3.73    2.78
 -17  -3  -4    5.45    2.75
   3 -17  -4    9.38    3.57
   3 -17  -4    5.29    2.23
  17   3  -4    8.87    2.96
  -3  17  -4    5.43    1.68
  -3  17   4    8.69    3.78
  17   3   4    8.52    2.70
 -17  -3   4    7.03    3.52
   3 -17   4    8.95    2.05
  17   3   4    2.82    2.98
   3 -17   4    7.74    2.87
 -17  -1  -4   11.29    2.66
  17   1  -4   13.23    3.11
  17   1  -4    9.55    3.01
   1 -17  -4    7.46    2.58
   1 -17  -4    9.20    3.58
  -1  17  -4    8.41    2.16
  17   1   4    7.13    2.84
   1 -17   4   10.47    2.34
   1 -17   4   11.84    3.37
  17   1   4   14.16    2.83
  -1  17   4    8.25    2.63
 -17  -1   4   11.22    3.73
  17  -1  -4   10.35    3.06
   1  17  -4   10.01    2.31
  -1 -17  -4   14.85    3.67
  -1 -17  -4    8.47    2.58
  17  -1  -4    2.46    2.70
  17  -1   4    9.64    2.66
  -1 -17   4   14.32    3.36
  17  -1   4    8.92    2.67
 -17   1   4    1.88    2.22
   1  17   4    8.33    2.49
  -1 -17   4    7.82    2.34
   3  17  -4    7.76    2.11
  -3 -17  -4    8.80    2.67
  17  -3  -4    6.03    2.86
  -3 -17  -4   12.42    3.69
  17  -3  -4    5.39    2.83
  17  -3   4    4.25    2.43
  -3 -17   4    2.97    2.16
  17  -3   4    6.17    2.45
   3  17   4    7.55    2.47
 -17   3   4    5.98    3.23
  -3 -17   4    5.40    3.53
  -5 -17  -4    3.48    3.34
  17  -5  -4   -0.69    2.69
   5  17  -4   -0.18    1.80
  -5 -17  -4    3.15    2.44
  17  -5  -4   -2.22    2.80
   5  17   4    4.17    2.61
 -17   5   4    4.99    3.14
  17  -5   4   -1.37    1.99
  -5 -17   4    0.88    2.14
  -5 -17   4    1.86    3.39
   7  17  -4    0.90    4.09
  -7 -17  -4   -1.66    2.62
  -7 -17  -4    2.89    3.49
  17  -7  -4    1.34    3.29
  17  -7  -4   -4.69    2.60
   7  17   4   -2.14    2.57
 -17   7   4   -3.01    3.59
  -7 -17   4    2.04    3.55
  -7 -17   4   -0.06    2.23
  17  -7   4   -3.29    1.99
  17  -7   4    2.33    2.24
  17  -9  -4   -0.31    3.46
  17  -9  -4    2.55    2.90
   9  17  -4    0.45    2.35
  -9 -17  -4    2.05    3.59
 -17   9   4   -1.19    3.82
  -9 -17   4    0.36    2.58
  17  -9   4   -3.38    1.98
  -9 -17   4   -5.36    3.95
   9  17   4    3.49    2.99
  17  -9   4    1.68    1.87
  17 -11  -4    1.20    3.06
  17 -11  -4    2.82    3.68
 -11 -17  -4    3.74    4.14
  11  17  -4    4.76    2.70
 -11 -17   4    0.21    4.32
 -17  11   4   -0.34    3.92
  17 -11   4    1.34    2.06
  11  17   4    0.95    3.28
  17 -11   4    0.47    2.02
 -11 -17   4   -0.03    2.94
  13  17  -4   -0.04    3.01
 -13 -17  -4    2.28    4.17
  17 -13  -4   -2.57    4.08
  17 -13  -4    5.28    3.34
 -17  13   4   -2.55    5.22
  17 -13   4    1.17    1.96
 -13 -17   4    5.29    4.33
  13  17   4    3.72    3.75
  17 -13   4    2.23    2.12
 -13 -17   4   -7.70    4.83
  12 -18  -4    1.79    2.54
  12 -18  -4   11.85    4.51
  18  12  -4    1.05    3.46
 -18 -12  -4   -0.48    3.88
 -18 -12   4    7.12    5.32
  18  12   4   -0.97    3.25
  12 -18   4   12.70    3.12
  12 -18   4   -0.79    1.79
  18  12   4    9.34    3.90
 -12  18   4   -1.74    3.01
  10 -18  -4    2.96    2.27
  18  10  -4    3.59    3.11
  10 -18  -4   10.43    4.08
  10 -18   4    4.08    2.73
  18  10   4    0.80    3.70
 -10  18   4    1.83    2.93
  10 -18   4    2.05    1.77
  18  10   4    4.75    3.59
 -18 -10   4   -3.24    4.63
  18   8  -4   -5.58    3.02
 -18  -8  -4    4.15    2.96
   8 -18  -4   -2.20    3.56
  18   8  -4   -7.82    2.99
   8 -18  -4    0.78    2.13
   8 -18   4   -0.44    1.66
  -8  18   4   -2.01    2.51
  18   8   4    2.06    3.18
  18   8   4    1.05    2.78
   8 -18   4    0.13    2.64
 -18  -8   4    1.52    4.35
  18   6  -4   -3.40    2.87
   6 -18  -4    1.31    2.10
   6 -18  -4    6.77    4.16
  18   6  -4    3.10    2.95
 -18  -6  -4    7.53    2.87
  -6  18   4    6.93    2.54
  18   6   4    4.72    3.11
   6 -18   4    2.43    1.79
   6 -18   4    9.56    2.78
  18   6   4    2.70    2.63
 -18  -6   4    1.88    3.98
  18   4  -4   10.64    3.57
   4 -18  -4   14.08    2.92
   4 -18  -4   23.96    4.35
 -18  -4  -4   16.13    3.46
  18   4  -4   16.34    3.58
 -18  -4   4   15.74    4.54
  -4  18   4    8.34    2.69
  18   4   4   13.04    3.73
   4 -18   4   11.57    2.64
  18   4   4    8.99    3.22
   4 -18   4   15.19    3.65
   2 -18  -4   28.35    5.74
   2 -18  -4   41.63    6.86
  18   2  -4   31.75    5.90
 -18  -2  -4   25.77    5.63
  -2  18  -4   29.26    4.87
  18   2  -4   23.07    5.57
   2 -18   4   23.89    4.96
 -18  -2   4   24.34    7.19
  18   2   4   25.96    5.71
  -2  18   4   36.23    6.04
  18   2   4   26.89    6.17
   2 -18   4   33.43    5.99
  18   0  -4   26.93    6.14
  18   0  -4   50.28    6.83
   0 -18  -4   44.09    7.45
   0  18  -4   37.27    5.95
   0 -18  -4   29.57    6.36
   0 -18   4   26.99    6.02
   0  18   4   44.27    6.37
   0 -18   4   40.12    7.60
  18   0   4   46.85    7.16
  18   0   4   33.76    6.43
   2  18  -4   33.69    5.09
  -2 -18  -4   31.32    5.84
  18  -2  -4   23.32    5.19
  18  -2  -4   30.94    5.98
  -2 -18  -4   28.74    5.69
  18  -2   4   25.21    5.36
  -2 -18   4   30.01    5.54
   2  18   4   29.11    5.55
 -18   2   4   22.28    5.45
  -2 -18   4   22.56    5.09
  18  -2   4   31.90    5.50
  18  -4  -4   11.23    3.70
  -4 -18  -4   17.42    4.37
  -4 -18  -4   13.61    3.51
  18  -4  -4   14.15    3.75
   4  18  -4   15.00    3.05
  -4 -18   4   12.38    3.24
  18  -4   4   13.84    3.36
  -4 -18   4   16.17    4.20
   4  18   4   11.20    3.24
 -18   4   4   11.61    3.90
  18  -4   4   22.87    3.99
  18  -6  -4    4.12    3.55
  -6 -18  -4    0.95    3.82
  -6 -18  -4    1.72    2.97
  18  -6  -4   -1.88    2.79
  18  -6   4    8.49    4.41
  -6 -18   4    3.05    3.74
 -18   6   4    3.92    3.51
  18  -6   4    4.31    2.18
  -6 -18   4    2.03    2.34
   6  18   4    7.60    2.98
  18  -8  -4    5.26    3.18
   8  18  -4   -2.23    2.32
  18  -8  -4    5.78    3.49
  -8 -18  -4   -1.11    3.79
   8  18   4    0.23    3.08
 -18   8   4   -1.15    3.35
  18  -8   4    1.54    2.00
  18  -8   4   -1.75    2.16
  -8 -18   4   -1.35    2.49
  -8 -18   4   -3.06    4.05
 -10 -18  -4    8.74    4.35
  18 -10  -4   -2.32    3.60
  18 -10  -4    1.22    3.25
  10  18  -4    3.54    2.66
  18 -10   4   -1.85    2.17
 -18  10   4    2.56    4.23
 -10 -18   4    5.32    3.06
  18 -10   4   -1.58    2.06
  10  18   4    4.74    3.24
 -10 -18   4    2.33    4.61
  18 -12  -4    4.43    3.42
 -12 -18  -4    3.51    4.25
  12  18  -4    4.76    2.96
  18 -12  -4   -1.10    4.01
 -18  12   4    0.83    6.23
  18 -12   4    5.38    2.33
  18 -12   4    4.31    2.31
 -12 -18   4    3.62    3.61
  12  18   4    6.95    3.80
 -12 -18   4    9.75    5.10
  19  11  -4    2.31    3.46
  11 -19  -4    0.86    2.47
  11 -19  -4    1.59    4.25
  11 -19   4   -0.46    1.83
  19  11   4   10.26    4.12
  19  11   4    3.95    3.55
  11 -19   4    4.22    3.16
 -11  19   4   -0.86    3.16
 -19 -11   4    0.82    4.48
  19   9  -4   -1.60    3.47
   9 -19  -4    5.96    4.01
  19   9  -4    3.14    3.38
 -19  -9  -4   -0.77    3.10
   9 -19  -4    1.50    2.23
   9 -19   4   -1.48    2.03
  19   9   4    1.33    3.04
 -19  -9   4   -0.80    4.69
  19   9   4   -4.57    3.34
   9 -19   4   -1.99    2.69
   7 -19  -4    2.41    2.25
  19   7  -4    5.35    3.18
 -19  -7  -4    3.74    3.09
   7 -19  -4   11.50    4.07
  19   7  -4   -1.92    3.29
   7 -19   4   -3.13    2.62
  19   7   4    1.09    2.90
   7 -19   4   -1.31    1.80
  -7  19   4   -1.30    2.51
 -19  -7   4   -1.18    4.35
  19   7   4    1.81    3.17
 -19  -5  -4    3.20    2.83
  19   5  -4   -0.32    3.10
   5 -19  -4   -1.38    4.20
  19   5  -4    1.03    3.06
   5 -19  -4    2.87    2.13
 -19  -5   4    1.59    4.08
  19   5   4   -2.40    2.88
  19   5   4   -1.58    2.80
   5 -19   4    0.63    1.79
  -5  19   4    0.57    2.47
   5 -19   4    5.44    2.78
  -3  19  -4    7.65    1.97
  19   3  -4    6.68    3.05
   3 -19  -4   13.76    3.93
 -19  -3  -4    7.91    3.04
   3 -19  -4    7.38    3.60
  19   3  -4   -0.30    2.96
 -19  -3   4    8.29    6.93
   3 -19   4    7.38    3.32
  19   3   4    1.21    2.72
  19   3   4    7.57    3.14
   3 -19   4    6.56    2.10
   1 -19  -4    8.36    2.72
  19   1  -4    3.20    3.11
  19   1  -4    8.91    3.15
  -1  19  -4    9.91    2.23
 -19  -1  -4    8.84    2.93
   1 -19  -4   11.74    4.01
  19   1   4    2.41    2.82
   1 -19   4    3.91    3.19
  19   1   4   13.84    2.99
  -1  19   4    7.90    3.07
   1 -19   4    5.27    2.34
  19  -1  -4   -1.09    2.98
  19  -1  -4    7.88    3.24
  -1 -19  -4    6.26    2.68
   1  19  -4    6.80    2.36
  -1 -19  -4    8.29    3.79
 -19   1   4    9.42    3.65
  -1 -19   4    6.89    2.39
  19  -1   4   14.62    2.81
  19  -1   4    9.96    2.87
  -1 -19   4   10.39    3.58
   1  19   4    7.79    2.65
  -3 -19  -4    8.99    3.93
  19  -3  -4    7.65    3.22
  -3 -19  -4    6.20    2.89
  19  -3  -4    4.68    3.64
   3  19  -4    3.41    2.24
   3  19   4    7.28    2.66
  -3 -19   4    6.55    3.78
  19  -3   4    8.36    2.66
  19  -3   4    5.63    2.67
  -3 -19   4    2.17    2.41
 -19   3   4    6.13    3.74
  -5 -19  -4    0.38    3.81
   5  19  -4   -0.30    2.14
  19  -5  -4   -5.88    3.14
  19  -5  -4    3.47    3.06
  19  -5   4    0.02    2.44
   5  19   4    7.40    2.98
 -19   5   4    7.62    3.87
  -5 -19   4    1.41    4.61
  -5 -19   4    1.48    2.35
  19  -7  -4   -3.20    3.27
  -7 -19  -4    2.62    4.09
  19  -7  -4    1.69    3.13
  -7 -19  -4    3.86    3.35
   7  19   4   -2.87    3.05
 -19   7   4    0.76    3.36
  19  -7   4   -2.48    2.15
  19  -7   4   -0.62    2.44
  -7 -19   4    0.83    2.49
  -7 -19   4   -2.49    6.49
  19  -9  -4    5.06    3.59
   9  19  -4   -1.34    2.53
  19  -9  -4   -2.11    3.29
  -9 -19  -4   -0.92    4.13
 -19   9   4    2.92    3.51
  19  -9   4    2.37    2.15
   9  19   4    0.70    3.27
  -9 -19   4    3.64    2.90
  19  -9   4   -2.14    2.39
  19 -11  -4   -5.88    3.77
 -11 -19  -4    5.53    4.64
  11  19  -4    1.10    2.76
  19 -11  -4   -4.26    3.35
  19 -11   4    0.48    2.18
 -19  11   4    1.70    7.61
  19 -11   4   -3.16    2.42
 -11 -19   4    6.41    8.95
 -11 -19   4   -0.81    3.93
  11  19   4   -6.94    3.58
  10 -20  -4    0.30    4.60
 -20 -10  -4   -1.33    3.45
  20  10  -4    0.96    3.53
  10 -20  -4    1.35    2.49
  10 -20   4    1.17    2.02
 -20 -10   4   -1.77    4.09
  20  10   4    4.30    3.97
  20  10   4    4.16    3.63
 -10  20   4   -0.19    3.32
  10 -20   4    3.76    3.26
 -20  -8  -4    0.58    3.45
   8 -20  -4   -1.75    4.15
  20   8  -4    1.42    3.52
   8 -20  -4   -0.45    2.34
  -8  20   4   -4.78    3.34
   8 -20   4    1.89    1.96
  20   8   4   -6.11    3.37
   8 -20   4    0.62    2.93
  20   8   4    2.74    3.28
 -20  -8   4   -1.52    4.63
  20   6  -4   -5.40    3.24
   6 -20  -4    1.63    2.18
  20   6  -4    6.05    3.27
   6 -20  -4    2.73    4.13
 -20  -6  -4   -1.88    2.98
 -20  -6   4    1.06    4.46
  20   6   4   -5.39    3.10
  20   6   4    0.49    2.99
   6 -20   4   -2.48    2.75
   6 -20   4    0.53    1.90
  -6  20   4    1.05    2.68
  20   4  -4   -0.36    3.05
   4 -20  -4    2.82    2.26
 -20  -4  -4    4.56    3.11
   4 -20  -4    3.73    3.92
  20   4  -4    8.72    3.61
  20   4   4    0.82    2.81
  -4  20   4    0.68    2.43
   4 -20   4   -2.11    2.72
   4 -20   4   -0.32    1.86
 -20  -4   4    6.83    4.52
  20   4   4   -0.91    2.86
   2 -20  -4   -0.99    2.20
   2 -20  -4   12.40    6.24
 -20  -2  -4   -1.90    3.13
  -2  20  -4    5.63    3.42
  20   2  -4   -2.14    2.97
   2 -20   4   -1.86    1.75
  20   2   4    0.67    2.71
  20   2   4   -2.04    2.66
   2 -20   4    2.47    3.46
  20   0  -4    0.81    2.98
   0  20  -4    3.17    2.01
   0 -20  -4   -2.16    2.27
   0 -20  -4   -1.24    3.64
  20   0  -4   -4.24    3.02
  20   0   4    2.84    2.52
   0  20   4    0.41    2.38
  20   0   4    1.86    2.69
   0 -20   4   -5.24    3.23
 -20   0   4   -0.26    3.76
   0 -20   4    4.31    2.02
  20  -2  -4   -4.72    2.80
  20  -2  -4    0.58    3.28
  -2 -20  -4   -4.65    3.78
   2  20  -4    4.59    2.53
  -2 -20  -4   -0.46    2.74
  -2 -20   4    1.18    2.11
  -2 -20   4   -0.65    3.60
 -20   2   4   -0.22    3.63
  20  -2   4    2.91    2.68
   2  20   4   -0.39    2.45
  20  -2   4   -1.66    2.67
  20  -4  -4   -5.60    2.84
  -4 -20  -4   -4.36    3.58
  -4 -20  -4   -0.25    4.02
  20  -4  -4   -1.90    3.25
   4  20  -4    1.87    2.27
  -4 -20   4    5.30    3.87
   4  20   4    2.36    2.57
  20  -4   4   -0.32    2.48
 -20   4   4   -1.24    4.01
   6  20  -4   -0.45    2.53
  -6 -20  -4    4.73    4.27
  -6 -20  -4   -1.80    3.14
  20  -6  -4    5.57    3.44
  20  -6  -4   -2.25    3.23
   6  20   4    0.25    3.02
  20  -6   4   -3.19    2.43
 -20   6   4    1.57    3.67
  -6 -20   4   -3.37    4.16
  -6 -20   4   -0.35    2.48
  20  -6   4    0.08    2.67
   8  20  -4   -1.29    2.81
  20  -8  -4   -3.74    3.54
  20  -8  -4   -0.91    3.56
  -8 -20  -4   -2.34    4.23
  20  -8   4   -0.39    2.72
  20  -8   4   -0.39    2.28
   8  20   4   -2.49    3.46
  -8 -20   4    3.49    2.90
  -8 -20   4    0.31    4.52
 -20   8   4    0.38    3.78
 -10 -20  -4   -3.39    4.43
  20 -10  -4  -12.92    3.76
  20 -10  -4    0.72    3.68
  10  20  -4   -2.68    2.71
  20 -10   4   -2.43    2.57
  20 -10   4    2.19    2.27
  10  20   4    0.65    3.56
 -20  10   4   -1.44    5.56
 -10 -20   4    0.72    3.63
 -10 -20   4   -0.90    5.11
  21   7  -4   -1.58    3.86
  21   7  -4    4.98    3.66
 -21  -7  -4    1.65    3.59
   7 -21  -4    0.78    4.38
   7 -21  -4    0.11    2.40
   7 -21   4    3.49    3.15
  21   7   4    4.41    3.57
  -7  21   4    3.07    5.34
   7 -21   4   -1.28    2.00
  21   7   4   -1.81    3.24
 -21  -7   4   -5.50    4.56
  21   5  -4   -0.83    3.31
  21   5  -4   -4.92    3.45
   5 -21  -4    0.39    2.29
   5 -21  -4    1.63    4.29
 -21  -5  -4    0.35    3.37
 -21  -5   4   -5.93    4.36
  21   5   4    2.12    3.24
  21   5   4   -2.05    2.95
   5 -21   4   -3.71    2.88
   5 -21   4   -1.23    1.98
  -5  21   4    0.26    2.78
  21   3  -4    1.84    3.25
   3 -21  -4    0.91    3.97
  21   3  -4   -0.91    3.19
   3 -21  -4   -2.20    2.29
 -21  -3  -4   -3.23    3.53
  -3  21   4    1.45    2.90
   3 -21   4   -1.72    1.90
   3 -21   4    5.57    3.20
  21   3   4    1.05    2.88
  21   3   4    0.22    2.88
   1 -21  -4   -0.71    2.47
  21   1  -4    1.63    4.83
  -1  21  -4    1.16    3.76
   1 -21  -4    2.55    4.13
  21   1  -4   -2.19    3.21
 -21  -1   4   -0.41    4.07
  21   1   4   -3.16    2.80
  21   1   4   -0.60    2.73
   1 -21   4    2.43    3.55
  -1 -21  -4   13.10    6.89
  21  -1  -4   -6.11    3.23
  21  -1  -4   -0.54    3.01
  -1 -21  -4   -1.62    2.74
   1  21  -4    1.97    2.24
  -1 -21   4    1.52    2.15
  21  -1   4   -3.94    2.73
   1  21   4    2.36    2.51
 -21   1   4    0.27    4.10
  -1 -21   4    5.55    3.90
  21  -1   4    2.04    2.60
  21  -3  -4   -4.27    3.48
  21  -3  -4    1.42    3.08
  -3 -21  -4    3.84    4.02
  -3 -21  -4   -0.59    3.08
   3  21   4   -0.50    2.54
  -3 -21   4    1.74    2.44
  -3 -21   4    0.22    3.82
  21  -3   4    4.58    2.88
 -21   3   4   -3.34    5.82
  21  -5  -4   -2.77    3.72
  -5 -21  -4    2.86    4.34
  -5 -21  -4   -5.25    3.09
  21  -5  -4    1.30    3.31
   5  21  -4   -0.30    2.48
  -5 -21   4   -2.06    4.32
  21  -5   4   -1.70    4.65
 -21   5   4   -0.39    3.94
  -5 -21   4    0.62    2.69
  21  -5   4    2.03    2.70
   5  21   4   -2.94    2.59
  -7 -21  -4   -4.50    4.39
  21  -7  -4   -0.14    3.47
  21  -7  -4   -4.16    3.65
 -21   7   4   -0.43    3.88
  -7 -21   4    0.57    2.87
  21  -7   4   -3.31    2.85
   7  21   4   -2.07    3.27
  21  -7   4    1.33    2.58
  -7 -21   4    3.08    4.56
  22   4  -4   -0.60    3.62
  22   4  -4    5.90    3.54
 -22  -4  -4    0.36    4.23
   4 -22  -4    1.12    2.68
   4 -22  -4   -1.71    4.42
  22   4   4   -4.89    3.00
   4 -22   4   -0.61    3.18
  -4  22   4    0.03    2.83
  22   4   4   -4.67    3.09
   4 -22   4    2.80    2.13
  22   2  -4   -3.64    3.63
  22   2  -4   -6.70    3.18
   2 -22  -4    1.15    2.63
   2 -22  -4    9.20    4.34
  22   2   4    0.72    2.87
  22   2   4   -3.99    2.94
   2 -22   4    1.02    3.44
   2 -22   4    0.09    2.17
 -22  -2   4    1.65    4.53
   0  22  -4   -0.67    2.96
   0 -22  -4   -0.79    2.96
  22   0  -4   -1.31    3.67
  22   0  -4   -4.45    3.20
   0 -22  -4    6.86    4.36
   0 -22   4    4.95    3.92
  22   0   4   -4.07    3.04
  22   0   4    0.95    2.84
 -22   0   4   -1.39    4.30
   0  22   4    1.35    4.21
   0 -22   4    0.70    2.30
  -2 -22  -4   -3.17    3.06
   2  22  -4    1.93    2.41
  22  -2  -4    1.40    3.94
  22  -2  -4   -0.03    3.28
  -2 -22  -4   -0.54    4.30
  -2 -22   4    1.49    2.56
  -2 -22   4    0.82    4.41
  22  -2   4    1.64    2.79
 -22   2   4   -3.94    9.21
   2  22   4    2.34    2.73
  -4 -22  -4    2.54    5.49
  22  -4  -4    2.69    3.37
  22  -4  -4   -4.97    3.90
  -4 -22  -4   -2.95    3.61
  -4 -22   4   -2.50    4.05
  22  -4   4    2.53    2.86
  -4 -22   4    0.47    2.75
  22  -4   4   -5.15    3.28
 -22   4   4    5.75    4.53
   1   0  -5    1.90    1.01
   1   0  -5    2.72    1.32
   0  -1  -5    2.93    1.07
   1   0   5    2.19    1.07
   0   1   5    4.18    1.38
   0  -1   5    3.07    1.04
   1   0   5    2.88    1.26
   0  -1   5    2.20    1.18
  -1   0   5    4.65    1.24
   0   1   5    1.04    1.11
  -1   0   5    3.10    1.12
   1  -2  -5   22.93    3.94
   1  -2  -5   28.93    4.16
  -2  -1  -5   23.05    3.83
  -1   2  -5   18.54    3.79
   2   1  -5   24.86    3.95
  -1   2  -5   23.10    3.74
   2   1  -5   23.68    3.99
   2   1   5   25.69    4.13
   2   1   5   26.97    3.92
  -2  -1   5   27.46    4.03
  -2  -1   5   27.10    4.07
  -1   2   5   21.91    4.02
  -1   2   5   24.95    4.16
   1  -2   5   23.37    3.97
   1  -2   5   25.26    3.83
  -2   1  -5   24.42    3.83
  -2   1  -5   24.82    3.90
   2  -1  -5   23.61    4.01
   1   2  -5   25.93    3.94
   2  -1  -5   26.43    4.24
  -2   1   5   24.85    4.08
   2  -1   5   24.17    3.88
  -1  -2   5   23.52    4.02
  -1  -2   5   24.04    4.04
   2  -1   5   26.30    4.03
   1   2   5   25.07    4.08
  -2   1   5   22.32    4.17
   1   2   5   25.16    4.24
   3   2  -5   45.44    6.36
   2  -3  -5   42.30    6.49
   3   2  -5   46.93    6.93
   2  -3  -5   37.00    6.19
  -3  -2  -5   44.38    6.15
  -2   3  -5   35.90    6.00
  -2   3  -5   40.41    6.03
   2  -3   5   37.70    6.13
  -2   3   5   40.16    6.43
  -3  -2   5   38.35    6.30
   3   2   5   43.72    6.35
   3   2   5   45.83    6.23
   2  -3   5   37.62    6.08
  -2   3   5   40.75    6.27
  -3  -2   5   44.19    6.29
  -3   0  -5    3.58    1.23
   0   3  -5    5.77    1.31
   3   0  -5    6.24    1.39
   0  -3  -5    5.16    1.70
   0  -3  -5    5.28    1.34
   3   0  -5    6.64    1.62
  -3   0  -5    5.10    1.15
   0   3  -5    4.65    1.21
   0   3   5    4.94    1.75
   3   0   5    5.61    1.46
   3   0   5    5.27    1.25
   0  -3   5    5.84    1.43
  -3   0   5    4.06    1.51
   0  -3   5    5.02    1.30
   0   3   5    5.41    1.43
  -3   0   5    4.33    1.46
   3  -2  -5   37.75    6.36
  -2  -3  -5   43.49    6.16
  -2  -3  -5   42.57    6.36
  -3   2  -5   39.04    5.96
  -3   2  -5   37.52    5.95
   2   3  -5   44.29    6.19
   3  -2  -5   39.41    6.20
  -3   2   5   38.24    6.28
  -3   2   5   41.87    6.36
   2   3   5   39.02    6.35
   3  -2   5   37.29    6.01
  -2  -3   5   42.66    6.23
   3  -2   5   41.53    6.08
   2   3   5   42.07    6.23
  -2  -3   5   42.49    6.25
   4   3  -5  156.68   23.92
   3  -4  -5  156.50   23.89
   4   3  -5  167.63   23.92
  -4  -3  -5  167.05   23.86
   3  -4  -5  174.64   24.01
   3  -4   5  159.13   23.82
  -3   4   5  163.68   23.92
   4   3   5  172.70   23.89
   4   3   5  156.46   23.95
   3  -4   5  156.97   23.80
  -4  -3   5  163.82   23.94
  -3   4   5  158.25   23.99
  -4  -3   5  158.82   23.93
   4   1  -5  169.22   24.14
  -4  -1  -5  175.94   24.08
  -4  -1  -5  164.18   24.02
   1  -4  -5  165.43   24.10
   4   1  -5  162.62   24.10
  -1   4  -5  162.34   24.00
   1  -4  -5  163.87   24.18
  -1   4  -5  164.01   24.01
   1  -4   5  159.49   24.04
  -4  -1   5  158.03   24.11
  -4  -1   5  156.41   24.14
   1  -4   5  164.80   24.05
  -1   4   5  161.03   24.11
  -1   4   5  162.02   24.17
   4   1   5  165.36   24.05
   1   4  -5  157.73   23.63
   4  -1  -5  158.84   23.68
  -1  -4  -5  170.89   23.73
  -4   1  -5  158.03   23.56
   4  -1  -5  159.78   23.74
  -1  -4  -5  155.63   23.92
  -4   1  -5  159.19   23.57
   1   4  -5  166.75   23.63
  -4   1   5  153.53   23.71
   1   4   5  159.65   23.68
  -4   1   5  157.81   23.71
   4  -1   5  161.79   23.60
   1   4   5  168.96   23.74
  -1  -4   5  163.39   23.66
   4  -1   5  163.89   23.64
  -1  -4   5  157.26   23.67
   3   4  -5  169.09   23.68
   4  -3  -5  164.14   23.78
   3   4  -5  159.23   23.85
   4  -3  -5  158.33   23.68
  -3  -4  -5  168.18   23.72
  -3  -4  -5  172.53   23.67
  -4   3   5  157.29   23.76
  -4   3   5  163.19   23.72
  -3  -4   5  156.24   23.69
   3   4   5  159.21   23.74
   3   4   5  168.51   23.68
   4  -3   5  150.99   23.59
   4  -3   5  148.81   23.56
   4  -5  -5   40.44    6.69
  -5  -4  -5   48.88    6.64
   5   4  -5   41.50    6.74
   5   4  -5   45.20    6.78
   4  -5  -5   51.09    7.00
  -5  -4   5   44.68    6.79
   4  -5   5   37.69    6.46
  -4   5   5   38.98    6.93
  -4   5   5   45.85    6.77
   5   4   5   49.17    6.70
   4  -5   5   40.84    6.43
  -5  -4   5   47.74    6.90
   5   4   5   40.51    6.86
   5   2  -5   33.73    5.45
   5   2  -5   32.07    6.04
  -5  -2  -5   37.87    5.21
  -5  -2  -5   37.48    5.37
   2  -5  -5   30.84    5.34
   2  -5  -5   35.11    5.64
   2  -5   5   29.70    5.21
   2  -5   5   30.42    5.17
  -2   5   5   27.58    5.56
  -5  -2   5   32.64    5.52
   5   2   5   33.90    5.48
   5   2   5   37.31    5.27
  -5  -2   5   34.04    5.43
  -2   5   5   37.01    5.39
   0   5  -5   91.41   13.23
   0  -5  -5   93.28   13.34
   5   0  -5   89.31   13.36
   0  -5  -5   89.17   13.45
   5   0  -5   85.06   13.41
   0   5  -5   83.99   13.24
  -5   0  -5   90.13   13.19
  -5   0  -5   95.31   13.23
   0   5   5   92.99   13.37
   5   0   5   89.32   13.24
  -5   0   5   90.27   13.38
  -5   0   5   83.76   13.38
   0  -5   5   86.52   13.30
   0  -5   5   94.56   13.29
   0   5   5   84.18   13.43
   5   0   5   91.36   13.31
   5  -2  -5   34.58    5.50
   5  -2  -5   34.38    5.24
  -2  -5  -5   37.88    5.22
  -2  -5  -5   33.59    5.44
   2   5  -5   35.23    5.17
   2   5  -5   26.87    5.00
   2   5   5   34.87    5.45
   5  -2   5   33.65    5.01
  -5   2   5   38.11    5.40
   2   5   5   32.00    5.21
  -2  -5   5   29.95    5.30
  -5   2   5   26.50    5.38
   5  -2   5   33.79    4.92
  -2  -5   5   25.40    5.19
   5  -4  -5   40.04    6.65
   4   5  -5   44.22    6.70
   5  -4  -5   47.66    6.91
   4   5  -5   41.95    6.72
  -4  -5  -5   40.08    6.99
  -4  -5  -5   45.23    6.61
   5  -4   5   40.02    6.35
   4   5   5   49.40    6.68
  -4  -5   5   45.70    6.82
  -5   4   5   47.19    6.77
   5  -4   5   38.89    6.33
  -5   4   5   45.05    6.84
  -4  -5   5   42.18    6.71
   4   5   5   43.85    6.81
   6   5  -5   20.98    4.02
   6   5  -5   19.77    4.03
   5  -6  -5   24.73    3.90
  -6  -5  -5   23.13    3.82
   5  -6  -5   22.39    4.39
  -6  -5   5   16.22    4.03
  -6  -5   5   24.47    4.34
   6   5   5   21.15    3.97
   5  -6   5   21.06    3.37
   6   5   5   20.39    4.17
  -5   6   5   26.44    4.02
   5  -6   5   22.74    3.40
  -5   6   5   24.78    4.25
   3  -6  -5  110.45   15.36
  -6  -3  -5  103.09   15.23
   6   3  -5  101.72   15.26
   3  -6  -5  103.01   15.23
   6   3  -5  105.17   15.27
  -6  -3  -5  105.51   15.14
  -3   6   5  100.17   15.33
  -6  -3   5  102.92   15.30
  -6  -3   5   97.35   15.27
  -3   6   5  100.10   15.22
   6   3   5  111.80   15.19
   3  -6   5  103.42   15.09
   3  -6   5   97.35   15.10
   6   3   5   92.54   15.26
   1  -6  -5  108.97   16.55
   6   1  -5  114.56   16.52
  -1   6  -5  112.97   16.30
  -6  -1  -5  116.75   16.39
   1  -6  -5  114.79   16.45
   6   1  -5  112.67   16.47
  -1   6  -5  109.52   16.29
  -6  -1  -5  112.42   16.33
  -1   6   5   99.55   16.51
  -6  -1   5  113.98   16.51
   1  -6   5  104.78   16.38
   6   1   5  112.93   16.36
   6   1   5  104.37   16.45
  -6  -1   5  111.34   16.51
  -1   6   5  111.99   16.47
  -1  -6  -5  113.13   16.26
   6  -1  -5  111.23   16.28
  -1  -6  -5  116.29   16.38
   6  -1  -5  115.78   16.37
   1   6  -5  111.99   16.19
   1   6  -5  103.95   16.18
  -6   1   5  109.10   16.30
   1   6   5  108.91   16.27
  -1  -6   5  103.17   16.23
   1   6   5  112.73   16.37
  -6   1   5  103.39   16.32
   6  -1   5  108.23   16.19
  -1  -6   5  109.18   16.25
   6  -1   5  111.47   16.13
  -3  -6  -5  103.73   15.01
   6  -3  -5  105.17   15.17
   6  -3  -5   93.76   15.01
   3   6  -5  104.55   15.02
  -3  -6  -5   96.05   15.08
  -6   3   5   94.57   15.11
  -3  -6   5   92.81   15.02
   3   6   5  110.20   15.03
  -3  -6   5  101.78   15.06
   3   6   5   99.68   15.11
   6  -3   5   99.84   14.86
   6  -3   5  101.89   14.83
  -6   3   5  109.28   15.10
   5   6  -5   20.68    3.89
  -5  -6  -5   18.31    4.17
  -5  -6  -5   22.67    3.78
   6  -5  -5   25.10    4.31
   5   6  -5   19.66    3.81
   6  -5  -5   19.41    3.85
   5   6   5   24.75    3.85
  -6   5   5   22.37    4.19
  -6   5   5   24.84    3.99
   5   6   5   18.75    4.13
  -5  -6   5   15.88    3.89
  -5  -6   5   23.37    4.13
  -7  -6  -5    1.88    1.81
   7   6  -5    0.19    1.62
  -7  -6  -5    2.85    1.38
   6  -7  -5    4.19    1.39
   7   6  -5    2.35    1.59
   6  -7  -5    1.12    1.89
  -6   7   5   -0.79    1.64
  -6   7   5    4.34    1.64
   7   6   5   -0.23    1.55
   7   6   5    1.46    1.72
  -7  -6   5   -0.96    1.93
  -7  -6   5    1.79    1.58
   4  -7  -5   14.33    2.56
   4  -7  -5   14.67    2.93
  -7  -4  -5   14.41    2.75
   7   4  -5   12.24    2.62
   7   4  -5   13.63    2.67
  -7  -4  -5   13.31    2.62
  -7  -4   5   10.24    2.61
  -7  -4   5   14.58    2.91
   7   4   5   14.58    2.91
  -4   7   5   17.70    3.00
   4  -7   5   13.45    2.40
   7   4   5   12.24    2.71
  -4   7   5   13.97    2.78
   7   2  -5   28.56    4.49
  -7  -2  -5   22.92    3.85
   2  -7  -5   25.50    3.95
  -7  -2  -5   21.06    3.65
   2  -7  -5   19.17    3.87
   7   2  -5   20.04    4.02
  -7  -2   5   21.71    4.21
   2  -7   5   20.50    3.61
   7   2   5   21.88    3.78
   7   2   5   19.97    4.01
   2  -7   5   23.36    3.69
  -2   7   5   20.67    4.19
  -7  -2   5   21.91    4.06
  -2   7   5   21.21    3.90
   7   0  -5   60.29    9.91
   0  -7  -5   70.46   10.04
   0  -7  -5   65.72    9.98
   0   7  -5   65.85    9.64
   0   7  -5   67.05    9.64
  -7   0  -5   65.69    9.58
   7   0  -5   66.42    9.83
  -7   0  -5   66.17    9.60
   0  -7   5   59.25    9.76
   0   7   5   69.51    9.83
   0  -7   5   57.77    9.71
  -7   0   5   65.29   10.31
  -7   0   5   62.25    9.90
   7   0   5   61.85    9.76
   0   7   5   67.17    9.96
   7   0   5   65.62    9.66
  -2  -7  -5   23.76    3.92
   2   7  -5   17.37    3.68
   7  -2  -5   20.11    4.25
  -2  -7  -5   25.74    4.21
   2   7  -5   23.01    3.86
   7  -2  -5   20.84    3.94
   2   7   5   23.10    3.96
  -7   2   5   24.74    4.09
  -7   2   5   24.42    4.10
   7  -2   5   17.30    3.66
  -2  -7   5   19.56    3.89
   2   7   5   26.12    4.18
   7  -2   5   23.61    3.47
  -2  -7   5   22.01    4.05
   4   7  -5   11.86    2.50
   4   7  -5   12.73    3.05
  -4  -7  -5   15.87    2.94
   7  -4  -5   16.06    2.96
  -4  -7  -5   14.94    2.79
   7  -4  -5   15.00    2.88
  -7   4   5   10.78    2.56
  -4  -7   5   16.06    2.84
   4   7   5   14.76    2.76
  -7   4   5    8.27    2.64
   4   7   5   17.96    3.08
  -4  -7   5   10.76    2.52
   6   7  -5    0.19    1.66
   6   7  -5    3.14    1.51
   7  -6  -5    0.53    1.35
   7  -6  -5   -1.02    1.81
  -6  -7  -5    2.27    1.45
  -6  -7  -5    0.31    1.70
  -7   6   5   -0.66    1.70
  -6  -7   5    0.21    1.49
   6   7   5    0.88    1.77
  -6  -7   5    2.04    1.85
   6   7   5    2.24    1.52
  -7   6   5    2.12    1.47
  -8  -7  -5    5.58    2.13
   8   7  -5    7.00    1.86
  -8  -7  -5    5.24    1.60
   8   7  -5    0.40    1.87
   7  -8  -5    2.66    1.54
   7  -8  -5    7.30    2.84
  -8  -7   5    0.04    1.90
   8   7   5    5.84    1.81
  -8  -7   5    2.69    2.26
  -7   8   5    4.58    1.97
   8   7   5    4.88    2.05
  -7   8   5    5.48    1.74
  -8  -5  -5   26.29    4.26
   8   5  -5   28.31    4.58
  -8  -5  -5   16.80    4.28
   8   5  -5   22.62    4.55
   5  -8  -5   28.57    4.90
   5  -8  -5   23.73    4.38
   5  -8   5   24.82    3.89
  -8  -5   5   30.33    5.71
  -8  -5   5   26.75    4.84
   8   5   5   26.17    4.61
   5  -8   5   26.08    4.00
  -5   8   5   27.58    4.40
   8   5   5   30.94    4.51
  -5   8   5   20.80    4.57
   8   3  -5   82.33   12.07
  -8  -3  -5   86.93   12.00
  -8  -3  -5   79.72   11.89
   8   3  -5   81.40   12.09
   3  -8  -5   85.67   12.19
   3  -8  -5   77.09   11.97
   8   3   5   84.14   12.09
  -3   8   5   79.24   12.12
  -3   8   5   82.56   12.02
   3  -8   5   71.21   11.95
   3  -8   5   76.60   11.84
  -8  -3   5   81.75   12.10
  -8  -3   5   86.71   12.15
   8   3   5   70.32   12.05
  -8  -1  -5   84.83   11.36
   1  -8  -5   78.65   11.51
  -1   8  -5   73.56   11.31
  -1   8  -5   81.43   11.33
   1  -8  -5   79.29   11.71
  -8  -1  -5   82.31   11.40
   8   1  -5   66.52   11.56
   8   1  -5   78.20   11.62
  -8  -1   5   78.87   11.66
  -1   8   5   75.28   11.65
  -1   8   5   77.88   11.53
   1  -8   5   72.16   11.41
  -8  -1   5   73.47   11.60
   8   1   5   64.37   11.51
  -1  -8  -5   80.80   11.46
  -1  -8  -5   72.78   11.28
   1   8  -5   80.08   11.19
   1   8  -5   76.65   11.16
   8  -1  -5   74.44   11.31
   8  -1  -5   78.74   11.42
   1   8   5   72.67   11.90
   8  -1   5   66.98   11.19
  -1  -8   5   66.13   11.25
   1   8   5   75.80   11.33
   8  -1   5   80.04   11.14
  -8   1   5   80.44   11.37
  -1  -8   5   64.56   11.40
  -8   1   5   78.19   11.35
   8  -3  -5   81.26   12.13
   3   8  -5   77.94   11.94
   8  -3  -5   77.45   11.97
  -3  -8  -5   80.36   12.12
  -3  -8  -5   78.09   11.98
   8  -3   5   77.63   11.79
  -8   3   5   85.14   12.03
  -8   3   5   76.88   12.09
   3   8   5   89.77   12.01
   8  -3   5   83.57   11.73
  -3  -8   5   72.50   11.93
  -3  -8   5   79.85   12.01
   3   8   5   72.86   12.06
   8  -5  -5   26.21    4.65
  -5  -8  -5   23.98    4.65
  -5  -8  -5   24.87    4.95
   5   8  -5   22.44    5.22
   8  -5  -5   37.04    5.11
   5   8  -5   24.56    4.71
  -5  -8   5   26.81    4.72
  -8   5   5   22.32    4.90
   5   8   5   29.12    4.74
  -8   5   5   32.22    4.81
  -5  -8   5   33.67    5.03
   5   8   5   23.60    4.93
  -7  -8  -5    5.08    2.22
   8  -7  -5    5.91    2.53
   7   8  -5    4.49    1.86
   8  -7  -5    3.91    1.73
  -7  -8  -5    3.55    1.71
   7   8  -5    4.11    1.94
   7   8   5    4.37    2.17
  -8   7   5    6.56    1.93
   7   8   5    1.86    2.06
  -7  -8   5    5.00    1.82
  -8   7   5    4.34    2.03
  -7  -8   5    7.78    2.32
   8  -9  -5   11.27    2.57
  -9  -8  -5    8.51    3.32
   9   8  -5   10.64    2.74
  -9  -8  -5   14.22    3.42
   9   8  -5   10.06    2.80
   8  -9  -5   26.01    4.11
   9   8   5   14.56    2.78
  -9  -8   5   11.70    2.76
  -9  -8   5   13.47    3.24
   9   8   5    9.12    2.79
  -8   9   5   14.81    2.76
   6  -9  -5   17.56    3.23
   9   6  -5   10.81    2.91
   9   6  -5   14.51    2.88
  -9  -6  -5   23.09    3.18
   6  -9  -5   21.94    3.77
  -6   9   5   16.80    3.28
  -9  -6   5   12.68    3.23
   9   6   5   10.19    2.94
   9   6   5   21.13    3.41
  -6   9   5   11.27    2.97
   6  -9   5   10.61    2.60
  -9  -6   5    9.71    2.82
   6  -9   5   16.55    2.44
  -9  -4  -5   14.17    2.54
   9   4  -5    9.98    2.42
  -9  -4  -5    9.18    2.34
   4  -9  -5   10.05    2.23
   4  -9  -5   11.81    2.63
   9   4  -5    8.35    2.38
  -4   9   5    9.46    2.19
   9   4   5   11.71    2.34
  -9  -4   5    9.31    2.44
   4  -9   5   10.34    2.07
  -4   9   5   11.41    2.55
   4  -9   5   11.97    1.94
  -9  -4   5    8.10    2.69
   9   4   5   12.85    2.53
   2  -9  -5   18.76    3.88
   9   2  -5   21.28    4.07
   2  -9  -5   21.58    3.94
  -9  -2  -5   20.44    3.78
   9   2  -5   23.08    4.11
  -9  -2  -5   19.29    3.63
  -2   9   5   25.75    3.90
   9   2   5   21.94    3.76
  -9  -2   5   22.23    3.93
  -9  -2   5   22.10    4.04
   2  -9   5   22.96    3.83
   9   2   5   17.53    4.00
   2  -9   5   19.31    3.62
  -2   9   5   25.30    4.28
   0  -9  -5    5.10    2.14
   0   9  -5    4.79    1.25
   9   0  -5    2.31    1.70
  -9   0  -5    2.09    0.96
   0   9  -5    5.16    1.18
  -9   0  -5    3.96    1.04
   0  -9  -5    1.67    1.72
   9   0  -5    3.15    1.83
   9   0   5    5.91    1.32
   0  -9   5    6.33    1.48
   0   9   5    3.80    1.90
  -9   0   5    4.71    1.71
   9   0   5    2.18    1.62
  -9   0   5    5.46    2.11
   0  -9   5    2.09    1.78
   0   9   5    4.46    1.63
   9  -2  -5   26.30    4.17
   2   9  -5   21.39    3.60
   9  -2  -5   22.48    3.94
  -2  -9  -5   21.18    3.86
   2   9  -5   16.11    3.70
  -2  -9  -5   18.70    3.79
  -2  -9   5   18.05    3.48
  -9   2   5   18.84    4.01
  -2  -9   5   19.40    3.66
   9  -2   5   19.34    3.58
   9  -2   5   22.88    3.38
  -9   2   5   26.13    4.07
   2   9   5   19.63    3.83
   2   9   5   19.26    4.14
   4   9  -5   10.35    2.45
  -4  -9  -5   11.79    2.78
   9  -4  -5   11.04    2.70
   9  -4  -5   11.81    2.49
  -4  -9  -5   12.65    2.50
  -4  -9   5   12.25    2.73
   4   9   5    9.73    2.55
   9  -4   5   14.85    2.13
   9  -4   5   12.60    2.30
  -9   4   5   11.89    2.66
  -4  -9   5    8.17    2.36
  -9   4   5   11.89    2.54
   4   9   5   12.14    2.80
  -6  -9  -5   11.92    2.86
   6   9  -5   10.48    2.67
   9  -6  -5   13.55    3.02
   6   9  -5   13.44    2.51
   9  -6  -5   10.71    2.42
  -6  -9  -5   18.21    3.17
  -6  -9   5   12.36    2.59
   6   9   5    8.79    2.77
  -9   6   5   10.56    2.71
   6   9   5   11.57    2.58
  -6  -9   5   17.36    3.13
  -9   6   5   14.00    2.69
   9  -8  -5    9.77    2.86
   8   9  -5    7.66    2.40
  -8  -9  -5   10.70    2.50
  -8  -9  -5   12.03    2.89
   9  -8  -5    9.63    2.48
  -8  -9   5   11.19    4.26
  -9   8   5   17.15    2.69
   8   9   5   11.17    2.79
  -8  -9   5    6.72    2.59
   8   9   5   13.65    2.69
 -10  -9  -5    1.85    1.87
   9 -10  -5   -0.23    2.66
 -10  -9  -5    5.40    2.43
  10   9  -5    5.25    2.21
   9 -10  -5    3.90    1.85
  10   9   5    4.20    2.21
  10   9   5    1.57    2.35
 -10  -9   5   -0.29    3.23
 -10  -9   5    2.42    2.13
   9 -10   5    1.80    0.84
  -9  10   5    3.69    2.07
  10   7  -5    2.55    1.92
   7 -10  -5    2.58    1.55
 -10  -7  -5    2.01    1.61
  10   7  -5    2.71    1.94
   7 -10  -5    3.52    2.42
   7 -10   5    2.13    1.16
  -7  10   5    0.20    3.26
  -7  10   5    5.65    3.15
 -10  -7   5   -0.21    1.84
  10   7   5    3.72    2.08
   7 -10   5    1.53    0.86
  10   7   5   -0.02    1.95
 -10  -7   5    1.05    2.38
 -10  -5  -5    6.33    2.26
   5 -10  -5   10.35    2.72
  10   5  -5   10.09    2.33
   5 -10  -5    3.94    1.94
  10   5  -5    4.93    2.23
 -10  -5  -5    9.73    2.28
 -10  -5   5   10.78    2.72
   5 -10   5   10.21    1.84
  10   5   5    5.85    2.22
  -5  10   5    7.69    1.98
  10   5   5    8.64    2.18
 -10  -5   5    6.20    2.16
  -5  10   5    9.25    2.35
   5 -10   5    6.96    1.52
 -10  -3  -5   29.09    4.70
   3 -10  -5   28.72    4.66
 -10  -3  -5   27.13    4.47
  10   3  -5   20.61    4.76
  10   3  -5   28.75    4.86
   3 -10  -5   29.73    5.26
   3 -10   5   24.19    4.49
 -10  -3   5   32.23    5.20
 -10  -3   5   30.38    4.83
   3 -10   5   22.98    4.35
  -3  10   5   29.01    4.68
  10   3   5   29.50    4.60
  -3  10   5   22.12    4.94
   1 -10  -5   25.34    4.61
  10   1  -5   18.55    4.50
  -1  10  -5   25.83    4.03
  10   1  -5   27.63    4.59
 -10  -1  -5   25.39    4.00
  -1  10  -5   28.94    4.29
   1 -10  -5   24.98    4.93
 -10  -1   5   27.57    4.90
   1 -10   5   23.34    4.18
  10   1   5   21.30    4.38
  10   1   5   25.59    4.21
  -1  10   5   23.13    4.64
   1 -10   5   22.79    4.39
  -1  10   5   30.07    4.43
 -10  -1   5   21.48    4.56
  10  -1  -5   19.31    4.34
  -1 -10  -5   24.91    4.76
  -1 -10  -5   21.78    4.25
   1  10  -5   23.15    3.92
  10  -1  -5   29.13    4.59
   1  10  -5   20.25    4.01
 -10   1   5   24.37    4.61
  10  -1   5   22.80    3.91
 -10   1   5   25.19    4.40
   1  10   5   22.12    4.18
  -1 -10   5   28.44    4.15
  10  -1   5   21.52    4.08
  -1 -10   5   24.07    4.18
   1  10   5   27.09    4.36
  10  -3  -5   25.65    4.90
   3  10  -5   28.51    4.79
   3  10  -5   23.50    4.57
  -3 -10  -5   23.67    5.14
  -3 -10  -5   30.46    4.85
  10  -3  -5   39.48    5.19
  10  -3   5   27.85    4.49
 -10   3   5   24.96    4.97
  10  -3   5   29.73    4.38
  -3 -10   5   26.75    4.73
  -3 -10   5   25.93    5.06
   3  10   5   30.63    4.92
   3  10   5   24.74    5.09
 -10   3   5   27.48    5.01
   5  10  -5    7.82    1.99
  -5 -10  -5    8.48    2.11
  10  -5  -5    5.12    2.12
  10  -5  -5    3.81    2.56
  -5 -10  -5    8.38    2.54
 -10   5   5    7.66    2.16
   5  10   5    6.08    2.28
  -5 -10   5    3.25    1.95
  10  -5   5   10.30    1.61
  -5 -10   5    9.95    2.54
   5  10   5    7.52    2.23
 -10   5   5    6.58    2.28
  10  -7  -5   -2.14    1.73
  -7 -10  -5    2.25    1.80
  10  -7  -5    0.98    2.26
  -7 -10  -5    0.46    2.12
   7  10  -5    2.05    1.71
 -10   7   5    2.35    1.91
 -10   7   5    0.41    2.06
  -7 -10   5    2.03    1.81
   7  10   5    0.02    2.58
  -7 -10   5    5.49    2.45
  -9 -10  -5    4.47    1.94
   9  10  -5    4.35    1.98
  10  -9  -5   -1.39    2.58
  10  -9  -5    1.17    1.95
  -9 -10  -5    2.08    2.49
   9  10   5   -0.42    2.33
 -10   9   5    4.39    2.22
   9  10   5   -0.90    2.55
  -9 -10   5    5.95    2.19
  -9 -10   5    3.78    2.78
  10 -11  -5   20.16    3.71
  10 -11  -5   11.79    2.83
  11  10  -5   10.26    2.90
 -11 -10  -5    5.04    3.08
  11  10   5    6.63    3.10
 -11 -10   5    7.43    2.90
  11  10   5    5.89    3.03
  10 -11   5   11.58    2.05
 -10  11   5   10.42    2.80
 -11 -10   5   13.71    3.89
  10 -11   5   16.62    2.56
   8 -11  -5   29.91    4.44
  11   8  -5   28.14    4.63
 -11  -8  -5   23.32    4.48
   8 -11  -5   41.74    5.47
  11   8  -5   17.72    4.12
   8 -11   5   26.75    3.89
 -11  -8   5   12.46    4.04
   8 -11   5   20.82    3.59
  11   8   5   34.58    4.85
 -11  -8   5   31.79    5.44
  -8  11   5   11.72    4.01
  11   8   5   25.86    4.81
  11   6  -5   38.10    5.74
   6 -11  -5   42.71    6.18
 -11  -6  -5   32.39    5.83
  11   6  -5   25.06    5.76
 -11  -6  -5   31.61    5.47
   6 -11  -5   32.20    5.50
  -6  11   5   25.14    5.86
   6 -11   5   31.43    5.05
  11   6   5   23.07    5.71
  -6  11   5   38.48    5.72
  11   6   5   32.70    5.66
 -11  -6   5   27.24    5.77
 -11  -6   5   31.23    6.19
   6 -11   5   39.93    5.22
 -11  -4  -5   19.50    3.98
   4 -11  -5   22.75    4.07
  11   4  -5   16.12    3.83
 -11  -4  -5   18.59    3.87
   4 -11  -5   22.00    4.28
  11   4  -5   28.76    4.39
  -4  11   5   16.68    3.89
  11   4   5   30.56    4.16
 -11  -4   5   30.27    4.92
 -11  -4   5   24.33    4.36
  -4  11   5   23.42    4.15
   4 -11   5   25.53    3.95
  11   4   5   17.70    3.86
   4 -11   5   22.49    3.67
  -2  11  -5   12.31    2.13
  11   2  -5   10.49    2.75
  11   2  -5   10.41    2.71
   2 -11  -5   17.27    3.20
  -2  11  -5   11.58    2.23
 -11  -2  -5    8.22    2.44
 -11  -2  -5   10.30    2.34
   2 -11  -5   11.18    2.50
  -2  11   5   12.55    2.50
  11   2   5   11.39    2.64
 -11  -2   5   17.64    3.16
   2 -11   5   13.36    2.37
  -2  11   5   14.15    2.87
   2 -11   5   16.81    2.65
  11   2   5   14.72    2.56
 -11  -2   5   10.82    2.67
  11   0  -5   -2.31    1.80
   0 -11  -5    5.62    2.39
  11   0  -5    0.45    1.72
   0 -11  -5    1.71    1.61
   0  11  -5    1.44    1.09
   0  11  -5    0.44    1.20
   0  11   5    1.40    1.96
 -11   0   5    1.27    2.18
   0 -11   5    2.89    1.78
   0  11   5    1.77    1.58
   0 -11   5    3.37    1.41
  11   0   5   -0.95    1.52
  11   0   5    0.46    1.35
 -11   0   5    1.66    1.58
   2  11  -5   10.06    3.47
   2  11  -5   15.70    2.85
  11  -2  -5   10.55    2.74
  -2 -11  -5   15.73    3.19
  11  -2  -5   23.02    4.37
  -2 -11  -5   13.55    2.76
   2  11   5   10.93    2.95
  11  -2   5   14.59    2.75
 -11   2   5   11.74    3.13
   2  11   5   13.20    2.73
  -2 -11   5   17.23    3.03
 -11   2   5   13.59    2.88
  11  -2   5   13.89    2.88
  -2 -11   5   13.61    2.91
  -4 -11  -5   23.59    4.42
  -4 -11  -5   20.42    4.31
  11  -4  -5   30.84    4.91
  11  -4  -5   20.48    4.43
  11  -4   5   20.21    3.86
  -4 -11   5   23.23    4.73
   4  11   5   27.15    4.59
  11  -4   5   26.72    3.83
  -4 -11   5   20.92    4.22
   4  11   5   21.60    4.72
 -11   4   5   23.67    4.62
  11  -6  -5   31.85    5.75
  11  -6  -5   37.70    6.29
  -6 -11  -5   27.73    6.16
  -6 -11  -5   33.71    5.73
   6  11  -5   38.70    6.45
  -6 -11   5   39.48    6.17
 -11   6   5   30.99    5.85
   6  11   5   41.41    5.86
 -11   6   5   27.59    5.93
   6  11   5   35.68    6.14
  -6 -11   5   26.63    5.64
  -8 -11  -5   27.87    5.26
  11  -8  -5   37.53    5.41
  11  -8  -5   24.42    4.56
   8  11  -5   27.58    4.46
   8  11   5   32.41    4.81
   8  11   5   16.45    4.18
  -8 -11   5   28.40    5.42
 -11   8   5   13.83    4.03
  -8 -11   5   17.21    4.55
 -10 -11  -5    5.29    2.49
  11 -10  -5   13.93    2.62
  10  11  -5    7.38    2.57
  11 -10  -5   12.69    3.39
 -10 -11  -5   10.65    3.12
 -10 -11   5    5.26    2.72
 -10 -11   5    5.94    3.60
  10  11   5   11.08    2.88
 -11  10   5    4.45    2.41
  10  11   5    6.73    2.95
  11 -12  -5    6.45    3.22
  12  11  -5    4.32    2.40
 -12 -11  -5   -1.33    2.76
  11 -12  -5    4.95    2.23
 -11  12   5    3.12    2.35
  12  11   5    1.27    2.71
  11 -12   5    2.01    1.60
 -12 -11   5    7.64    3.89
  11 -12   5   -0.55    1.00
 -12 -11   5   -0.40    2.49
  12  11   5    3.57    2.69
  12   9  -5    0.99    2.32
   9 -12  -5    6.38    3.04
   9 -12  -5    3.85    1.99
 -12  -9  -5   -0.61    2.58
  -9  12   5    0.99    1.77
 -12  -9   5   -1.03    2.15
   9 -12   5    1.62    1.05
  12   9   5    0.93    2.41
  12   9   5    0.42    2.56
   9 -12   5    0.30    1.46
 -12  -9   5   -1.63    3.07
  12   7  -5    2.24    2.26
  12   7  -5    4.21    2.27
 -12  -7  -5    6.29    2.34
   7 -12  -5    2.79    2.59
   7 -12  -5    3.76    1.90
 -12  -7   5    1.05    2.86
  -7  12   5    5.90    2.30
   7 -12   5    3.35    1.22
 -12  -7   5    3.24    2.24
  -7  12   5    3.72    2.47
   7 -12   5    3.21    1.67
  12   7   5    2.56    2.23
  12   7   5    1.84    2.35
   5 -12  -5    3.98    2.69
 -12  -5  -5    6.24    1.92
 -12  -5  -5    4.16    2.29
  12   5  -5    2.78    2.21
   5 -12  -5    5.80    1.80
  12   5  -5    1.40    2.20
  -5  12   5    1.52    2.10
  12   5   5    5.93    2.16
   5 -12   5    7.54    1.84
  12   5   5    8.33    2.39
 -12  -5   5    0.06    2.73
   5 -12   5    4.96    1.39
 -12  -5   5    2.78    2.17
  -5  12   5    1.92    1.79
  12   3  -5    7.28    2.20
  12   3  -5    7.14    2.20
 -12  -3  -5    6.70    1.81
   3 -12  -5    5.21    1.91
   3 -12  -5    7.47    2.82
 -12  -3  -5    8.31    2.10
 -12  -3   5    3.32    2.56
  12   3   5    3.56    2.20
  -3  12   5    5.85    2.25
   3 -12   5    6.83    1.99
 -12  -3   5    4.72    2.13
  12   3   5    6.96    2.03
  -3  12   5    6.43    1.98
   3 -12   5    6.21    1.63
 -12  -1  -5    6.72    1.57
  -1  12  -5    5.57    1.51
  12   1  -5    5.86    3.34
  -1  12  -5    5.24    1.36
   1 -12  -5    4.56    1.95
   1 -12  -5    7.61    2.63
 -12  -1  -5    4.20    2.07
  12   1  -5    3.64    3.57
 -12  -1   5    3.43    2.07
   1 -12   5    8.91    2.15
  -1  12   5    3.46    2.23
   1 -12   5    5.75    1.68
  12   1   5    5.94    1.88
 -12  -1   5   11.34    2.68
  -1  12   5    3.74    1.82
  12   1   5    5.34    2.01
   1  12  -5    6.09    1.53
  12  -1  -5    3.13    2.07
  -1 -12  -5    8.24    2.64
  12  -1  -5    3.06    2.14
   1  12  -5    5.12    1.64
  -1 -12  -5    2.18    1.84
  12  -1   5    4.90    1.61
   1  12   5    2.86    1.87
 -12   1   5    3.04    1.94
  12  -1   5    3.02    1.73
  -1 -12   5    5.17    2.29
 -12   1   5    5.98    2.36
   1  12   5    6.42    2.23
  -1 -12   5    7.77    1.85
  -3 -12  -5    5.46    2.63
   3  12  -5    6.97    1.75
  12  -3  -5    4.32    2.09
  -3 -12  -5    5.36    2.08
  12  -3  -5    9.19    2.51
  -3 -12   5    3.99    1.87
   3  12   5    5.89    2.19
   3  12   5    3.83    2.35
  12  -3   5    5.74    1.67
 -12   3   5    6.77    2.54
  -3 -12   5    5.32    2.58
  12  -3   5    8.70    1.68
  12  -5  -5    4.74    2.59
  12  -5  -5    4.30    2.04
  -5 -12  -5    4.21    2.03
  -5 -12  -5    4.30    2.66
  -5 -12   5    5.26    2.68
   5  12   5    8.22    2.67
  12  -5   5    3.93    1.39
   5  12   5    3.76    2.21
 -12   5   5    0.60    2.15
  12  -5   5    3.95    1.43
  -5 -12   5    4.03    1.88
  -7 -12  -5    3.08    2.74
  12  -7  -5    6.44    2.83
  -7 -12  -5    3.65    2.15
  12  -7  -5    1.76    2.12
   7  12  -5    4.66    2.01
  -7 -12   5    3.12    2.03
   7  12   5    7.58    2.73
  -7 -12   5    1.34    2.99
  12  -7   5    3.29    1.16
   7  12   5   -1.08    2.34
 -12   7   5    1.48    2.32
  -9 -12  -5    0.11    2.03
  12  -9  -5   -2.98    2.15
   9  12  -5    0.08    2.03
  -9 -12  -5    0.41    2.72
  12  -9  -5   -1.92    2.99
   9  12   5    1.30    2.53
  -9 -12   5    4.97    2.32
   9  12   5   -0.78    2.50
 -12   9   5   -3.29    2.14
  -9 -12   5    0.92    3.51
  11  12  -5    2.30    2.30
  12 -11  -5    4.54    2.46
 -11 -12  -5    2.88    3.04
  12 -11  -5    3.44    3.20
  12 -11   5    3.03    1.48
 -12  11   5    1.30    2.40
 -11 -12   5    3.81    3.57
  12 -11   5    3.95    1.12
 -11 -12   5   -0.12    2.53
  11  12   5    2.72    2.77
  13  12  -5    4.12    2.66
  12 -13  -5    2.32    2.48
  12 -13  -5    5.67    3.38
 -13 -12  -5    2.29    3.13
 -13 -12   5   -1.14    5.00
 -13 -12   5    3.76    3.98
  12 -13   5    3.72    1.22
  13  12   5   -2.51    3.00
 -12  13   5    2.15    2.61
  12 -13   5    5.09    1.85
  13  12   5    2.67    2.97
  13  10  -5    6.85    2.85
  10 -13  -5    8.86    3.51
  10 -13  -5    7.86    2.59
 -13 -10  -5   15.26    5.25
  13  10   5    7.95    2.97
  10 -13   5   12.27    2.15
  10 -13   5    8.10    1.76
 -10  13   5    9.04    2.83
  13  10   5    6.25    3.21
 -13 -10   5    5.67    2.89
 -13 -10   5    8.73    4.06
  13   8  -5   17.67    3.44
   8 -13  -5   12.19    3.03
  13   8  -5   13.58    3.35
 -13  -8  -5    6.09    2.91
   8 -13  -5   14.83    3.80
  13   8   5    7.63    3.35
 -13  -8   5   20.13    4.07
   8 -13   5   23.02    3.43
   8 -13   5   17.48    2.74
 -13  -8   5   12.27    3.43
  13   8   5   18.81    3.45
  13   6  -5   14.67    3.59
 -13  -6  -5   16.59    3.70
   6 -13  -5   22.82    4.02
   6 -13  -5   14.94    3.98
  13   6  -5   22.26    3.76
  -6  13   5   21.33    3.91
 -13  -6   5   20.68    4.23
 -13  -6   5   10.68    3.52
   6 -13   5   20.51    3.23
   6 -13   5   25.13    3.77
  13   6   5   14.73    3.57
  13   6   5   15.44    3.59
  -6  13   5   11.19    3.95
   4 -13  -5   16.67    3.59
  13   4  -5   11.00    3.24
 -13  -4  -5   16.55    3.14
 -13  -4  -5   13.45    3.61
   4 -13  -5   12.39    2.83
  13   4  -5   16.38    3.19
  -4  13   5   10.07    2.76
   4 -13   5   14.58    2.83
 -13  -4   5    9.36    2.95
  13   4   5   11.63    2.99
 -13  -4   5   23.06    3.78
  13   4   5   15.33    2.96
   4 -13   5   14.47    2.83
  -4  13   5   11.70    3.11
   2 -13  -5   17.75    3.40
  -2  13  -5   14.98    2.23
 -13  -2  -5    9.32    2.36
   2 -13  -5   12.06    3.72
 -13  -2  -5   13.44    2.57
  13   2  -5   10.83    2.90
  -2  13  -5   10.05    2.10
  13   2  -5   13.02    2.93
   2 -13   5    9.99    2.37
  -2  13   5   12.49    2.60
  13   2   5   11.73    2.75
 -13  -2   5    9.27    2.77
  13   2   5   11.06    2.68
   2 -13   5   13.89    2.69
 -13  -2   5   17.34    3.45
  13   0  -5    2.00    2.21
  13   0  -5    4.82    2.33
   0  13  -5    3.11    1.64
   0 -13  -5    9.83    2.02
   0 -13  -5    2.83    3.18
   0  13  -5    5.60    1.76
   0 -13   5    5.44    1.80
 -13   0   5    4.09    3.54
   0  13   5    4.90    2.38
 -13   0   5    4.83    2.77
   0  13   5    3.83    1.90
  13   0   5    3.36    1.79
  13   0   5    4.65    1.85
   0 -13   5    3.50    2.28
  -2 -13  -5   15.23    2.82
  13  -2  -5   13.64    3.17
  -2 -13  -5   12.84    3.26
  13  -2  -5    7.30    2.92
   2  13  -5   13.71    2.51
 -13   2   5   14.97    3.44
  13  -2   5   13.93    2.64
   2  13   5    9.82    3.04
  13  -2   5   16.38    2.56
   2  13   5   14.26    2.90
  -2 -13   5    9.09    2.60
  -2 -13   5   14.47    3.13
 -13   2   5   10.40    2.96
  13  -4  -5   13.52    3.45
  -4 -13  -5   16.52    3.09
   4  13  -5   12.38    2.77
  -4 -13  -5   16.52    3.67
  13  -4  -5   12.54    3.09
  -4 -13   5   11.60    2.86
   4  13   5   17.33    3.60
   4  13   5   12.52    3.11
 -13   4   5   17.10    3.64
  13  -4   5   15.97    3.05
 -13   4   5   13.19    3.26
  -4 -13   5   15.22    3.58
  13  -4   5   18.86    3.05
   6  13  -5   22.43    3.92
  -6 -13  -5   15.89    3.48
  13  -6  -5   12.45    3.48
  13  -6  -5   18.33    3.98
  -6 -13  -5   12.36    3.97
   6  13   5   30.99    4.43
  13  -6   5   19.59    3.22
  -6 -13   5   13.75    3.43
  -6 -13   5   18.05    4.03
   6  13   5   16.15    3.71
  13  -8  -5   13.67    3.43
   8  13  -5   15.86    3.23
  13  -8  -5   18.16    4.02
  -8 -13  -5    9.34    3.66
  -8 -13  -5   15.43    3.45
   8  13   5    9.38    3.42
  -8 -13   5   13.37    3.97
  -8 -13   5   10.25    3.48
  13  -8   5   18.53    2.86
  13  -8   5   18.53    2.90
   8  13   5   18.45    3.56
 -10 -13  -5   12.32    3.50
  10  13  -5    1.35    2.58
  13 -10  -5    8.43    2.79
  13 -10  -5   11.02    3.70
 -13  10   5    3.27    2.73
 -10 -13   5    1.72    2.82
 -10 -13   5    2.47    3.69
  13 -10   5   13.55    2.01
  10  13   5    2.31    2.96
  13 -10   5   14.33    2.23
  10  13   5   10.89    3.18
  13 -12  -5    4.21    3.41
  13 -12  -5    5.82    2.64
 -12 -13  -5    3.54    3.03
  12  13  -5   -0.17    2.42
 -13  12   5   -2.88    2.56
  13 -12   5    5.01    1.64
  12  13   5   -3.55    2.70
 -12 -13   5   -1.95    3.69
 -12 -13   5    4.79    2.84
  13 -12   5    2.82    1.18
  12  13   5    2.28    3.04
  13 -14  -5    4.77    3.85
  14  13  -5    1.42    2.79
 -14 -13  -5   -0.73    3.26
  13 -14  -5    0.42    2.53
 -14 -13   5    1.65    3.11
 -13  14   5    1.34    3.01
  13 -14   5    0.50    1.27
  14  13   5    1.62    3.26
  14  13   5   -2.72    3.19
 -14 -13   5   -0.70    4.32
  13 -14   5    0.20    1.92
  14  11  -5   -0.05    3.34
 -14 -11  -5    2.83    3.27
  11 -14  -5    1.60    2.28
  11 -14  -5   -2.03    3.44
  14  11   5   -3.53    3.07
  14  11   5   -3.42    2.86
  11 -14   5   -0.69    1.95
 -14 -11   5    1.13    2.68
 -14 -11   5   -2.08    3.85
  11 -14   5    0.20    1.23
 -11  14   5   -2.01    2.44
   9 -14  -5   -1.52    1.96
  14   9  -5    2.50    2.84
   9 -14  -5   -1.63    3.15
 -14  -9  -5    0.52    2.23
   9 -14   5   -0.77    1.79
  14   9   5    1.42    2.56
 -14  -9   5    1.85    2.62
 -14  -9   5   -3.50    3.54
   9 -14   5    0.12    1.22
  -9  14   5    3.73    2.37
  14   9   5   -1.74    2.77
  14   7  -5    6.89    2.54
   7 -14  -5    2.79    2.04
   7 -14  -5    3.65    3.04
 -14  -7  -5    2.62    2.49
  14   7  -5    3.61    2.51
  14   7   5    2.96    2.54
  14   7   5    0.29    2.37
 -14  -7   5    1.73    2.40
   7 -14   5    1.43    1.39
 -14  -7   5    4.71    3.29
   7 -14   5    1.30    2.06
 -14  -5  -5    0.56    2.46
  14   5  -5   -0.83    2.35
  14   5  -5    3.86    2.46
   5 -14  -5   -1.25    3.06
   5 -14  -5    6.21    1.96
   5 -14   5    7.31    2.18
 -14  -5   5    0.33    2.36
  14   5   5    2.46    2.27
  14   5   5    5.97    2.30
 -14  -5   5    3.87    3.08
   5 -14   5    3.18    1.45
   3 -14  -5   -0.52    1.77
  14   3  -5    2.41    2.11
 -14  -3  -5   -2.86    2.05
  14   3  -5    3.50    2.32
   3 -14  -5    2.84    3.02
  -3  14   5    2.00    1.88
   3 -14   5   -0.03    1.43
  14   3   5    0.80    2.05
   3 -14   5    0.38    1.96
  -3  14   5    0.66    2.23
 -14  -3   5   -1.21    2.10
 -14  -3   5   -0.13    2.82
  14   3   5    0.17    1.97
  14   1  -5    3.68    2.82
   1 -14  -5    2.29    1.96
  -1  14  -5    4.79    1.85
 -14  -1  -5    4.93    1.58
   1 -14  -5    5.72    3.01
  14   1  -5    3.29    2.39
 -14  -1  -5    3.41    1.41
  -1  14  -5    1.72    1.36
  14   1   5    3.50    2.14
 -14  -1   5    6.39    3.00
 -14  -1   5    5.39    2.28
   1 -14   5    5.57    1.77
  -1  14   5    3.92    2.05
   1 -14   5    4.79    2.34
  14   1   5    7.87    2.04
  -1  14   5    2.43    2.39
  14  -1  -5    5.40    2.55
  -1 -14  -5    0.01    1.99
  14  -1  -5    2.67    2.38
   1  14  -5    1.78    1.50
  -1 -14  -5    3.64    2.78
  14  -1   5    3.33    1.84
 -14   1   5    2.04    2.17
  -1 -14   5    3.78    2.38
  14  -1   5    7.33    1.85
 -14   1   5    1.33    2.97
   1  14   5    5.57    2.05
  -1 -14   5    2.70    1.80
  14  -3  -5    5.13    2.32
  -3 -14  -5    1.60    2.04
  -3 -14  -5   -0.03    2.94
   3  14  -5    0.68    1.63
  14  -3  -5   -0.83    2.46
   3  14   5    1.74    1.99
  -3 -14   5    0.55    2.53
   3  14   5    6.13    2.95
 -14   3   5   -0.40    2.79
  14  -3   5   -2.17    1.68
  -3 -14   5    2.68    1.76
 -14   3   5   -2.29    2.93
  14  -3   5    2.03    1.73
  14  -5  -5    0.31    2.21
   5  14  -5    1.25    1.25
  -5 -14  -5    1.75    2.23
  -5 -14  -5    1.36    2.97
  14  -5  -5   -0.28    2.62
  -5 -14   5    2.22    1.98
  14  -5   5    5.82    1.78
   5  14   5    3.26    2.43
  14  -5   5    2.60    1.62
  -5 -14   5    2.56    2.84
   5  14   5    4.57    2.49
  14  -7  -5    1.96    2.43
  -7 -14  -5   -0.98    2.88
   7  14  -5    2.00    3.16
  14  -7  -5    5.33    3.02
  -7 -14  -5    3.55    2.42
  -7 -14   5    2.65    2.23
  -7 -14   5    3.38    3.15
  14  -7   5    5.95    1.46
 -14   7   5    4.52    2.98
   7  14   5    2.96    2.53
   7  14   5   -1.78    2.46
  -9 -14  -5    0.14    3.06
  14  -9  -5   -4.75    3.19
  14  -9  -5   -1.69    2.46
   9  14  -5    0.73    2.10
  -9 -14  -5    0.57    2.88
   9  14   5    2.21    2.74
   9  14   5   -2.25    2.54
  14  -9   5    3.92    1.26
  -9 -14   5   -5.17    3.32
  14  -9   5   -1.90    1.31
  -9 -14   5   -0.82    2.32
  11  14  -5    1.64    2.43
 -11 -14  -5   -0.24    3.16
  14 -11  -5   -0.69    3.52
  14 -11  -5   -0.30    2.55
  11  14   5   -1.71    3.04
  14 -11   5    0.94    1.23
  14 -11   5    2.85    1.43
  11  14   5   -1.79    2.85
 -11 -14   5   -2.52    3.69
 -11 -14   5    0.10    2.81
 -13 -14  -5    5.45    3.39
  14 -13  -5   -1.13    2.80
  14 -13  -5   -2.64    3.63
  13  14  -5    2.46    2.78
 -13 -14   5   -2.11    3.23
 -13 -14   5    0.51    4.20
  13  14   5    2.61    3.20
  13  14   5   -0.59    3.35
  14 -13   5    1.29    1.74
  14 -13   5    0.94    1.30
 -15 -14  -5    2.78    3.49
  14 -15  -5    0.30    2.75
  15  14  -5   -2.76    2.98
  14 -15  -5    9.27    4.27
  15  14   5    4.55    3.36
  14 -15   5    1.72    2.11
  15  14   5   -1.95    3.58
  14 -15   5    0.00    1.40
 -15 -14   5    1.03    4.82
  15  12  -5   -1.48    2.68
 -15 -12  -5    0.34    3.12
  12 -15  -5   -2.12    2.50
  12 -15  -5   -1.00    3.73
  15  12   5    0.04    3.33
 -15 -12   5    5.27    4.35
  12 -15   5   -1.23    2.11
  15  12   5    3.14    3.12
  12 -15   5   -1.54    1.36
 -12  15   5   -2.40    2.88
  15  10  -5    3.77    2.84
  10 -15  -5    5.74    2.37
  10 -15  -5   -0.50    3.67
  15  10  -5   -1.16    2.75
  15  10   5   -4.31    2.92
  15  10   5    3.65    2.92
  10 -15   5    2.58    1.38
 -10  15   5    2.44    2.58
 -15 -10   5   -3.28    6.28
  10 -15   5    4.27    2.55
  15   8  -5    5.93    2.92
  15   8  -5    6.58    2.96
   8 -15  -5    8.71    2.52
   8 -15  -5   14.41    3.70
 -15  -8  -5    7.80    3.08
 -15  -8   5    6.82    2.98
  15   8   5    3.29    2.98
 -15  -8   5    9.69    3.81
  15   8   5    3.34    3.04
  -8  15   5   11.87    2.76
   8 -15   5    8.68    1.88
   8 -15   5    7.32    2.37
   6 -15  -5   13.23    3.90
  15   6  -5   12.10    3.19
 -15  -6  -5   10.33    3.08
   6 -15  -5    9.99    2.59
  15   6  -5    9.42    3.10
   6 -15   5   10.86    2.72
 -15  -6   5   14.15    3.90
  15   6   5   10.69    3.08
 -15  -6   5    8.72    3.02
   6 -15   5    9.32    2.18
  15   6   5   11.75    3.14
   4 -15  -5    6.38    2.58
   4 -15  -5   18.23    3.85
  15   4  -5   15.47    3.29
  15   4  -5   11.49    2.97
  -4  15   5    8.79    2.73
   4 -15   5   14.16    2.90
 -15  -4   5   13.32    3.72
 -15  -4   5    7.24    2.96
  15   4   5   15.25    3.10
  15   4   5    8.63    3.01
   4 -15   5   12.60    2.35
   2 -15  -5   17.99    4.15
  15   2  -5   13.22    3.65
   2 -15  -5   18.70    3.40
  15   2  -5   19.82    3.75
 -15  -2  -5   21.92    3.98
  -2  15  -5   18.40    3.03
  15   2   5   23.22    4.08
  15   2   5   14.45    3.43
 -15  -2   5   16.85    4.20
 -15  -2   5   12.06    3.62
  -2  15   5   17.89    3.43
   2 -15   5   16.60    3.19
   2 -15   5   15.27    3.55
   0  15  -5   16.09    3.02
  15   0  -5   11.61    3.38
  15   0  -5   12.69    3.40
   0 -15  -5   19.00    3.27
   0 -15  -5   15.85    3.91
   0 -15   5   11.32    2.81
  15   0   5   16.67    3.03
   0 -15   5   15.96    3.40
   0  15   5   10.55    3.47
   0  15   5   15.53    3.17
 -15   0   5   13.17    3.89
  15   0   5   12.35    3.04
   2  15  -5   20.04    3.63
  15  -2  -5    9.43    3.54
  15  -2  -5   17.69    3.81
  -2 -15  -5   16.78    4.06
  -2 -15  -5   18.59    3.58
   2  15   5   15.46    4.19
  -2 -15   5   16.58    3.26
  -2 -15   5   17.33    3.78
  15  -2   5   20.77    3.68
  15  -2   5   16.49    3.31
   2  15   5   18.18    3.49
 -15   2   5   22.23    5.13
  -4 -15  -5   19.67    3.87
  -4 -15  -5   12.83    3.05
  15  -4  -5    7.35    3.07
   4  15  -5   13.25    2.58
  15  -4  -5    9.30    3.27
  15  -4   5   12.09    2.69
  -4 -15   5   10.15    2.67
  -4 -15   5   13.78    3.49
   4  15   5   16.92    3.27
  15  -4   5   10.26    2.54
   4  15   5    8.71    3.29
  15  -6  -5   14.11    3.58
  15  -6  -5   10.31    3.24
  -6 -15  -5   20.20    5.57
  -6 -15  -5   12.07    3.89
  -6 -15   5   18.29    3.79
 -15   6   5   14.54    3.81
  -6 -15   5    8.69    2.97
   6  15   5   26.17    4.37
  15  -6   5   10.44    2.52
   8  15  -5    6.49    2.61
  15  -8  -5   15.06    3.75
  -8 -15  -5    8.70    3.65
  -8 -15  -5    5.93    3.02
  15  -8  -5    7.00    3.00
 -15   8   5   15.07    3.70
   8  15   5    7.18    3.44
  -8 -15   5    2.50    2.81
  15  -8   5   14.87    2.57
   8  15   5   15.11    3.31
  15  -8   5    8.90    2.11
  -8 -15   5    9.52    3.69
  10  15  -5    0.27    2.41
  15 -10  -5    0.70    2.83
  15 -10  -5    5.93    3.75
 -10 -15  -5    6.29    3.36
  15 -10   5    4.56    1.64
  15 -10   5    3.91    1.53
  10  15   5   -1.58    2.90
  10  15   5    2.61    3.13
 -10 -15   5    0.37    2.85
 -10 -15   5    5.74    3.78
 -15  10   5    3.61    3.49
  15 -12  -5   -0.64    3.88
  15 -12  -5    1.42    3.00
  12  15  -5   -2.04    2.65
 -12 -15  -5   -0.47    3.47
  12  15   5   -0.78    3.43
  15 -12   5    4.66    1.43
 -12 -15   5    1.34    3.32
 -12 -15   5    0.61    4.17
  15 -12   5    1.98    1.65
  12  15   5   -3.73    3.34
  15 -14  -5    0.19    2.99
  15 -14  -5    3.03    4.26
  14  15  -5    5.01    3.13
 -14 -15  -5    2.04    3.62
  15 -14   5    1.36    1.43
 -14 -15   5   -2.29    4.52
  14  15   5    0.55    3.68
  15 -14   5   -1.29    2.00
  16  15  -5    3.14    3.39
 -16 -15  -5    1.13    3.79
  15 -16  -5    0.96    3.06
  15 -16  -5    1.67    4.48
 -16 -15   5   -1.81    4.95
  16  15   5    3.70    4.64
  15 -16   5    0.72    2.31
  16  15   5   -4.82    3.94
  15 -16   5    3.03    1.66
  13 -16  -5    2.25    4.02
  16  13  -5    1.38    3.12
 -16 -13  -5    2.76    3.36
  13 -16  -5    3.34    2.78
  16  13   5    3.93    3.25
 -16 -13   5   -8.19    4.73
 -13  16   5   -1.96    3.11
  13 -16   5    0.81    2.29
  16  13   5   -0.90    4.68
  13 -16   5    0.99    1.49
  16  11  -5    1.09    2.84
  11 -16  -5   -3.63    2.24
  11 -16  -5   -1.38    3.95
  11 -16   5    0.99    2.23
  16  11   5    3.31    2.96
  11 -16   5   -0.99    1.45
  16  11   5   -3.70    3.54
 -11  16   5    0.66    2.81
 -16 -11   5    2.35    4.53
 -16  -9  -5    1.76    2.90
   9 -16  -5    0.26    2.08
  16   9  -5   -1.54    2.89
   9 -16  -5    0.78    3.60
  16   9  -5   -4.98    2.80
  16   9   5    0.33    2.70
  -9  16   5    0.43    2.61
   9 -16   5    0.35    1.47
  16   9   5   -2.26    3.04
 -16  -9   5   -0.70    4.04
   9 -16   5   -0.78    2.16
  16   7  -5   -0.99    2.74
   7 -16  -5   -2.49    3.05
 -16  -7  -5    0.89    2.71
   7 -16  -5    0.45    1.95
  16   7  -5    1.03    2.62
   7 -16   5    7.24    4.78
 -16  -7   5    2.45    3.60
  16   7   5   -1.58    2.59
  -7  16   5   -1.77    2.06
   7 -16   5    0.70    1.49
  16   7   5   -2.86    2.46
   5 -16  -5    2.17    3.11
  16   5  -5   -4.49    2.58
  16   5  -5    1.91    2.41
   5 -16  -5    2.76    2.02
  -5  16   5    0.56    3.75
  16   5   5   -2.29    2.52
  16   5   5   -1.51    2.21
 -16  -5   5   -1.69    3.28
   5 -16   5    1.32    2.24
   5 -16   5    0.44    1.55
   3 -16  -5   11.73    3.50
  16   3  -5   -1.05    2.44
  16   3  -5   -1.34    2.36
   3 -16  -5    1.76    2.10
 -16  -3  -5    4.34    2.33
  16   3   5    1.29    2.26
   3 -16   5    1.05    1.57
  -3  16   5    1.80    1.97
 -16  -3   5   -0.09    3.27
   3 -16   5    1.45    2.33
  16   3   5   -1.28    2.29
  -1  16  -5    6.82    1.65
  16   1  -5    8.76    2.77
 -16  -1  -5    6.85    1.91
  16   1  -5   -3.18    2.54
   1 -16  -5    4.46    3.33
   1 -16  -5    3.16    2.25
 -16  -1   5    9.97    3.48
  -1  16   5    6.77    2.38
  16   1   5    6.14    2.37
   1 -16   5    7.77    2.82
  16   1   5    3.76    2.44
   1 -16   5    7.69    2.08
  16  -1  -5    5.48    2.75
   1  16  -5    3.97    3.33
  -1 -16  -5   11.46    3.49
  16  -1  -5    8.58    2.80
  -1 -16  -5    5.79    2.45
  -1 -16   5    7.94    3.03
  -1 -16   5    1.97    2.12
   1  16   5    7.77    2.42
  16  -1   5   11.27    2.33
  16  -1   5    5.84    2.36
  16  -3  -5    4.17    2.72
  -3 -16  -5    4.07    2.42
  16  -3  -5    2.80    2.60
   3  16  -5    1.93    1.84
  -3 -16  -5    8.93    3.19
  16  -3   5    1.11    1.99
  -3 -16   5   -0.01    1.96
  -3 -16   5    2.95    2.77
  16  -3   5    5.94    2.15
   3  16   5    4.82    2.40
   3  16   5    0.70    2.68
   5  16  -5    0.26    1.83
  16  -5  -5    1.45    2.85
  -5 -16  -5   -1.31    2.61
  -5 -16  -5   -2.20    3.10
  16  -5  -5    0.10    2.57
 -16   5   5   -2.14    3.33
  -5 -16   5    0.42    2.01
   5  16   5    4.78    2.68
   5  16   5    0.58    2.52
  -5 -16   5   -0.14    3.06
  16  -5   5    5.25    1.89
  16  -5   5    2.09    2.51
   7  16  -5   -0.58    2.19
  16  -7  -5   -1.62    2.64
  -7 -16  -5    0.32    2.44
  16  -7  -5   -0.63    3.04
  -7 -16  -5   -5.32    3.36
   7  16   5   -1.46    2.63
   7  16   5    1.04    2.90
 -16   7   5   -1.47    3.47
  -7 -16   5   -5.01    3.18
  16  -7   5   -1.77    1.66
  -7 -16   5    2.60    2.31
  -9 -16  -5   -0.30    3.31
   9  16  -5   -2.58    2.14
  16  -9  -5   -5.41    2.79
   9  16   5    2.02    2.96
  16  -9   5    0.61    1.62
 -16   9   5    4.19    3.61
  -9 -16   5   -5.47    3.50
  -9 -16   5   -3.74    2.37
   9  16   5    0.07    3.02
  16  -9   5    6.33    2.46
  16 -11  -5    2.75    3.07
  11  16  -5    5.10    2.74
 -11 -16  -5    4.99    3.74
  16 -11  -5    2.31    3.83
  11  16   5    1.96    3.32
 -11 -16   5    2.96    4.37
 -16  11   5    4.12    5.61
 -11 -16   5    1.76    3.02
  16 -11   5   -1.32    1.66
  11  16   5    7.27    3.38
  16 -11   5    2.13    1.60
  16 -13  -5    2.87    4.22
 -13 -16  -5    1.39    3.81
  16 -13  -5    2.08    3.28
  13  16  -5    0.93    2.90
 -13 -16   5    1.39    3.69
  16 -13   5    0.54    1.87
  16 -13   5    3.32    1.60
 -16  13   5    4.12    4.09
 -13 -16   5    1.74    4.69
  13  16   5    1.06    3.69
  13  16   5    3.56    3.63
  16 -15  -5    3.05    3.24
  15  16  -5   -0.75    3.48
 -15 -16  -5    5.23    3.98
  16 -15  -5    2.42    4.64
 -16  15   5   -0.70    4.55
  15  16   5    1.69    4.19
 -15 -16   5    3.09    5.27
  16 -15   5   -0.27    1.61
  15  16   5    5.70    5.11
  14 -17  -5    2.87    4.42
 -17 -14  -5    0.09    3.60
 -14  17   5   -1.76    3.32
  12 -17  -5    4.56    3.98
  12 -17  -5    3.57    2.59
  17  12  -5    0.60    3.17
  17  12   5   -5.69    3.22
  12 -17   5    3.58    2.52
 -12  17   5   -1.79    3.17
  12 -17   5   -2.56    1.54
 -17 -12   5    0.86    4.90
  17  12   5   -2.71    3.58
 -17 -10  -5   -0.76    3.16
  17  10  -5    4.29    3.25
  10 -17  -5    3.95    3.91
  17  10  -5   -3.51    3.90
  10 -17  -5    1.20    2.32
 -10  17   5    2.08    2.87
 -17 -10   5    8.65    5.13
  17  10   5    1.08    2.99
  10 -17   5    3.83    2.39
  17  10   5   -0.25    3.28
  10 -17   5    4.08    1.67
 -17  -8  -5    1.17    3.10
  17   8  -5    8.14    3.26
   8 -17  -5    4.94    2.37
   8 -17  -5   10.88    5.54
   8 -17   5    6.16    2.37
  -8  17   5    5.53    2.82
   8 -17   5    5.19    2.17
  17   8   5    8.58    3.63
 -17  -8   5    6.96    4.36
  17   8   5    3.50    2.86
  17   6  -5   -3.18    2.99
   6 -17  -5    5.70    2.31
   6 -17  -5   10.65    3.78
  17   6  -5   12.16    3.21
  -6  17   5    2.54    2.00
 -17  -6   5    5.66    3.88
   6 -17   5    5.58    1.84
   6 -17   5    7.30    2.82
  17   6   5    5.43    2.72
  17   4  -5    6.52    2.79
  17   4  -5    7.56    3.07
   4 -17  -5   12.79    3.72
 -17  -4  -5    7.58    2.91
 -17  -4   5    7.78    3.78
   4 -17   5    5.59    2.02
  -4  17   5    6.66    2.84
  17   4   5    3.44    3.33
   4 -17   5    5.58    3.30
  17   4   5    5.44    3.17
  17   2  -5    3.65    2.68
   2 -17  -5   14.04    3.60
 -17  -2  -5    2.07    2.00
   2 -17  -5    1.12    2.12
  -2  17  -5    4.90    1.62
  17   2  -5    2.31    2.62
   2 -17   5    2.72    2.90
 -17  -2   5    5.35    3.49
   2 -17   5    3.60    1.83
  -2  17   5    2.33    2.24
  17   2   5    7.88    2.53
  17   2   5    5.45    2.72
   0 -17  -5    0.01    2.11
   0 -17  -5    1.98    3.48
  17   0  -5   -0.37    2.53
   0  17  -5    0.30    1.57
   0 -17   5   -1.05    1.78
 -17   0   5   -3.00    4.86
  17   0   5   -1.42    2.18
   0 -17   5   -4.88    2.71
  17   0   5    4.92    2.33
   0  17   5   -1.10    2.17
   2  17  -5    4.17    1.95
  -2 -17  -5    3.75    3.24
  17  -2  -5    1.42    2.85
  17  -2  -5    5.22    2.70
  -2 -17  -5    0.80    2.44
  -2 -17   5    7.28    2.99
   2  17   5   -0.32    2.27
  17  -2   5    1.43    2.16
  -2 -17   5    4.67    2.14
  17  -2   5    3.37    2.31
  17  -4  -5    6.28    3.01
  17  -4  -5    5.79    3.02
  -4 -17  -5    8.15    2.98
  -4 -17  -5    9.16    3.64
   4  17  -5    3.10    2.11
  -4 -17   5    5.63    2.32
   4  17   5    6.62    2.54
  -4 -17   5    7.24    3.35
  17  -4   5    6.84    2.47
 -17   4   5   13.04    3.94
  17  -6  -5    3.49    3.04
  -6 -17  -5   13.69    3.90
  -6 -17  -5    3.72    2.92
   6  17  -5    5.05    2.16
  17  -6  -5    7.20    3.40
   6  17   5    8.33    3.04
  -6 -17   5    5.27    2.53
  17  -6   5    7.36    2.42
 -17   6   5   12.23    4.04
  -6 -17   5    9.58    3.75
  -8 -17  -5    9.20    3.73
  17  -8  -5    7.53    3.29
   8  17  -5    5.32    3.72
  17  -8  -5    8.44    3.72
  -8 -17   5    2.13    3.91
  -8 -17   5    4.85    2.70
 -17   8   5    6.34    4.09
  17  -8   5    3.10    1.97
   8  17   5    2.90    3.14
  17  -8   5    8.42    2.15
  17 -10  -5    0.49    3.15
 -10 -17  -5    1.32    5.74
  10  17  -5    3.99    2.58
  17 -10  -5    2.63    3.73
 -10 -17   5   -0.14    3.07
  17 -10   5    4.97    1.74
 -10 -17   5    1.82    4.33
 -17  10   5    5.04    5.53
  17 -10   5    0.63    1.87
  10  17   5    1.04    3.35
  17 -12  -5    0.11    3.33
  17 -12  -5   -2.17    4.04
  12  17  -5    0.35    2.81
 -12 -17  -5    0.10    3.86
  12  17   5    7.45    3.64
 -12 -17   5    1.18    4.08
  17 -12   5   -3.18    1.77
 -12 -17   5   -0.25    4.68
  17 -12   5    1.91    1.74
 -17  12   5   -4.79    4.28
 -14 -17  -5    4.53    4.10
  17 -14   5    0.98    1.98
 -18 -11  -5    5.41    3.62
  11 -18  -5    0.23    2.52
  18  11  -5    0.40    3.27
  11 -18  -5    2.98    4.37
  18  11   5   -0.02    3.23
 -11  18   5   -1.32    3.29
  11 -18   5    2.60    2.69
  18  11   5    6.61    3.88
 -18 -11   5    9.93    5.03
  11 -18   5    2.78    1.81
   9 -18  -5    2.40    3.99
   9 -18  -5    3.16    2.40
  18   9  -5    0.67    3.38
 -18  -9  -5    1.98    3.28
  18   9  -5    6.55    3.38
  18   9   5   -0.40    3.33
  -9  18   5    3.24    2.97
   9 -18   5    3.23    1.80
  18   9   5    3.13    3.14
 -18  -9   5    1.96    4.67
   9 -18   5    5.90    2.57
  18   7  -5    2.45    3.41
  18   7  -5    3.60    3.19
   7 -18  -5    7.41    4.23
 -18  -7  -5   10.85    4.18
   7 -18  -5    5.16    2.37
  -7  18   5    2.51    2.72
  18   7   5    6.93    2.98
   7 -18   5    3.76    1.88
   7 -18   5    5.55    2.56
  18   7   5    4.25    3.12
 -18  -7   5   -2.77    4.38
  18   5  -5    5.57    3.16
   5 -18  -5    3.99    2.81
   5 -18  -5    7.38    3.77
 -18  -5  -5    3.79    3.07
  18   5  -5    0.31    2.74
 -18  -5   5    4.26    4.03
   5 -18   5   12.64    3.06
   5 -18   5    4.47    1.89
  18   5   5    6.29    2.90
  18   5   5   -1.83    2.65
   3 -18  -5   15.67    4.27
 -18  -3  -5   12.27    3.24
   3 -18  -5   10.20    2.95
  18   3  -5    5.80    3.27
  18   3  -5   14.98    3.66
   3 -18   5   10.02    2.62
  -3  18   5   19.02    3.71
   3 -18   5   14.45    3.41
 -18  -3   5   16.53    4.20
  18   3   5    7.41    3.15
  18   3   5   15.11    3.38
  18   1  -5   31.17    5.43
  -1  18  -5   25.77    4.08
   1 -18  -5   36.48    6.29
   1 -18  -5   18.18    4.16
  18   1  -5   16.63    4.46
  18   1   5   26.08    4.85
 -18  -1   5   26.01    5.26
  18   1   5   19.45    4.34
   1 -18   5   22.59    4.66
   1 -18   5   15.79    3.96
  -1  18   5   30.59    5.01
  -1 -18  -5   29.43    5.18
  -1 -18  -5   20.96    4.24
  18  -1  -5   15.10    4.53
  18  -1  -5   18.93    4.52
   1  18  -5   28.09    4.29
  18  -1   5   19.27    4.02
  -1 -18   5   16.47    3.89
  18  -1   5   19.78    4.18
  -1 -18   5   26.78    5.03
   1  18   5   26.34    4.89
  -3 -18  -5   15.78    4.23
  -3 -18  -5   11.48    3.47
  18  -3  -5   12.09    3.75
   3  18  -5   12.70    2.93
  18  -3  -5    9.66    3.49
  -3 -18   5   14.09    6.29
 -18   3   5    8.85    4.12
   3  18   5   15.62    3.42
  18  -3   5   19.48    3.32
  18  -3   5   13.04    3.32
  -3 -18   5   11.52    3.07
  -5 -18  -5   -0.69    2.94
  18  -5  -5    8.00    6.28
  -5 -18  -5    4.78    3.67
   5  18  -5    5.71    2.39
  18  -5  -5    5.17    3.19
 -18   5   5    7.02    4.29
  -5 -18   5    5.34    2.43
  -5 -18   5   11.04    5.84
   5  18   5    5.00    2.73
  18  -5   5   10.93    2.47
  18  -7  -5    8.55    3.53
  18  -7  -5    2.93    3.17
  -7 -18  -5    0.81    3.75
  18  -7   5    2.24    2.19
  -7 -18   5    5.28    2.75
  -7 -18   5   -0.56    4.43
 -18   7   5    2.07    4.26
  18  -7   5    0.93    2.24
   7  18   5    6.71    3.13
   9  18  -5    2.14    2.47
  18  -9  -5   -1.83    3.65
  18  -9  -5    1.20    3.28
  -9 -18  -5    6.42    3.97
  18  -9   5    1.70    1.89
  18  -9   5    2.02    2.15
 -18   9   5   -1.89    5.16
  -9 -18   5    5.68    4.69
  -9 -18   5    1.30    2.93
   9  18   5    2.40    3.32
  18 -11  -5   -2.06    3.40
  18 -11  -5   -0.64    3.99
  11  18  -5    2.51    2.82
 -11 -18  -5    8.72    4.23
  11  18   5    8.45    3.86
 -11 -18   5    1.27    5.56
  18 -11   5    3.75    2.09
 -11 -18   5    4.49    3.50
  18 -11   5    1.12    1.87
 -18  11   5    0.44    4.51
  19  10  -5    2.58    3.36
  10 -19  -5    2.37    2.55
  10 -19  -5   -0.20    4.16
 -19 -10  -5    1.82    3.42
  10 -19   5   -0.97    1.87
  19  10   5    2.99    4.04
 -19 -10   5    2.39    4.98
 -10  19   5   -3.76    3.55
  10 -19   5    6.07    2.78
  19  10   5    1.77    3.83
   8 -19  -5    2.56    2.32
   8 -19  -5    1.60    3.93
  19   8  -5    6.69    3.48
 -19  -8  -5    0.80    5.26
  19   8  -5   -7.52    3.36
  19   8   5    4.59    3.41
  -8  19   5    2.93    2.91
  19   8   5    5.09    3.04
 -19  -8   5    2.04    4.72
   8 -19   5    5.72    2.80
  19   6  -5   -2.03    3.07
  19   6  -5    1.81    3.06
   6 -19  -5    3.49    2.42
   6 -19  -5    2.05    3.87
 -19  -6  -5    3.47    3.25
  19   6   5    3.90    2.86
  19   6   5    4.28    3.25
 -19  -6   5   -4.26    4.27
  -6  19   5    5.55    2.76
   6 -19   5    2.77    2.69
   6 -19   5    1.99    1.84
  19   4  -5   -4.21    2.79
   4 -19  -5    4.77    4.66
 -19  -4  -5    3.73    3.03
  19   4  -5    5.81    3.08
   4 -19  -5    2.18    2.33
   4 -19   5    2.43    3.17
  19   4   5    2.92    3.09
  19   4   5    3.46    3.02
 -19  -4   5    4.28    3.99
   4 -19   5    1.32    1.81
  -2  19  -5    0.51    2.04
 -19  -2  -5   -0.43    2.47
  19   2  -5    0.85    2.85
  19   2  -5    2.48    3.05
   2 -19  -5    0.83    3.61
   2 -19  -5    0.86    2.29
   2 -19   5    4.19    2.04
  19   2   5   -0.89    2.76
  19   2   5    4.16    2.80
  -2  19   5    5.83    2.49
 -19  -2   5    3.61    3.80
   2 -19   5    1.62    3.00
   0 -19  -5   -0.13    2.48
  19   0  -5   -6.95    2.86
  19   0  -5   -4.48    2.86
   0  19  -5   -1.43    1.78
   0 -19  -5    4.07    3.64
  19   0   5   -3.51    2.39
   0 -19   5   -0.54    3.07
  19   0   5   -1.18    2.65
   0  19   5    1.45    2.62
   0 -19   5   -0.10    2.84
  19  -2  -5    5.56    4.35
   2  19  -5    4.44    2.08
  -2 -19  -5    0.04    2.72
  -2 -19  -5   -4.45    3.45
  19  -2  -5   -3.18    3.00
  -2 -19   5    4.59    2.25
   2  19   5    2.86    2.41
  19  -2   5    0.80    2.31
 -19   2   5   -0.34    3.47
  -2 -19   5    1.39    3.25
  19  -2   5    2.80    2.61
  19  -4  -5    8.18    3.38
  -4 -19  -5   -0.85    3.74
  -4 -19  -5   -1.84    3.03
  19  -4  -5    0.31    3.23
   4  19  -5   -0.74    2.12
  19  -4   5   -1.82    3.17
 -19   4   5    7.30    3.77
  -4 -19   5    3.30    2.26
  -4 -19   5    6.62    3.79
  19  -4   5    4.37    2.40
   4  19   5    4.25    2.69
  19  -6  -5   -0.73    3.42
   6  19  -5    3.50    2.40
  19  -6  -5    1.60    3.34
  -6 -19  -5    8.89    4.02
  -6 -19   5   13.96    4.26
   6  19   5    1.09    3.19
  -6 -19   5    3.39    2.54
 -19   6   5    5.08    3.89
  19  -6   5    4.47    2.37
  19  -8  -5    2.99    3.53
  19  -8  -5    7.56    3.91
  -8 -19  -5    6.33    4.27
  19  -8   5    0.47    2.21
  19  -8   5    1.11    2.33
  -8 -19   5    7.20    4.59
  -8 -19   5    1.78    2.83
 -19   8   5    1.74    5.26
   8  19   5    6.82    3.49
  10  19  -5   -0.11    2.53
 -10 -19  -5    2.72    4.21
  19 -10  -5    4.44    3.58
  19 -10  -5    1.42    3.79
 -10 -19   5    2.00    3.29
 -19  10   5    3.34    4.79
  10  19   5   -3.54    3.67
  19 -10   5    0.74    2.24
  19 -10   5    3.55    2.05
 -10 -19   5    3.10    4.78
   9 -20  -5    0.83    4.29
   9 -20  -5    0.44    2.50
  20   9  -5    4.78    3.64
   9 -20   5    0.53    2.03
   9 -20   5    2.70    2.93
 -20  -9   5    1.12    4.98
  -9  20   5    2.45    5.07
  20   9   5   -0.13    3.71
  20   9   5    0.32    3.48
  20   7  -5   -4.90    3.32
  20   7  -5    3.38    3.43
   7 -20  -5    1.48    2.39
   7 -20  -5    1.03    4.20
 -20  -7  -5    3.64    3.56
 -20  -7   5   -3.66    4.63
  -7  20   5   -2.39    2.85
  20   7   5   -3.57    2.93
   7 -20   5    2.26    2.00
  20   7   5    1.89    3.41
   7 -20   5    5.13    2.83
  20   5  -5   -2.42    3.11
  20   5  -5    6.16    3.48
   5 -20  -5    8.56    4.16
   5 -20  -5    2.25    2.40
 -20  -5  -5    4.95    3.38
   5 -20   5    5.63    2.94
 -20  -5   5    5.92    4.60
  -5  20   5    1.98    3.15
  20   5   5    4.50    3.21
  20   5   5    3.32    2.99
   5 -20   5    1.90    1.98
   3 -20  -5    5.86    2.69
   3 -20  -5   15.26    4.85
  20   3  -5    3.22    4.01
 -20  -3  -5    6.10    3.08
  20   3  -5   -0.41    3.33
  20   3   5    7.53    3.18
 -20  -3   5    5.67    4.36
   3 -20   5    9.04    3.72
   3 -20   5    4.90    2.23
  20   1  -5   22.82    5.13
   1 -20  -5   17.79    4.74
   1 -20  -5    9.25    3.45
  -1  20  -5   13.14    3.16
  20   1  -5    8.15    3.84
   1 -20   5   12.74    3.16
  20   1   5   15.62    3.72
  20   1   5   13.67    3.47
   1 -20   5   16.14    4.02
  -1  20   5   19.40    3.62
  -1 -20  -5   10.78    3.49
   1  20  -5   11.33    2.85
  -1 -20  -5   19.28    4.74
  20  -1  -5   10.29    3.74
  20  -1   5   14.61    3.54
  -1 -20   5    9.53    4.06
 -20   1   5   18.84    5.86
  -1 -20   5   10.02    3.07
   1  20   5   16.41    3.50
  20  -1   5   13.56    3.32
  -3 -20  -5    9.70    3.98
  20  -3  -5    1.64    3.64
   3  20  -5    7.79    2.73
  20  -3  -5    4.43    3.41
  -3 -20  -5    2.23    4.62
   3  20   5    6.58    2.91
  -3 -20   5    4.14    2.70
  20  -3   5    5.83    3.00
  -3 -20   5    8.60    3.98
  20  -3   5    5.47    2.52
 -20   3   5   13.48    4.14
  20  -5  -5   -0.12    3.26
  20  -5  -5    0.62    3.49
  -5 -20  -5    0.24    3.66
   5  20  -5    2.95    2.39
  -5 -20  -5    3.46    4.07
  20  -5   5    6.95    2.64
 -20   5   5    3.71    3.96
  -5 -20   5    2.48    2.45
   5  20   5    3.69    2.87
  -5 -20   5    5.89    4.01
  -7 -20  -5   -0.59    4.12
  20  -7  -5   -2.15    3.63
   7  20  -5    0.46    2.71
  20  -7  -5   -0.44    3.57
  -7 -20   5   -6.11    4.33
  -7 -20   5    5.61    2.86
  20  -7   5   -0.02    2.61
   7  20   5    2.80    3.50
  20  -7   5    4.63    2.44
 -20   7   5    3.62    4.09
  -9 -20  -5    1.00    4.60
  20  -9  -5    2.44    3.96
  20  -9  -5   -0.36    4.10
   9  20  -5   -1.67    3.22
   9  20   5    4.64    3.88
  20  -9   5   -1.94    2.57
 -20   9   5    7.04    4.23
  -9 -20   5   -0.28    3.37
  20  -9   5    3.80    2.32
  -9 -20   5    7.02    5.07
   6 -21  -5   -0.34    4.23
   6 -21  -5   -1.44    2.63
  21   6  -5    0.75    3.46
 -21  -6  -5    3.68    3.83
   6 -21   5    0.86    2.08
 -21  -6   5   -2.65    4.81
  21   6   5   -1.40    3.38
   6 -21   5    5.23    3.02
  21   6   5   -0.01    3.26
  -6  21   5   -0.56    3.05
   4 -21  -5    0.42    2.49
  21   4  -5   -4.57    3.32
 -21  -4  -5    6.73    4.07
  21   4  -5    0.23    3.49
   4 -21  -5    2.91    4.30
   4 -21   5    6.59    3.49
  21   4   5   -2.39    3.05
  21   4   5    0.42    3.19
   4 -21   5    3.82    2.20
 -21  -4   5    9.89    4.63
   2 -21  -5    5.20    4.18
  21   2  -5   -0.78    3.51
  21   2  -5   -1.37    3.23
   2 -21  -5    3.78    2.67
   2 -21   5    1.27    2.16
  21   2   5   -1.25    2.99
  21   2   5   -2.88    2.91
   2 -21   5    3.76    3.71
  -2  21   5    2.76    3.27
   0 -21  -5   -1.47    2.73
  21   0  -5    5.06    3.36
   0  21  -5    4.86    4.09
  21   0  -5   -7.50    3.47
   0 -21  -5    6.38    5.19
  21   0   5    1.38    2.68
   0 -21   5   -0.23    2.64
  21   0   5   -4.63    2.83
   0  21   5    3.73    2.82
   0 -21   5   -2.44    3.36
  21  -2  -5    1.74    3.27
  -2 -21  -5    5.35    4.02
  21  -2  -5   -4.92    3.71
   2  21  -5    1.20    2.36
  -2 -21   5   10.13    3.92
  21  -2   5   -0.87    2.64
  -2 -21   5    1.91    2.52
   2  21   5    3.72    2.71
 -21   2   5    1.39    3.97
  21  -2   5   -0.77    3.01
  -4 -21  -5   -0.57    4.31
   4  21  -5    0.62    3.53
  21  -4  -5   -1.16    3.88
  21  -4  -5   -5.13    3.35
  -4 -21  -5   -1.17    4.18
   4  21   5    1.31    2.85
  -4 -21   5    0.59    2.53
  21  -4   5    3.75    2.58
  -4 -21   5    3.93    4.07
 -21   4   5   -2.19    4.16
  21  -6  -5   -0.06    3.60
  -6 -21  -5   -1.12    4.40
  21  -6  -5   -0.22    3.96
   6  21  -5   -1.53    2.60
  21  -6   5   -1.62    2.56
  21  -6   5   -1.10    2.94
  -6 -21   5   -6.07    4.18
  -6 -21   5    3.55    4.17
   6  21   5    1.38    2.96
 -21   6   5   -0.35    4.34
  22   1  -5    0.56    3.80
  22  -1  -5    6.73    3.68
   0   0  -6    0.23    0.94
   0   0  -6   -0.10    0.38
   0   0   6   -0.34    1.04
   0   0   6   -0.30    1.24
   1   1  -6   -0.58    0.99
  -1  -1  -6   -0.06    0.38
   1  -1  -6   -0.25    1.10
  -1  -1  -6    1.13    1.03
  -1   1  -6    0.54    0.89
   1  -1  -6    0.92    1.40
  -1   1  -6   -0.51    1.05
   1   1   6    0.29    1.29
   1  -1   6    1.97    1.11
  -1  -1   6    1.08    1.17
   1  -1   6    1.14    1.01
  -1   1   6   -0.08    1.18
  -1  -1   6    0.14    1.28
  -1   1   6   -0.70    1.30
   1   1   6    0.15    1.10
   0  -2  -6   15.55    3.04
   2   0  -6   19.03    3.07
   0   2  -6   16.80    2.97
   2   0  -6   19.42    3.99
  -2   0  -6   17.01    3.04
   0   2  -6   16.35    2.87
  -2   0  -6   15.03    2.88
   0  -2  -6   20.01    3.37
   0   2   6   17.80    3.39
   2   0   6   20.27    3.20
   2   0   6   17.35    2.97
  -2   0   6   14.34    3.24
   0  -2   6   17.64    3.15
   0   2   6   13.13    3.14
   0  -2   6   14.75    3.07
  -2   0   6   17.06    3.21
   2   2  -6    3.15    1.19
  -2   2  -6    4.41    1.08
   2  -2  -6    3.77    1.61
   2  -2  -6    2.99    1.22
  -2   2  -6    3.98    1.01
  -2  -2  -6    3.56    1.20
   2  -2   6    3.90    1.29
  -2   2   6    2.66    1.63
   2   2   6    3.04    1.62
  -2  -2   6    5.25    1.44
   2   2   6    1.66    1.29
  -2   2   6    4.70    1.39
   2  -2   6    3.46    1.04
  -2  -2   6    4.87    1.51
  -3  -1  -6   23.64    3.65
   3   1  -6   25.13    3.93
  -1   3  -6   21.60    3.63
  -1   3  -6   21.90    3.51
  -3  -1  -6   20.97    3.83
   3   1  -6   21.34    3.79
   1  -3  -6   22.74    4.11
   1  -3  -6   17.36    3.79
   3   1   6   23.46    3.97
   1  -3   6   24.41    3.77
  -1   3   6   20.42    3.93
  -3  -1   6   19.94    4.00
   1  -3   6   24.54    3.70
   3   1   6   21.37    3.73
  -1   3   6   23.97    4.18
  -3  -1   6   23.95    3.96
  -1  -3  -6   22.94    3.97
   1   3  -6   19.50    3.62
  -3   1  -6   21.41    3.51
   3  -1  -6   23.13    4.06
   1   3  -6   23.10    3.56
  -1  -3  -6   22.16    3.73
  -3   1  -6   19.00    3.43
   3  -1  -6   23.72    3.72
   3  -1   6   21.30    3.52
  -1  -3   6   24.50    3.76
  -1  -3   6   22.07    3.77
   1   3   6   20.30    3.73
   3  -1   6   26.15    3.74
  -3   1   6   18.06    3.92
   1   3   6   16.64    4.05
  -3   1   6   23.64    3.89
  -3   3  -6   44.16    6.83
   3   3  -6   48.08    7.10
  -3  -3  -6   44.76    7.06
  -3   3  -6   44.88    6.85
   3  -3  -6   48.84    7.39
   3  -3  -6   49.33    7.15
   3   3  -6   42.57    7.17
   3  -3   6   44.57    6.97
  -3  -3   6   52.13    7.19
   3  -3   6   45.01    7.02
  -3   3   6   48.29    7.19
   3   3   6   46.50    7.26
  -3  -3   6   50.14    7.20
   3   3   6   48.96    7.14
  -3   3   6   43.64    7.27
   2  -4  -6   29.31    4.65
  -2   4  -6   26.47    4.29
   4   2  -6   29.06    4.70
   2  -4  -6   28.96    5.00
  -4  -2  -6   28.24    4.52
  -2   4  -6   26.89    4.32
  -4  -2  -6   29.61    4.74
   4   2  -6   26.76    4.72
  -4  -2   6   26.84    4.75
  -2   4   6   18.74    4.92
  -2   4   6   30.46    4.71
   4   2   6   31.21    4.62
   2  -4   6   28.53    4.55
  -4  -2   6   30.59    4.80
   4   2   6   32.89    4.82
   2  -4   6   31.15    4.49
   4   0  -6   27.95    4.45
   4   0  -6   24.97    4.24
   0  -4  -6   24.79    4.20
   0  -4  -6   29.91    4.59
  -4   0  -6   22.34    3.95
   0   4  -6   22.50    3.98
  -4   0  -6   28.51    4.09
   0   4  -6   22.11    4.08
  -4   0   6   25.79    4.41
   0  -4   6   25.06    4.16
   4   0   6   29.52    4.27
   0   4   6   24.15    4.52
   0   4   6   21.29    4.26
   4   0   6   26.39    4.07
  -4   0   6   27.48    4.39
   0  -4   6   27.46    4.48
   4  -2  -6   28.11    4.77
   4  -2  -6   28.11    5.05
   2   4  -6   32.49    4.59
  -2  -4  -6   27.62    4.59
   2   4  -6   21.28    4.42
  -2  -4  -6   24.96    5.14
   2   4   6   29.40    4.91
  -4   2   6   26.81    4.89
  -4   2   6   27.55    4.79
   2   4   6   32.74    4.71
   4  -2   6   29.13    4.41
  -2  -4   6   31.42    4.74
   4  -2   6   32.88    4.55
  -2  -4   6   24.30    4.68
   4   4  -6   69.16   11.47
  -4  -4  -6   79.96   11.33
   4   4  -6   73.68   11.36
   4  -4  -6   81.20   11.57
   4  -4  -6   71.77   11.44
   4   4   6   79.12   11.49
  -4  -4   6   77.48   11.44
  -4   4   6   80.65   11.44
   4  -4   6   68.71   11.24
  -4   4   6   67.29   11.56
   4  -4   6   75.54   11.21
   4   4   6   87.52   11.40
  -5  -3  -6   59.44    9.02
   5   3  -6   61.91    9.14
   3  -5  -6   64.11    9.33
  -5  -3  -6   66.87    9.15
   5   3  -6   59.40    9.17
  -3   5   6   68.38    9.18
  -5  -3   6   58.63    9.20
  -3   5   6   50.67    9.32
   5   3   6   68.50    9.10
  -5  -3   6   61.72    9.23
   3  -5   6   51.02    8.98
   5   3   6   56.69    9.22
   3  -5   6   57.77    8.95
   1  -5  -6   -0.21    1.25
  -5  -1  -6    1.41    1.01
  -1   5  -6    3.65    0.96
   5   1  -6    5.93    1.57
  -1   5  -6    2.42    0.81
   1  -5  -6    2.84    1.76
   5   1  -6    0.29    1.34
  -5  -1  -6    4.56    1.36
   1  -5   6    2.56    1.23
  -5  -1   6    1.35    1.47
   1  -5   6    1.56    1.25
  -1   5   6    2.08    1.45
  -5  -1   6    3.01    1.56
  -1   5   6    0.68    1.53
   5   1   6    1.66    1.25
   5   1   6    3.03    1.51
  -1  -5  -6    1.51    1.29
  -5   1  -6    0.57    0.73
   5  -1  -6    4.02    1.71
   1   5  -6    2.68    1.06
   5  -1  -6    1.16    1.32
   1   5  -6    0.76    1.15
  -5   1  -6    1.39    0.70
  -1  -5  -6    1.25    1.47
  -5   1   6    1.48    1.43
   5  -1   6    0.25    1.25
   5  -1   6    3.83    1.06
   1   5   6    3.81    1.67
  -5   1   6    1.73    1.61
   1   5   6    3.09    1.40
  -1  -5   6    3.43    1.33
  -1  -5   6    2.83    1.37
   5  -3  -6   54.90    9.19
   3   5  -6   57.90    9.03
  -3  -5  -6   62.33    9.04
  -3  -5  -6   57.10    9.53
   5  -3  -6   69.93    9.35
   5  -3   6   56.09    8.91
  -5   3   6   64.81    9.17
   3   5   6   63.31    9.25
   3   5   6   61.49    9.07
   5  -3   6   57.76    8.86
  -3  -5   6   55.28    9.09
  -5   3   6   66.59    9.83
   5   5  -6   47.63    7.51
  -5  -5  -6   52.52    7.42
   5  -5  -6   50.85    7.50
   5  -5  -6   53.84    7.80
   5   5  -6   51.19    7.56
  -5   5   6   42.79    7.71
  -5  -5   6   43.99    7.55
   5   5   6   45.46    7.64
   5  -5   6   42.96    7.24
   5  -5   6   44.10    7.20
  -5  -5   6   56.54    7.68
   5   5   6   54.86    7.52
  -5   5   6   56.86    7.66
   6   4  -6   76.76   11.77
  -6  -4  -6   84.53   11.64
  -6  -4  -6   74.86   11.74
   4  -6  -6   82.35   11.90
   6   4  -6   74.93   11.75
   4  -6  -6   78.40   11.71
   4  -6   6   76.42   11.54
  -4   6   6   71.89   11.86
   6   4   6   75.85   11.80
  -6  -4   6   85.16   11.82
  -4   6   6   78.60   11.73
  -6  -4   6   69.52   11.77
   6   4   6   83.42   11.81
   2  -6  -6   23.74    4.43
  -6  -2  -6   32.48    4.47
   6   2  -6   28.29    4.51
   2  -6  -6   25.44    4.89
  -6  -2  -6   24.34    4.20
   6   2  -6   29.50    4.61
   6   2   6   23.76    4.96
  -2   6   6   26.16    4.52
   6   2   6   30.37    4.35
  -2   6   6   20.99    4.70
   2  -6   6   22.96    4.26
   2  -6   6   27.11    4.26
  -6  -2   6   25.04    4.63
  -6  -2   6   28.48    4.73
   0  -6  -6   18.81    3.29
  -6   0  -6   16.43    2.90
   6   0  -6   16.64    3.39
  -6   0  -6   15.75    2.80
   0   6  -6   16.10    2.93
   0  -6  -6   16.84    3.29
   0   6  -6   11.72    2.96
   6   0  -6   17.53    3.15
   0   6   6   15.23    2.98
   6   0   6   19.79    3.01
  -6   0   6   17.77    3.17
  -6   0   6   17.93    3.11
   0   6   6   18.36    3.24
   0  -6   6   21.32    3.05
   6   0   6   18.60    2.99
   2   6  -6   27.65    4.21
   6  -2  -6   24.45    4.68
  -2  -6  -6   30.75    4.35
  -2  -6  -6   23.83    4.66
   6  -2  -6   25.27    4.86
   2   6  -6   23.00    4.17
   6  -2   6   27.24    3.99
   2   6   6   26.84    4.45
  -2  -6   6   30.45    4.46
  -2  -6   6   22.89    4.34
   2   6   6   24.62    4.65
  -6   2   6   21.67    4.53
  -6   2   6   24.09    4.57
   6  -2   6   21.22    4.15
  -4  -6  -6   80.01   11.63
   6  -4  -6   85.26   11.87
  -4  -6  -6   76.81   11.77
   6  -4  -6   77.61   11.67
   4   6  -6   83.05   11.68
  -6   4   6   78.69   11.72
   6  -4   6   74.80   11.42
  -4  -6   6   72.00   11.68
  -6   4   6   67.10   11.75
  -4  -6   6   84.04   11.75
   6  -4   6   77.64   11.46
   4   6   6   85.71   11.68
   4   6   6   67.61   11.74
   6  -6  -6   89.91   11.99
   6   6  -6   88.66   12.00
   6  -6  -6   82.85   12.19
  -6  -6  -6   67.67   12.20
  -6  -6  -6   84.94   11.95
   6   6  -6   75.01   12.02
   6   6   6   75.81   12.11
  -6   6   6   88.34   12.09
  -6  -6   6   99.72   12.17
  -6   6   6   74.15   12.11
   6  -6   6   73.46   11.72
   6  -6   6   75.39   11.73
  -6  -6   6   71.79   12.04
  -7  -5  -6   24.68    5.08
   7   5  -6   28.54    5.24
   7   5  -6   32.12    5.26
  -7  -5  -6   34.72    5.03
   5  -7  -6   31.51    5.54
   5  -7  -6   31.19    5.18
  -5   7   6   32.88    5.25
   5  -7   6   31.03    4.75
   7   5   6   30.86    5.37
   7   5   6   39.44    5.17
  -7  -5   6   30.53    5.24
  -5   7   6   21.72    5.42
   5  -7   6   28.42    4.78
  -7  -5   6   39.75    5.52
   7   3  -6   37.11    5.93
   3  -7  -6   38.06    6.14
  -7  -3  -6   32.56    5.62
   7   3  -6   32.34    5.93
  -7  -3  -6   36.76    5.82
  -3   7   6   31.42    6.02
   3  -7   6   38.51    5.58
   7   3   6   32.10    5.93
   7   3   6   32.68    5.73
  -7  -3   6   45.86    6.08
  -7  -3   6   38.91    5.91
  -3   7   6   39.35    5.93
  -7  -1  -6    2.14    1.21
   7   1  -6    4.09    1.53
  -1   7  -6    1.41    0.88
  -7  -1  -6    1.48    1.00
   7   1  -6   -0.07    1.59
  -1   7  -6    1.01    0.83
   1  -7  -6    2.79    1.83
   1  -7  -6    1.56    1.34
  -1   7   6    2.81    1.38
  -7  -1   6    0.85    1.95
  -1   7   6    2.91    2.20
   7   1   6    3.93    1.34
  -7  -1   6    0.51    1.65
   7   1   6    2.26    1.59
   1  -7   6    3.49    1.38
   7  -1  -6    3.29    1.79
  -1  -7  -6    1.03    1.83
  -1  -7  -6    2.74    1.44
   7  -1  -6    0.82    1.48
   1   7  -6    1.07    1.15
   1   7  -6    2.06    1.16
   7  -1   6    0.62    1.34
   1   7   6    1.39    1.42
  -1  -7   6    1.71    1.81
   7  -1   6    2.12    1.14
  -1  -7   6   -1.55    1.54
  -7   1   6    3.97    1.55
  -7   1   6    3.36    1.59
   1   7   6    3.97    1.85
  -3  -7  -6   38.54    5.73
  -3  -7  -6   36.47    5.48
   7  -3  -6   32.59    5.77
   7  -3  -6   31.61    5.49
   3   7  -6   31.76    5.42
   3   7  -6   28.68    5.26
   3   7   6   37.05    5.52
  -3  -7   6   30.24    5.46
   7  -3   6   32.24    5.18
  -7   3   6   37.36    5.64
  -7   3   6   28.05    5.69
   3   7   6   31.23    5.65
   7  -3   6   39.57    5.31
   7  -5  -6   29.11    4.83
   5   7  -6   26.32    4.77
  -5  -7  -6   33.41    4.75
  -5  -7  -6   30.17    5.00
   7  -5  -6   30.72    5.31
   5   7  -6   25.21    4.85
  -7   5   6   28.04    5.02
  -7   5   6   16.09    4.63
   5   7   6   24.85    5.07
   5   7   6   41.77    4.91
  -5  -7   6   37.23    5.46
  -5  -7   6   29.44    4.92
   7  -5   6   26.50    4.29
   7   7  -6   20.96    3.91
  -7  -7  -6   12.48    3.51
  -7  -7  -6   28.08    3.75
   7  -7  -6   19.87    3.84
   7  -7  -6   10.28    3.60
   7   7  -6   21.21    3.85
  -7   7   6   13.47    3.56
   7   7   6   21.30    4.26
  -7  -7   6   23.20    3.91
   7   7   6   24.09    3.89
  -7  -7   6   29.75    4.36
  -7   7   6   19.71    4.05
   6  -8  -6   74.42   11.21
  -8  -6  -6   71.18   10.88
   8   6  -6   59.62   10.97
   8   6  -6   76.58   10.97
   6  -8  -6   81.46   10.97
  -6   8   6   78.34   11.01
  -8  -6   6   57.57   11.09
  -8  -6   6   87.96   11.20
   8   6   6   87.27   10.99
  -6   8   6   61.83   11.10
   8   6   6   69.90   11.10
   6  -8   6   66.67   10.64
   8   4  -6   68.20   10.34
   8   4  -6   56.32   10.30
  -8  -4  -6   69.87   10.30
  -8  -4  -6   67.64   10.12
   4  -8  -6   67.52   10.50
   4  -8  -6   63.21   10.27
  -4   8   6   62.35   10.36
  -4   8   6   74.61   10.29
   8   4   6   64.93   10.36
   4  -8   6   68.73   10.05
  -8  -4   6   71.01   11.00
  -8  -4   6   67.63   10.45
   4  -8   6   67.74   10.04
   8   4   6   72.80   10.21
   8   2  -6   19.44    3.95
  -8  -2  -6   19.21    3.39
   8   2  -6   20.87    3.91
   2  -8  -6   17.52    3.65
  -8  -2  -6   19.76    3.60
   2  -8  -6   16.66    3.43
   8   2   6   24.36    3.57
   2  -8   6   16.77    3.46
   2  -8   6   19.41    3.53
  -2   8   6   24.33    4.12
  -8  -2   6   21.57    4.21
   8   2   6   23.38    3.86
  -8  -2   6   21.91    3.93
  -2   8   6   21.40    3.81
   0  -8  -6    1.52    2.00
   8   0  -6    3.87    1.66
   0   8  -6    3.98    1.19
  -8   0  -6    3.82    0.95
   0  -8  -6    3.91    1.54
   8   0  -6    4.32    1.81
   0   8  -6    3.30    1.18
  -8   0  -6    3.72    0.94
  -8   0   6    3.99    1.79
  -8   0   6    3.67    1.65
   0   8   6    2.31    1.94
   8   0   6    1.88    1.24
   0   8   6    4.09    1.73
   0  -8   6    4.06    1.45
   0  -8   6    3.94    1.65
   8   0   6    1.78    1.57
   8  -2  -6   16.53    3.25
  -2  -8  -6   16.57    3.32
  -2  -8  -6   15.44    3.48
   2   8  -6   13.87    3.12
   2   8  -6   20.32    3.27
   8  -2  -6   22.43    3.89
   2   8   6   11.64    3.17
   8  -2   6   19.09    2.88
  -2  -8   6   13.24    2.99
   8  -2   6   20.63    3.21
   2   8   6   17.70    3.60
  -8   2   6   14.85    3.21
  -8   2   6   18.07    3.69
  -2  -8   6   22.98    3.57
   8  -4  -6   65.52   10.16
  -4  -8  -6   67.48    9.93
   4   8  -6   61.75    9.91
  -4  -8  -6   62.78   10.06
   8  -4  -6   62.14    9.94
  -4  -8   6   61.09    9.94
  -8   4   6   50.03   10.07
  -8   4   6   62.01   10.05
  -4  -8   6   77.90   10.10
   8  -4   6   64.30    9.60
   4   8   6   76.16    9.99
   8  -4   6   69.64    9.67
   4   8   6   60.88   10.08
   6   8  -6   59.80   10.39
   8  -6  -6   65.87   10.42
   8  -6  -6   76.82   10.74
   6   8  -6   72.56   10.36
  -6  -8  -6   68.43   10.40
  -6  -8  -6   58.15   10.53
   6   8   6   72.67   10.66
   6   8   6   66.32   10.59
  -8   6   6   64.15   10.57
  -6  -8   6   81.46   10.60
  -6  -8   6   63.42   10.41
  -8   6   6   73.34   10.53
  -8  -8  -6   63.87   10.19
   8   8  -6   64.75    9.59
   8  -8  -6   71.35    9.94
  -8  -8  -6   77.00   10.92
   8   8  -6   49.73    9.66
   8  -8  -6   63.08    9.66
  -8   8   6   65.27    9.74
   8   8   6   56.87    9.82
  -8   8   6   47.57    9.74
  -8  -8   6   53.95    9.68
   8   8   6   75.38    9.67
  -8  -8   6   70.77    9.99
   7  -9  -6   47.85    7.28
   7  -9  -6   49.21    7.68
  -9  -7  -6   47.42    7.16
   9   7  -6   47.82    7.32
   9   7  -6   36.35    7.30
   7  -9   6   48.18    6.82
   7  -9   6   43.61    6.78
  -9  -7   6   36.29    7.35
  -9  -7   6   56.35    7.77
  -7   9   6   31.96    7.34
   9   7   6   49.97    7.34
  -7   9   6   53.20    7.41
   9   7   6   44.37    7.55
  -9  -5  -6   57.49    9.50
   5  -9  -6   59.57    9.76
   9   5  -6   66.58    9.54
   5  -9  -6   56.70    9.44
   9   5  -6   56.70    9.52
  -9  -5   6   55.74    9.53
  -5   9   6   65.94    9.46
   5  -9   6   63.17    9.20
  -9  -5   6   78.18    9.76
   5  -9   6   60.76    9.17
  -5   9   6   49.18    9.56
   9   5   6   69.47    9.44
   9   5   6   59.54    9.59
   9   3  -6   49.86    9.04
  -9  -3  -6   58.15    8.96
   9   3  -6   59.00    9.05
   3  -9  -6   68.32    9.29
  -9  -3  -6   59.87    8.82
   3  -9  -6   60.11    9.14
  -3   9   6   48.52    9.14
  -9  -3   6   55.14    9.05
   9   3   6   62.95    9.79
   3  -9   6   54.03    8.77
   3  -9   6   56.23    8.81
   9   3   6   63.69    8.93
  -3   9   6   70.97    9.04
  -9  -3   6   55.88    9.25
   9   1  -6    6.63    2.05
  -9  -1  -6   11.07    1.95
  -1   9  -6    8.27    1.57
  -1   9  -6    6.94    1.49
   9   1  -6    8.38    2.21
   1  -9  -6    6.86    2.50
   1  -9  -6    9.36    2.00
  -9  -1  -6    5.74    2.30
   1  -9   6    9.61    2.09
  -9  -1   6    5.28    2.15
   1  -9   6    8.03    1.87
   9   1   6    9.73    2.17
   9   1   6    8.96    1.86
  -9  -1   6    8.21    2.51
  -1   9   6    4.31    2.01
  -1   9   6    6.99    2.45
   9  -1  -6    9.07    2.32
   1   9  -6   10.27    1.82
   9  -1  -6    8.30    2.37
  -1  -9  -6    8.71    2.51
   1   9  -6    8.43    1.80
  -1  -9  -6    9.20    2.09
  -1  -9   6    8.68    2.26
  -9   1   6    5.82    2.11
   1   9   6    9.59    2.16
   1   9   6    7.70    2.30
  -9   1   6   10.17    2.38
   9  -1   6    6.99    1.98
   9  -1   6    8.57    1.79
  -1  -9   6    7.81    2.24
   3   9  -6   56.98    9.06
   3   9  -6   55.32    9.15
  -3  -9  -6   66.79    9.43
   9  -3  -6   61.14    9.46
   9  -3  -6   56.01    9.26
  -3  -9  -6   65.31    9.24
   3   9   6   55.57    9.78
   9  -3   6   59.54    8.99
  -9   3   6   52.16    9.36
   3   9   6   71.26    9.27
  -3  -9   6   52.54    9.17
  -9   3   6   54.26    9.32
   9  -3   6   61.51    8.91
  -3  -9   6   70.18    9.26
   9  -5  -6   61.17    9.29
  -5  -9  -6   61.38    9.07
  -5  -9  -6   61.48    8.81
   9  -5  -6   57.14    8.86
   5   9  -6   51.28    8.79
  -5  -9   6   54.51    8.87
   5   9   6   52.76    9.04
  -5  -9   6   74.20    9.08
  -9   5   6   44.19    9.00
  -9   5   6   54.12    9.00
  -7  -9  -6   38.45    7.19
   7   9  -6   34.79    7.40
   9  -7  -6   42.23    7.24
   9  -7  -6   44.88    7.72
  -7  -9  -6   45.47    7.45
   7   9  -6   53.08    7.19
   7   9   6   42.59    7.52
  -7  -9   6   48.62    7.32
   7   9   6   54.99    7.34
  -9   7   6   36.15    7.49
  -7  -9   6   58.42    7.64
  -9   7   6   39.05    7.37
  -9  -9  -6   52.78    8.91
  -9  -9  -6   51.72    9.20
   9   9  -6   55.49    9.00
   9  -9  -6   61.48    9.43
   9  -9  -6   59.46    9.05
   9   9   6   65.55    9.12
  -9  -9   6   48.44    9.06
   9   9   6   49.05    9.25
  -9  -9   6   74.13    9.46
  -9   9   6   66.40    9.18
  -9   9   6   50.05    9.10
   8 -10  -6   30.40    5.39
 -10  -8  -6   26.31    4.52
   8 -10  -6   29.23    4.63
  10   8  -6   26.26    4.65
  10   8  -6   12.57    4.13
 -10  -8   6   22.84    4.83
  -8  10   6   14.10    4.12
   8 -10   6   27.86    3.77
  -8  10   6   31.55    4.82
 -10  -8   6   33.93    5.79
  10   8   6   30.53    4.77
   8 -10   6   20.94    3.65
  10   8   6   18.86    4.30
 -10  -6  -6   23.74    5.07
  10   6  -6   30.28    4.92
   6 -10  -6   29.81    4.81
 -10  -6  -6   28.44    4.68
  10   6  -6   13.59    4.40
   6 -10  -6   37.26    5.48
  -6  10   6   20.43    4.60
   6 -10   6   31.12    4.35
  10   6   6   25.71    5.13
  10   6   6   30.49    4.86
 -10  -6   6   29.81    5.47
  -6  10   6   31.39    4.85
 -10  -6   6   22.70    4.96
   6 -10   6   26.58    4.19
  10   4  -6   23.62    4.58
   4 -10  -6   31.10    5.65
 -10  -4  -6   24.28    4.46
   4 -10  -6   37.83    5.03
  10   4  -6   17.40    4.12
 -10  -4  -6   21.60    4.15
  -4  10   6   20.89    4.69
  -4  10   6   24.09    4.37
 -10  -4   6   17.17    4.12
  10   4   6   23.87    4.65
 -10  -4   6   25.30    5.03
   4 -10   6   26.73    3.99
   4 -10   6   24.47    4.12
  10   4   6   28.99    4.43
 -10  -2  -6    4.30    1.54
  10   2  -6    3.36    2.00
  10   2  -6    1.92    1.94
   2 -10  -6    8.61    2.54
   2 -10  -6    5.50    1.76
 -10  -2  -6    7.55    2.09
   2 -10   6    6.27    1.92
  10   2   6    2.94    2.05
  -2  10   6    6.72    1.87
 -10  -2   6    7.07    2.55
   2 -10   6    4.45    1.55
  -2  10   6    8.57    2.36
  10   2   6    5.73    1.77
 -10  -2   6    4.81    1.99
   0 -10  -6   -3.38    2.10
   0 -10  -6    0.24    1.37
   0  10  -6    2.06    1.09
  10   0  -6   -0.69    1.59
   0  10  -6    0.33    1.05
  10   0  -6   -0.04    1.86
 -10   0   6    2.86    1.76
 -10   0   6    1.19    2.18
  10   0   6   -2.78    1.59
  10   0   6   -0.04    1.29
   0  10   6    0.93    1.70
   0 -10   6    1.49    1.41
   0 -10   6   -1.36    1.83
   0  10   6    2.34    1.88
  10  -2  -6    7.42    2.31
  -2 -10  -6    5.55    1.87
  -2 -10  -6    5.91    2.37
   2  10  -6    4.71    1.60
  10  -2  -6    7.26    2.25
   2  10   6    5.13    2.25
  -2 -10   6    6.74    1.83
  -2 -10   6    8.91    2.32
   2  10   6    9.36    2.12
  10  -2   6    7.21    1.53
 -10   2   6    2.33    2.02
  10  -2   6    6.10    1.83
 -10   2   6    5.73    2.13
  -4 -10  -6   24.87    4.72
  10  -4  -6   16.48    4.52
  -4 -10  -6   24.43    4.23
   4  10  -6   20.58    3.79
   4  10  -6   23.04    4.30
  10  -4  -6   18.95    3.84
   4  10   6   16.82    4.08
  10  -4   6   21.30    3.75
  -4 -10   6   22.56    4.17
   4  10   6   35.06    4.43
  -4 -10   6   32.41    4.65
 -10   4   6   16.38    3.89
  10  -4   6   25.03    3.50
 -10   4   6   16.00    3.96
  -6 -10  -6   29.28    4.85
  10  -6  -6   23.05    4.77
   6  10  -6   21.28    4.89
  -6 -10  -6   29.09    5.20
   6  10  -6   28.81    4.79
  10  -6  -6   17.40    4.46
  -6 -10   6   28.64    4.93
  -6 -10   6   40.18    5.36
   6  10   6   31.92    5.03
 -10   6   6   24.96    6.69
 -10   6   6   22.92    5.05
   6  10   6   27.00    5.38
  -8 -10  -6   19.98    4.38
   8  10  -6   23.00    4.83
  10  -8  -6   24.67    4.75
   8  10  -6   26.90    4.57
  -8 -10  -6   20.39    4.59
  10  -8  -6   32.52    5.60
  -8 -10   6   32.45    4.98
 -10   8   6   14.75    4.26
 -10   8   6   27.54    4.91
   8  10   6   17.19    4.64
  -8 -10   6   33.65    5.52
   8  10   6   29.73    4.87
  10  10  -6   12.91    2.76
 -10 -10  -6    9.32    3.11
  10 -10  -6   11.92    2.78
  10  10  -6    8.66    2.87
  10 -10  -6   13.56    3.52
  10  10   6    6.00    3.07
 -10 -10   6    7.11    2.87
 -10 -10   6   10.34    3.54
  10  10   6   11.14    3.09
 -10  10   6   12.18    2.97
   9 -11  -6   14.90    3.52
   9 -11  -6   14.05    2.75
  11   9  -6    3.34    2.83
  11   9  -6   15.11    2.89
 -11  -9  -6   10.19    3.83
  -9  11   6   12.20    3.04
 -11  -9   6   11.74    3.62
  11   9   6   13.36    3.03
   9 -11   6   13.69    2.40
 -11  -9   6   11.33    2.92
  11   9   6    5.53    2.96
   9 -11   6    8.81    1.83
  11   7  -6    7.21    2.44
  11   7  -6    4.83    2.46
   7 -11  -6    8.74    3.08
   7 -11  -6    6.37    2.23
 -11  -7  -6    4.20    2.46
  -7  11   6    7.85    2.31
   7 -11   6    6.78    1.58
 -11  -7   6   15.47    3.28
  11   7   6    4.63    2.62
 -11  -7   6    5.63    2.42
  11   7   6   10.84    2.56
   7 -11   6   10.47    1.81
  -7  11   6    8.05    2.59
   5 -11  -6   17.49    3.64
   5 -11  -6   20.36    3.62
 -11  -5  -6   11.05    2.88
  11   5  -6   26.97    4.04
 -11  -5  -6   11.58    3.13
  11   5  -6   13.29    3.13
   5 -11   6   20.19    3.19
  11   5   6   12.85    3.26
   5 -11   6   14.67    2.93
  11   5   6   15.46    3.15
  -5  11   6   21.77    3.64
 -11  -5   6   15.62    3.59
 -11  -5   6   14.35    3.16
  -5  11   6   12.94    4.55
  11   3  -6   13.13    3.04
  11   3  -6    9.78    2.99
   3 -11  -6   19.48    3.41
   3 -11  -6   11.86    3.73
 -11  -3  -6   17.42    3.39
 -11  -3  -6   17.29    3.13
  11   3   6   21.32    3.37
  11   3   6   12.82    2.97
 -11  -3   6   16.00    3.44
 -11  -3   6    8.88    2.93
  -3  11   6   16.27    2.93
   3 -11   6   14.72    2.83
   3 -11   6   14.59    2.94
  -3  11   6   14.69    3.10
  11   1  -6    0.30    1.89
  11   1  -6   -0.05    1.83
   1 -11  -6    7.63    2.34
   1 -11  -6    0.65    1.50
 -11  -1  -6    2.16    1.21
  -1  11  -6    0.29    1.84
  -1  11  -6    0.58    0.93
 -11  -1  -6    0.17    1.69
 -11  -1   6    1.99    1.86
  -1  11   6    4.42    1.74
 -11  -1   6    3.71    2.40
  -1  11   6    0.64    1.91
  11   1   6    4.19    1.86
   1 -11   6    1.72    1.41
  11   1   6    2.34    1.51
   1 -11   6    3.95    1.84
   1  11  -6    0.40    1.36
  11  -1  -6    0.60    1.94
  -1 -11  -6    4.62    1.71
  11  -1  -6    1.90    1.88
   1  11  -6    2.34    1.23
  -1 -11  -6   -0.11    2.26
  11  -1   6   -0.40    1.30
  -1 -11   6    2.71    1.65
  11  -1   6    4.75    1.66
 -11   1   6   -1.11    2.28
   1  11   6    3.14    2.00
   1  11   6    1.06    1.72
  -1 -11   6    3.33    2.00
 -11   1   6   -0.21    1.75
  11  -3  -6   14.78    3.13
  11  -3  -6   14.74    3.40
   3  11  -6   15.85    2.89
  -3 -11  -6   20.64    3.68
  -3 -11  -6   18.47    3.46
   3  11  -6   14.23    2.93
  -3 -11   6   18.36    3.39
 -11   3   6   12.93    3.27
   3  11   6   16.39    3.47
   3  11   6   20.64    3.70
  11  -3   6   16.09    3.16
  11  -3   6   15.83    2.88
  -3 -11   6   12.97    3.00
  11  -5  -6   12.09    2.83
  -5 -11  -6   10.78    3.10
  -5 -11  -6   10.69    2.79
  11  -5  -6   15.07    3.42
   5  11  -6    7.77    2.76
  11  -5   6   16.18    2.38
  -5 -11   6   13.35    2.83
 -11   5   6    3.69    2.96
   5  11   6   19.57    3.14
 -11   5   6    9.29    2.92
  -5 -11   6   14.63    3.16
   5  11   6   14.08    3.12
  11  -5   6   17.26    2.57
   7  11  -6    7.15    2.29
  11  -7  -6    6.64    2.52
   7  11  -6    3.31    2.48
  11  -7  -6   10.47    3.30
  -7 -11  -6   11.91    3.02
  -7 -11  -6    7.49    2.60
  -7 -11   6   10.46    2.68
   7  11   6   10.68    3.04
 -11   7   6    8.92    2.66
  -7 -11   6   12.31    3.07
 -11   7   6    5.11    2.78
   7  11   6   15.30    2.81
  11  -9  -6   13.58    3.76
  11  -9  -6   12.81    2.96
  -9 -11  -6   10.05    3.35
  -9 -11  -6   11.19    2.94
   9  11  -6   12.27    2.78
   9  11  -6    5.25    2.93
 -11   9   6    4.93    3.10
  -9 -11   6   17.19    3.74
   9  11   6   10.65    3.27
   9  11   6   17.56    3.13
  -9 -11   6   14.54    3.19
  11 -11  -6   -1.22    2.22
 -11 -11  -6    4.25    2.80
  11 -11  -6    1.83    3.17
  11  11  -6    3.08    2.27
  11  11   6    3.14    2.78
  11  11   6   -0.87    2.66
 -11 -11   6   -0.22    2.52
 -11 -11   6    1.64    3.24
  12  10  -6   -3.16    2.45
  12  10  -6    0.94    2.37
 -12 -10  -6    0.88    2.68
  10 -12  -6   -2.20    3.12
  10 -12  -6    1.28    2.15
  12  10   6   -0.83    2.81
 -12 -10   6   -0.56    3.20
 -12 -10   6   -0.93    2.38
  10 -12   6    0.68    0.97
  12  10   6    0.42    2.69
  12   8  -6   -0.95    2.15
  12   8  -6   -0.47    3.20
 -12  -8  -6    1.49    2.32
   8 -12  -6    0.55    2.99
   8 -12  -6    3.34    2.00
  12   8   6   -1.57    2.39
  -8  12   6   -2.49    4.21
   8 -12   6    1.76    1.50
  12   8   6    1.23    2.43
 -12  -8   6    2.05    2.33
   8 -12   6    1.68    1.13
 -12  -6  -6    2.60    2.27
  12   6  -6   -0.13    2.02
   6 -12  -6   -0.70    1.81
   6 -12  -6    3.68    2.80
  12   6  -6   -2.17    2.05
  12   6   6    0.72    2.34
  -6  12   6   -1.45    2.02
   6 -12   6    2.71    1.27
 -12  -6   6   -1.44    3.03
  -6  12   6    2.58    1.94
 -12  -6   6   -2.95    2.15
  12   6   6   -2.27    2.17
   6 -12   6   -1.58    1.47
  12   4  -6   -1.33    1.99
  12   4  -6    2.26    2.12
   4 -12  -6   -2.66    2.41
 -12  -4  -6    2.50    1.96
 -12  -4  -6   -0.76    1.73
   4 -12  -6   -0.63    1.86
   4 -12   6    3.13    1.40
   4 -12   6    4.73    1.88
 -12  -4   6    2.32    2.82
  -4  12   6   -1.47    1.98
  12   4   6    0.36    2.11
  12   4   6    0.15    1.99
  -4  12   6    1.46    1.85
 -12  -4   6    0.85    1.99
 -12  -2  -6   -1.64    1.49
   2 -12  -6   -0.73    1.64
   2 -12  -6    3.49    2.96
  12   2  -6    0.28    2.15
 -12  -2  -6    0.53    1.31
  12   2  -6   -1.79    1.98
 -12  -2   6    0.33    1.94
  12   2   6    1.21    2.00
  12   2   6    1.53    1.75
   2 -12   6   -3.09    1.44
  -2  12   6   -0.29    2.11
  -2  12   6   -0.52    1.75
 -12  -2   6    3.72    2.64
   2 -12   6   -0.89    1.73
   0  12  -6   -1.56    1.17
   0  12  -6   -0.64    1.28
  12   0  -6   -1.66    2.17
  12   0  -6   -1.31    1.91
   0 -12  -6    0.81    2.48
   0 -12  -6    0.54    1.66
   0 -12   6   -1.57    1.45
  12   0   6   -0.54    1.48
 -12   0   6   -0.12    1.86
 -12   0   6   -3.74    2.44
   0 -12   6   -5.88    1.83
   0  12   6    0.60    2.13
  12   0   6   -1.24    1.72
   0  12   6   -1.36    1.82
  12  -2  -6   -1.75    2.15
  -2 -12  -6    4.26    1.85
  12  -2  -6   -0.62    3.34
   2  12  -6   -1.11    1.34
   2  12  -6   -0.16    1.55
  -2 -12  -6    3.01    2.39
  -2 -12   6   -0.02    1.52
  12  -2   6    1.24    1.36
  -2 -12   6   -2.08    2.03
 -12   2   6   -2.84    2.41
   2  12   6    1.82    2.25
 -12   2   6    0.49    3.23
  12  -2   6   -0.52    1.54
   2  12   6    1.11    2.03
  12  -4  -6   -0.77    2.03
   4  12  -6    1.18    1.80
  -4 -12  -6    3.61    2.49
  12  -4  -6    1.16    2.56
  -4 -12  -6   -0.28    1.94
   4  12  -6    4.53    1.71
  -4 -12   6    1.02    2.36
 -12   4   6    1.69    2.19
  12  -4   6    1.72    1.23
   4  12   6    0.76    2.33
  12  -4   6    1.21    1.40
  -4 -12   6   -0.04    1.77
   4  12   6   -0.62    2.06
  -6 -12  -6    2.76    2.54
  12  -6  -6   -4.77    2.67
  -6 -12  -6    0.21    2.62
  12  -6  -6   -1.80    2.06
   6  12  -6    5.55    3.66
 -12   6   6   -3.36    2.40
  -6 -12   6    0.63    2.05
  12  -6   6    1.19    1.01
   6  12   6    1.52    2.27
  -6 -12   6    1.77    2.65
  12  -6   6    1.07    1.15
 -12   6   6    2.64    2.42
   6  12   6    3.78    2.73
  -8 -12  -6    1.08    2.70
  12  -8  -6   -2.66    3.04
  12  -8  -6    2.98    2.36
   8  12  -6   -0.48    1.85
  -8 -12  -6    2.49    2.16
   8  12   6   -0.51    2.42
   8  12   6    1.34    2.56
  -8 -12   6    1.58    2.99
 -12   8   6   -0.24    3.07
  -8 -12   6    1.90    3.02
  12 -10  -6   -1.17    3.25
  10  12  -6    2.83    2.29
 -10 -12  -6   -2.09    2.89
  12 -10  -6   -1.47    2.26
 -10 -12   6   -1.93    2.52
 -12  10   6   -2.02    2.07
  10  12   6    0.38    2.69
  10  12   6   -0.68    2.59
 -10 -12   6    3.37    3.33
  12  12  -6   -1.76    2.25
  12 -12  -6    1.42    3.44
 -12 -12  -6    0.25    3.10
  12 -12  -6    3.73    2.57
  12  12   6    0.27    2.94
 -12 -12   6   -0.48    3.74
 -12  12   6    3.42    2.65
 -12 -12   6    1.21    2.80
  12  12   6    2.91    2.99
  11 -13  -6   -0.27    3.25
  13  11  -6    0.13    2.51
  11 -13  -6    0.12    2.36
  13  11   6   -3.33    2.97
  11 -13   6    0.73    1.04
  11 -13   6    4.45    1.46
  13  11   6   -4.01    2.76
 -13 -11   6    0.36    3.75
 -13 -11   6    0.88    2.91
 -11  13   6    0.71    2.53
 -13  -9  -6    1.60    1.82
   9 -13  -6   -0.89    2.12
  13   9  -6   -0.19    2.40
  13   9  -6   -1.62    2.60
   9 -13  -6    5.04    3.27
 -13  -9   6    0.38    3.32
 -13  -9   6    2.23    2.53
  13   9   6    0.45    2.68
  13   9   6    6.42    2.90
   9 -13   6    3.79    1.62
   9 -13   6    1.26    1.19
  13   7  -6    2.07    2.32
   7 -13  -6   -2.51    2.87
   7 -13  -6    0.45    1.94
 -13  -7  -6    2.45    2.41
  13   7  -6   -0.46    2.23
 -13  -7   6   -2.05    3.01
  -7  13   6    1.61    2.19
   7 -13   6    0.76    1.26
  13   7   6   -1.61    2.49
  13   7   6   -0.40    2.40
   7 -13   6    1.84    1.75
 -13  -7   6    3.15    2.39
 -13  -5  -6    0.53    2.31
  13   5  -6    0.57    2.14
   5 -13  -6    5.96    2.74
  13   5  -6    2.64    2.44
   5 -13   6    0.24    1.78
  13   5   6    0.47    2.13
 -13  -5   6    2.44    2.23
  -5  13   6    1.53    1.85
   5 -13   6    0.42    1.48
  13   5   6   -0.92    2.35
 -13  -5   6   -0.50    3.02
  -5  13   6    0.01    2.22
  13   3  -6   -0.75    2.21
   3 -13  -6   -1.30    2.69
   3 -13  -6    0.27    1.78
 -13  -3  -6   -0.02    1.86
  13   3  -6    2.86    2.72
   3 -13   6    2.99    2.07
  -3  13   6    0.31    2.24
   3 -13   6    3.70    1.59
 -13  -3   6    1.31    2.20
  13   3   6    2.17    2.07
  13   3   6    2.76    2.00
 -13  -3   6    6.71    3.05
  -3  13   6    1.08    1.85
  -1  13  -6    0.15    1.09
  13   1  -6   -0.24    2.04
   1 -13  -6   -0.90    1.77
 -13  -1  -6    0.13    1.05
  13   1  -6    2.53    2.27
   1 -13  -6   -3.14    2.58
 -13  -1  -6   -0.88    1.12
  -1  13  -6   -0.79    1.14
   1 -13   6    0.95    1.58
  13   1   6    0.08    1.72
  13   1   6   -1.44    2.02
 -13  -1   6   -3.14    2.69
  -1  13   6   -0.24    2.56
   1 -13   6    4.16    2.33
  -1  13   6   -0.78    1.85
  13  -1  -6    0.19    2.23
  13  -1  -6    0.83    2.10
   1  13  -6   -1.58    1.45
  -1 -13  -6    1.86    2.55
  -1 -13  -6    0.40    1.91
   1  13   6    1.85    2.02
  -1 -13   6   -0.34    2.07
 -13   1   6   -1.59    2.65
  13  -1   6    1.61    1.83
   1  13   6    1.20    2.43
 -13   1   6   -0.27    2.10
  13  -1   6    3.75    1.59
  -1 -13   6   -1.57    2.29
  -3 -13  -6   -1.54    2.57
   3  13  -6    1.42    1.56
  13  -3  -6   -0.77    2.40
  -3 -13  -6    7.64    2.21
  13  -3  -6    4.50    2.29
 -13   3   6    0.63    2.26
  -3 -13   6   -0.92    2.52
   3  13   6    2.70    2.37
  13  -3   6    1.71    1.44
 -13   3   6    0.04    2.72
  -3 -13   6    2.43    1.79
   3  13   6    0.23    1.97
  13  -3   6    1.97    1.65
  13  -5  -6    4.82    2.82
  -5 -13  -6   -2.79    2.09
   5  13  -6   -0.26    1.61
  -5 -13  -6    2.66    2.66
  13  -5  -6    4.09    2.34
  -5 -13   6   -0.20    2.77
   5  13   6    0.76    2.40
  13  -5   6    1.07    2.29
  -5 -13   6   -1.35    1.86
  13  -5   6   -0.51    1.26
   5  13   6    2.51    2.94
   7  13  -6   -2.40    2.08
  -7 -13  -6   -0.88    2.27
  13  -7  -6   -5.84    2.88
  13  -7  -6   -2.07    2.20
  -7 -13  -6    4.49    2.79
  -7 -13   6   -2.33    2.15
   7  13   6    3.05    2.68
  -7 -13   6    0.02    3.09
   7  13   6   -1.25    2.44
  13  -9  -6    0.21    2.42
  13  -9  -6   -2.95    3.13
   9  13  -6    0.83    2.14
  -9 -13  -6    2.07    3.04
  -9 -13   6    1.72    2.47
   9  13   6    4.32    2.77
   9  13   6   -4.16    2.53
 -13   9   6   -2.35    1.44
  -9 -13   6    5.05    3.58
  13 -11  -6   -2.57    3.42
  11  13  -6    0.83    2.31
 -11 -13  -6   -1.14    3.04
  13 -11  -6   -1.26    2.54
 -11 -13   6    0.50    3.69
  11  13   6   -1.62    2.80
 -13  11   6   -0.79    2.63
 -11 -13   6    2.20    2.84
  11  13   6   -1.80    2.93
 -13 -13  -6    4.25    3.28
  13  13  -6   -0.38    2.66
  13 -13  -6    0.51    4.28
  13 -13  -6   -4.03    2.60
 -13 -13   6    0.56    4.15
  13  13   6    1.83    3.30
  13  13   6   -1.14    3.28
 -13  13   6   -4.82    2.80
 -13 -13   6   -4.09    5.06
  14  12  -6    2.29    2.73
  12 -14  -6    2.40    4.10
 -14 -12  -6    0.92    3.43
  12 -14  -6   -0.64    2.46
 -14 -12   6   -2.38    2.99
  12 -14   6    1.51    1.67
  14  12   6   -1.77    3.10
  12 -14   6   -1.06    1.10
  14  12   6    3.79    3.22
 -12  14   6   -0.36    2.91
 -14 -12   6    0.81    4.27
  14  10  -6   -3.03    2.66
  10 -14  -6    3.00    2.29
  10 -14  -6    3.95    3.26
  14  10  -6   -5.22    3.44
  10 -14   6   -1.60    1.23
 -14 -10   6   -8.51    3.65
  14  10   6   -3.44    2.88
 -10  14   6   -0.99    2.41
  14  10   6    0.70    2.91
 -14 -10   6    1.17    2.75
  10 -14   6    2.72    1.70
   8 -14  -6    2.20    2.16
  14   8  -6    2.17    3.66
 -14  -8  -6    0.40    2.73
  14   8  -6   -4.98    2.58
   8 -14  -6    0.02    3.13
 -14  -8   6   -0.94    3.65
  14   8   6    3.30    2.71
   8 -14   6    1.71    1.82
  14   8   6   -2.04    2.66
   8 -14   6    1.42    1.36
 -14  -8   6   -2.15    2.41
   6 -14  -6   -0.98    2.89
   6 -14  -6    1.20    2.34
  14   6  -6   -0.64    2.25
  14   6  -6   -2.69    2.36
 -14  -6  -6    2.72    2.49
  -6  14   6    0.87    2.02
   6 -14   6    1.22    1.93
   6 -14   6   -1.75    1.36
 -14  -6   6    0.38    2.43
 -14  -6   6   -1.71    3.17
  14   6   6   -3.05    2.46
  14   6   6   -6.37    2.27
   4 -14  -6    6.53    3.15
  14   4  -6   -1.45    2.26
 -14  -4  -6    5.30    2.31
  14   4  -6    2.09    2.38
   4 -14  -6    2.46    1.91
  -4  14   6    1.53    2.02
 -14  -4   6    4.79    3.16
   4 -14   6    3.42    2.03
   4 -14   6    2.86    1.58
  14   4   6   -4.53    2.58
  14   4   6    0.86    2.20
 -14  -4   6    5.26    2.44
   2 -14  -6    5.45    2.28
  14   2  -6    4.11    2.62
  14   2  -6    0.48    2.39
 -14  -2  -6    4.95    1.85
   2 -14  -6    8.34    3.17
  14   2   6    6.38    2.26
   2 -14   6    8.53    2.42
  -2  14   6    7.05    2.65
   2 -14   6    5.32    1.90
  -2  14   6    6.91    2.32
 -14  -2   6    8.43    3.45
 -14  -2   6    4.11    2.51
  14   2   6    5.55    2.38
  14   0  -6   -0.13    2.31
   0 -14  -6    2.82    2.98
  14   0  -6    3.96    2.41
   0  14  -6    3.63    1.39
   0 -14  -6    2.71    2.08
 -14   0   6    7.27    3.14
   0 -14   6    4.45    1.83
 -14   0   6    2.50    2.27
   0  14   6    2.86    2.12
   0  14   6   -0.02    2.44
  14   0   6    2.68    2.09
   0 -14   6   -0.29    2.37
  14   0   6    3.34    1.90
  14  -2  -6    5.22    2.76
  14  -2  -6    7.77    4.77
  -2 -14  -6    0.64    2.23
   2  14  -6    7.47    1.85
   2  14   6    4.12    2.93
 -14   2   6    4.65    3.12
  14  -2   6    6.00    1.95
 -14   2   6    7.73    2.81
  14  -2   6    6.08    1.96
  -2 -14   6    5.89    2.75
  -2 -14   6    4.47    1.93
   2  14   6    4.89    2.36
   4  14  -6    0.77    1.66
  14  -4  -6    0.41    2.19
  14  -4  -6    5.65    2.67
  -4 -14  -6    5.19    2.89
  -4 -14  -6   -1.80    2.14
 -14   4   6    1.88    3.06
  14  -4   6    3.57    1.59
  14  -4   6    2.71    1.68
  -4 -14   6   -0.30    1.88
  -4 -14   6    1.13    2.86
   4  14   6    6.25    3.15
   4  14   6    2.15    2.26
   6  14  -6   -0.16    1.19
  14  -6  -6   -2.39    2.29
  -6 -14  -6    1.69    2.52
  14  -6  -6   -3.15    2.96
  -6 -14  -6   -4.32    2.68
   6  14   6   -0.15    2.51
  -6 -14   6   -3.78    1.93
  -6 -14   6    1.37    3.01
  14  -6   6   -1.88    1.54
  14  -6   6    0.10    1.40
   6  14   6    2.18    2.61
   8  14  -6    1.70    2.19
  14  -8  -6   -1.13    3.17
  -8 -14  -6    1.28    3.03
  14  -8  -6    1.97    2.57
   8  14   6   -3.57    2.65
  -8 -14   6   -0.37    3.31
  -8 -14   6   -1.29    3.54
  14  -8   6   -1.59    1.27
   8  14   6    0.72    2.64
  14 -10  -6   -2.44    3.47
  14 -10  -6    2.90    2.74
 -10 -14  -6    0.04    3.08
  10  14  -6   -5.23    2.19
  10  14   6   -3.69    2.86
  10  14   6   -0.67    2.97
 -10 -14   6   -3.86    3.80
 -10 -14   6   -1.00    2.61
  14 -12  -6    5.01    2.95
 -12 -14  -6    0.75    3.38
  12  14  -6   -4.02    2.46
  14 -12  -6    2.71    4.53
  12  14   6   -1.27    3.08
 -12 -14   6   -0.37    4.22
  12  14   6   -0.14    3.19
 -12 -14   6    1.62    2.98
 -14  12   6   -1.31    2.91
 -14 -14  -6    3.50    3.55
  14 -14  -6    1.78    2.96
  14  14  -6   -0.89    2.89
  14 -14  -6    0.06    4.15
 -14 -14   6    5.45    3.51
  14  14   6   -2.46    3.70
 -14 -14   6   -1.52    4.61
  14  14   6    4.52    3.53
 -14  14   6   -3.64    3.13
 -15 -13  -6    5.08    3.51
  13 -15  -6   -5.79    4.12
  15  13  -6   -1.30    3.43
  13 -15  -6    4.04    2.92
  15  13   6   -1.98    3.40
 -13  15   6   -0.83    3.06
  13 -15   6    0.78    1.83
  15  13   6    6.79    6.26
 -15 -13   6   -3.12    4.65
  13 -15   6    0.35    1.26
  11 -15  -6    2.36    4.18
  15  11  -6   -0.34    2.65
  11 -15  -6   -2.36    2.36
  15  11   6   -0.31    3.28
  11 -15   6    2.05    1.80
 -15 -11   6   -6.31    4.19
  11 -15   6   -0.16    1.37
 -11  15   6   -0.89    2.87
  15  11   6   -2.05    3.19
   9 -15  -6    2.33    2.29
  15   9  -6    0.73    2.80
 -15  -9  -6    1.63    2.97
  15   9  -6    0.84    2.85
   9 -15  -6    4.47    3.52
  15   9   6    0.82    2.96
   9 -15   6   -1.08    2.17
  15   9   6    2.97    2.86
 -15  -9   6   -7.30    3.69
  -9  15   6   -2.12    2.20
 -15  -9   6    4.06    3.40
   9 -15   6    2.39    1.38
   7 -15  -6    0.84    2.08
  15   7  -6    1.21    2.65
 -15  -7  -6   -2.13    2.63
  15   7  -6    1.92    4.42
   7 -15  -6    5.22    3.22
 -15  -7   6   -1.25    3.41
   7 -15   6   -2.40    1.45
  15   7   6    0.24    2.65
  -7  15   6   -1.71    2.35
 -15  -7   6    1.87    2.60
  15   7   6   -3.43    2.58
   7 -15   6    6.19    2.15
 -15  -5  -6   -5.27    2.94
  15   5  -6    0.75    2.68
  15   5  -6   -2.34    2.32
   5 -15  -6   -2.46    3.02
   5 -15  -6   -0.11    1.93
   5 -15   6    0.17    1.57
   5 -15   6   -1.06    2.16
 -15  -5   6    1.21    2.52
  15   5   6    1.13    2.44
  15   5   6    0.22    2.36
  -5  15   6   -2.91    2.03
 -15  -5   6    4.34    3.52
  15   3  -6   -2.16    2.34
  15   3  -6    3.54    2.58
   3 -15  -6    5.76    3.23
   3 -15  -6    0.57    1.85
 -15  -3  -6    0.77    2.03
 -15  -3   6   -4.15    2.57
   3 -15   6   -0.99    1.63
  15   3   6    0.23    2.21
   3 -15   6   -2.06    2.22
 -15  -3   6    1.24    3.22
  15   3   6    0.90    2.24
  -3  15   6    0.40    2.10
   1 -15  -6    0.24    3.10
  15   1  -6   -2.42    2.25
   1 -15  -6   -0.93    2.00
  -1  15  -6   -1.24    1.18
  15   1  -6   -3.05    2.40
 -15  -1   6   -0.94    3.49
  15   1   6    2.76    2.13
  15   1   6   -0.15    1.95
  -1  15   6   -0.86    2.14
  -1  15   6   -3.62    2.89
   1 -15   6   -0.39    1.77
   1 -15   6   -1.14    2.25
   1  15  -6    1.55    1.52
  15  -1  -6   -5.51    2.32
  -1 -15  -6   -1.06    2.86
  15  -1  -6   -0.22    2.46
  -1 -15  -6    4.29    2.32
  15  -1   6    2.74    1.91
 -15   1   6   -0.39    3.42
  -1 -15   6    4.04    2.60
   1  15   6   -1.33    2.11
  15  -1   6    0.48    1.96
  -1 -15   6    0.61    2.64
   1  15   6   -0.58    2.53
  -3 -15  -6   -2.68    2.23
  15  -3  -6   -4.18    2.42
  15  -3  -6    0.33    2.72
  -3 -15  -6   -0.02    2.93
   3  15  -6    1.11    1.70
 -15   3   6   -2.19    3.14
  15  -3   6    0.50    1.62
  -3 -15   6   -2.70    2.60
  -3 -15   6   -3.22    1.76
   3  15   6    6.09    3.36
  15  -3   6    3.27    1.87
   3  15   6   -3.60    2.09
  15  -5  -6   -2.36    2.41
  -5 -15  -6    2.30    2.79
   5  15  -6   -2.00    1.72
  -5 -15  -6    0.09    2.92
  15  -5  -6   -0.74    2.87
 -15   5   6   -2.12    5.28
  15  -5   6   -3.86    1.82
   5  15   6   -3.05    2.77
  15  -5   6   -1.59    1.48
  -5 -15   6    1.71    2.11
  -5 -15   6   -2.67    2.77
   5  15   6   -0.04    3.27
  -7 -15  -6    3.10    2.98
  -7 -15  -6    3.28    2.84
  15  -7  -6   -4.45    3.26
  15  -7  -6    2.57    2.69
   7  15   6    5.06    2.84
  15  -7   6   -0.89    1.49
  -7 -15   6   -0.43    2.26
  -7 -15   6   -1.27    3.34
   7  15   6    0.25    3.31
 -15   7   6    0.39    2.60
  15  -9  -6   -0.13    3.60
  15  -9  -6   -3.07    2.72
   9  15  -6    0.92    2.27
  -9 -15  -6    0.66    3.18
  15  -9   6    2.71    1.32
  -9 -15   6   -1.04    2.59
  -9 -15   6   -2.07    3.60
  15  -9   6    0.63    1.24
   9  15   6    3.17    2.90
 -15   9   6   -1.48    3.67
   9  15   6    7.13    3.19
  15 -11  -6    0.45    3.90
  11  15  -6    1.66    2.51
  15 -11  -6    1.84    2.97
 -11 -15  -6   -2.24    3.37
  11  15   6   -2.10    3.17
  11  15   6   -0.29    3.07
 -11 -15   6    3.17    3.08
 -11 -15   6    1.75    4.16
 -13 -15  -6   -2.32    3.44
  15 -13  -6   -4.79    4.27
  15 -13  -6    1.99    3.18
  13  15  -6    3.56    2.82
  13  15   6    1.68    3.47
 -13 -15   6    2.21    3.60
 -13 -15   6   -0.44    4.55
  13  15   6   -4.29    3.78
 -15 -15  -6    5.08    3.75
  15 -15  -6    1.46    3.17
  15  15  -6   -1.99    3.61
  15 -15  -6   -7.78    4.51
  15  15   6   -1.95    5.54
 -15 -15   6    0.74    5.12
  15  15   6   -3.72    3.88
  15 -15   6    0.87    1.82
 -16 -14  -6   -2.50    3.50
  14 -16  -6   -4.21    4.60
  16  14  -6   -2.86    3.23
  14 -16  -6   -0.34    3.08
 -14  16   6   -6.73    3.51
  16  14   6   -4.69    3.78
  14 -16   6    0.42    2.04
 -16 -14   6   -2.49    5.29
  14 -16   6   -1.10    1.44
  16  14   6    1.21    3.89
  12 -16  -6    0.57    2.65
  12 -16  -6  -11.04    3.85
  16  12  -6   -3.42    2.92
 -16 -12   6   -2.13    4.72
  12 -16   6   -1.68    1.43
 -12  16   6    4.20    3.19
  16  12   6   -5.33    3.48
  16  12   6    1.02    3.43
  12 -16   6    0.38    2.17
  10 -16  -6    6.11    4.24
  16  10  -6   -1.47    2.86
 -16 -10  -6    2.20    3.20
  10 -16  -6    2.00    2.46
 -16 -10   6    1.43    4.43
  10 -16   6    2.87    2.07
  16  10   6    1.75    3.13
  16  10   6    2.97    3.52
 -10  16   6   -2.91    2.72
  10 -16   6   -0.67    1.51
 -16  -8  -6   -0.10    3.00
  16   8  -6    0.52    2.82
  16   8  -6    0.12    2.68
   8 -16  -6    1.16    3.49
   8 -16  -6    1.48    2.28
  16   8   6    2.22    2.91
   8 -16   6   -0.81    2.24
 -16  -8   6    1.18    3.86
  -8  16   6   -0.64    1.92
   8 -16   6    2.40    1.59
   6 -16  -6    1.59    2.27
  16   6  -6   -1.55    2.73
   6 -16  -6    4.68    3.13
  16   6  -6   -1.29    2.51
   6 -16   6    0.41    1.56
  16   6   6    2.08    2.72
 -16  -6   6    5.57    3.83
  16   6   6    0.15    2.74
  -6  16   6    5.20    2.84
   6 -16   6    0.67    2.41
  16   4  -6   -2.62    2.49
   4 -16  -6    5.42    3.41
   4 -16  -6   -0.99    1.94
  16   4  -6    1.12    2.68
 -16  -4  -6   -0.95    2.24
  -4  16   6    0.77    2.22
 -16  -4   6    0.54    3.36
  16   4   6   -1.52    2.50
  16   4   6    1.29    2.39
   4 -16   6    2.89    1.71
   4 -16   6    2.29    2.89
   2 -16  -6    3.84    3.22
  16   2  -6   -3.70    2.43
  16   2  -6    1.70    2.54
   2 -16  -6   -1.27    2.07
 -16  -2  -6   -0.88    1.85
   2 -16   6   -3.14    2.41
  -2  16   6    0.06    2.09
  16   2   6   -0.66    2.30
 -16  -2   6    8.61    3.59
   2 -16   6    2.96    1.82
  16   2   6    1.93    2.25
   0  16  -6    1.42    1.47
   0 -16  -6   -2.60    2.90
   0 -16  -6    2.45    2.30
  16   0  -6   -0.17    2.59
  16   0  -6    4.35    2.60
   0 -16   6    1.58    2.46
   0  16   6    1.06    2.28
  16   0   6    0.88    2.05
   0 -16   6    0.26    1.82
 -16   0   6    3.07    3.50
  16   0   6   -0.42    2.07
   2  16  -6    2.60    3.38
  -2 -16  -6   -1.55    3.03
  16  -2  -6   -3.55    2.54
  -2 -16  -6   -4.18    2.24
  16  -2  -6    1.78    2.75
  -2 -16   6   -3.85    2.45
  16  -2   6    3.22    1.88
   2  16   6    2.30    5.45
 -16   2   6   -2.67    3.56
  16  -2   6   -3.48    2.03
  -2 -16   6    0.82    1.83
   2  16   6    2.63    2.33
   4  16  -6   -1.83    1.80
  -4 -16  -6    3.80    3.16
  -4 -16  -6    1.62    4.15
  16  -4  -6    0.09    2.60
  16  -4  -6    0.91    3.05
  -4 -16   6   -2.54    2.73
  16  -4   6    0.76    1.73
   4  16   6   -0.83    2.35
   4  16   6   -2.63    2.64
  -4 -16   6    1.37    2.07
  16  -4   6    0.01    3.14
 -16   4   6    4.32    4.50
  -6 -16  -6   -3.87    3.34
  16  -6  -6   -1.96    2.94
  -6 -16  -6    5.16    2.86
   6  16  -6   -4.49    1.77
  16  -6  -6   -0.29    2.73
  16  -6   6    2.50    2.00
 -16   6   6   -0.78    2.86
   6  16   6   -0.20    2.90
  16  -6   6   -2.72    1.70
   6  16   6    3.86    2.82
  -6 -16   6    3.43    2.31
  -6 -16   6    3.92    3.20
  -8 -16  -6   -1.07    3.27
  16  -8  -6    3.20    3.71
  16  -8  -6    7.03    3.03
   8  16  -6    4.89    2.39
  -8 -16   6    2.68    2.61
 -16   8   6    0.68    3.76
  16  -8   6    2.48    1.67
   8  16   6    2.01    3.06
  -8 -16   6    1.00    3.63
  16  -8   6    1.11    2.63
   8  16   6    0.31    3.15
  10  16  -6   -1.40    2.38
  16 -10  -6   -0.72    3.78
  16 -10  -6   -0.85    3.01
 -10 -16  -6    2.54    3.47
 -10 -16   6    1.32    3.00
 -10 -16   6    2.06    4.12
  10  16   6    1.04    3.30
  10  16   6    1.26    3.18
  16 -10   6    5.66    1.43
 -16  10   6   -0.80    3.86
  16 -12  -6    0.64    3.34
  16 -12  -6   -0.45    4.13
 -12 -16  -6    0.83    3.68
  12  16  -6   -0.55    2.80
 -12 -16   6    0.32    4.51
  12  16   6   -3.01    3.37
  12  16   6   -2.30    3.53
 -16  12   6   -0.60    4.64
 -12 -16   6   -5.82    3.68
  16 -14  -6    1.34    3.39
 -14 -16  -6    2.84    3.97
  16 -14  -6    0.70    4.55
  14  16  -6    2.31    3.10
  14  16   6   -1.23    4.13
  14  16   6   -6.25    4.58
 -14 -16   6   -6.33    4.90
  17  13  -6    0.03    3.38
  13 -17  -6   -0.84    4.31
  13 -17  -6    2.94    3.00
 -17 -13   6   13.35    5.45
  13 -17   6    0.61    2.27
  17  13   6    0.09    3.71
 -13  17   6   -3.39    3.70
  13 -17   6    1.21    1.67
  17  13   6   -0.65    3.93
 -17 -11  -6    7.37    3.55
  17  11  -6    3.01    3.27
  11 -17  -6    1.40    4.05
  11 -17  -6    0.51    2.68
  17  11   6    2.95    3.48
 -17 -11   6    3.74    4.93
 -11  17   6    3.24    3.24
  11 -17   6    3.34    2.24
  17  11   6    3.62    3.54
  11 -17   6    1.44    1.66
 -17  -9  -6    2.45    3.40
   9 -17  -6    4.25    2.50
   9 -17  -6   13.42    4.07
  17   9  -6    3.35    3.21
  17   9   6    3.10    3.44
   9 -17   6    5.99    2.39
 -17  -9   6    7.60    7.00
   9 -17   6    5.59    1.90
  -9  17   6    9.37    3.19
  17   9   6   -1.08    3.09
  17   7  -6    3.90    3.03
   7 -17  -6    8.90    3.76
  17   7  -6    8.49    3.18
   7 -17  -6   -3.10    3.76
   7 -17   6   10.55    2.80
 -17  -7   6    5.48    4.18
  17   7   6    6.65    3.13
   7 -17   6    4.89    2.88
  17   7   6    9.43    3.16
 -17  -5  -6    9.02    3.18
  17   5  -6   10.73    3.18
   5 -17  -6    4.25    2.49
  17   5  -6    6.38    3.10
   5 -17  -6   10.49    3.96
 -17  -5   6    3.42    4.15
  -5  17   6    9.27    3.35
   5 -17   6   11.72    2.90
  17   5   6    8.69    3.11
   5 -17   6    8.71    2.29
  17   5   6    9.66    3.06
  17   3  -6    7.46    3.01
   3 -17  -6   12.28    3.77
 -17  -3  -6    4.74    2.34
  17   3  -6   -2.02    2.77
   3 -17  -6    5.92    2.44
 -17  -3   6    4.87    3.94
   3 -17   6    6.40    2.83
  17   3   6    4.68    2.61
  -3  17   6    5.80    2.57
   3 -17   6    8.29    2.13
  17   3   6    5.60    2.69
  17   1  -6    3.15    2.71
  17   1  -6    2.62    2.90
   1 -17  -6    6.42    3.63
  -1  17  -6    4.03    1.68
   1 -17  -6    1.23    2.40
   1 -17   6    1.92    2.76
  -1  17   6    9.71    2.55
  17   1   6    2.05    2.49
   1 -17   6    2.84    2.09
  17   1   6    3.59    2.49
 -17  -1   6    6.38    3.88
  17  -1  -6    3.05    2.90
   1  17  -6    2.22    1.83
  -1 -17  -6    4.14    3.36
  -1 -17  -6    3.20    2.60
  17  -1  -6    7.02    3.06
 -17   1   6    9.56    4.07
  17  -1   6    2.99    2.39
   1  17   6    8.49    2.67
  17  -1   6    7.41    2.36
  -1 -17   6    3.22    3.00
  -3 -17  -6    8.19    4.39
   3  17  -6    6.07    2.39
  -3 -17  -6    5.49    3.47
  17  -3  -6    9.62    3.20
 -17   3   6    8.26    4.95
  -3 -17   6    7.32    3.98
  17  -3   6    5.10    2.25
  17  -3   6    6.46    2.58
   3  17   6    9.48    2.81
  -3 -17   6    4.43    2.34
  17  -5  -6    7.72    3.63
  -5 -17  -6   11.18    3.36
   5  17  -6    9.83    2.47
  17  -5  -6    4.78    3.21
  -5 -17  -6   10.75    3.65
  17  -5   6   10.43    2.29
  -5 -17   6    7.28    2.64
 -17   5   6    2.47    3.39
  -5 -17   6    9.84    3.72
   5  17   6    7.19    4.40
  17  -5   6    7.76    2.63
   7  17  -6    2.40    1.93
  17  -7  -6    8.96    3.26
  -7 -17  -6    7.27    3.59
  17  -7   6    0.48    2.06
 -17   7   6    6.92    4.16
  -7 -17   6    8.39    3.86
   7  17   6    9.80    3.22
  -7 -17   6    8.28    2.75
  17  -9  -6    8.40    4.18
   9  17  -6    4.43    3.80
  17  -9  -6    4.59    3.46
  17  -9   6    8.52    2.11
   9  17   6    5.09    3.50
 -17   9   6    7.69    4.34
  -9 -17   6    7.48    3.25
  17  -9   6    7.70    1.98
  -9 -17   6    1.52    4.26
  11  17  -6    2.25    2.77
 -11 -17  -6    1.79    3.90
  17 -11  -6    0.19    3.39
  17 -11  -6    0.91    4.03
 -17  11   6   -1.12    5.72
  17 -11   6    6.84    1.59
 -11 -17   6   -0.08    4.56
 -11 -17   6    3.04    3.52
  11  17   6    0.17    3.45
  17 -11   6    2.04    1.56
  17 -13  -6   -3.93    4.44
  17 -13  -6   -0.69    3.72
 -13 -17  -6    6.21    4.08
  13  17  -6   -0.08    2.96
  13  17   6   -2.83    3.84
 -13 -17   6    2.51    4.17
 -13 -17   6   -1.98    5.32
 -17  13   6    4.34    4.79
  18  10  -6    6.80    3.61
  10 -18  -6    0.80    2.51
  10 -18  -6   -1.84    4.20
 -18 -10  -6    0.99    3.46
 -10  18   6    0.63    3.10
  18  10   6    2.19    3.35
  10 -18   6    0.95    2.42
  18  10   6   -1.30    3.62
  10 -18   6    2.89    1.88
 -18 -10   6    6.82    5.12
  18   8  -6   -1.52    3.11
 -18  -8  -6    9.91    6.66
   8 -18  -6    1.37    4.37
   8 -18  -6    4.41    4.03
  18   8  -6    5.72    3.38
   8 -18   6    7.79    2.54
  18   8   6    2.14    3.01
  -8  18   6    4.87    3.05
   8 -18   6    6.10    1.95
 -18  -8   6   -0.08    4.63
  18   8   6    5.80    3.36
 -18  -6  -6    3.60    3.24
   6 -18  -6    8.85    4.58
   6 -18  -6    0.03    2.33
  18   6  -6    4.97    3.40
 -18  -6   6    6.33    4.19
  18   6   6    4.17    2.86
   6 -18   6   10.43    2.95
   6 -18   6    3.34    1.96
  18   6   6    5.52    3.11
  18   4  -6   -1.21    2.77
 -18  -4  -6    4.30    2.60
   4 -18  -6    4.55    3.85
  18   4  -6    2.12    3.07
   4 -18  -6    2.56    2.33
  18   4   6    3.27    2.69
   4 -18   6    3.40    2.68
 -18  -4   6    5.69    4.02
  18   4   6    6.73    2.90
  -4  18   6    7.08    2.66
   4 -18   6    2.92    1.99
   2 -18  -6    2.21    2.40
   2 -18  -6    8.72    3.70
  18   2  -6   -4.16    2.82
  18   2  -6    1.04    2.81
  18   2   6    1.29    2.67
  18   2   6    1.26    2.62
   2 -18   6    1.15    2.01
   2 -18   6   -0.53    2.84
 -18  -2   6    6.77    3.80
  -2  18   6    5.65    2.47
   0  18  -6    0.30    1.61
   0 -18  -6    1.41    2.54
   0 -18  -6    2.10    3.43
  18   0  -6   -3.11    2.76
  18   0  -6   -1.55    2.89
 -18   0   6   -0.25    3.61
   0 -18   6    1.00    2.91
   0  18   6    0.80    2.52
  18   0   6   -0.84    2.34
   0 -18   6    1.20    2.05
  18  -2  -6   -1.16    2.84
  -2 -18  -6   -0.44    3.01
  18  -2  -6   -0.18    3.09
   2  18  -6    2.46    1.95
  -2 -18  -6    3.13    3.49
  18  -2   6    4.44    2.53
 -18   2   6    0.48    4.77
  18  -2   6   -3.13    2.09
  -2 -18   6    2.24    3.04
   2  18   6    4.14    2.59
  -2 -18   6    1.75    2.08
   4  18  -6    1.86    2.16
  18  -4  -6    1.75    3.16
  -4 -18  -6    1.01    3.19
  18  -4  -6    4.87    3.22
  -4 -18  -6   10.00    3.72
 -18   4   6    3.23    3.71
  18  -4   6    5.33    2.20
  -4 -18   6   -0.88    3.37
   4  18   6    3.36    2.77
  -4 -18   6    4.17    2.47
  18  -4   6    6.22    2.56
  -6 -18  -6    4.85    3.59
  18  -6  -6   -0.61    3.27
   6  18  -6    2.58    2.19
  18  -6  -6   -1.71    3.44
 -18   6   6    2.16    4.33
  -6 -18   6    1.47    3.73
   6  18   6    3.02    2.83
  18  -6   6    1.56    1.95
  -6 -18   6    2.15    2.60
  18  -8  -6    9.28    3.82
  18  -8  -6    6.55    3.52
  -8 -18  -6    5.56    3.92
  -8 -18   6    3.72    2.90
  18  -8   6    5.08    2.04
   8  18   6    6.92    3.41
  -8 -18   6    7.24    4.40
 -18   8   6    2.84    4.53
  18  -8   6    1.93    2.16
  18 -10  -6    1.34    3.51
  18 -10  -6    8.32    4.19
 -10 -18  -6   -1.46    3.82
 -18  10   6   -8.32    7.59
 -10 -18   6   -2.50    4.45
  10  18   6    3.00    3.53
  18 -10   6    1.68    1.87
  18 -10   6    1.16    1.80
 -10 -18   6    3.13    3.31
   9 -19  -6    8.54    3.46
  19   9  -6    7.46    3.84
   9 -19  -6   12.25    4.45
   9 -19   6    8.04    2.85
  19   9   6    6.30    3.69
 -19  -9   6    4.43    5.28
  19   9   6    5.45    3.88
   9 -19   6    7.74    2.32
  -9  19   6    4.87    3.57
   7 -19  -6    8.47    3.89
  19   7  -6    9.63    3.47
  19   7  -6    0.92    3.34
   7 -19  -6    4.51    2.61
 -19  -7  -6   11.28    3.66
  19   7   6    2.98    3.18
  -7  19   6    8.58    4.48
 -19  -7   6    3.28    4.75
  19   7   6    3.17    3.38
   7 -19   6    7.08    2.80
   7 -19   6    4.29    3.30
   5 -19  -6    4.59    2.72
  19   5  -6    3.52    3.47
 -19  -5  -6    6.71    3.16
   5 -19  -6   15.48    4.88
  19   5  -6    8.79    3.41
   5 -19   6   10.59    2.47
  19   5   6    4.07    3.32
  19   5   6    8.99    3.27
   5 -19   6   13.86    3.46
 -19  -5   6    5.24    4.57
  19   3  -6   12.26    3.68
   3 -19  -6   19.07    4.29
   3 -19  -6    2.16    2.84
  19   3  -6   -0.19    3.31
   3 -19   6    9.27    2.48
 -19  -3   6    6.08    4.30
   3 -19   6   11.10    3.34
  -3  19   6   11.29    2.95
  19   3   6   14.99    3.35
  19   3   6    7.57    3.16
   1 -19  -6    4.78    2.80
  19   1  -6   13.02    3.50
  19   1  -6    1.33    3.27
  -1  19  -6    8.91    2.40
   1 -19  -6    5.52    4.07
  19   1   6    6.91    2.87
  -1  19   6    7.40    2.86
  19   1   6    6.32    2.93
 -19  -1   6    8.90    4.17
   1 -19   6   10.07    3.37
   1 -19   6    6.98    2.57
  -1 -19  -6    9.21    3.20
   1  19  -6    9.35    2.29
  19  -1  -6    3.74    3.47
  19  -1  -6    5.50    3.39
  -1 -19  -6    8.01    4.06
  19  -1   6    3.18    2.80
  -1 -19   6    2.58    3.47
  -1 -19   6    6.33    2.68
   1  19   6    6.90    2.89
  19  -1   6    6.11    2.62
 -19   1   6   10.05    4.50
  -3 -19  -6    6.92    3.43
  19  -3  -6    8.13    3.61
   3  19  -6    6.97    2.44
  -3 -19  -6   13.49    4.16
  19  -3  -6    5.12    3.72
  19  -3   6    5.89    2.55
   3  19   6    8.29    3.00
  -3 -19   6    9.54    3.71
  -3 -19   6    6.44    2.65
  19  -3   6    9.61    4.50
  -5 -19  -6   11.32    4.01
   5  19  -6    7.69    2.62
  19  -5  -6   10.66    3.65
  19  -5  -6   10.00    3.84
  19  -5   6    7.16    2.51
 -19   5   6    5.68    4.79
   5  19   6    4.45    4.63
  -5 -19   6    5.76    2.76
  19  -5   6    4.89    2.99
  -5 -19   6   15.14    3.93
   7  19  -6    3.70    2.55
  19  -7  -6    6.12    3.75
  -7 -19  -6   16.96    4.42
  19  -7  -6    3.72    3.85
  19  -7   6    5.56    2.59
   7  19   6   10.36    3.65
 -19   7   6    4.51    4.78
  -7 -19   6   13.65    4.29
  19  -7   6    3.52    2.30
  -7 -19   6    4.31    4.03
  -9 -19  -6   10.39    4.44
  19  -9  -6   11.88    4.21
  19  -9  -6    6.25    4.00
  -9 -19   6    5.32    4.80
  19  -9   6    5.53    2.31
  19  -9   6    7.01    2.41
  -9 -19   6    5.06    3.46
 -19   9   6    0.57    7.77
   9  19   6    6.28    3.76
 -20  -6  -6    5.03    4.04
  20   6  -6    1.60    3.56
   6 -20  -6    7.32    2.90
  20   6  -6   14.26    3.82
   6 -20  -6    9.76    4.37
   6 -20   6    6.27    2.39
  20   6   6    5.75    3.46
 -20  -6   6    3.71    5.00
   6 -20   6    5.72    2.99
  20   6   6    5.20    3.24
   4 -20  -6   14.99    4.51
   4 -20  -6    5.45    2.78
  20   4  -6    5.91    3.59
  20   4  -6    8.59    3.53
  20   4   6    6.04    3.36
  -4  20   6    0.42    3.36
   4 -20   6    7.84    3.67
 -20  -4   6    7.01    4.55
  20   4   6    2.88    2.98
   4 -20   6    6.27    2.34
   2 -20  -6    5.58    6.00
   2 -20  -6   -0.21    2.56
  20   2  -6   -2.71    3.16
  20   2   6   -1.87    2.80
 -20  -2   6    2.36    4.15
   2 -20   6   -0.40    2.18
  20   2   6    3.72    3.00
  -2  20   6    2.74    2.60
   2 -20   6   -1.39    3.10
   0  20  -6    1.94    2.19
   0 -20  -6   -0.47    2.90
  20   0  -6   -4.22    3.07
   0 -20  -6    0.47    3.95
  20   0  -6   -5.28    3.32
 -20   0   6    2.99    4.95
   0  20   6   -0.20    2.66
  20   0   6   -1.11    2.72
  20   0   6    3.97    2.98
   0 -20   6    6.04    3.41
   0 -20   6    0.99    2.39
  -2 -20  -6   -0.99    4.09
  -2 -20  -6    0.38    3.36
  20  -2  -6    3.82    3.29
  20  -2  -6    2.08    3.60
   2  20  -6    3.41    2.32
  20  -2   6    0.47    2.86
  20  -2   6   -0.56    2.48
  -2 -20   6    3.11    3.53
  -2 -20   6    4.51    2.34
   2  20   6    0.93    2.81
  -4 -20  -6    6.60    4.04
  20  -4  -6    0.39    3.23
   4  20  -6    5.02    2.45
   4  20   6    1.72    3.07
  20  -4   6    2.69    2.92
  20  -4   6    3.52    2.52
  -4 -20   6    5.44    2.64
  -4 -20   6    1.06    3.88
 -20   4   6    1.17    4.07
  -6 -20  -6    6.78    4.02
  20  -6  -6    3.87    3.81
  20  -6  -6   -0.04    4.02
   6  20  -6    5.51    2.65
  20  -6   6    5.07    2.31
 -20   6   6    4.07    4.38
  -6 -20   6    5.44    2.92
  -6 -20   6    3.20    4.33
   6  20   6    1.85    3.15
  20  -8   6    2.40    2.53
  21   3  -6    5.16    3.78
  21   3  -6    8.07    3.69
   3 -21  -6   13.91    4.85
   3 -21  -6    3.39    3.17
  21   3   6   11.14    3.47
  -3  21   6   11.08    4.75
  21   3   6   12.26    3.58
 -21  -3   6    6.97    4.76
   3 -21   6    6.00    2.72
   3 -21   6    7.53    3.94
   1 -21  -6    3.73    3.24
  21   1  -6   11.30    3.74
  21   1  -6    0.76    3.93
   1 -21  -6   14.27    4.70
   1 -21   6    4.21    2.55
  21   1   6    4.19    3.33
 -21  -1   6    5.84    6.33
  -1  21   6    7.57    3.04
   1 -21   6    4.74    3.55
  21   1   6   11.02    3.22
  21  -1  -6    5.51    3.62
  -1 -21  -6   13.15    4.71
  -1 -21  -6    2.25    3.51
   1  21  -6    3.33    3.55
  21  -1  -6    2.93    4.03
  -1 -21   6    3.26    2.56
  21  -1   6    3.93    3.22
  -1 -21   6   15.28    4.05
  21  -1   6    9.41    3.02
   1  21   6    9.47    3.26
   3  21  -6    4.70    2.70
  21  -3  -6   11.25    3.94
  21  -3  -6    4.27    4.12
  -3 -21  -6    8.76    4.49
  21  -3   6    6.61    3.31
  -3 -21   6    7.49    4.00
   3  21   6    5.24    3.10
 -21   3   6   12.59    4.59
  21  -3   6    5.65    2.80
  -3 -21   6    4.46    2.75
   0   1  -7    0.66    0.96
   0   1  -7    1.52    1.08
  -1   0  -7   -0.01    1.21
   0  -1  -7    0.25    1.11
  -1   0  -7   -0.20    1.02
   1   0  -7   -0.15    0.99
   1   0   7    3.01    1.39
   0   1   7    0.67    1.18
   0  -1   7    0.20    1.21
   1   0   7    3.43    1.23
  -1   0   7   -0.65    1.23
  -1   0   7    0.06    1.31
   0   1   7   -0.63    1.37
   0  -1   7    2.25    1.11
   1  -2  -7   16.28    2.76
   2   1  -7   18.25    3.32
  -2  -1  -7   12.46    2.63
  -2  -1  -7   15.76    2.93
  -1   2  -7   13.05    2.40
  -1   2  -7   11.88    2.53
   1  -2  -7   12.79    2.49
   2   1  -7   14.29    2.74
  -1   2   7   16.25    2.90
  -2  -1   7   13.02    2.57
   2   1   7   15.02    2.75
   2   1   7   13.42    2.64
  -1   2   7   13.79    2.72
  -2  -1   7   12.30    2.53
   1  -2   7   13.08    2.73
  -2   1  -7   13.75    2.37
   2  -1  -7   12.45    2.69
   1   2  -7   12.46    2.40
  -2   1  -7   13.56    2.30
  -1  -2  -7   12.86    2.65
   2  -1  -7   11.06    2.41
   1   2  -7   14.89    2.62
   1   2   7   13.13    2.50
  -1  -2   7   17.37    2.90
  -2   1   7   15.10    2.56
   2  -1   7   18.69    3.16
  -1  -2   7   12.41    2.52
  -2   1   7    9.96    2.63
   2  -1   7   14.21    2.44
   1   2   7   15.34    2.75
  -3  -2  -7   87.66   12.63
  -2   3  -7   83.12   12.49
   2  -3  -7   86.17   12.60
   3   2  -7   91.37   12.64
   2  -3  -7   90.29   12.80
   3   2  -7   85.99   12.60
  -3  -2  -7   78.61   12.55
  -2   3  -7   83.41   12.46
   2  -3   7   78.38   12.57
  -3  -2   7   87.35   12.68
  -2   3   7   77.59   12.73
   2  -3   7   86.52   12.54
  -2   3   7   87.22   12.66
   3   2   7   81.31   12.69
   3   2   7   84.23   12.59
  -3  -2   7   85.45   12.67
   0   3  -7  154.37   23.73
  -3   0  -7  158.64   23.70
   0  -3  -7  172.36   23.89
   0   3  -7  165.94   23.71
   0  -3  -7  164.03   23.76
  -3   0  -7  165.91   23.74
   3   0  -7  161.90   23.77
   3   0  -7  169.83   23.83
  -3   0   7  160.68   23.81
   0   3   7  162.63   23.79
   0  -3   7  155.98   23.78
   0   3   7  158.41   23.85
   0  -3   7  154.70   23.74
   3   0   7  167.71   23.90
  -3   0   7  158.75   23.82
   3   0   7  153.64   23.73
   3  -2  -7   79.65   12.42
  -3   2  -7   87.30   12.29
   3  -2  -7   85.36   12.59
   2   3  -7   89.28   12.39
  -2  -3  -7   83.69   12.38
  -3   2  -7   84.04   12.27
  -2  -3   7   80.11   12.44
  -2  -3   7   82.49   12.47
  -3   2   7   79.69   12.49
   2   3   7   87.76   12.53
  -3   2   7   77.59   12.55
   3  -2   7   79.79   12.39
   3  -2   7   79.17   12.34
   2   3   7   86.50   12.45
  -4  -3  -7   31.04    4.99
  -4  -3  -7   34.40    5.21
   3  -4  -7   28.87    5.12
   3  -4  -7   26.02    5.43
   4   3  -7   32.47    5.11
   4   3  -7   32.33    6.08
  -4  -3   7   30.83    5.23
   3  -4   7   32.03    4.98
   3  -4   7   30.82    4.88
  -3   4   7   34.98    5.18
   4   3   7   32.47    5.12
  -3   4   7   23.94    5.37
  -4  -3   7   30.17    5.27
   4   3   7   33.38    5.24
   4   1  -7   12.51    2.52
  -4  -1  -7   14.59    2.87
  -1   4  -7   10.37    2.31
   4   1  -7   12.61    2.40
  -1   4  -7   11.96    2.51
   1  -4  -7   12.53    2.81
  -4  -1  -7   12.87    2.52
   1  -4  -7   11.71    2.41
  -1   4   7   12.64    2.71
   4   1   7   14.65    3.22
   1  -4   7   12.47    2.80
  -4  -1   7   11.83    2.51
  -4  -1   7   16.68    2.61
  -1   4   7   14.83    2.56
   1  -4   7   12.82    2.40
   4   1   7   15.68    2.74
  -1  -4  -7   12.02    2.63
   4  -1  -7   12.65    2.68
  -4   1  -7   11.29    2.30
  -4   1  -7   11.91    2.36
   1   4  -7   14.13    2.63
  -1  -4  -7   15.62    2.78
   4  -1  -7   14.63    2.51
   1   4  -7   13.37    2.57
  -4   1   7    8.58    2.57
  -1  -4   7   12.79    2.47
  -4   1   7   13.17    2.53
   4  -1   7   17.60    2.82
   1   4   7   14.35    2.69
  -1  -4   7   14.66    2.45
   1   4   7   10.40    2.43
   4  -3  -7   29.55    5.88
   3   4  -7   37.28    5.50
  -3  -4  -7   34.48    5.48
   4  -3  -7   31.29    5.53
   3   4   7   37.12    5.70
   3   4   7   41.56    5.60
  -4   3   7   34.52    5.80
  -4   3   7   30.55    5.70
   4  -3   7   33.87    5.40
   4  -3   7   31.12    5.30
  -3  -4   7   35.29    5.66
  -3  -4   7   37.73    5.64
   5   4  -7   31.68    4.87
  -5  -4  -7   27.78    4.79
   4  -5  -7   33.85    5.23
   5   4  -7   27.31    4.83
  -5  -4  -7   28.17    4.68
   4  -5  -7   27.65    4.84
   4  -5   7   27.04    4.49
  -4   5   7   32.54    4.91
  -5  -4   7   33.28    4.97
   5   4   7   26.92    4.79
  -4   5   7   20.60    5.07
   4  -5   7   27.72    4.58
   5   4   7   31.40    5.08
  -5  -2  -7   79.80   12.74
   5   2  -7   88.46   12.92
  -2   5  -7   92.30   12.84
  -2   5  -7   86.86   12.65
  -5  -2  -7   97.36   12.87
   2  -5  -7   88.38   13.03
   5   2  -7   85.73   12.87
   2  -5  -7   81.78   12.86
   2  -5   7   82.55   12.79
  -2   5   7   78.62   12.99
   2  -5   7   86.28   12.76
  -2   5   7   91.03   12.89
  -5  -2   7   84.81   12.94
  -5  -2   7   82.27   12.93
   5   2   7   80.53   12.89
   5   2   7   88.38   12.80
   0  -5  -7  208.58   30.27
   0   5  -7  210.11   30.19
   0   5  -7  197.31   30.20
  -5   0  -7  203.70   30.16
   0  -5  -7  199.82   30.36
  -5   0  -7  216.87   30.19
   5   0  -7  208.78   30.33
   5   0  -7  204.25   30.28
   5   0   7  202.25   30.21
  -5   0   7  207.10   30.31
   0  -5   7  189.32   30.24
  -5   0   7  210.11   30.33
   0   5   7  222.51   30.30
   5   0   7  204.37   30.26
   0   5   7  198.97   30.34
   0  -5   7  207.68   30.24
  -2  -5  -7   86.61   12.45
   2   5  -7   83.12   12.43
   5  -2  -7   84.54   12.50
  -2  -5  -7   83.39   12.57
   5  -2  -7   89.82   12.64
   2   5  -7   82.58   12.42
  -5   2   7   87.90   12.57
  -5   2   7   87.37   12.60
   5  -2   7   86.53   12.40
   2   5   7   78.51   12.56
  -2  -5   7   70.48   12.49
   5  -2   7   77.80   12.32
   2   5   7   96.00   12.50
  -2  -5   7   68.50   12.94
  -4  -5  -7   28.44    4.74
   5  -4  -7   29.57    5.21
   5  -4  -7   23.45    4.76
   4   5  -7   27.01    4.76
  -5   4   7   29.76    5.08
   4   5   7   31.14    5.10
   5  -4   7   28.67    4.50
  -4  -5   7   24.61    4.89
   5  -4   7   31.86    4.42
   4   5   7   28.83    4.99
  -5   4   7   24.98    4.96
  -6  -5  -7    2.46    1.65
   5  -6  -7    3.05    1.69
   6   5  -7    6.22    1.74
   6   5  -7    4.75    1.72
  -6  -5  -7    3.90    1.57
   5  -6  -7    4.40    2.15
   5  -6   7    8.19    1.39
  -5   6   7    7.96    2.21
   6   5   7    3.62    1.84
  -6  -5   7    6.10    1.84
   6   5   7    5.82    2.08
  -5   6   7    4.03    1.84
   5  -6   7    5.59    1.20
  -6  -5   7    2.45    2.04
  -6  -3  -7   11.80    2.18
  -6  -3  -7   18.29    2.93
   6   3  -7   10.42    2.42
   3  -6  -7    9.53    2.28
   3  -6  -7   14.57    2.76
   6   3  -7   11.33    2.45
   6   3   7   10.84    2.58
  -6  -3   7    8.98    2.52
   3  -6   7   10.70    2.14
   3  -6   7   13.02    2.38
  -6  -3   7   10.74    2.48
  -3   6   7    9.34    2.53
   6   3   7   12.87    2.34
  -3   6   7   15.70    2.90
   1  -6  -7   14.56    3.16
  -1   6  -7   11.21    2.74
   1  -6  -7   18.56    3.21
   6   1  -7   15.98    3.07
  -1   6  -7   16.38    2.65
  -6  -1  -7   14.92    2.79
   6   1  -7   13.71    2.89
  -6  -1  -7   16.07    3.01
   6   1   7   17.46    3.26
  -6  -1   7   15.44    2.96
   1  -6   7   15.27    3.10
  -6  -1   7   18.56    3.09
  -1   6   7   16.60    3.12
  -1   6   7   16.76    3.31
   6   1   7   17.71    2.97
   1  -6   7   18.02    2.82
  -1  -6  -7   14.17    3.16
   6  -1  -7   16.67    3.01
   1   6  -7   15.10    2.83
   6  -1  -7   19.98    3.29
  -1  -6  -7   19.26    3.31
   1   6  -7   15.32    3.05
  -6   1  -7   14.85    2.66
  -6   1   7   13.05    4.17
  -1  -6   7   18.38    3.03
  -6   1   7   19.18    3.18
   6  -1   7   16.27    2.94
  -1  -6   7   16.86    2.99
   6  -1   7   19.63    3.28
   1   6   7   17.66    3.37
   1   6   7   18.69    3.25
   6  -3  -7    8.09    2.35
  -3  -6  -7   13.25    2.32
   6  -3  -7   13.41    2.77
   3   6  -7   10.21    2.24
   3   6  -7   13.64    2.63
  -3  -6  -7   10.14    2.54
  -3  -6   7   13.04    2.62
  -3  -6   7   11.74    2.45
   3   6   7   11.37    2.62
  -6   3   7    9.05    2.64
   6  -3   7   12.93    2.47
   6  -3   7   13.76    2.22
  -6   3   7    9.40    2.52
   3   6   7   11.21    2.39
   5   6  -7    2.94    1.61
  -5  -6  -7    1.80    1.61
   6  -5  -7    5.19    2.15
  -5  -6  -7    6.86    2.05
   6  -5  -7    6.17    1.76
   5   6  -7    4.36    1.66
  -5  -6   7    5.42    2.13
   5   6   7    2.53    1.73
  -6   5   7    3.43    1.84
   5   6   7    5.66    2.07
   6  -5   7    5.86    1.13
  -6   5   7    4.84    2.12
   6  -5   7    4.43    1.28
  -5  -6   7    7.90    1.79
  -7  -6  -7    0.87    2.40
   6  -7  -7    2.54    1.65
   7   6  -7    1.69    1.75
   6  -7  -7    3.33    2.15
  -7  -6  -7    0.44    0.88
   7   6  -7    3.28    1.65
   7   6   7    1.16    1.74
   6  -7   7    2.03    0.93
  -7  -6   7    2.78    2.17
  -6   7   7    1.32    1.84
   6  -7   7    2.00    1.03
  -6   7   7    3.37    2.09
   7   6   7   -3.43    1.92
  -7  -6   7    2.07    1.72
   7   4  -7    6.00    2.27
   7   4  -7    9.80    2.30
  -7  -4  -7   10.08    2.27
   4  -7  -7   12.38    2.72
  -7  -4  -7    8.16    2.04
   4  -7  -7   10.47    2.20
  -7  -4   7   11.73    2.64
  -4   7   7   11.20    2.56
   7   4   7    8.85    2.47
   4  -7   7   13.75    2.19
   4  -7   7   14.11    2.28
  -4   7   7   10.53    2.30
  -7  -4   7    7.53    2.31
   7   4   7    9.04    2.22
   7   2  -7   46.45    6.90
   7   2  -7   35.83    6.85
  -7  -2  -7   44.67    6.76
   2  -7  -7   50.35    7.07
   2  -7  -7   44.69    6.77
  -7  -2  -7   41.07    6.56
  -7  -2   7   44.85    6.96
   2  -7   7   41.12    6.66
  -2   7   7   51.23    6.89
  -2   7   7   36.44    6.97
   2  -7   7   46.36    6.62
  -7  -2   7   40.25    6.94
   7   2   7   40.60    6.67
   7   2   7   38.72    6.89
   0  -7  -7  131.42   20.28
   7   0  -7  141.39   20.27
   0   7  -7  135.59   20.05
  -7   0  -7  139.14   20.02
   0  -7  -7  145.44   20.21
   0   7  -7  148.04   20.05
  -7   0  -7  139.59   20.00
   7   0  -7  130.72   20.20
  -7   0   7  141.80   20.26
   0   7   7  154.28   20.23
  -7   0   7  131.88   20.24
   7   0   7  132.55   20.07
   0   7   7  122.37   20.31
   7   0   7  129.62   20.15
   0  -7   7  116.28   20.13
   7  -2  -7   40.71    6.60
  -2  -7  -7   39.61    6.58
  -2  -7  -7   41.67    6.81
   2   7  -7   39.15    6.44
   7  -2  -7   52.13    6.88
   2   7  -7   40.90    6.44
   2   7   7   42.40    6.83
   7  -2   7   43.35    6.43
   2   7   7   43.27    6.63
  -2  -7   7   35.29    6.55
  -7   2   7   47.22    6.75
  -7   2   7   38.83    6.77
   7  -2   7   41.03    6.27
  -2  -7   7   38.71    6.60
   7  -4  -7   12.52    3.00
  -4  -7  -7   12.33    2.83
   7  -4  -7   10.75    2.54
   4   7  -7   15.02    2.93
  -4  -7  -7   11.51    2.59
   4   7   7    9.44    3.34
  -4  -7   7   12.52    2.78
  -7   4   7   13.36    2.79
  -4  -7   7   12.19    2.64
   7  -4   7   14.87    2.30
   4   7   7    7.76    2.80
   7  -4   7   15.66    2.52
  -7   4   7   14.70    2.85
   6   7  -7    0.35    1.56
   7  -6  -7    1.05    1.57
  -6  -7  -7    1.30    1.56
   7  -6  -7   -1.95    2.25
   6   7  -7    1.47    1.62
  -6  -7  -7    1.32    1.87
  -6  -7   7    0.02    1.72
  -7   6   7    1.50    1.83
  -6  -7   7    2.67    2.11
   7  -6   7    1.59    0.74
   7  -6   7    0.45    0.97
   6   7   7   -0.41    2.08
  -7   6   7    3.78    2.00
   6   7   7    0.27    1.88
   7  -8  -7   -1.37    2.32
   7  -8  -7   -1.96    1.64
   8   7  -7   -0.33    1.74
   8   7  -7    1.00    1.86
  -8  -7  -7   -2.33    1.56
  -7   8   7    1.78    1.87
   8   7   7   -3.26    1.76
  -8  -7   7    0.92    2.31
   8   7   7   -0.40    2.19
   7  -8   7   -1.34    0.90
  -7   8   7    2.66    2.13
  -8  -7   7   -1.91    1.79
   8   5  -7    2.17    1.70
   5  -8  -7    4.68    1.62
   5  -8  -7   -0.78    2.12
  -8  -5  -7    3.58    1.55
  -8  -5  -7   -1.76    1.84
   8   5  -7    1.63    1.74
   8   5   7    2.30    1.63
   5  -8   7    0.81    1.17
   8   5   7   -0.69    2.00
  -8  -5   7    0.90    3.33
  -8  -5   7    4.72    2.25
  -5   8   7    3.38    2.06
  -5   8   7    1.01    1.64
   3  -8  -7    6.46    2.23
   3  -8  -7    2.53    1.61
  -8  -3  -7    2.38    1.37
   8   3  -7    3.73    1.73
  -8  -3  -7    3.82    1.63
   8   3  -7    4.25    1.86
   8   3   7    4.20    2.98
   3  -8   7    3.81    1.44
  -3   8   7    3.79    1.80
  -8  -3   7    3.76    1.84
  -3   8   7    5.14    1.96
   8   3   7    3.30    1.53
  -8  -3   7    5.55    2.13
  -1   8  -7    4.03    1.02
  -8  -1  -7    4.32    1.19
   1  -8  -7    3.73    1.63
   8   1  -7    5.85    1.83
  -1   8  -7    2.82    0.98
   8   1  -7    1.80    1.80
  -8  -1  -7    1.91    1.99
   1  -8  -7    3.29    2.02
   8   1   7    5.83    1.86
  -1   8   7    2.78    1.65
  -8  -1   7    2.65    1.88
  -8  -1   7    2.24    1.78
   8   1   7    6.39    1.42
   1  -8   7    4.75    1.62
   1  -8   7    3.47    1.60
  -1   8   7    0.99    1.91
  -1  -8  -7    1.29    1.46
  -1  -8  -7    2.91    2.00
   1   8  -7    3.39    1.26
   1   8  -7    1.26    1.17
   8  -1  -7    2.93    1.61
   8  -1  -7    5.27    1.91
  -1  -8   7    6.46    1.75
   8  -1   7   -0.27    1.52
   1   8   7    2.84    1.67
  -8   1   7    0.51    1.74
  -1  -8   7    3.54    1.66
  -8   1   7    0.04    1.53
   1   8   7    1.72    2.38
   8  -1   7    2.14    1.16
   3   8  -7    3.33    1.46
   8  -3  -7    6.81    2.16
   3   8  -7    5.70    1.50
  -3  -8  -7    6.27    1.82
   8  -3  -7    1.12    1.59
  -3  -8  -7    5.19    2.10
  -3  -8   7    1.95    1.75
  -3  -8   7    6.23    1.97
   3   8   7   -2.28    1.92
   8  -3   7    4.04    1.38
   3   8   7    0.98    1.74
   8  -3   7    4.17    1.10
  -8   3   7    3.92    1.93
  -8   3   7    4.43    1.93
   5   8  -7    4.14    2.77
   8  -5  -7    1.83    1.67
  -5  -8  -7    5.51    2.04
  -5  -8  -7    0.24    1.66
   8  -5  -7   -1.23    2.21
   8  -5   7    1.13    1.05
  -5  -8   7    2.95    1.75
  -8   5   7    1.64    2.01
   5   8   7   -0.42    2.06
   5   8   7   -2.67    1.68
  -8   5   7    0.06    1.91
   8  -5   7    0.52    0.83
  -5  -8   7    1.98    2.01
   7   8  -7    0.38    2.68
   8  -7  -7    2.67    1.80
   7   8  -7   -1.57    1.55
  -7  -8  -7   -1.74    1.66
   8  -7  -7   -2.61    2.53
   7   8   7    1.34    1.89
  -8   7   7    1.50    1.86
  -7  -8   7    0.09    2.20
  -7  -8   7   -2.08    1.83
  -8   7   7   -0.46    2.10
   7   8   7   -1.36    2.15
   9   8  -7   -2.94    2.02
  -9  -8  -7    0.17    1.84
   8  -9  -7    0.36    2.01
   9   8  -7    5.07    2.02
   8  -9  -7    5.22    2.65
  -9  -8   7   -0.41    2.62
  -8   9   7    2.35    2.11
   9   8   7    1.29    1.96
   9   8   7   -1.18    2.39
  -8   9   7    0.97    2.22
  -9  -8   7    1.63    2.20
   6  -9  -7    1.93    1.73
   6  -9  -7    3.78    2.66
   9   6  -7   -0.04    1.87
  -9  -6  -7    0.01    1.59
   9   6  -7    5.79    1.97
  -9  -6  -7    4.09    2.06
  -9  -6   7   -0.35    1.90
   6  -9   7    4.29    1.19
   6  -9   7    4.00    1.31
  -6   9   7    3.70    1.84
   9   6   7    2.85    2.30
   9   6   7    4.53    1.97
  -6   9   7    1.97    2.09
   4  -9  -7   31.81    4.55
  -9  -4  -7   23.32    4.29
   9   4  -7   19.89    4.31
   4  -9  -7   35.24    5.12
  -9  -4  -7   23.82    4.67
   9   4  -7   27.23    4.73
  -4   9   7   34.69    4.65
  -9  -4   7   16.29    4.28
   4  -9   7   24.96    4.24
   9   4   7   20.96    4.44
  -9  -4   7   27.57    5.11
  -4   9   7   22.40    4.84
   9   4   7   30.46    4.49
   4  -9   7   24.57    4.17
   9   2  -7   88.04   11.93
  -9  -2  -7   87.05   11.94
   9   2  -7   62.09   11.83
   2  -9  -7   85.71   11.83
   2  -9  -7   76.62   12.05
  -9  -2   7   68.62   11.90
   2  -9   7   75.20   11.69
  -2   9   7   87.38   11.86
   9   2   7   68.29   11.83
  -9  -2   7   86.46   12.02
   9   2   7   84.57   11.71
   2  -9   7   76.49   11.68
  -2   9   7   68.59   11.94
   0  -9  -7  174.74   24.85
   9   0  -7  188.06   24.97
   0   9  -7  164.15   24.76
   0  -9  -7  165.62   24.98
   0   9  -7  187.64   24.79
   9   0  -7  160.10   24.88
   0   9   7  151.09   24.94
   9   0   7  167.49   24.73
  -9   0   7  165.94   24.92
   0   9   7  182.71   24.89
   9   0   7  153.44   24.81
  -9   0   7  176.90   24.92
   0  -9   7  156.62   24.81
   0  -9   7  161.55   24.81
  -2  -9  -7   79.36   11.56
   2   9  -7   77.05   11.43
   9  -2  -7   89.40   11.73
   2   9  -7   73.17   11.37
  -2  -9  -7   80.69   11.74
   9  -2  -7   74.39   11.57
   2   9   7   72.03   11.56
   2   9   7   68.19   11.69
  -9   2   7   79.75   11.66
   9  -2   7   75.59   11.29
   9  -2   7   72.64   11.42
  -9   2   7   81.47   11.67
  -2  -9   7   76.71   11.55
  -2  -9   7   70.51   11.53
   4   9  -7   22.59    4.50
   9  -4  -7   29.65    4.86
  -4  -9  -7   28.52    4.81
  -4  -9  -7   26.41    5.21
   9  -4  -7   30.87    5.30
   4   9  -7   24.29    4.70
  -4  -9   7   32.95    5.03
   4   9   7   17.67    4.87
  -4  -9   7   20.85    4.77
  -9   4   7   25.19    5.06
  -9   4   7   30.24    5.02
   9  -4   7   29.20    4.15
   9  -4   7   26.98    4.35
   6   9  -7    0.75    1.68
   9  -6  -7    1.41    2.57
  -6  -9  -7   -0.79    2.03
  -6  -9  -7    2.94    3.09
   6   9  -7   -0.94    1.72
   9  -6  -7    3.90    1.92
   6   9   7    0.66    2.07
  -6  -9   7    1.54    1.82
   6   9   7    2.15    2.49
  -6  -9   7    5.87    2.29
  -9   6   7    0.04    2.18
  -9   6   7    4.98    2.00
  -8  -9  -7   -1.12    2.32
   9  -8  -7    3.52    2.62
  -8  -9  -7   -0.93    1.77
   8   9  -7    1.43    1.92
   9  -8  -7    2.09    2.75
   8   9  -7   -0.23    1.90
  -9   8   7   -1.38    2.24
   8   9   7   -0.22    2.11
   8   9   7   -0.25    2.55
  -9   8   7    0.03    2.16
  -8  -9   7    2.48    2.90
  -8  -9   7    0.06    1.93
   9 -10  -7   30.27    5.07
  10   9  -7    9.93    3.29
  10   9  -7   14.79    3.33
   9 -10  -7   11.10    3.84
  10   9   7   19.74    3.43
 -10  -9   7   17.39    3.94
  10   9   7   13.15    3.71
  -9  10   7   29.62    4.35
 -10  -9   7    7.49    3.27
   7 -10  -7   16.32    3.79
 -10  -7  -7   12.65    3.27
  10   7  -7   17.96    3.32
   7 -10  -7   10.73    3.08
 -10  -7   7   11.62    3.22
   7 -10   7   17.82    3.44
  -7  10   7   18.54    3.33
  10   7   7   14.43    3.40
 -10  -7   7   14.93    3.77
  10   7   7   15.07    3.24
  -7  10   7   10.97    3.15
   7 -10   7   18.72    2.96
 -10  -5  -7   12.18    2.95
 -10  -5  -7   14.25    2.71
  10   5  -7   11.00    2.94
   5 -10  -7   11.31    2.82
  10   5  -7   14.55    3.04
   5 -10  -7   18.82    3.58
  10   5   7   12.23    3.15
   5 -10   7   13.16    2.77
   5 -10   7   16.93    2.99
 -10  -5   7   20.11    3.56
  -5  10   7   10.47    3.02
  10   5   7   15.29    2.99
  -5  10   7   16.72    3.02
 -10  -5   7   12.32    3.09
  10   3  -7    6.79    2.30
 -10  -3  -7    6.01    2.08
   3 -10  -7   10.17    2.74
   3 -10  -7    6.44    2.08
 -10  -3  -7    7.77    1.83
  10   3  -7    7.84    2.29
 -10  -3   7    6.18    2.71
  10   3   7    5.03    2.37
 -10  -3   7    8.07    2.36
   3 -10   7    7.12    1.98
  10   3   7   12.07    2.13
  -3  10   7    8.02    2.21
   3 -10   7    8.45    1.85
  -3  10   7    9.25    2.52
  -1  10  -7    4.78    1.14
 -10  -1  -7    3.06    1.32
   1 -10  -7    2.00    1.71
  10   1  -7    3.64    2.03
   1 -10  -7    4.23    2.33
  10   1  -7    1.99    1.86
  10   1   7    3.91    2.02
 -10  -1   7    2.17    1.89
 -10  -1   7    9.22    2.62
  -1  10   7    4.55    2.27
   1 -10   7    2.79    1.90
  10   1   7    7.09    1.64
   1 -10   7    5.31    1.73
  -1  10   7    7.44    1.94
  -1 -10  -7    5.75    1.92
  10  -1  -7    1.46    2.20
   1  10  -7    4.60    1.43
  -1 -10  -7    2.84    2.36
  10  -1  -7    8.36    2.03
   1  10  -7    5.14    1.54
 -10   1   7    4.02    1.97
 -10   1   7    2.33    2.14
  10  -1   7    4.53    1.45
  -1 -10   7    3.24    1.78
  -1 -10   7    5.82    2.10
   1  10   7    0.85    2.12
  10  -1   7    4.09    1.80
   1  10   7    5.89    2.03
  -3 -10  -7    6.03    2.17
   3  10  -7    9.18    1.93
  -3 -10  -7    5.27    2.54
  10  -3  -7    7.85    2.14
   3  10  -7    6.24    1.93
  10  -3  -7    7.96    2.62
  10  -3   7    8.30    1.55
  10  -3   7    8.65    1.87
   3  10   7    3.86    2.50
  -3 -10   7    8.14    2.32
 -10   3   7   11.80    2.36
  -3 -10   7    2.65    2.02
 -10   3   7    4.91    2.31
   3  10   7    5.99    2.20
  -5 -10  -7   10.83    3.44
  -5 -10  -7   12.20    3.20
  10  -5  -7   10.04    3.07
  10  -5  -7   21.55    3.84
   5  10  -7   14.90    3.13
   5  10   7   14.25    3.57
   5  10   7   23.18    4.05
 -10   5   7   10.07    3.40
 -10   5   7   15.64    3.25
  -5 -10   7   17.88    3.34
  10  -5   7   19.26    2.64
  10  -5   7   15.06    2.97
  -5 -10   7   25.03    4.36
  -7 -10  -7   13.71    3.14
   7  10  -7   11.50    3.23
  10  -7  -7   23.34    4.06
  -7 -10  -7   13.02    3.32
  10  -7  -7   15.48    3.76
   7  10  -7   11.89    3.04
   7  10   7   18.62    3.30
  -7 -10   7   22.17    3.76
 -10   7   7   15.01    3.22
 -10   7   7   14.39    3.29
   7  10   7    5.28    5.24
  -7 -10   7   11.00    3.13
   9  10  -7   24.66    3.93
  -9 -10  -7   14.97    3.63
  10  -9  -7   14.67    5.20
  10  -9  -7   19.45    4.06
   9  10  -7    9.58    3.25
  -9 -10   7   19.16    4.03
   9  10   7   10.95    3.73
  -9 -10   7   10.00    3.21
   9  10   7   19.17    3.50
 -10   9   7   18.29    3.50
 -11 -10  -7    2.89    2.89
  10 -11  -7    5.40    4.56
  11  10  -7    3.69    2.55
  10 -11  -7   11.11    3.57
 -11 -10   7   16.94    3.75
  11  10   7    6.47    3.11
 -10  11   7    6.73    2.88
  11  10   7    6.75    2.72
 -11 -10   7    4.64    2.73
  11   8  -7   -1.77    2.16
 -11  -8  -7    1.84    2.40
  11   8  -7   -3.62    2.10
   8 -11  -7    0.70    2.10
   8 -11  -7   -4.80    2.71
  11   8   7   -1.90    2.46
 -11  -8   7    3.49    2.33
   8 -11   7   -2.35    1.33
   8 -11   7   -0.45    1.18
 -11  -8   7   -1.83    3.12
  11   8   7   -1.70    2.42
  -8  11   7   -0.97    2.20
   6 -11  -7    4.04    1.96
   6 -11  -7    3.55    2.83
  11   6  -7   -0.43    2.11
  11   6  -7    0.11    2.09
 -11  -6  -7    4.19    2.27
  11   6   7   -0.97    2.04
   6 -11   7    2.99    1.58
 -11  -6   7   -2.47    3.44
   6 -11   7    1.71    1.27
  -6  11   7   -1.36    1.81
  11   6   7   -1.82    2.37
  -6  11   7    4.09    2.37
 -11  -6   7    3.79    2.25
   4 -11  -7    6.04    3.06
  11   4  -7   12.42    2.75
  11   4  -7    8.23    2.57
   4 -11  -7   11.09    2.48
 -11  -4  -7   12.84    2.50
 -11  -4  -7   10.28    2.54
  11   4   7    6.71    2.49
   4 -11   7   12.01    2.15
 -11  -4   7   11.74    3.37
  -4  11   7    8.52    2.50
   4 -11   7   15.41    2.41
  11   4   7    7.54    3.24
  -4  11   7    8.13    2.87
 -11  -4   7    5.76    2.62
  11   2  -7   25.20    5.10
 -11  -2  -7   27.70    4.50
   2 -11  -7   31.54    5.52
   2 -11  -7   25.44    4.85
  11   2  -7   24.48    5.19
 -11  -2  -7   28.71    4.59
 -11  -2   7   27.59    5.18
   2 -11   7   25.03    4.62
   2 -11   7   28.89    4.93
  11   2   7   25.31    5.11
  -2  11   7   28.61    4.99
  11   2   7   25.99    4.69
  -2  11   7   25.36    5.35
 -11  -2   7   28.58    5.64
  11   0  -7   55.16    9.66
  11   0  -7   74.11    9.75
   0  11  -7   58.78    9.25
   0  11  -7   66.07    9.24
   0 -11  -7   64.95    9.57
   0 -11  -7   61.48    9.90
 -11   0   7   65.89    9.72
   0 -11   7   50.04    9.43
   0  11   7   62.20    9.83
   0  11   7   66.93    9.61
  11   0   7   51.26    9.55
   0 -11   7   58.99    9.64
  11   0   7   63.54    9.35
 -11   0   7   66.80    9.87
  11  -2  -7   38.41    6.77
   2  11  -7   20.67    4.40
  -2 -11  -7   28.55    5.38
  -2 -11  -7   24.38    4.80
  11  -2  -7   22.04    4.90
   2  11  -7   22.01    4.50
   2  11   7   27.86    4.96
  -2 -11   7   27.58    5.08
  11  -2   7   29.04    4.26
  11  -2   7   29.46    4.56
   2  11   7   27.67    5.16
  -2 -11   7   19.07    4.63
 -11   2   7   28.40    5.11
  11  -4  -7   13.66    3.18
  11  -4  -7   10.74    2.69
   4  11  -7   10.04    2.28
   4  11  -7    5.65    2.40
  -4 -11  -7    8.23    2.91
  -4 -11  -7   12.44    2.67
 -11   4   7   12.21    4.09
 -11   4   7    6.98    2.84
  -4 -11   7    8.22    2.55
  11  -4   7   12.70    2.15
   4  11   7    8.43    2.87
  -4 -11   7   12.13    3.02
   4  11   7    8.32    2.96
  11  -4   7   11.51    2.21
  11  -6  -7   -1.99    2.79
  11  -6  -7    3.65    2.34
  -6 -11  -7   -1.45    2.07
  -6 -11  -7   -2.47    2.43
   6  11   7    0.10    2.17
  -6 -11   7    2.94    2.61
 -11   6   7    2.54    2.32
  -6 -11   7    4.37    2.27
 -11   6   7   -1.18    2.44
   6  11   7   -2.19    2.65
  11  -8  -7    0.80    3.70
  11  -8  -7    1.30    3.17
   8  11  -7    3.61    2.03
  -8 -11  -7   -0.50    2.60
   8  11   7    4.41    2.49
  -8 -11   7   -0.41    2.97
   8  11   7    1.55    2.87
 -11   8   7    4.40    2.35
  -8 -11   7    3.88    2.30
 -10 -11  -7    3.40    2.91
  11 -10  -7    4.88    3.49
  10  11  -7    5.16    2.37
  11 -10  -7   -2.49    2.63
 -10 -11   7    6.38    3.56
  10  11   7    1.16    2.87
 -10 -11   7    3.65    2.48
 -11  10   7   10.41    2.81
  10  11   7    8.87    2.73
  12  11  -7    4.57    2.52
 -12 -11  -7   -0.91    3.58
  11 -12  -7    7.08    3.59
  11 -12  -7    1.07    2.58
  12  11   7   -3.10    3.62
 -11  12   7    4.27    3.57
 -12 -11   7   -0.05    3.49
  12  11   7    1.42    2.84
 -12 -11   7    0.74    2.76
   9 -12  -7    6.09    3.28
   9 -12  -7   19.44    3.89
 -12  -9  -7    6.21    2.88
  12   9  -7    9.78    3.09
  12   9  -7    3.33    2.87
 -12  -9   7    7.73    3.06
  -9  12   7   11.67    3.11
  12   9   7    6.94    3.25
   9 -12   7   13.17    2.44
 -12  -9   7   17.95    4.07
   9 -12   7   17.13    2.64
  12   9   7   15.49    3.24
  12   7  -7    8.61    2.88
   7 -12  -7   10.51    2.69
 -12  -7  -7   10.61    3.07
   7 -12  -7   16.21    3.64
  12   7  -7    5.39    2.92
 -12  -7   7   16.96    3.88
  12   7   7   12.08    3.26
   7 -12   7   10.19    2.45
  -7  12   7   14.53    2.99
  12   7   7   15.03    2.98
   7 -12   7   11.10    2.32
 -12  -7   7    8.31    3.00
   5 -12  -7   16.66    3.73
  12   5  -7   11.41    3.08
 -12  -5  -7   12.96    3.08
  12   5  -7    7.38    3.04
   5 -12  -7   13.77    2.88
  -5  12   7   11.43    3.24
  12   5   7   17.02    3.00
  12   5   7   11.81    3.30
  -5  12   7   13.45    3.00
   5 -12   7   18.98    3.24
 -12  -5   7    7.53    3.10
 -12  -5   7   17.57    3.94
   5 -12   7   15.70    2.91
   3 -12  -7   10.03    3.07
 -12  -3  -7   12.19    2.38
   3 -12  -7    8.07    2.36
  12   3  -7    3.25    2.66
  12   3  -7    7.92    2.72
 -12  -3   7    6.46    2.71
  -3  12   7    9.10    4.46
  12   3   7    8.66    2.72
  -3  12   7   13.37    2.65
   3 -12   7    9.80    2.51
  12   3   7   13.33    2.58
   3 -12   7   10.53    2.22
 -12  -3   7    7.39    3.24
   1 -12  -7   10.81    3.04
  12   1  -7    3.62    2.44
  12   1  -7    7.71    2.60
   1 -12  -7   11.74    2.35
  -1  12  -7    5.51    1.53
  -1  12  -7    8.16    1.53
 -12  -1   7    8.20    3.11
  12   1   7    7.91    2.15
  12   1   7    6.87    2.43
  -1  12   7    8.34    2.36
  -1  12   7    7.35    2.57
   1 -12   7    6.82    2.51
   1 -12   7    8.21    2.15
 -12  -1   7    5.84    2.45
  12  -1  -7    9.07    2.66
  -1 -12  -7    9.65    2.89
   1  12  -7    8.99    3.09
  -1 -12  -7   10.27    2.55
  12  -1  -7    7.75    2.73
  12  -1   7    8.72    2.07
  -1 -12   7    7.20    2.69
   1  12   7    8.54    2.57
  12  -1   7    8.25    2.35
 -12   1   7   13.26    3.19
 -12   1   7    3.90    2.81
   1  12   7   10.79    2.82
  -1 -12   7    6.75    2.24
  -3 -12  -7   10.13    2.73
  -3 -12  -7   13.74    3.27
  12  -3  -7   12.92    2.82
   3  12  -7   10.12    2.31
  12  -3  -7    6.98    3.07
  12  -3   7    9.04    2.32
 -12   3   7   11.61    2.99
  -3 -12   7    9.94    2.54
   3  12   7   11.16    3.08
  12  -3   7   10.96    2.12
   3  12   7   11.39    2.81
  -3 -12   7    7.73    3.04
  -5 -12  -7   13.61    3.18
  12  -5  -7   10.90    3.58
  -5 -12  -7   14.60    3.47
  12  -5  -7   13.03    3.10
   5  12  -7   11.99    2.76
  -5 -12   7   10.61    3.06
  -5 -12   7   12.63    3.50
   5  12   7    9.93    3.40
  12  -5   7   14.80    2.92
 -12   5   7   11.00    3.36
  12  -5   7   15.23    2.55
   5  12   7   17.20    3.18
 -12   5   7   16.38    3.34
  12  -7  -7   11.84    3.65
   7  12  -7    9.78    2.84
  -7 -12  -7    6.54    3.28
  -7 -12  -7    8.34    2.94
  -7 -12   7   13.70    3.49
 -12   7   7   10.50    3.03
  -7 -12   7    9.93    2.97
   7  12   7   15.34    3.24
   7  12   7    9.61    3.30
  12  -9  -7   12.92    3.27
   9  12  -7    5.74    2.71
  12  -9  -7   10.26    3.88
  -9 -12  -7   13.35    3.46
 -12   9   7   13.04    3.68
   9  12   7    5.26    3.42
  -9 -12   7   15.20    3.77
  -9 -12   7   11.83    3.10
   9  12   7   14.51    3.39
 -11 -12  -7    3.21    2.94
  11  12  -7   -0.66    2.25
  12 -11  -7    2.72    2.71
  12 -11  -7    6.56    3.67
  11  12   7    3.62    2.76
 -11 -12   7    1.35    2.70
  11  12   7   -0.51    2.89
 -11 -12   7    4.86    3.52
  12 -13  -7    2.09    2.78
  13  12  -7   -2.27    2.56
  12 -13  -7    6.64    3.83
 -13 -12  -7   -0.14    5.14
 -13 -12   7    0.97    4.10
 -12  13   7   -0.10    2.41
 -13 -12   7    6.11    5.43
  13  12   7   -1.70    2.90
  13  12   7    2.59    3.27
  10 -13  -7    2.96    3.37
  13  10  -7    2.40    2.65
  10 -13  -7    4.05    4.49
 -13 -10  -7    2.50    1.95
  13  10   7    3.74    3.08
  10 -13   7    1.57    1.42
 -10  13   7    0.07    2.68
  13  10   7    3.89    3.12
 -13 -10   7    1.74    2.75
  10 -13   7    2.09    1.25
 -13 -10   7    4.89    3.86
   8 -13  -7    2.03    2.12
 -13  -8  -7    0.92    2.65
  13   8  -7    4.99    2.59
  13   8  -7   -0.98    2.39
   8 -13  -7    2.04    3.15
   8 -13   7    2.93    1.63
   8 -13   7    3.81    1.48
  13   8   7    4.38    2.79
 -13  -8   7    5.80    3.48
  13   8   7   -5.36    2.47
  -8  13   7    2.70    2.39
 -13  -8   7   -0.81    2.51
  13   6  -7   -2.10    2.80
 -13  -6  -7    2.80    2.40
  13   6  -7   -0.54    2.38
   6 -13  -7    1.13    2.93
   6 -13  -7    2.96    2.00
   6 -13   7   -0.10    1.73
 -13  -6   7   -1.25    3.32
  13   6   7    0.72    2.44
   6 -13   7    1.92    1.55
 -13  -6   7   -2.33    2.36
  13   6   7    4.61    2.28
  -6  13   7    1.74    2.14
   4 -13  -7   -0.57    1.80
 -13  -4  -7    0.77    1.98
  13   4  -7    0.89    2.28
   4 -13  -7    2.98    2.67
  13   4  -7    2.77    2.43
  -4  13   7    0.62    1.98
   4 -13   7    2.15    1.57
   4 -13   7    1.94    2.05
 -13  -4   7    3.06    3.20
 -13  -4   7   -1.96    2.25
  -4  13   7    3.34    2.48
  13   4   7    0.47    2.40
  13   4   7   -1.67    2.19
  13   2  -7    2.05    2.26
 -13  -2  -7    2.56    1.50
   2 -13  -7    0.14    2.98
  13   2  -7   -0.23    2.30
   2 -13  -7    1.68    1.90
  -2  13   7    2.94    1.96
  13   2   7    1.59    2.20
  13   2   7    1.59    1.92
   2 -13   7   -2.41    1.98
  -2  13   7   -0.84    2.33
   2 -13   7    0.43    1.63
 -13  -2   7   -2.16    2.92
  13   0  -7    1.23    2.26
  13   0  -7    2.85    2.32
   0 -13  -7    3.17    2.11
   0  13  -7    2.04    1.28
   0 -13  -7   -0.31    3.15
 -13   0   7    3.40    2.90
 -13   0   7    2.76    2.27
   0 -13   7    2.37    2.26
   0 -13   7   -0.26    1.67
   0  13   7    3.31    2.47
  13   0   7    1.50    2.03
   0  13   7    4.01    2.06
  13   0   7    1.64    1.77
  -2 -13  -7    1.33    2.75
   2  13  -7    0.36    1.50
  -2 -13  -7    2.62    2.17
  13  -2  -7    1.23    2.17
  13  -2  -7   -1.49    2.60
 -13   2   7   -2.04    2.83
  -2 -13   7    1.70    2.42
   2  13   7   -1.09    2.54
   2  13   7   -0.80    2.08
 -13   2   7    3.60    2.46
  -2 -13   7    1.85    1.74
  13  -2   7    1.59    1.79
  13  -2   7    2.81    1.55
  -4 -13  -7   -0.81    3.48
  -4 -13  -7    1.91    2.77
  13  -4  -7    1.30    2.29
  13  -4  -7   -2.77    2.64
   4  13  -7   -0.59    1.64
   4  13   7   -1.32    2.63
  -4 -13   7    2.89    2.64
   4  13   7   -0.93    2.24
  13  -4   7    2.60    1.82
  -4 -13   7    5.78    2.18
  13  -4   7    1.07    1.33
 -13   4   7   -6.06    3.84
   6  13  -7   -1.38    1.60
  -6 -13  -7    7.95    2.65
  -6 -13  -7    3.50    2.90
  13  -6  -7    1.60    2.86
  13  -6  -7   -1.85    3.03
  -6 -13   7   -1.00    2.67
   6  13   7    2.53    2.82
  -6 -13   7    1.97    2.43
   6  13   7    4.73    2.63
  13  -6   7    3.47    1.16
  13  -6   7    4.31    1.31
 -13   6   7   -1.13    2.55
  13  -8  -7   -1.61    2.93
  13  -8  -7    4.77    3.51
  -8 -13  -7    4.13    2.99
   8  13   7    0.57    2.59
 -13   8   7    1.09    4.57
  -8 -13   7   -1.53    2.56
   8  13   7    3.79    2.90
  -8 -13   7    1.36    3.17
 -10 -13  -7    3.20    3.06
  10  13  -7    4.10    2.27
  13 -10  -7   -0.81    3.55
  13 -10  -7    1.04    2.80
  10  13   7    1.58    3.06
 -10 -13   7    3.28    3.80
  10  13   7    2.39    2.93
 -10 -13   7    0.33    2.71
  13 -12  -7    0.73    4.04
  13 -12  -7   -2.76    2.79
 -12 -13  -7   -0.59    3.20
  12  13  -7    0.35    2.48
 -13  12   7   -1.85    2.63
 -12 -13   7    2.21    4.11
  12  13   7   -3.74    2.97
 -12 -13   7   -0.56    2.79
  12  13   7    0.23    3.28
  13 -14  -7    1.13    2.89
  13 -14  -7   -2.94    4.14
 -14 -13  -7    3.54    3.64
  14  13  -7    2.66    2.84
 -14 -13   7   -5.93    4.52
  14  13   7   -1.75    3.57
 -14 -13   7    0.82    3.39
  14  13   7   -1.58    6.01
 -13  14   7   -1.44    3.12
  11 -14  -7    5.91    4.24
  14  11  -7    7.03    2.98
  11 -14  -7    5.22    3.85
  11 -14   7    5.13    1.50
 -11  14   7   -1.87    2.63
  11 -14   7    5.21    1.63
  14  11   7    3.78    3.37
  14  11   7    2.45    5.20
 -14 -11   7    3.76    4.10
 -14 -11   7    5.79    3.27
  14   9  -7   21.03    3.97
   9 -14  -7   14.79    3.65
 -14  -9  -7    9.26    3.95
   9 -14  -7   15.27    4.39
   9 -14   7   35.69    4.20
 -14  -9   7   27.95    4.83
  -9  14   7   18.64    4.55
  14   9   7   22.93    4.06
  14   9   7    4.77    3.90
   9 -14   7   17.15    3.31
 -14  -9   7    9.76    3.91
  14   7  -7    8.32    3.44
   7 -14  -7   16.03    3.35
  14   7  -7   22.83    5.07
   7 -14  -7   19.17    4.24
 -14  -7  -7   10.03    3.61
  14   7   7   17.18    3.55
 -14  -7   7   15.10    4.95
   7 -14   7   20.63    3.27
 -14  -7   7    5.69    3.58
  -7  14   7   14.71    3.38
   7 -14   7   23.71    3.58
  14   7   7   13.22    3.68
   5 -14  -7   19.56    4.19
  14   5  -7   16.65    3.80
   5 -14  -7   14.01    3.35
  14   5  -7   13.09    3.68
 -14  -5  -7   15.18    3.64
  14   5   7   15.80    3.72
   5 -14   7   23.56    3.87
  -5  14   7   28.15    4.40
 -14  -5   7   20.50    4.57
 -14  -5   7    8.32    3.69
   5 -14   7   18.11    3.61
  14   5   7   23.15    3.78
   3 -14  -7    7.26    2.57
   3 -14  -7   10.96    3.48
  14   3  -7    9.28    2.95
  14   3  -7    4.60    2.82
 -14  -3  -7    8.14    2.37
  -3  14   7    6.78    2.62
  -3  14   7   12.54    4.64
 -14  -3   7   14.95    4.08
   3 -14   7    9.72    2.66
   3 -14   7    8.45    2.31
  14   3   7   13.19    2.70
 -14  -3   7   11.85    3.13
  14   3   7   14.10    2.85
  14   1  -7    2.49    2.53
  14   1  -7    2.76    2.52
   1 -14  -7    1.44    2.80
   1 -14  -7    1.12    2.08
  -1  14  -7    0.81    1.10
   1 -14   7   -0.20    1.86
 -14  -1   7   -2.64    2.31
   1 -14   7    0.94    2.43
  -1  14   7    3.71    2.16
  -1  14   7    2.11    2.54
  14   1   7    4.42    2.27
 -14  -1   7    4.47    3.41
  14   1   7    1.74    1.89
  -1 -14  -7    1.09    2.96
  14  -1  -7    2.63    2.53
  -1 -14  -7    2.29    2.25
  14  -1  -7    0.45    2.42
   1  14  -7    1.43    1.54
  -1 -14   7    0.13    1.81
   1  14   7    2.00    2.81
 -14   1   7    3.00    3.05
  -1 -14   7    2.94    2.64
  14  -1   7    4.78    1.80
   1  14   7    5.19    2.26
  14  -1   7    3.28    2.04
 -14   1   7    1.07    3.16
  -3 -14  -7    6.45    3.28
   3  14  -7    7.59    2.25
  14  -3  -7    9.43    3.27
  14  -3  -7    8.21    2.85
  -3 -14  -7   11.92    3.36
  -3 -14   7    8.70    3.25
  14  -3   7   16.36    2.71
 -14   3   7   16.83    3.68
   3  14   7   11.83    2.95
   3  14   7    7.12    3.28
  14  -3   7    8.19    2.36
  -3 -14   7    8.25    2.52
  14  -5  -7   25.47    4.25
   5  14  -7   14.88    3.30
  -5 -14  -7   30.49    5.26
  -5 -14  -7   19.92    3.92
  14  -5  -7   15.26    3.93
  14  -5   7   17.05    3.23
  -5 -14   7   15.02    4.09
 -14   5   7   26.11    4.55
  14  -5   7   19.19    3.54
  -5 -14   7   11.69    3.58
   5  14   7   12.57    4.05
   5  14   7   18.15    3.75
  14  -7  -7   26.84    4.37
  -7 -14  -7   15.28    4.06
   7  14   7   11.51    3.87
   7  14   7   17.20    3.86
  -7 -14   7   11.81    3.60
  -7 -14   7   17.01    4.27
  14  -9  -7   21.04    4.52
  -9 -14  -7   18.03    4.12
  14  -9  -7   16.28    3.81
   9  14  -7   14.19    3.41
  -9 -14   7   11.61    3.96
  -9 -14   7   16.01    4.71
   9  14   7   17.80    3.93
   9  14   7   14.75    4.07
  14 -11  -7    7.01    3.14
  11  14  -7    9.74    2.64
  14 -11  -7    8.86    4.74
 -11 -14  -7   -2.89    3.13
 -14  11   7    0.69    2.88
 -11 -14   7    2.84    3.03
 -11 -14   7    4.47    4.20
  11  14   7    6.22    3.25
  11  14   7    0.94    3.25
  14 -13  -7    1.11    3.01
 -13 -14  -7    3.07    3.54
  14 -13  -7   -0.30    4.34
  13  14  -7    2.14    2.64
 -14  13   7   -5.79    3.10
  13  14   7    3.88    3.56
  13  14   7    2.31    3.44
 -13 -14   7    1.38    4.64
 -13 -14   7   -2.31    3.29
  14 -15  -7   -5.53    3.08
  15  14  -7    0.50    3.14
  14 -15  -7    0.88    4.63
 -15 -14  -7    3.69    3.77
 -15 -14   7    9.69    5.15
  15  14   7   -0.56    3.74
  15  14   7    2.15    3.85
 -14  15   7   -3.18    3.53
  12 -15  -7   -3.39    3.42
  15  12  -7    7.11    4.53
  12 -15  -7   -2.84    4.02
 -15 -12   7   -0.36    4.64
  15  12   7   -1.43    3.63
  12 -15   7   -0.30    1.32
  12 -15   7    1.37    1.74
 -12  15   7   -2.00    3.16
  15  12   7   -0.63    3.49
  15  10  -7    6.43    3.19
 -15 -10  -7    0.21    3.10
  10 -15  -7    0.48    2.76
  10 -15  -7   -1.91    4.12
  10 -15   7   -2.58    1.64
  15  10   7   -1.85    3.13
 -15 -10   7   -4.18    4.03
  15  10   7    0.49    3.31
  10 -15   7   -0.63    1.53
 -15  -8  -7   -1.85    2.88
  15   8  -7   -0.53    2.68
   8 -15  -7   -2.29    3.39
   8 -15  -7    0.33    2.31
  15   8  -7   -0.63    3.07
  -8  15   7   -4.75    3.95
   8 -15   7   -1.86    1.53
   8 -15   7    5.55    2.02
 -15  -8   7    0.22    3.89
  15   8   7    1.36    2.96
 -15  -8   7   -1.63    3.66
  15   6  -7    2.69    2.54
   6 -15  -7    1.41    3.23
  15   6  -7    0.20    2.48
 -15  -6  -7    1.71    2.93
   6 -15  -7   -0.67    2.10
  15   6   7    3.95    2.83
 -15  -6   7    0.97    2.98
  15   6   7   -1.76    2.63
  -6  15   7    1.86    2.36
 -15  -6   7    1.05    3.52
   6 -15   7    5.06    1.87
  15   4  -7   -1.79    2.32
   4 -15  -7    1.46    2.13
   4 -15  -7   -0.45    2.91
  15   4  -7    3.12    2.53
 -15  -4  -7    2.21    2.13
 -15  -4   7    1.58    4.38
   4 -15   7    1.03    1.81
  -4  15   7   -2.58    2.15
  15   4   7    4.56    2.44
   4 -15   7    2.54    2.10
  15   4   7   -1.06    2.44
 -15  -4   7    5.86    3.73
  15   2  -7    1.51    2.58
   2 -15  -7    2.98    3.02
   2 -15  -7   -2.17    2.13
  15   2  -7   -0.88    2.49
  15   2   7    2.79    2.16
  -2  15   7    2.85    2.35
   2 -15   7    3.43    2.34
  15   2   7   -0.07    2.31
   2 -15   7    2.19    1.72
 -15  -2   7   -1.79    3.44
  15   0  -7    0.85    2.57
   0  15  -7   -0.64    1.28
   0 -15  -7   -8.55    2.91
  15   0  -7    0.12    2.57
   0 -15  -7   -2.18    2.11
   0 -15   7    0.05    1.78
 -15   0   7   -1.96    3.38
  15   0   7   -0.83    2.10
   0  15   7    3.27    2.20
   0  15   7   -0.88    2.73
  15   0   7    2.27    1.94
   0 -15   7   -2.38    2.39
  -2 -15  -7    0.79    2.48
   2  15  -7   -0.67    1.66
  15  -2  -7   -0.35    2.50
  -2 -15  -7    2.11    2.93
  15  -2  -7    1.15    2.60
 -15   2   7    5.59    3.38
  -2 -15   7    4.15    2.81
  15  -2   7    0.05    1.84
  15  -2   7   -0.40    1.72
  -2 -15   7    0.52    1.92
   2  15   7   -0.05    2.29
   2  15   7    1.83    2.82
  15  -4  -7   -0.19    2.92
  -4 -15  -7    1.50    3.06
  -4 -15  -7    1.17    2.58
   4  15  -7   -0.80    1.72
  15  -4  -7    1.56    2.71
  15  -4   7    2.52    1.72
  -4 -15   7    2.54    1.96
   4  15   7    5.04    2.58
 -15   4   7    3.66    3.42
  -4 -15   7    1.25    3.10
  15  -4   7   -1.39    1.60
   4  15   7    0.57    2.99
  15  -6  -7   -0.31    3.10
   6  15  -7    1.00    1.88
  -6 -15  -7   -1.01    3.08
  15  -6  -7    1.38    2.95
  15  -6   7    0.23    1.44
  -6 -15   7    3.04    3.51
  -6 -15   7    0.76    2.45
  15  -6   7    5.22    1.85
   6  15   7    2.90    2.56
   6  15   7    6.62    5.71
  15  -8  -7   -4.48    3.37
  -8 -15  -7    3.10    3.23
  15  -8  -7   -0.71    3.37
   8  15   7   -2.57    2.95
   8  15   7    2.00    3.39
  -8 -15   7    0.42    3.57
 -10 -15  -7   -2.68    3.17
  15 -10  -7   -1.92    3.03
  10  15  -7    0.12    2.33
  10  15   7   -0.01    3.26
 -10 -15   7    1.37    3.15
 -10 -15   7    2.03    3.96
  10  15   7   -0.89    3.49
  15 -12  -7    1.95    3.31
  12  15  -7    0.20    2.60
 -12 -15  -7    1.33    3.40
  15 -12  -7   -6.28    4.10
  12  15   7    0.46    3.53
  12  15   7    2.55    3.73
 -12 -15   7    4.27    4.54
 -12 -15   7    1.18    3.48
  15 -14  -7    3.44    4.89
  15 -14  -7   -1.23    3.36
 -14 -15  -7    4.04    3.84
  14  15  -7    2.54    2.99
  14  15   7    5.89    4.44
 -15  14   7   -8.91    3.42
 -14 -15   7    7.74    5.00
  14  15   7    6.45    3.86
  13 -16  -7    4.94    3.49
  13 -16  -7   -3.09    4.64
  16  13  -7    5.87    3.27
  13 -16   7    0.25    1.77
  16  13   7    2.58    4.02
  13 -16   7    2.68    1.51
 -16 -13   7   -1.37    5.18
  16  13   7   -2.08    4.03
 -13  16   7   -4.49    3.52
  16  11  -7    5.50    3.28
  11 -16  -7    7.89    3.77
 -16 -11  -7    1.17    3.40
  11 -16  -7    1.56    4.14
 -11  16   7    2.31    3.35
  11 -16   7    3.71    1.90
  16  11   7   -4.21    3.45
  11 -16   7    2.95    1.73
 -16 -11   7   14.21    5.11
 -16  -9  -7    6.34    3.57
   9 -16  -7    4.19    2.94
   9 -16  -7   25.30    6.44
  16   9  -7    8.74    3.36
   9 -16   7    8.17    2.41
 -16  -9   7   10.49    4.46
  16   9   7    8.75    3.49
   9 -16   7   10.71    2.22
  16   9   7    7.18    3.47
  16   7  -7    7.51    3.40
 -16  -7  -7   12.37    3.73
   7 -16  -7    8.50    3.66
  16   7  -7    7.82    3.13
   7 -16  -7    2.97    2.54
  16   7   7   10.95    3.31
   7 -16   7    8.50    2.25
  -7  16   7    9.72    2.87
  16   7   7    4.19    3.14
   7 -16   7   10.27    2.60
 -16  -7   7   10.66    5.09
 -16  -5  -7    8.26    3.15
   5 -16  -7   10.69    3.77
  16   5  -7   10.11    3.44
   5 -16  -7   11.42    2.91
  16   5   7   12.95    3.35
   5 -16   7   11.13    2.63
   5 -16   7   14.62    3.07
 -16  -5   7   14.27    4.27
  16   5   7    6.36    4.54
  -5  16   7   13.89    3.18
  16   3  -7    9.24    3.35
  16   3  -7   10.55    3.32
 -16  -3  -7    8.55    3.00
   3 -16  -7   10.23    3.01
   3 -16  -7   15.92    4.01
   3 -16   7   11.02    2.69
 -16  -3   7   12.06    4.16
  16   3   7    7.80    3.07
  -3  16   7   11.96    2.98
  16   3   7   14.41    3.16
   3 -16   7   15.98    3.08
   1 -16  -7   11.52    3.08
  16   1  -7   10.15    3.40
   1 -16  -7    8.90    3.75
  -1  16  -7   11.28    2.99
  16   1  -7   11.98    3.28
  -1  16   7   14.43    3.10
   1 -16   7    9.94    2.71
   1 -16   7   16.73    4.80
  16   1   7   14.59    4.19
  16   1   7    9.68    2.99
 -16  -1   7    9.45    4.35
  -1 -16  -7   10.28    3.29
  16  -1  -7   14.67    3.53
  16  -1  -7   10.95    3.54
   1  16  -7   12.55    2.58
  -1 -16  -7   15.04    4.01
  -1 -16   7    7.94    4.96
 -16   1   7   11.38    4.40
  16  -1   7   12.19    3.08
  16  -1   7   19.19    4.26
  -1 -16   7    9.51    2.86
   1  16   7   17.95    3.42
   3  16  -7   16.74    4.39
  16  -3  -7   15.03    3.68
  16  -3  -7   14.46    3.68
  -3 -16  -7   12.77    3.69
  -3 -16  -7   13.22    4.17
  16  -3   7   15.20    3.91
  -3 -16   7   12.87    3.16
  -3 -16   7   18.02    4.16
  16  -3   7   13.80    4.11
   3  16   7   14.82    3.61
   3  16   7   14.20    5.38
 -16   3   7   17.82    4.56
  -5 -16  -7   12.64    4.04
   5  16  -7   12.59    2.77
  16  -5  -7    7.98    3.53
  16  -5  -7   18.77    3.91
 -16   5   7    7.72    6.89
  16  -5   7   17.29    2.89
   5  16   7    6.54    3.64
  -5 -16   7    8.28    3.05
  -5 -16   7   12.26    4.08
  16  -5   7    9.54    2.75
   5  16   7   17.43    3.50
  16  -7  -7   11.59    6.05
  -7 -16  -7    4.69    3.52
   7  16  -7   11.77    2.60
  16  -7  -7   13.04    3.91
  -7 -16   7   15.95    4.14
  16  -7   7    8.97    2.02
   7  16   7    5.91    3.51
  -7 -16   7    1.48    2.90
   7  16   7    9.28    3.43
  16  -9  -7    8.85    4.42
   9  16  -7    4.91    3.16
  -9 -16  -7    9.15    3.56
  16  -9  -7    6.79    3.58
  -9 -16   7    7.57    3.34
   9  16   7    9.78    3.63
   9  16   7   10.27    4.04
 -16   9   7   11.36    4.55
  -9 -16   7   12.06    4.40
  16 -11  -7    4.03    3.41
  11  16  -7   -1.77    2.50
  16 -11  -7    1.60    4.17
 -11 -16  -7    2.09    3.62
  11  16   7    7.61    3.70
 -11 -16   7    1.83    3.50
  11  16   7    0.43    3.95
 -11 -16   7    2.16    4.55
  13  16  -7    3.15    2.94
  16 -13  -7    4.78    3.73
 -13 -16  -7    4.11    3.86
  16 -13  -7    5.77    4.72
  13  16   7    2.62    4.13
 -13 -16   7    0.05    3.79
 -13 -16   7   -0.50    5.73
  13  16   7   -2.33    5.86
 -17 -12  -7    1.46    3.79
  17  12  -7    6.59    3.48
  12 -17  -7    4.20    4.44
 -17 -12   7    1.79    5.32
  12 -17   7    7.31    2.11
  17  12   7    1.63    3.81
  17  12   7    1.74    4.10
 -12  17   7   -4.10    3.60
  12 -17   7   -1.36    1.79
  10 -17  -7   -3.12    2.64
 -17 -10  -7   -0.16    3.44
  17  10  -7    3.60    3.46
  10 -17  -7   -0.28    3.83
  10 -17   7    1.45    1.86
 -10  17   7   -1.74    3.19
  17  10   7    0.74    3.34
  10 -17   7    4.64    2.19
 -17 -10   7    3.96    4.99
  17  10   7    3.35    3.67
   8 -17  -7    1.34    2.39
   8 -17  -7   -6.28    4.30
  17   8  -7    4.23    3.09
 -17  -8  -7    2.00    3.93
  17   8   7   -0.70    3.21
  17   8   7   -5.89    3.17
   8 -17   7    1.35    1.91
   8 -17   7   -0.36    2.43
 -17  -8   7    0.67    4.42
  17   6  -7    5.67    3.09
   6 -17  -7    3.56    3.50
  17   6  -7   -2.37    2.78
   6 -17  -7    3.85    2.46
 -17  -6  -7    6.11    2.99
   6 -17   7    3.05    2.51
  17   6   7   -0.13    2.94
 -17  -6   7    4.07    4.19
  17   6   7    8.79    3.10
   6 -17   7    3.93    2.49
  -6  17   7    2.72    2.68
   4 -17  -7    4.85    3.76
 -17  -4  -7    7.67    2.81
  17   4  -7    9.52    3.25
   4 -17  -7    5.25    2.74
  17   4  -7    3.55    3.08
  -4  17   7   10.11    2.85
  17   4   7    6.34    2.95
   4 -17   7    8.38    2.37
  17   4   7    7.81    3.12
   4 -17   7   11.30    2.92
 -17  -4   7   10.24    4.14
  17   2  -7   12.46    3.54
  17   2  -7    6.42    3.50
   2 -17  -7   10.67    3.22
   2 -17  -7   10.11    3.91
 -17  -2   7   18.13    4.58
  17   2   7   14.49    3.18
  17   2   7   11.82    3.27
   2 -17   7   10.82    2.80
  -2  17   7   12.90    3.11
   2 -17   7   11.40    3.25
   0 -17  -7    8.90    3.15
   0 -17  -7   14.59    4.06
   0  17  -7   11.05    2.46
  17   0  -7    6.92    3.44
  17   0  -7   10.23    3.44
   0 -17   7   10.98    3.25
  17   0   7   10.47    2.82
 -17   0   7   10.18    4.52
   0  17   7    9.13    3.04
   0 -17   7    9.54    2.63
  17   0   7   11.86    2.83
   2  17  -7    8.72    2.46
  -2 -17  -7   11.98    3.54
  17  -2  -7   12.57    3.45
  17  -2  -7    6.91    3.38
  -2 -17  -7   11.72    3.91
  -2 -17   7    8.99    3.34
 -17   2   7   15.59    4.55
  17  -2   7   13.06    2.67
  -2 -17   7    8.78    2.76
  17  -2   7    7.14    2.86
   2  17   7   14.88    3.26
  -4 -17  -7    8.34    3.62
  -4 -17  -7    6.36    3.61
  17  -4  -7    9.31    3.33
  17  -4  -7    3.06    3.22
   4  17  -7    4.40    2.47
 -17   4   7    6.29    6.45
  17  -4   7    8.51    2.25
   4  17   7    6.37    2.96
  17  -4   7    7.98    2.61
  -4 -17   7    5.76    2.57
  -4 -17   7    4.02    3.12
  17  -6  -7    8.20    3.84
   6  17  -7    2.42    2.17
  17  -6  -7    6.90    3.24
  -6 -17  -7    4.29    3.52
  17  -6   7    5.98    2.27
  17  -6   7    2.01    1.80
  -6 -17   7    4.24    3.50
  -6 -17   7    3.49    2.60
   6  17   7    2.27    2.86
  17  -8  -7    0.78    3.75
  -8 -17  -7    2.14    5.85
  17  -8  -7    5.28    5.58
 -17   8   7    1.69    4.94
  -8 -17   7   -4.18    3.69
  -8 -17   7   -1.63    3.02
   8  17   7    4.48    3.27
  17  -8   7   -0.41    1.46
 -10 -17  -7   -0.88    3.54
  17 -10  -7   -5.98    4.07
  17 -10  -7   -1.06    3.41
  10  17  -7   -1.61    2.68
  10  17   7    0.01    3.55
 -10 -17   7   -0.08    4.14
 -17  10   7   -3.30    4.36
 -10 -17   7    0.56    3.41
 -12 -17  -7    4.51    3.99
  17 -12  -7    2.11    3.92
  17 -12  -7    4.40    4.60
  12  17  -7   -2.36    2.73
  12  17   7   -1.92    3.93
 -17  12   7    4.09    4.84
 -12 -17   7    9.11    4.88
  18   9  -7    3.74    3.59
 -18  -9  -7    4.80    4.29
   9 -18  -7    0.32    2.59
   9 -18  -7   -1.43    4.23
  18   9   7   -3.24    3.40
  -9  18   7   -0.50    4.36
 -18  -9   7    1.21    5.14
   9 -18   7    3.10    2.34
  18   9   7    0.58    3.37
   9 -18   7    0.41    2.05
 -18  -7  -7    0.36    3.15
   7 -18  -7    2.98    2.48
  18   7  -7    3.29    3.21
   7 -18  -7   -1.64    3.66
  -7  18   7    1.70    3.54
  18   7   7    1.63    3.07
 -18  -7   7    1.27    4.44
   7 -18   7    0.62    2.73
   7 -18   7    3.75    2.04
  18   7   7   -2.77    3.17
 -18  -5  -7    1.96    3.16
   5 -18  -7   -0.02    2.55
  18   5  -7   -2.45    2.91
  18   5  -7    6.30    3.14
   5 -18  -7    5.44    3.53
   5 -18   7    9.18    2.82
 -18  -5   7    6.73    4.25
  -5  18   7    3.35    2.74
   5 -18   7    0.67    2.05
  18   5   7   -1.40    2.89
  18   5   7    6.62    3.07
  18   3  -7   -1.09    2.97
   3 -18  -7    0.10    2.64
  18   3  -7    4.50    3.14
   3 -18  -7    6.87    3.80
  18   3   7    6.65    2.79
  -3  18   7    1.73    2.48
 -18  -3   7   -0.19    3.89
   3 -18   7    2.58    2.19
   3 -18   7    3.33    2.87
  18   3   7    1.50    2.65
  18   1  -7   -0.25    3.08
  18   1  -7    0.55    2.95
   1 -18  -7    8.84    3.70
   1 -18  -7    3.27    2.75
   1 -18   7    8.14    2.95
   1 -18   7   -1.53    2.05
  -1  18   7    4.91    2.63
 -18  -1   7   -2.97    4.08
  18   1   7   -2.21    2.40
  18   1   7   -1.11    2.49
  18  -1  -7    0.49    3.15
   1  18  -7    4.00    2.01
  -1 -18  -7    5.79    3.05
  18  -1  -7    7.07    3.31
  -1 -18  -7   11.36    3.88
 -18   1   7   -2.03    4.42
  -1 -18   7    3.29    3.20
  -1 -18   7    4.90    2.37
  18  -1   7    3.40    2.52
  18  -1   7    0.41    2.39
   1  18   7    5.86    2.99
  -3 -18  -7   -1.30    3.59
   3  18  -7    3.93    2.10
  -3 -18  -7    2.42    3.17
  18  -3  -7    0.72    3.18
  18  -3  -7    5.15    3.26
   3  18   7    2.33    2.72
  18  -3   7    5.83    2.69
  -3 -18   7    3.86    2.40
  18  -3   7    3.65    2.26
 -18   3   7    5.09    5.88
  -3 -18   7    3.95    3.17
  -5 -18  -7   -0.02    3.67
  18  -5  -7    3.77    3.98
   5  18  -7   -0.21    2.26
  18  -5  -7    2.86    3.40
  18  -5   7    5.64    2.14
  18  -5   7    7.00    2.53
  -5 -18   7    5.28    2.54
   5  18   7    5.34    3.18
  -5 -18   7    2.25    3.45
  -7 -18  -7    6.94    3.96
  18  -7  -7    3.05    3.77
   7  18  -7   -0.29    2.23
  18  -7  -7    0.15    3.94
  -7 -18   7    1.26    2.87
 -18   7   7   -1.34    4.96
  18  -7   7    1.54    1.81
   7  18   7    3.18    3.20
  -7 -18   7   -3.68    3.55
  18  -9  -7    3.77    3.89
  -9 -18  -7    2.99    4.00
  18  -9  -7    5.74    4.08
   9  18   7    4.84    3.62
  -9 -18   7    3.74    4.22
 -18   9   7   -4.53    4.62
  18  -9   7   -1.60    1.53
  -9 -18   7   -0.15    3.31
  18  -9   7    0.18    1.69
  19   8  -7    1.30    3.56
   8 -19  -7   -0.31    4.14
   8 -19  -7    1.75    2.76
 -19  -8  -7    3.73    3.65
   8 -19   7    0.31    2.20
  19   8   7    1.28    3.63
 -19  -8   7   -8.08    7.68
  19   8   7    3.40    3.30
   8 -19   7    6.64    2.56
   6 -19  -7    6.88    3.98
  19   6  -7    0.56    3.46
   6 -19  -7   -0.64    2.64
  19   6  -7   -1.95    4.01
 -19  -6  -7    3.85    4.12
   6 -19   7    6.37    3.09
  -6  19   7    2.74    4.32
 -19  -6   7   -0.16    4.46
  19   6   7    4.66    3.29
  19   6   7    1.11    2.98
   4 -19  -7    8.25    4.98
   4 -19  -7    2.76    2.87
  19   4  -7    9.72    3.58
  19   4  -7    1.30    3.44
  19   4   7    3.74    3.07
  19   4   7    2.32    2.95
 -19  -4   7    6.77    4.53
   4 -19   7    3.30    3.09
   4 -19   7   10.81    2.60
  -4  19   7    9.65    2.98
   2 -19  -7   10.17    3.33
   2 -19  -7   12.59    4.28
  19   2  -7   15.83    3.64
  19   2  -7   -0.03    3.58
  19   2   7   12.92    3.30
   2 -19   7    8.65    3.42
  19   2   7    7.74    3.25
  -2  19   7   10.04    3.10
   2 -19   7    5.93    2.68
 -19  -2   7    7.87    4.49
   0 -19  -7   12.23    4.27
   0 -19  -7   11.00    3.82
  19   0  -7   13.58    3.71
  19   0  -7   -1.20    3.70
   0 -19   7   12.27    3.66
 -19   0   7   13.66    4.80
   0  19   7   10.23    3.39
  19   0   7    9.80    3.24
  19   0   7   11.83    3.23
   0 -19   7   13.92    2.93
  -2 -19  -7    9.73    4.26
  -2 -19  -7    4.08    3.68
   2  19  -7   11.38    2.67
  19  -2  -7    4.93    3.82
  19  -2   7   11.31    5.19
 -19   2   7    9.97    6.11
  -2 -19   7    7.49    3.60
   2  19   7   17.74    3.52
  19  -2   7   14.12    3.05
  -2 -19   7   10.11    2.87
  -4 -19  -7    6.80    3.84
   4  19  -7    2.56    2.33
  19  -4  -7    2.69    3.60
  19  -4  -7    5.13    3.47
  19  -4   7    3.53    2.32
  -4 -19   7    3.91    2.59
  19  -4   7    5.16    2.81
   4  19   7    4.52    3.25
  -4 -19   7    3.60    3.52
  19  -6  -7    6.78    3.81
  19  -6  -7    3.98    3.71
  -6 -19  -7   -0.09    3.98
   6  19  -7    1.35    2.41
  19  -6   7    1.98    2.09
  -6 -19   7    5.69    4.19
  -6 -19   7    3.02    2.71
   6  19   7    4.29    3.16
 -19   6   7    4.71    5.27
  19  -8  -7   -0.95    4.07
   8  19  -7    0.06    2.50
  19  -8  -7   -1.01    6.80
  -8 -19  -7   -1.06    4.00
   8  19   7    0.02    3.28
  19  -8   7   -1.19    2.17
  -8 -19   7   -2.26    4.29
  -8 -19   7    5.40    3.31
  19  -8   7   -1.90    1.88
 -19   8   7    1.80    5.06
   5 -20  -7   -2.71    2.90
   5 -20  -7   -1.61    3.85
  20   5  -7   -1.68    3.42
  20   5  -7   -3.81    3.59
  20   5   7   -0.36    3.30
   5 -20   7   -2.68    3.21
   5 -20   7    0.28    2.36
 -20  -5   7   -2.96    4.53
  -5  20   7   -3.56    3.68
  20   5   7   -2.71    3.02
   3 -20  -7   -4.78    4.01
   3 -20  -7    3.48    2.94
  20   3  -7   -1.87    3.80
  20   3   7   -3.02    2.89
  -3  20   7   -2.06    2.67
 -20  -3   7   -1.05    4.41
  20   3   7    2.26    3.12
   3 -20   7   -1.06    3.13
   3 -20   7    0.41    2.33
  20   1  -7    1.81    3.64
  20   1  -7   -1.47    3.81
   1 -20  -7   -0.02    3.24
   1 -20  -7    5.84    4.00
  20   1   7    1.91    2.79
  20   1   7   -0.18    2.79
   1 -20   7    1.91    2.26
  -1  20   7    0.83    2.73
 -20  -1   7   -2.65    4.21
   1 -20   7   -2.08    3.11
   1  20  -7   -0.22    2.27
  -1 -20  -7   -2.40    4.11
  20  -1  -7   -1.01    3.64
  -1 -20  -7   -2.68    3.48
  20  -1  -7    0.39    3.32
 -20   1   7    3.47    4.75
  -1 -20   7   -0.53    2.38
  20  -1   7    2.23    3.02
  20  -1   7    3.27    2.66
  -1 -20   7    1.16    3.39
   1  20   7    0.38    2.84
  20  -3  -7    1.92    3.54
  20  -3  -7    0.83    3.70
  -3 -20  -7    1.06    3.95
   3  20  -7   -0.83    2.24
   3  20   7    0.58    2.86
  20  -3   7   -2.68    2.85
  20  -3   7   -2.76    2.45
  -3 -20   7    2.06    3.45
  -3 -20   7    0.45    2.48
   5  20  -7   -1.88    2.47
  20  -5  -7    2.79    3.62
  20  -5  -7    3.17    4.17
  -5 -20  -7    3.74    4.35
  20  -5   7   -3.20    2.82
  -5 -20   7   -1.78    2.71
  -5 -20   7    3.51    4.03
 -20   5   7   -1.77    5.49
  20  -5   7   -3.65    2.36
   5  20   7   -0.86    3.26
   0   0  -8  101.77   15.79
   0   0  -8  111.10   15.78
   0   0   8  109.24   15.92
   0   0   8  103.51   15.88
   1  -1  -8  699.33   93.60
  -1  -1  -8  628.28   93.51
  -1  -1  -8  646.35   93.55
  -1   1  -8  655.70   93.53
   1   1  -8  632.34   93.52
  -1   1  -8  646.73   93.50
   1  -1  -8  618.30   93.52
  -1  -1   8  645.69   93.61
   1  -1   8  648.34   93.56
   1  -1   8  640.61   93.53
   1   1   8  627.55   93.57
  -1  -1   8  609.28   93.56
  -1   1   8  614.17   93.58
  -1   1   8  632.06   93.55
  -2   0  -8   28.26    4.84
   0  -2  -8   30.02    5.60
   0   2  -8   25.88    4.96
   0  -2  -8   29.61    4.93
   0   2  -8   24.42    4.82
  -2   0  -8   34.14    5.00
   2   0  -8   33.51    4.98
   2   0  -8   34.83    5.18
  -2   0   8   39.09    5.19
   0   2   8   32.96    5.02
  -2   0   8   33.65    5.19
   0   2   8   25.73    5.22
   2   0   8   33.96    5.10
   0  -2   8   25.77    5.03
   0  -2   8   29.45    5.04
   2   0   8   28.78    4.95
   2  -2  -8    5.77    2.15
  -2  -2  -8    9.31    1.86
  -2   2  -8    3.27    1.42
   2  -2  -8    4.29    1.63
  -2  -2  -8    5.95    1.55
   2   2  -8    8.02    1.66
  -2   2   8    7.36    1.82
  -2  -2   8    6.17    1.86
   2  -2   8    5.64    1.58
   2   2   8    7.40    1.93
   2  -2   8    4.24    1.71
  -2   2   8    6.79    2.03
   2   2   8   16.59    2.34
   1  -3  -8  246.29   36.63
  -1   3  -8  253.64   36.56
  -3  -1  -8  264.71   36.63
  -1   3  -8  253.91   36.58
  -3  -1  -8  258.78   36.58
   3   1  -8  241.93   36.62
   3   1  -8  227.78   36.76
   1  -3  -8  267.76   36.72
   3   1   8  250.68   36.61
  -3  -1   8  242.09   36.67
  -1   3   8  247.11   36.71
   3   1   8  260.62   36.66
  -3  -1   8  230.88   36.66
  -1   3   8  252.22   36.65
   1  -3   8  241.56   36.63
   1  -3   8  245.22   36.59
  -3   1  -8  248.25   36.97
   3  -1  -8  262.24   37.12
   3  -1  -8  246.59   37.06
   1   3  -8  252.16   37.04
  -3   1  -8  265.78   37.00
  -1  -3  -8  253.67   37.05
  -1  -3  -8  270.32   37.29
   1   3  -8  248.59   37.02
   1   3   8  247.50   37.12
  -3   1   8  258.93   37.13
  -1  -3   8  239.21   37.08
  -3   1   8  253.29   37.10
  -1  -3   8  239.14   37.06
   3  -1   8  238.76   37.01
   3  -1   8  253.37   37.06
   1   3   8  263.93   37.08
   3   3  -8   70.35   10.76
   3  -3  -8   71.35   11.01
  -3  -3  -8   79.48   10.85
   3  -3  -8   73.18   10.83
  -3   3  -8   72.21   10.60
  -3  -3  -8   61.77   10.75
  -3  -3   8   71.45   10.90
   3   3   8   72.49   10.91
   3  -3   8   73.10   10.76
   3  -3   8   72.99   10.72
   3   3   8   73.80   10.81
  -3  -3   8   73.03   10.86
  -3   3   8   65.00   10.84
  -3   3   8   74.80   10.96
  -4  -2  -8    1.92    1.55
  -2   4  -8    1.99    1.16
  -2   4  -8    0.47    0.87
   2  -4  -8   -0.17    1.35
   2  -4  -8    1.98    1.85
   4   2  -8    1.85    1.28
  -4  -2  -8    1.97    1.21
   4   2  -8   -0.65    1.44
  -2   4   8   -2.43    1.70
  -4  -2   8    2.49    1.53
  -2   4   8    0.79    1.43
   2  -4   8    0.36    1.39
   4   2   8    0.96    1.66
   4   2   8    5.03    1.32
  -4  -2   8    6.04    1.61
   2  -4   8    3.26    1.19
   0  -4  -8   19.29    3.37
   0  -4  -8   14.14    2.61
   0   4  -8   13.69    2.51
   0   4  -8   12.61    2.38
   4   0  -8   16.16    2.87
  -4   0  -8   14.47    2.40
   4   0  -8   14.16    2.63
  -4   0  -8   16.06    2.80
   0  -4   8   16.09    2.97
   4   0   8   16.39    2.77
   0   4   8   14.57    2.93
  -4   0   8   17.77    2.86
   0   4   8   13.03    2.68
   0  -4   8   13.71    3.60
   4   0   8    8.50    2.65
  -4   0   8    9.12    2.66
  -2  -4  -8   -1.46    1.83
   2   4  -8    2.88    1.32
  -2  -4  -8    3.01    1.33
  -4   2  -8    0.45    0.98
   4  -2  -8    2.19    1.42
   4  -2  -8    2.55    1.83
  -4   2  -8    1.30    0.83
   2   4  -8    2.08    1.29
   4  -2   8    4.09    1.52
   2   4   8    2.34    1.79
  -2  -4   8    1.80    1.51
  -2  -4   8    4.17    1.53
   4  -2   8    2.77    1.15
   2   4   8    3.42    1.70
  -4   2   8    1.57    1.66
  -4   2   8   -0.86    1.55
  -4  -4  -8    2.38    1.47
   4  -4  -8    1.41    1.99
   4   4  -8    1.61    1.34
  -4  -4  -8    0.42    1.28
   4  -4  -8   -2.27    1.19
  -4  -4   8    3.71    1.65
   4  -4   8    1.08    1.19
  -4   4   8    1.00    1.51
   4  -4   8    0.67    1.00
   4   4   8    0.09    1.49
  -4  -4   8    0.38    1.60
  -4   4   8    0.44    1.69
   4   4   8   -0.06    1.73
   3  -5  -8    5.94    2.24
   5   3  -8    8.27    1.82
  -5  -3  -8    3.59    1.86
   3  -5  -8    6.85    1.76
  -5  -3  -8    3.97    1.59
   5   3  -8    7.13    1.87
  -3   5   8    9.25    2.22
  -3   5   8    4.84    1.79
   5   3   8    7.34    1.82
   5   3   8    6.43    2.02
  -5  -3   8    3.11    1.93
   3  -5   8    9.45    1.76
   3  -5   8    6.00    1.48
  -5  -1  -8   41.37    6.03
   1  -5  -8   35.42    6.40
  -1   5  -8   43.99    5.87
   5   1  -8   38.12    6.23
   5   1  -8   35.94    6.09
  -5  -1  -8   35.42    5.86
   1  -5  -8   38.21    6.09
  -1   5  -8   39.61    5.79
  -5  -1   8   41.44    6.28
  -5  -1   8   38.58    6.22
  -1   5   8   32.85    6.17
   1  -5   8   37.74    5.97
   5   1   8   36.34    6.00
  -1   5   8   35.14    6.33
   1  -5   8   38.14    6.03
   5   1   8   35.52    6.18
   5  -1  -8   43.94    6.39
  -5   1  -8   36.56    5.78
  -1  -5  -8   36.09    6.33
   5  -1  -8   42.11    6.16
  -5   1  -8   35.41    5.85
  -1  -5  -8   37.59    6.07
   1   5  -8   37.80    5.91
   1   5  -8   38.25    6.01
   5  -1   8   36.33    5.93
  -5   1   8   42.17    6.32
   1   5   8   47.06    6.18
   1   5   8   35.46    6.32
  -1  -5   8   33.20    6.07
   5  -1   8   39.04    6.10
  -1  -5   8   39.35    6.13
  -5   1   8   39.89    6.27
   5  -3  -8    5.26    1.85
  -3  -5  -8    6.50    2.05
   3   5  -8    6.22    1.70
  -3  -5  -8    7.67    1.82
   5  -3  -8   10.28    2.32
   3   5  -8    5.58    1.63
   3   5   8    6.33    1.87
   5  -3   8    6.01    1.67
  -5   3   8    8.63    2.03
   5  -3   8    6.17    1.45
  -5   3   8    6.84    2.05
  -3  -5   8    4.22    1.95
  -3  -5   8    5.12    1.91
   3   5   8    9.88    2.17
   5  -5  -8   -0.82    2.13
   5  -5  -8   -2.01    1.44
   5   5  -8   -0.32    1.45
  -5  -5  -8   -1.69    1.40
   5   5  -8    1.59    1.42
  -5  -5  -8   -0.22    0.99
   5  -5   8    0.03    1.00
   5   5   8   -3.13    1.92
   5   5   8    0.36    1.60
  -5  -5   8   -0.20    1.60
   5  -5   8   -1.62    1.17
  -5   5   8    1.71    1.96
  -5   5   8   -2.66    1.67
  -6  -4  -8    1.03    1.67
   4  -6  -8   -0.94    1.39
   4  -6  -8   -0.90    2.05
   6   4  -8    3.42    1.58
  -6  -4  -8    0.88    2.48
   6   4  -8    1.13    1.53
   6   4   8    1.67    1.48
   6   4   8    2.44    1.90
  -6  -4   8   -2.66    1.61
  -4   6   8   -0.26    1.90
   4  -6   8    2.75    1.32
  -4   6   8   -1.15    1.55
   6   2  -8    1.59    1.52
   6   2  -8    0.79    1.55
  -2   6  -8    3.23    0.83
  -6  -2  -8    0.12    1.46
  -6  -2  -8    0.78    1.19
  -2   6  -8    2.28    0.76
   2  -6  -8    1.86    1.38
   2  -6  -8    5.34    2.11
  -2   6   8    1.99    1.51
   6   2   8    1.15    1.32
   2  -6   8    3.02    1.28
   6   2   8    0.75    2.12
  -2   6   8    3.19    1.88
  -6  -2   8   -0.05    1.57
  -6  -2   8    2.76    1.75
   2  -6   8    3.07    1.49
   6   0  -8    6.97    1.96
   6   0  -8    7.48    1.76
   0   6  -8    6.58    1.48
  -6   0  -8    5.49    1.94
   0   6  -8    6.87    1.41
   0  -6  -8    7.09    1.78
   0  -6  -8    4.58    2.18
  -6   0  -8    5.68    1.29
   0   6   8    4.37    2.10
   6   0   8    3.20    1.78
   0   6   8    6.14    1.85
   6   0   8    6.10    1.55
  -6   0   8    4.95    1.95
   0  -6   8    2.65    1.75
  -6   0   8    4.21    1.88
   0  -6   8    5.21    1.77
   2   6  -8    4.98    1.43
   2   6  -8    1.63    1.22
   6  -2  -8    2.66    1.97
  -2  -6  -8    1.48    1.43
  -2  -6  -8   -1.58    1.73
   6  -2  -8   -0.27    1.49
   2   6   8    1.15    2.91
   6  -2   8    0.81    1.42
  -6   2   8    2.32    1.75
  -2  -6   8    3.69    1.60
   6  -2   8    1.72    1.11
  -2  -6   8    4.77    1.61
   2   6   8    1.31    1.94
  -6   2   8    1.88    1.71
   4   6  -8    0.51    0.62
   4   6  -8   -1.46    1.44
  -4  -6  -8   -1.20    1.65
   6  -4  -8    1.94    2.28
  -4  -6  -8    1.79    1.52
   6  -4  -8   -0.11    1.48
  -6   4   8   -2.49    1.79
   6  -4   8   -1.24    0.97
   6  -4   8    2.12    1.24
  -4  -6   8   -3.60    1.96
   4   6   8    2.33    1.95
  -6   4   8    0.15    1.77
  -4  -6   8   -0.21    1.60
   4   6   8    3.54    1.68
  -6  -6  -8   -0.04    0.99
   6  -6  -8    0.64    1.51
   6  -6  -8    1.52    2.36
   6   6  -8   -1.44    1.67
  -6  -6  -8    1.02    1.56
  -6   6   8    0.97    2.00
   6  -6   8    0.30    0.93
   6   6   8    3.49    1.83
  -6  -6   8   -0.85    1.81
  -6  -6   8    0.52    2.13
   6   6   8   -0.79    2.08
   6  -6   8   -0.51    1.15
  -6   6   8    0.79    1.79
   7   5  -8    0.61    1.58
  -7  -5  -8    0.67    1.80
   5  -7  -8    0.98    1.60
   7   5  -8   -1.35    1.67
  -7  -5  -8   -0.06    1.45
   5  -7  -8    1.14    2.24
  -5   7   8   -0.68    2.00
   7   5   8   -0.40    1.63
  -5   7   8   -1.08    1.69
  -7  -5   8   -0.45    2.02
   7   5   8    1.88    2.10
  -7  -5   8   -1.76    1.80
   5  -7   8    2.17    1.07
   5  -7   8    1.88    1.26
  -7  -3  -8   -0.65    1.21
   7   3  -8   -0.04    1.62
   7   3  -8    1.91    1.61
  -7  -3  -8    0.83    1.66
   3  -7  -8   -1.48    1.43
   3  -7  -8   -0.51    2.09
  -7  -3   8    0.57    1.82
   7   3   8    2.55    1.99
   7   3   8    0.98    1.52
   3  -7   8   -0.20    1.20
  -3   7   8   -1.29    1.81
   3  -7   8    3.05    1.40
  -3   7   8    1.80    1.64
  -1   7  -8    9.09    1.91
   1  -7  -8   12.12    2.85
  -7  -1  -8    7.52    1.82
   7   1  -8    9.90    2.37
   1  -7  -8   12.54    2.29
   7   1  -8    6.65    2.17
  -1   7  -8    8.84    1.76
  -7  -1   8   13.18    2.53
  -1   7   8   12.86    2.73
   7   1   8   10.12    2.07
   1  -7   8    9.53    2.13
   1  -7   8   12.35    2.14
  -7  -1   8    8.14    2.37
   7   1   8    7.09    2.37
  -1   7   8    8.08    2.36
   7  -1  -8    9.64    2.52
   1   7  -8   11.27    2.02
  -1  -7  -8    9.25    2.19
   7  -1  -8   11.21    2.33
  -1  -7  -8   12.09    2.56
   7  -1   8    9.87    1.95
   1   7   8    8.80    2.60
   1   7   8    8.99    2.26
  -7   1   8    6.45    2.26
   7  -1   8    7.97    2.15
  -7   1   8    6.61    2.34
   7  -3  -8    1.30    1.64
   7  -3  -8    1.38    2.14
   3   7  -8    0.85    1.38
  -3  -7  -8    0.00    1.84
  -3  -7  -8    3.81    1.56
   3   7  -8    3.08    1.41
   3   7   8    0.41    1.72
  -7   3   8   -3.24    1.80
   7  -3   8   -1.55    1.38
  -3  -7   8   -0.93    1.53
  -3  -7   8    0.80    1.81
   3   7   8   -1.96    1.96
   7  -3   8    0.85    1.03
  -7   3   8    1.61    1.84
   7  -5  -8    1.85    1.69
  -5  -7  -8    2.71    2.99
  -5  -7  -8    1.01    1.98
   5   7  -8   -0.64    1.43
   7  -5  -8    4.30    2.39
   5   7   8   -0.07    2.01
  -7   5   8   -1.46    1.71
   7  -5   8    1.84    0.95
   7  -5   8   -0.56    1.19
  -5  -7   8   -1.84    1.68
  -5  -7   8    2.73    2.01
   5   7   8    2.34    1.69
  -7   5   8   -0.20    1.97
   7  -7  -8    0.35    2.55
  -7  -7  -8    0.02    1.70
   7   7  -8   -1.29    1.69
   7   7  -8    0.64    1.77
   7  -7  -8    1.18    1.83
  -7  -7   8   -1.50    2.19
   7   7   8    0.56    2.31
   7  -7   8    0.50    0.92
  -7   7   8    2.00    2.12
  -7   7   8   -0.71    2.18
   7  -7   8   -2.74    1.20
  -7  -7   8    0.42    1.92
   7   7   8    1.80    1.87
  -8  -6  -8   -1.52    2.04
   6  -8  -8    1.74    1.79
   8   6  -8   -1.46    1.90
  -8  -6  -8    1.79    1.57
   8   6  -8    0.07    1.77
   6  -8  -8    0.90    2.33
  -6   8   8    0.15    2.17
   8   6   8   -1.66    1.82
   6  -8   8    1.99    1.28
  -8  -6   8    0.06    3.61
   6  -8   8    0.89    1.13
   8   6   8   -2.97    2.21
  -6   8   8   -2.13    1.97
  -8  -6   8   -1.50    2.28
  -8  -4  -8    3.48    1.65
   4  -8  -8    4.56    2.46
   4  -8  -8    7.78    1.95
   8   4  -8    2.93    1.98
  -8  -4  -8    7.35    2.09
   8   4  -8    4.33    1.93
  -4   8   8    3.50    2.05
  -8  -4   8    2.68    2.13
   4  -8   8    8.91    1.60
   8   4   8    2.89    2.31
  -4   8   8    4.26    2.22
   4  -8   8    5.92    1.65
   8   4   8    5.84    1.79
  -8  -4   8    2.55    2.83
  -8  -2  -8   10.03    2.40
  -8  -2  -8    4.75    1.60
   8   2  -8    4.55    2.06
   2  -8  -8    6.02    1.96
   8   2  -8    7.40    2.07
   2  -8  -8    2.56    2.49
  -8  -2   8    8.03    2.29
  -2   8   8   10.67    2.17
  -2   8   8    9.09    2.32
   8   2   8    5.82    1.82
   8   2   8    7.69    2.24
   2  -8   8    8.33    1.96
  -8   0  -8   14.86    2.68
   8   0  -8   11.05    2.94
   0  -8  -8   20.26    3.48
   8   0  -8   21.25    3.82
   0   8  -8   11.31    2.85
  -8   0  -8   13.93    2.64
   0  -8  -8   16.13    3.04
   0  -8   8   21.21    3.12
   0  -8   8   17.22    3.10
  -8   0   8   16.78    3.20
   8   0   8   18.00    2.84
   0   8   8   19.36    3.41
   8   0   8   20.07    3.15
   0   8   8   12.66    3.04
  -8   0   8   15.82    3.14
   8  -2  -8   11.90    2.30
   2   8  -8    7.14    1.93
   2   8  -8    8.07    1.88
   8  -2  -8   12.61    2.67
  -2  -8  -8    9.78    2.48
  -2  -8  -8    7.69    2.20
   8  -2   8   10.25    2.05
  -8   2   8    7.16    2.35
   8  -2   8   11.61    2.14
  -8   2   8    2.93    2.20
   2   8   8    6.45    3.03
  -2  -8   8    5.04    2.20
  -2  -8   8    9.80    2.40
   8  -4  -8    4.71    1.99
  -4  -8  -8    6.64    2.32
   8  -4  -8    6.97    2.55
   4   8  -8    3.09    1.73
   4   8  -8    3.96    1.73
  -4  -8  -8    8.08    2.42
  -4  -8   8    4.35    2.27
   8  -4   8    5.82    1.28
   8  -4   8    6.67    1.63
  -8   4   8    3.04    2.21
  -8   4   8    4.09    2.05
   4   8   8    6.52    2.40
   4   8   8    3.52    2.15
  -4  -8   8    3.86    2.00
  -6  -8  -8   -1.15    1.81
   8  -6  -8   -1.99    1.85
   6   8  -8    1.90    1.92
   6   8  -8    0.18    1.67
  -6  -8  -8    0.16    2.76
   8  -6  -8    1.69    2.71
   6   8   8    0.64    2.05
  -8   6   8   -2.54    2.11
  -8   6   8    0.86    2.21
   8  -6   8    0.23    0.94
   6   8   8   -2.48    2.31
  -6  -8   8    1.81    2.01
   8  -6   8    1.73    1.19
  -6  -8   8    1.65    2.27
   8  -8  -8   -4.04    2.70
   8   8  -8   -4.16    1.82
   8   8  -8   -3.33    1.87
   8  -8  -8    0.85    1.94
   8  -8   8   -2.41    0.94
  -8   8   8   -1.42    2.12
   8   8   8   -0.66    1.97
   8  -8   8   -3.37    1.11
  -8  -8   8   -1.08    2.74
   8   8   8    1.59    2.72
  -8  -8   8    0.74    2.13
  -8   8   8   -2.13    2.24
   9   7  -8    5.45    2.23
  -9  -7  -8    5.27    2.40
   7  -9  -8    9.48    2.92
   9   7  -8    1.08    2.17
   7  -9  -8    5.25    2.18
  -9  -7   8    9.68    3.00
   9   7   8    4.33    2.78
   9   7   8    4.53    2.31
  -7   9   8    4.81    2.58
  -9  -7   8    3.81    2.41
  -7   9   8    9.53    2.44
   9   5  -8    4.60    2.61
   5  -9  -8   10.89    2.59
  -9  -5  -8    8.84    2.53
   5  -9  -8   11.15    3.06
  -9  -5  -8    9.81    2.68
   9   5  -8   13.15    2.72
   9   5   8   12.82    2.98
  -9  -5   8    8.10    2.70
   5  -9   8   12.46    2.22
  -5   9   8    9.66    2.88
  -9  -5   8   12.31    3.15
  -5   9   8   10.18    2.60
   9   5   8   19.20    3.30
  -9  -3  -8   30.30    4.70
   3  -9  -8   29.64    5.38
  -9  -3  -8   22.86    4.35
   9   3  -8   22.20    4.86
   9   3  -8   18.51    4.31
   3  -9  -8   25.14    4.65
   3  -9   8   23.87    4.41
  -9  -3   8   28.26    5.19
   9   3   8   23.62    4.90
  -3   9   8   32.44    4.80
  -3   9   8   24.58    5.02
   3  -9   8   26.86    4.39
  -9  -3   8   25.07    5.00
   9   3   8   28.51    4.52
   1  -9  -8   32.84    6.16
   9   1  -8   26.56    5.81
   9   1  -8   34.81    5.95
   1  -9  -8   31.09    5.69
  -1   9  -8   35.33    5.21
  -1   9  -8   31.60    5.19
  -9  -1  -8   36.16    5.35
  -9  -1  -8   36.42    5.29
  -9  -1   8   28.97    5.95
   9   1   8   34.76    5.80
   9   1   8   35.40    5.49
  -1   9   8   33.58    6.14
  -1   9   8   38.83    5.87
   1  -9   8   35.81    5.64
   1  -9   8   32.97    5.65
   1   9  -8   33.12    5.30
  -1  -9  -8   28.65    5.63
   9  -1  -8   33.92    5.94
   1   9  -8   35.09    5.29
  -1  -9  -8   35.67    5.97
   9  -1  -8   33.79    5.73
   1   9   8   36.37    5.70
  -1  -9   8   28.14    5.68
  -1  -9   8   28.06    5.59
   9  -1   8   36.85    5.25
  -9   1   8   33.69    5.85
   9  -1   8   36.73    5.60
  -9   1   8   26.08    5.89
   1   9   8   32.44    6.05
   9  -3  -8   28.64    5.27
   3   9  -8   19.70    4.38
  -3  -9  -8   26.36    4.78
  -3  -9  -8   30.00    5.24
   9  -3  -8   23.90    4.77
   3   9  -8   22.35    4.46
   9  -3   8   25.74    4.08
  -3  -9   8   22.73    4.83
  -9   3   8   28.85    5.00
   3   9   8   23.56    5.10
  -3  -9   8   23.71    4.67
   9  -3   8   23.75    4.37
  -9   3   8   30.40    5.07
   3   9   8   32.49    4.87
   9  -5  -8   13.15    3.78
   5   9  -8    7.73    2.58
   5   9  -8    9.60    2.42
  -5  -9  -8   12.58    2.78
   9  -5  -8   10.88    2.81
  -5  -9  -8   17.78    3.11
  -5  -9   8    8.64    2.74
   5   9   8    9.57    3.17
   9  -5   8   14.76    2.31
  -9   5   8   13.85    3.01
  -9   5   8   10.97    3.04
   9  -5   8   14.35    2.71
  -5  -9   8   14.12    2.99
   5   9   8   13.51    2.83
  -7  -9  -8    4.15    2.29
   9  -7  -8    2.52    2.25
  -7  -9  -8    3.59    2.51
   7   9  -8    1.89    2.40
   7   9  -8    5.93    3.39
   9  -7  -8    9.32    3.15
  -7  -9   8    8.33    2.39
  -9   7   8    1.48    2.53
  -9   7   8    6.14    2.58
  -7  -9   8    9.81    2.94
   7   9   8    2.69    2.39
   7   9   8    2.57    2.83
   9  -7   8    5.80    1.46
   9  -7   8   11.63    1.62
   9   9  -8    1.08    2.09
   9  -9  -8    1.87    3.01
   9  -9  -8   -3.48    2.15
  -9  -9   8   -2.27    2.31
  -9   9   8    0.21    2.43
  -9   9   8   -1.01    2.36
   9   9   8   -0.34    2.25
   9   9   8   -2.70    2.74
  -9  -9   8    0.61    2.91
   8 -10  -8   -3.14    2.10
  10   8  -8    0.83    2.17
  10   8  -8    2.62    2.16
 -10  -8  -8   -0.23    2.24
   8 -10  -8    0.66    2.93
  10   8   8   -0.22    2.26
 -10  -8   8    0.24    2.37
  -8  10   8    1.43    2.38
  10   8   8   -1.21    2.64
   8 -10   8    0.07    1.27
 -10  -8   8    2.50    2.92
   8 -10   8   -0.02    1.20
  -8  10   8    1.97    2.39
   6 -10  -8    2.51    2.83
  10   6  -8    0.16    2.04
 -10  -6  -8    3.51    2.28
   6 -10  -8   -4.55    1.81
  10   6  -8    1.41    2.16
 -10  -6   8    8.85    3.01
  -6  10   8    6.57    2.15
  10   6   8    1.95    1.99
   6 -10   8   -0.17    1.48
   6 -10   8   -0.41    1.43
  10   6   8    2.44    2.50
  -6  10   8    1.03    2.12
 -10  -6   8   -2.10    2.18
   4 -10  -8    5.37    2.84
   4 -10  -8    9.17    2.12
  10   4  -8    4.90    2.15
 -10  -4  -8    6.56    2.14
  10   4  -8    1.84    2.09
  10   4   8    0.41    2.61
 -10  -4   8    5.76    4.45
 -10  -4   8    6.96    2.41
   4 -10   8    2.10    1.78
  -4  10   8    4.40    2.37
  10   4   8    4.42    1.99
  -4  10   8    5.11    2.14
   4 -10   8    4.28    1.76
   2 -10  -8   17.97    3.47
   2 -10  -8   22.49    3.97
  10   2  -8   15.99    3.58
 -10  -2  -8   20.89    3.63
  10   2  -8   12.54    3.55
 -10  -2  -8   14.81    3.41
  10   2   8   21.79    4.20
   2 -10   8   22.78    3.46
 -10  -2   8   16.01    3.63
 -10  -2   8   25.76    4.18
  -2  10   8   21.45    4.09
  -2  10   8   18.31    3.87
   2 -10   8   18.11    3.78
  10   2   8   16.38    3.63
   0 -10  -8   21.19    4.33
  10   0  -8   28.60    4.27
   0  10  -8   17.51    3.83
   0  10  -8   25.43    3.86
  10   0  -8   27.69    4.81
   0 -10  -8   19.61    4.41
   0  10   8   23.56    4.42
  10   0   8   25.59    4.14
   0 -10   8   28.86    4.16
 -10   0   8   17.67    4.17
   0 -10   8   23.50    4.08
   0  10   8   20.67    4.59
  10   0   8   22.24    4.01
   2  10  -8   12.57    3.19
  -2 -10  -8   21.32    3.91
  10  -2  -8   19.13    3.61
  -2 -10  -8   19.16    3.55
  10  -2  -8   24.95    4.54
   2  10  -8   18.44    3.56
 -10   2   8   18.89    3.77
  -2 -10   8   17.99    3.53
 -10   2   8   27.21    4.41
  10  -2   8   17.00    3.31
  10  -2   8   18.80    3.72
  -2 -10   8   15.69    3.52
   2  10   8   33.06    5.32
   2  10   8   17.87    3.82
  10  -4  -8    7.00    2.23
  10  -4  -8    5.72    3.29
  -4 -10  -8    3.34    2.54
   4  10  -8    2.61    1.84
  -4 -10  -8    4.23    2.17
 -10   4   8    5.09    2.36
 -10   4   8    4.22    2.49
   4  10   8    4.86    2.40
   4  10   8    8.75    2.71
  -4 -10   8    3.52    2.00
  -4 -10   8    4.61    2.53
  10  -4   8    5.93    1.72
  10  -4   8    4.28    1.32
  10  -6  -8    5.10    2.97
  10  -6  -8    3.74    2.20
  -6 -10  -8   -1.31    2.10
  -6 -10  -8    0.77    2.58
 -10   6   8    2.17    2.37
  10  -6   8    2.59    0.94
   6  10   8    0.52    2.27
  -6 -10   8   -1.18    2.39
  10  -6   8    2.04    1.23
  -6 -10   8    2.23    2.11
   6  10   8   -1.99    2.80
 -10   6   8    0.92    2.63
  -8 -10  -8    0.13    2.57
   8  10  -8    1.71    1.97
  10  -8  -8    5.22    3.27
  10  -8  -8   -0.84    2.25
   8  10   8   -1.26    2.37
  -8 -10   8    1.95    2.37
   8  10   8    6.33    3.10
  -8 -10   8    3.49    3.09
 -10   8   8   -4.15    3.82
 -10   8   8    5.76    2.57
  10  10  -8   -1.30    2.28
  10 -10  -8    0.60    3.38
 -10 -10  -8   -0.64    2.97
  10 -10  -8    1.98    2.47
  10  10   8    3.10    2.59
  10  10   8   -3.25    2.98
 -10 -10   8   -0.49    2.41
 -10  10   8    0.66    2.50
 -10 -10   8   -2.27    3.26
  11   9  -8    0.81    2.35
 -11  -9  -8   -1.53    2.46
   9 -11  -8    3.91    3.41
   9 -11  -8    0.71    2.21
 -11  -9   8   -5.01    3.26
 -11  -9   8    2.56    2.48
  11   9   8    3.97    2.39
  -9  11   8    5.68    2.64
  11   9   8    4.71    2.98
  11   7  -8    1.49    2.20
   7 -11  -8    0.18    2.06
 -11  -7  -8    0.77    2.39
  11   7  -8   -0.76    2.20
   7 -11  -8   -0.85    3.00
  11   7   8    0.67    2.74
  -7  11   8    1.47    2.31
   7 -11   8    3.34    1.67
  11   7   8   -0.61    2.11
 -11  -7   8    0.39    3.08
  -7  11   8    1.54    2.65
 -11  -7   8   -1.51    2.36
   7 -11   8    0.63    1.44
 -11  -5  -8    7.38    2.64
   5 -11  -8   10.60    2.58
  11   5  -8    6.15    2.65
   5 -11  -8   12.56    3.38
  -5  11   8    7.63    2.82
   5 -11   8   10.68    2.18
  11   5   8    3.27    2.94
 -11  -5   8    8.70    3.27
 -11  -5   8   10.26    2.83
   5 -11   8   10.93    2.35
  11   5   8    9.81    2.57
  -5  11   8   15.47    2.76
 -11  -3  -8   37.67    5.89
   3 -11  -8   42.97    6.77
  11   3  -8   38.69    6.24
  11   3  -8   30.19    6.13
   3 -11  -8   38.63    6.02
  -3  11   8   35.82    6.12
 -11  -3   8   38.91    6.75
   3 -11   8   29.27    5.78
   3 -11   8   33.56    5.85
  11   3   8   37.73    5.86
  -3  11   8   32.38    6.43
 -11  -3   8   25.37    6.28
  11   3   8   34.10    6.28
  -1  11  -8   69.56   10.27
  -1  11  -8   69.57   10.27
   1 -11  -8   66.96   11.00
  11   1  -8   66.59   10.83
   1 -11  -8   73.40   10.71
  11   1  -8   80.92   10.86
  -1  11   8   77.78   10.78
   1 -11   8   62.57   10.66
  11   1   8   68.59   10.49
  -1  11   8   63.00   10.94
 -11  -1   8   70.22   11.02
  11   1   8   70.84   10.78
 -11  -1   8   65.49   10.90
   1 -11   8   63.82   10.65
  11  -1  -8   86.33   11.46
  -1 -11  -8   82.49   11.52
  -1 -11  -8   76.08   11.18
  11  -1  -8   60.10   11.23
   1  11  -8   76.97   10.89
 -11   1   8   68.86   11.34
   1  11   8   79.11   11.26
   1  11   8   64.98   11.39
  11  -1   8   73.98   11.07
  11  -1   8   77.57   10.85
  -1 -11   8   62.18   11.13
  -1 -11   8   57.34   11.15
  11  -3  -8   35.44    6.03
  -3 -11  -8   35.80    6.32
  -3 -11  -8   27.15    6.37
   3  11  -8   32.32    5.55
  11  -3  -8   46.63    6.46
  -3 -11   8   27.97    5.84
   3  11   8   30.74    6.28
   3  11   8   35.77    6.01
 -11   3   8   44.59    6.20
  11  -3   8   31.06    5.52
  -3 -11   8   29.23    6.08
  11  -3   8   31.58    5.23
  -5 -11  -8    8.01    2.70
  -5 -11  -8    5.91    3.01
   5  11  -8    7.65    2.31
  11  -5  -8   14.31    3.37
  11  -5  -8    9.32    2.75
  -5 -11   8    6.14    2.73
   5  11   8   11.93    2.75
  11  -5   8   11.40    2.08
  11  -5   8    7.71    2.07
   5  11   8   10.13    3.16
 -11   5   8   10.56    2.92
 -11   5   8    9.63    3.08
  -5 -11   8   15.44    3.29
  -7 -11  -8    5.48    2.82
  11  -7  -8    1.17    3.14
  11  -7  -8   -0.63    2.32
  -7 -11   8    3.75    3.00
 -11   7   8    3.71    2.54
   7  11   8    1.78    2.48
   7  11   8    3.98    2.97
  -7 -11   8    0.28    2.26
  11  -9  -8    2.23    3.46
  -9 -11  -8    3.31    2.73
  11  -9  -8    2.30    2.49
   9  11  -8    3.37    2.10
 -11   9   8   -2.74    2.45
   9  11   8   -0.20    3.08
  -9 -11   8    3.10    3.30
   9  11   8    4.74    2.67
  -9 -11   8    6.99    2.54
  11  11  -8    7.32    2.60
  11 -11  -8    8.71    4.00
 -11 -11  -8    7.74    3.53
  11 -11  -8    7.26    2.86
 -11 -11   8    4.29    2.86
  11  11   8    9.06    3.08
 -11 -11   8    4.12    3.76
  11  11   8    5.77    3.96
 -11  11   8    1.59    2.91
  10 -12  -8    3.31    2.44
  10 -12  -8    0.64    3.49
  12  10  -8    0.53    2.49
 -12 -10  -8    4.22    2.33
 -12 -10   8    3.29    3.72
  12  10   8   -0.67    3.14
  12  10   8   -1.25    2.63
 -12 -10   8   -0.94    2.76
 -10  12   8   -0.62    2.84
  12   8  -8   -0.50    2.36
   8 -12  -8    1.45    3.09
   8 -12  -8    1.91    2.31
 -12  -8  -8   -1.05    2.69
  12   8   8   -0.67    2.78
  -8  12   8    1.26    2.41
   8 -12   8   -0.39    1.59
   8 -12   8   -1.56    1.30
 -12  -8   8   -0.11    2.48
 -12  -8   8    3.69    3.61
  12   8   8   -2.92    2.35
   6 -12  -8    1.77    2.04
  12   6  -8   -1.88    2.31
   6 -12  -8    4.08    3.19
 -12  -6  -8    0.15    2.29
  12   6  -8    1.53    2.41
  12   6   8    0.54    2.61
  -6  12   8   -1.22    2.15
 -12  -6   8    4.75    2.51
  12   6   8    0.03    2.26
 -12  -6   8    1.72    3.32
   6 -12   8    1.75    1.75
   6 -12   8   -0.94    1.62
 -12  -4  -8    4.87    1.99
   4 -12  -8   -2.66    2.56
  12   4  -8    0.47    2.19
   4 -12  -8    1.69    2.07
  12   4  -8   -2.95    2.22
   4 -12   8    1.72    1.98
  12   4   8   -3.80    2.01
  12   4   8    2.16    2.51
  -4  12   8   -2.22    2.39
 -12  -4   8    0.58    2.27
   4 -12   8   -1.10    1.63
  -4  12   8    1.20    2.01
 -12  -4   8    1.62    3.15
  12   2  -8    2.16    2.35
  12   2  -8    1.65    2.20
 -12  -2  -8    1.61    1.56
   2 -12  -8   -1.11    1.85
  -2  12   8    4.07    2.12
   2 -12   8    2.19    2.25
 -12  -2   8    5.11    2.41
  12   2   8    3.96    1.90
  12   2   8    4.93    2.34
  -2  12   8    1.87    2.84
   2 -12   8   -0.90    1.75
 -12  -2   8   -1.94    2.92
   0  12  -8    4.56    1.42
  12   0  -8    0.41    3.50
   0 -12  -8    6.24    2.25
   0 -12  -8    0.44    2.64
  12   0  -8    3.63    2.40
  12   0   8    2.44    1.84
 -12   0   8    5.11    2.99
   0  12   8    4.98    2.32
   0 -12   8    8.45    2.66
 -12   0   8    3.64    2.93
   0 -12   8    7.24    2.11
  12   0   8    7.03    2.40
   0  12   8    5.13    2.64
  -2 -12  -8    0.16    2.67
   2  12  -8    7.26    3.00
  12  -2  -8    5.02    2.36
  -2 -12  -8   -2.39    3.55
  12  -2  -8    2.89    2.71
  12  -2   8    3.54    1.55
   2  12   8   -2.51    2.49
  12  -2   8    2.98    1.94
  -2 -12   8    0.58    2.48
  -2 -12   8    3.54    2.17
 -12   2   8    4.46    2.52
   2  12   8    2.65    3.82
  12  -4  -8   -0.44    2.79
  12  -4  -8    0.61    2.23
  -4 -12  -8    0.75    2.61
  -4 -12  -8    1.85    2.23
   4  12  -8    3.52    1.77
 -12   4   8   -3.10    2.32
  12  -4   8    3.98    2.53
  -4 -12   8   -0.34    2.58
 -12   4   8   -1.34    2.44
   4  12   8    1.78    2.74
  -4 -12   8    0.29    2.15
   4  12   8   -2.45    2.29
  12  -4   8   -0.64    1.18
  12  -6  -8   -3.01    2.98
  12  -6  -8   -2.22    2.38
  -6 -12  -8    5.02    2.71
   6  12  -8   -2.30    1.69
  12  -6   8    0.22    0.95
   6  12   8    0.07    2.32
  12  -6   8    1.74    1.38
 -12   6   8    1.41    2.52
  -6 -12   8   -4.39    2.24
  -6 -12   8   -1.39    2.79
   6  12   8    1.27    2.91
  12  -8  -8   -5.06    3.22
  -8 -12  -8    1.00    2.64
   8  12  -8    2.09    2.17
  12  -8  -8   -3.24    2.36
  -8 -12   8    0.66    2.45
  -8 -12   8   -5.11    3.14
   8  12   8    0.54    2.98
 -12   8   8   -0.45    2.49
   8  12   8   -1.11    2.65
  10  12  -8    1.64    2.30
  12 -10  -8    5.60    2.85
  12 -10  -8    0.25    3.92
 -10 -12  -8    3.59    3.02
  10  12   8    0.32    2.92
 -10 -12   8    7.27    3.77
 -10 -12   8    1.42    2.55
  10  12   8    2.77    3.13
 -12  10   8    0.46    2.76
  12 -12  -8    5.90    4.09
  12  12  -8    6.85    2.68
  12 -12  -8    4.59    2.90
 -12 -12   8    9.35    4.17
  12  12   8    4.31    3.25
 -12  12   8    8.33    6.33
  12  12   8    4.14    3.51
 -12 -12   8    2.30    3.03
 -13 -11  -8    4.15    2.89
  13  11  -8    5.83    3.04
  11 -13  -8    4.94    2.92
  11 -13  -8   12.18    4.15
  13  11   8   12.06    3.72
 -13 -11   8   10.97    4.27
 -11  13   8    4.51    3.88
  13  11   8    0.40    6.50
 -13 -11   8    4.87    4.01
  13   9  -8   -0.46    2.51
 -13  -9  -8    0.99    2.95
   9 -13  -8    5.87    2.57
   9 -13  -8   -1.41    3.47
   9 -13   8    1.98    1.38
 -13  -9   8    4.67    3.74
 -13  -9   8    6.90    2.97
   9 -13   8    2.20    1.64
  13   9   8    3.04    2.69
  13   9   8    4.12    3.00
  -9  13   8    2.31    2.84
  13   7  -8    3.98    2.50
   7 -13  -8    1.90    3.07
 -13  -7  -8    2.00    2.70
   7 -13  -8    1.84    2.18
  13   7  -8    3.14    2.58
 -13  -7   8   -1.13    2.56
  13   7   8    1.22    2.73
   7 -13   8    0.36    1.70
   7 -13   8    1.02    1.52
  -7  13   8    1.68    2.35
  13   7   8    3.66    2.48
 -13  -7   8   -2.51    3.55
   5 -13  -8   10.93    3.52
  13   5  -8   11.26    3.00
 -13  -5  -8   11.42    2.94
   5 -13  -8   10.63    2.81
  13   5  -8    6.27    2.94
  -5  13   8    9.92    2.86
 -13  -5   8    9.28    4.56
   5 -13   8   11.79    2.59
   5 -13   8    9.46    2.32
 -13  -5   8    7.18    3.65
  13   5   8   15.49    3.01
  13   5   8   10.02    3.26
   3 -13  -8   37.29    6.49
  13   3  -8   47.74    7.59
   3 -13  -8   42.36    7.21
  13   3  -8   31.82    6.72
 -13  -3  -8   38.86    6.25
  -3  13   8   26.86    6.82
 -13  -3   8   38.64    7.32
   3 -13   8   31.95    6.23
  -3  13   8   45.53    6.69
  13   3   8   47.88    6.79
 -13  -3   8   28.83    7.48
  13   3   8   39.74    6.38
   3 -13   8   37.74    6.43
  13   1  -8   62.31   11.92
   1 -13  -8   76.28   12.22
  13   1  -8   85.42   12.00
   1 -13  -8   83.08   11.87
 -13  -1   8   67.98   12.02
  13   1   8   77.69   11.87
   1 -13   8   70.75   11.70
  -1  13   8   69.15   12.10
 -13  -1   8   73.88   12.31
  -1  13   8   87.46   11.86
   1 -13   8   78.40   11.83
  13   1   8   81.17   11.61
  13  -1  -8   61.05   11.81
   1  13  -8   82.64   11.40
  13  -1  -8   82.51   11.98
  -1 -13  -8   71.99   12.05
  -1 -13  -8   76.23   11.96
  13  -1   8   79.13   11.65
 -13   1   8   70.76   12.08
   1  13   8   61.62   11.98
   1  13   8   83.78   11.85
 -13   1   8   71.53   11.98
  13  -1   8   86.08   11.44
  -1 -13   8   67.55   11.65
  -1 -13   8   73.78   11.83
  13  -3  -8   49.84    7.28
  13  -3  -8   30.02    6.77
  -3 -13  -8   35.09    6.72
   3  13  -8   34.84    6.13
  -3 -13  -8   35.49    7.06
 -13   3   8   39.58    7.81
  13  -3   8   40.54    6.26
  -3 -13   8   30.41    6.59
  13  -3   8   41.27    5.94
   3  13   8   34.47    7.05
  -3 -13   8   34.88    6.87
   3  13   8   42.24    6.74
   5  13  -8   10.90    2.74
  13  -5  -8   23.74    3.96
  13  -5  -8   11.98    3.36
  -5 -13  -8    7.86    3.48
  -5 -13  -8   12.79    3.79
   5  13   8   11.74    3.24
  13  -5   8   10.46    2.47
  -5 -13   8   15.27    3.62
  13  -5   8   12.87    2.24
  -5 -13   8    9.94    3.23
   5  13   8   12.52    3.72
 -13   5   8   14.61    3.45
   7  13  -8    0.45    1.35
  -7 -13  -8    2.19    2.85
  13  -7  -8    0.79    2.68
  13  -7  -8   -0.63    3.30
  -7 -13   8    1.64    3.03
   7  13   8   -2.67    2.67
   7  13   8   -0.63    3.15
 -13   7   8   -1.40    2.67
  -7 -13   8    2.47    2.49
  13  -9  -8   -1.39    2.74
   9  13  -8   -0.48    2.22
  13  -9  -8    3.83    3.76
  -9 -13  -8    4.25    3.02
 -13   9   8   -0.13    2.79
  -9 -13   8    4.64    3.50
   9  13   8    1.22    3.10
   9  13   8    1.88    2.86
  -9 -13   8    3.20    2.60
  13 -11  -8    8.92    4.29
  13 -11  -8    5.64    3.22
  11  13  -8    5.02    2.55
 -11 -13  -8    4.23    3.33
  11  13   8    5.11    3.19
 -13  11   8    2.35    4.99
 -11 -13   8    3.32    3.00
 -11 -13   8    7.30    3.87
  11  13   8    2.67    3.37
 -13 -13  -8   10.27    5.52
  13 -13  -8   10.09    4.71
  13  13  -8    6.43    2.93
  13 -13  -8    4.95    3.28
  13  13   8    5.98    3.92
 -13 -13   8   10.74    4.65
 -13 -13   8    4.75    5.47
  13  13   8    7.10    4.35
  12 -14  -8    3.80    3.06
  12 -14  -8   10.84    4.39
  14  12  -8    7.00    2.94
  14  12   8    3.81    3.82
 -14 -12   8    2.83    3.46
  14  12   8    2.68    3.40
 -14 -12   8    6.89    4.53
  10 -14  -8    4.77    3.69
 -14 -10  -8    2.92    3.26
  10 -14  -8    0.67    2.60
  14  10  -8    2.49    2.88
 -14 -10   8   -2.01    4.06
 -14 -10   8    2.27    3.19
  10 -14   8    4.67    1.74
  14  10   8    1.85    3.12
  14  10   8    3.05    3.37
  10 -14   8    4.51    1.47
 -10  14   8    2.35    3.00
   8 -14  -8    0.80    2.29
 -14  -8  -8   -1.22    2.83
  14   8  -8    5.32    2.64
   8 -14  -8    2.14    3.35
 -14  -8   8    5.37    3.84
  -8  14   8    1.46    2.70
 -14  -8   8    3.35    2.88
  14   8   8   -2.79    5.05
  14   8   8    2.19    3.05
   8 -14   8    1.80    1.82
   8 -14   8   -0.97    1.52
   6 -14  -8    2.46    2.33
  14   6  -8    2.45    2.39
   6 -14  -8    3.04    3.11
 -14  -6  -8    0.60    2.56
 -14  -6   8    4.04    3.68
  14   6   8    0.04    2.66
  -6  14   8    0.38    2.30
   6 -14   8    2.62    2.71
 -14  -6   8   -2.22    2.69
  14   6   8   -0.59    2.49
  14   4  -8    1.06    4.00
 -14  -4  -8    3.89    2.16
   4 -14  -8   -0.67    2.11
   4 -14  -8    3.07    2.99
  14   4  -8    1.81    2.57
   4 -14   8    3.66    1.74
   4 -14   8    0.66    2.32
  14   4   8    3.26    2.53
  14   4   8    2.86    2.29
  -4  14   8    6.59    2.34
 -14  -4   8    4.13    2.71
 -14  -4   8    7.08    3.75
   2 -14  -8   10.03    3.29
  14   2  -8    5.44    2.73
   2 -14  -8    8.53    2.55
  14   2  -8    6.04    2.75
  -2  14   8    6.51    2.59
 -14  -2   8    7.37    2.95
  -2  14   8    8.16    3.42
  14   2   8   10.79    2.77
   2 -14   8    8.91    2.22
 -14  -2   8    3.05    3.72
  14   2   8    6.22    2.34
   2 -14   8    7.79    2.61
   0  14  -8   11.71    2.24
   0 -14  -8   15.10    3.71
  14   0  -8   15.38    3.31
   0 -14  -8    6.58    3.10
  14   0  -8   11.80    3.17
 -14   0   8   11.76    3.84
   0  14   8    8.66    3.45
  14   0   8   14.17    2.95
  14   0   8   14.07    2.69
 -14   0   8    0.43    3.75
   0 -14   8   12.77    2.80
   0 -14   8   11.44    3.19
   0  14   8   14.18    3.21
  -2 -14  -8    9.87    2.91
  14  -2  -8    5.71    2.89
  14  -2  -8    3.59    2.77
   2  14  -8    4.89    1.92
  -2 -14  -8    9.34    3.12
  -2 -14   8    8.64    2.76
   2  14   8   11.55    3.32
  -2 -14   8    7.89    2.90
 -14   2   8    2.38    3.45
  14  -2   8    6.10    2.20
   2  14   8    4.00    3.73
  14  -2   8    5.64    1.95
  -4 -14  -8    7.95    3.08
   4  14  -8    3.07    1.90
  14  -4  -8    4.23    3.10
  14  -4  -8    4.55    2.79
  -4 -14  -8    1.46    2.82
  14  -4   8    4.84    1.60
   4  14   8    4.88    3.05
 -14   4   8    1.89    3.75
  -4 -14   8    1.56    2.86
   4  14   8    8.29    2.71
  -4 -14   8    3.28    2.47
  14  -4   8    5.83    1.95
  14  -6  -8    1.88    3.28
   6  14  -8    2.08    1.98
  14  -6  -8    0.96    2.71
  -6 -14  -8   -5.75    2.80
  -6 -14   8   -1.15    2.95
  14  -6   8    2.65    1.17
   6  14   8    4.24    3.19
  14  -6   8    1.61    1.42
   6  14   8   -1.10    2.45
  -6 -14   8   -0.87    2.54
  14  -8  -8   -1.69    3.37
  14  -8  -8    1.64    2.89
  -8 -14  -8    2.88    3.18
  -8 -14   8   -0.58    3.30
   8  14   8   -2.67    2.87
   8  14   8    5.65    3.90
 -14   8   8   -2.03    2.85
  -8 -14   8   -5.02    2.76
  14 -10  -8    1.63    3.22
  14 -10  -8    2.33    4.02
  10  14  -8    0.98    2.27
 -10 -14  -8    3.94    3.35
  10  14   8    5.07    3.60
  10  14   8    4.09    3.27
 -10 -14   8    0.11    3.93
 -14  10   8   -2.09    3.80
 -10 -14   8    0.70    2.79
 -12 -14  -8    3.04    3.51
  14 -12  -8    0.75    3.26
  14 -12  -8    4.18    4.39
  12  14  -8   -0.76    2.44
 -12 -14   8    4.42    4.49
 -12 -14   8    1.59    3.11
  12  14   8    4.03    3.44
  12  14   8    3.97    3.78
  14  14  -8    1.96    2.80
 -14 -14  -8    2.18    3.90
  14 -14  -8    2.76    3.28
  14 -14  -8   -3.94    4.77
  14  14   8    4.98    4.13
 -14 -14   8    3.94    4.83
 -14  14   8    0.83    3.76
  14  14   8    7.48    3.85
  13 -15  -8   14.89    4.94
  15  13  -8    2.17    3.21
  13 -15  -8    8.47    3.61
  15  13   8    7.63    3.91
  15  13   8    4.10    4.45
 -13  15   8    4.12    4.39
 -15 -13   8   16.81    5.43
  11 -15  -8    3.44    3.00
  15  11  -8    5.99    3.60
  11 -15  -8    3.62    4.11
 -15 -11  -8    8.48    3.72
  15  11   8    6.39    4.16
  15  11   8   11.24    3.77
  11 -15   8    6.72    1.91
 -15 -11   8    8.52    4.58
   9 -15  -8    3.61    2.62
   9 -15  -8    4.78    3.91
  15   9  -8    2.78    3.34
 -15  -9  -8    6.14    3.37
   9 -15   8    2.62    1.71
  15   9   8    4.35    3.35
 -15  -9   8    1.56    4.08
  15   9   8    1.58    3.22
   9 -15   8    5.80    2.02
  -9  15   8    6.13    3.15
   7 -15  -8    8.06    3.76
   7 -15  -8    1.59    2.32
  15   7  -8    0.31    2.86
 -15  -7  -8    3.68    3.03
  -7  15   8    0.43    2.46
  15   7   8   -3.20    2.64
  15   7   8    2.50    3.17
   7 -15   8    0.81    2.00
 -15  -7   8   -1.29    4.04
   7 -15   8    5.04    1.73
  15   5  -8   -0.11    2.65
   5 -15  -8    4.81    2.38
 -15  -5  -8    1.98    2.54
  15   5  -8    3.64    2.91
   5 -15  -8    5.58    3.25
  -5  15   8    4.93    2.62
   5 -15   8    6.31    2.20
  15   5   8    3.27    2.51
 -15  -5   8    8.65    5.10
   5 -15   8    1.80    1.84
  15   5   8    3.99    3.64
   3 -15  -8   15.76    4.07
  15   3  -8    8.74    4.36
   3 -15  -8   16.52    3.58
  15   3  -8   23.65    3.95
 -15  -3   8   13.26    4.72
  15   3   8   19.07    3.64
   3 -15   8   11.65    3.17
  -3  15   8   16.94    3.57
   3 -15   8   16.89    3.59
  15   3   8   18.57    3.74
   1 -15  -8   41.93    7.69
  15   1  -8   30.52    7.16
  15   1  -8   41.58    7.37
   1 -15  -8   35.33    7.03
   1 -15   8   31.92    6.58
 -15  -1   8   52.55    7.42
  15   1   8   40.23    7.99
  15   1   8   36.83    6.96
  -1  15   8   48.96    7.02
   1 -15   8   47.04    7.99
  15  -1  -8   29.09    7.10
  15  -1  -8   47.37    7.22
   1  15  -8   41.61    6.29
  -1 -15  -8   40.94    7.14
  -1 -15  -8   43.09    7.58
  -1 -15   8   36.60    6.74
 -15   1   8   40.44    7.77
   1  15   8   32.69    7.00
  15  -1   8   37.85    6.73
  -1 -15   8   42.00    7.87
   1  15   8   41.68    7.04
   3  15  -8   14.65    3.07
  15  -3  -8   16.73    3.86
  15  -3  -8   10.62    3.89
  -3 -15  -8   14.28    3.80
   3  15   8   12.24    4.11
 -15   3   8   14.77    4.55
   3  15   8   21.06    3.75
  -3 -15   8   16.64    3.43
  15  -3   8   13.85    3.51
  -3 -15   8   18.02    4.38
  15  -5  -8    5.98    3.09
   5  15  -8    2.49    2.01
  -5 -15  -8    5.13    3.29
  15  -5  -8    5.27    3.33
  -5 -15   8    2.90    2.61
  -5 -15   8    3.80    3.44
   5  15   8    6.74    2.90
  15  -5   8    3.15    1.96
   5  15   8    6.33    3.45
 -15   5   8    7.09    3.88
  15  -7  -8    3.73    3.66
  15  -7  -8   -0.42    2.92
  -7 -15  -8    5.37    3.31
   7  15  -8    0.69    2.14
  -7 -15   8   -0.35    3.74
  15  -7   8   -3.37    2.06
   7  15   8    1.97    2.81
  15  -7   8    2.14    1.72
  -7 -15   8   -2.06    2.81
  15  -9  -8    0.95    4.09
  -9 -15  -8    7.64    3.53
  15  -9  -8    0.17    3.32
   9  15   8    5.42    3.40
   9  15   8    5.72    4.42
  -9 -15   8    4.64    3.09
  -9 -15   8    7.12    4.68
  11  15  -8    7.99    3.07
  15 -11  -8   13.47    4.76
 -11 -15  -8    8.71    3.70
  15 -11  -8    8.22    3.78
  11  15   8    5.95    4.16
 -11 -15   8    9.10    3.64
  11  15   8    5.06    3.76
 -11 -15   8   13.16    5.66
 -13 -15  -8   -1.30    3.67
  13  15  -8    6.27    3.03
  15 -13  -8    7.29    3.80
  15 -13  -8   11.85    5.02
 -13 -15   8   14.62    8.09
 -15  13   8    4.91    3.88
  13  15   8   -0.61    4.42
  13  15   8   15.84    4.09
 -13 -15   8    7.22    3.95
  12 -16  -8    5.13    3.28
  16  12  -8   -1.43    3.12
  12 -16  -8   -2.48    4.52
 -16 -12  -8    1.43    3.74
  16  12   8    4.94    4.05
 -16 -12   8   -1.42    5.14
  16  12   8   -0.18    3.69
 -16 -10  -8    1.68    3.40
  10 -16  -8   -4.47    3.93
  10 -16  -8   -0.48    2.78
  16  10  -8   -2.03    3.18
  16  10   8    5.92    3.59
 -16 -10   8    3.49    4.70
  10 -16   8    1.96    1.79
  16  10   8    2.59    3.59
  10 -16   8   -0.40    1.53
   8 -16  -8   -0.58    3.76
   8 -16  -8   -0.06    2.45
 -16  -8  -8   -0.39    3.24
  16   8  -8   -1.84    2.88
 -16  -8   8   -1.10    4.12
   8 -16   8    2.24    1.71
  16   8   8    0.22    3.26
   8 -16   8    2.54    2.21
  16   8   8   -0.02    2.99
  -8  16   8   -0.57    2.87
   6 -16  -8    4.13    2.49
 -16  -6  -8   -1.26    2.65
   6 -16  -8    4.41    3.33
  16   6  -8    2.83    2.87
   6 -16   8   -0.19    2.22
  16   6   8   -1.46    2.89
  16   6   8    2.63    2.73
   6 -16   8    0.46    1.83
 -16  -6   8   -0.01    3.95
  -6  16   8    1.15    2.59
  16   4  -8    6.44    2.98
  16   4  -8    3.00    2.74
 -16  -4  -8   -0.34    4.06
   4 -16  -8    3.31    2.42
   4 -16  -8    1.80    3.17
  -4  16   8    5.38    2.63
   4 -16   8    2.48    1.90
 -16  -4   8    4.17    4.32
   4 -16   8    3.28    2.23
  16   4   8    1.27    2.88
  16   4   8    0.25    2.52
   2 -16  -8    3.04    2.65
  16   2  -8    6.08    3.08
   2 -16  -8    8.05    3.61
  16   2  -8    7.19    3.08
  16   2   8   10.12    2.74
   2 -16   8    8.18    2.38
   2 -16   8    7.64    2.82
  -2  16   8    4.61    2.72
  16   2   8   10.52    3.05
 -16  -2   8    2.65    4.16
  16   0  -8   15.47    3.63
   0 -16  -8   12.04    3.53
  16   0  -8    4.82    3.24
   0  16  -8   11.03    3.13
   0 -16  -8    5.03    3.67
   0 -16   8   13.11    3.26
  16   0   8   11.34    2.77
  16   0   8    8.76    2.90
   0  16   8    7.74    3.04
 -16   0   8    9.33    4.31
   0 -16   8    9.81    2.65
   2  16  -8    6.02    2.09
  16  -2  -8    8.48    3.15
  -2 -16  -8    7.06    3.46
  -2 -16  -8    8.52    3.18
  16  -2  -8    1.37    3.02
   2  16   8    7.56    4.33
  16  -2   8    5.50    2.44
  16  -2   8    6.93    2.26
  -2 -16   8    6.87    3.22
 -16   2   8    3.16    4.10
  -2 -16   8   12.37    3.39
   4  16  -8    6.25    3.20
  16  -4  -8    1.81    3.09
  16  -4  -8    4.95    3.34
  -4 -16  -8    1.75    3.37
  16  -4   8    8.94    2.14
   4  16   8    1.72    2.94
  -4 -16   8    9.80    3.60
   4  16   8   -0.75    4.06
 -16   4   8    6.80    4.00
  16  -4   8    3.13    1.89
  -4 -16   8    4.79    2.43
  16  -6  -8   -3.27    3.15
   6  16  -8   -0.83    2.07
  -6 -16  -8    3.05    3.36
  16  -6  -8    2.17    3.51
  -6 -16   8    1.49    3.61
   6  16   8    4.43    3.04
  16  -6   8    4.04    1.55
  -6 -16   8    1.57    2.91
 -16   6   8    2.17    3.95
   6  16   8    2.47    4.17
  16  -6   8    2.98    1.98
  -8 -16  -8    5.99    3.61
  16  -8  -8   -5.15    3.32
  16  -8  -8   -4.05    5.54
   8  16   8   -0.92    3.62
 -16   8   8    4.14    5.18
  -8 -16   8    5.75    4.06
   8  16   8    3.43    3.32
  16 -10  -8   -1.30    4.23
 -10 -16  -8    0.77    3.64
  16 -10  -8    2.73    3.62
  10  16  -8    3.57    3.96
  10  16   8   -1.13    3.93
 -10 -16   8    5.44    3.47
  10  16   8    2.66    3.44
 -10 -16   8    1.53    4.33
  16 -12  -8    0.48    4.85
  12  16  -8    2.44    2.75
 -12 -16  -8    0.09    3.66
  16 -12  -8    2.27    4.03
 -12 -16   8    5.35    4.92
  12  16   8   -1.53    4.19
  12  16   8   -1.02    6.93
 -12 -16   8    7.39    3.98
   9 -17  -8   -0.13    2.67
   9 -17  -8    4.04    3.94
  17   9  -8   -1.41    3.33
 -17  -9  -8    6.16    3.65
  17   9   8    3.86    3.32
  17   9   8    6.84    3.66
   9 -17   8   -0.15    1.82
   9 -17   8    0.18    2.32
 -17  -9   8    0.65    4.71
  -9  17   8    2.46    3.94
 -17  -7  -8    5.16    3.12
  17   7  -8   -0.96    3.10
   7 -17  -8    2.04    3.86
   7 -17  -8    1.56    2.57
   7 -17   8    3.68    2.44
  17   7   8   -1.37    2.87
  -7  17   8    2.36    2.90
 -17  -7   8    5.95    4.50
  17   7   8    0.63    3.05
   7 -17   8   -0.28    1.86
   5 -17  -8    3.90    3.44
 -17  -5  -8    5.39    5.03
  17   5  -8   -1.40    2.94
   5 -17  -8    2.74    2.58
  17   5  -8    4.18    3.14
  17   5   8    3.84    2.95
 -17  -5   8   -0.32    4.16
   5 -17   8   -1.07    2.47
  17   5   8   -0.69    2.62
  -5  17   8   -0.54    2.66
   5 -17   8    4.52    1.98
   3 -17  -8    7.45    3.04
   3 -17  -8   13.67    3.79
  17   3  -8   10.01    3.50
  17   3  -8    6.26    3.38
   3 -17   8    6.51    2.58
 -17  -3   8   16.95    4.80
  17   3   8   12.47    3.16
  17   3   8    9.22    3.16
  -3  17   8   14.51    3.15
   3 -17   8   11.35    3.12
   1 -17  -8   42.73    7.24
   1 -17  -8   24.80    5.92
  17   1  -8   25.50    5.82
  17   1  -8   30.15    6.46
   1 -17   8   27.70    5.36
  17   1   8   35.36    5.86
  -1  17   8   41.79    6.21
 -17  -1   8   41.51    6.88
   1 -17   8   32.68    6.10
  17   1   8   26.15    5.97
  17  -1  -8   17.27    5.57
  -1 -17  -8   32.68    5.77
  -1 -17  -8   32.32    6.11
  17  -1  -8   32.70    6.58
   1  17  -8   30.92    5.62
  -1 -17   8   32.78    5.73
   1  17   8   39.41    6.30
  17  -1   8   28.66    5.78
  -1 -17   8   24.50    5.60
  17  -1   8   35.67    5.57
 -17   1   8   40.94    6.73
  17  -3  -8    9.50    3.61
  -3 -17  -8    8.16    3.92
   3  17  -8   11.17    2.66
  17  -3  -8    4.87    3.66
  17  -3   8   11.00    2.84
  -3 -17   8   12.15    3.12
  -3 -17   8    9.94    3.64
  17  -3   8   10.99    2.68
   3  17   8   14.86    3.49
 -17   3   8   15.92    4.72
  17  -5  -8    5.81    3.31
   5  17  -8    1.11    2.68
  17  -5  -8    6.59    3.69
  -5 -17  -8    4.04    3.63
 -17   5   8    5.87    4.43
  17  -5   8    2.52    1.84
  -5 -17   8    1.01    2.63
  17  -5   8    6.99    2.29
  -5 -17   8    7.47    3.71
   5  17   8    1.60    2.91
   7  17  -8    1.30    2.31
  17  -7  -8    1.17    3.58
  17  -7  -8   -1.29    3.86
  17  -7   8   -0.29    1.48
  -7 -17   8    1.95    3.64
  17  -7   8    0.03    2.07
   7  17   8   -0.90    2.89
  -7 -17   8    5.78    3.14
 -17   7   8    0.39    5.41
  -9 -17  -8    6.33    3.82
  17  -9  -8    1.95    3.77
  17  -9  -8    4.56    4.16
  -9 -17   8    2.81    4.24
  -9 -17   8    3.85    3.51
   9  17   8    3.82    3.60
  17 -11  -8   -4.28    4.61
 -18  -8  -8    0.98    3.50
  18   8  -8    5.85    3.44
   8 -18  -8    4.53    4.37
   8 -18  -8   -0.22    2.77
  18   8   8   -3.15    3.21
   8 -18   8    3.68    2.71
  18   8   8   -0.83    3.51
   8 -18   8    1.22    1.94
 -18  -8   8    0.30    4.67
   6 -18  -8    1.92    6.01
  18   6  -8   -2.56    3.10
   6 -18  -8   -0.02    2.67
 -18  -6  -8   -1.14    6.02
   6 -18   8    3.93    2.67
   6 -18   8    3.05    2.04
  18   6   8   -4.83    3.13
  -6  18   8    3.84    2.94
  18   6   8    4.05    3.46
  18   4  -8    5.97    3.36
   4 -18  -8   -3.81    3.22
   4 -18  -8   -3.30    2.58
  18   4  -8   -0.93    3.12
 -18  -4   8   -6.81    4.23
   4 -18   8    2.90    2.82
  18   4   8   -2.57    2.99
  -4  18   8   -1.94    2.71
   4 -18   8    1.23    2.01
  18   4   8    3.64    2.94
  18   2  -8    1.33    3.82
   2 -18  -8   -0.49    3.66
  18   2  -8    1.26    3.15
   2 -18  -8    4.70    3.82
   2 -18   8    1.16    2.76
  18   2   8   -0.79    2.60
  18   2   8    1.09    2.79
 -18  -2   8    7.60    4.43
   2 -18   8   -0.06    2.09
  -2  18   8    1.70    2.67
  18   0  -8   -1.16    3.37
  18   0  -8    0.58    3.17
   0 -18  -8    2.64    3.21
   0 -18  -8    5.15    3.67
  18   0   8    1.78    2.47
 -18   0   8    3.95    4.71
   0 -18   8    5.74    2.35
   0  18   8    3.79    2.84
   0 -18   8    8.04    3.00
  18   0   8    1.21    2.58
   2  18  -8    0.83    2.05
  18  -2  -8    3.76    3.12
  18  -2  -8   -2.83    3.13
  -2 -18  -8   -2.87    3.41
 -18   2   8   10.98    4.70
  -2 -18   8    3.74    3.06
  18  -2   8    4.83    2.79
  18  -2   8    6.34    2.37
  -2 -18   8    2.29    3.29
   2  18   8   14.45    5.42
   4  18  -8    3.88    2.23
  -4 -18  -8    2.87    3.70
  18  -4  -8    0.78    3.56
  18  -4  -8    1.60    4.31
 -18   4   8   -4.62    4.47
  18  -4   8    1.87    2.52
  -4 -18   8    3.89    2.72
  -4 -18   8   -4.16    3.00
  18  -4   8   -3.53    2.01
   4  18   8    0.18    2.90
   6  18  -8    0.85    2.27
  18  -6  -8   -1.06    3.77
  18  -6  -8    6.06    3.76
  -6 -18  -8    1.85    3.81
  18  -6   8    0.59    2.40
   6  18   8   -2.90    3.07
  -6 -18   8    2.90    3.01
  -6 -18   8    6.16    3.56
  18  -6   8   -1.75    1.81
 -18   6   8   -1.31    6.68
   8  18  -8   -2.12    2.32
  -8 -18  -8    7.84    3.98
  18  -8  -8   -0.71    3.89
  18  -8  -8   -3.55    3.99
   8  18   8   -3.26    3.17
  18  -8   8   -2.74    1.52
  -8 -18   8   -1.24    3.79
  -8 -18   8    0.95    3.44
   5 -19  -8   -2.09    3.81
   5 -19  -8   -0.80    2.82
  19   5  -8   -0.31    3.21
  -5  19   8    3.23    3.03
  19   5   8    1.58    3.08
  19   5   8   -2.74    3.13
 -19  -5   8    1.99    4.75
   5 -19   8    4.35    2.93
  19   3  -8   -3.34    3.33
   3 -19  -8    3.67    3.70
  19   3  -8    4.59    3.40
   3 -19  -8    8.67    3.73
  19   3   8    0.69    2.95
   3 -19   8   -2.95    2.95
  19   3   8   -2.27    2.86
 -19  -3   8    5.39    4.62
   3 -19   8    2.26    2.27
  -3  19   8    1.64    2.75
   1 -19  -8    6.29    3.99
  19   1  -8    6.43    3.44
   1 -19  -8    3.30    3.34
  19   1   8    5.48    3.05
  -1  19   8    7.22    3.06
 -19  -1   8    6.96    4.68
   1 -19   8    3.00    3.12
   1 -19   8    3.69    2.48
  19   1   8    7.65    2.91
  -1 -19  -8   10.89    4.15
  19  -1  -8   11.16    4.57
  19  -1  -8    3.14    3.68
 -19   1   8    4.01    5.09
  -1 -19   8   11.14    3.64
  19  -1   8    3.92    2.67
  19  -1   8    6.63    4.21
  -1 -19   8    2.93    2.64
   1  19   8   10.07    3.34
  19  -3  -8   -1.44    3.77
   3  19  -8    1.91    2.21
  -3 -19  -8   -1.02    3.73
  19  -3  -8   -1.44    3.24
  -3 -19   8   -5.61    2.50
   3  19   8    0.30    3.03
 -19   3   8   -4.35    4.85
  19  -3   8    3.89    2.97
  19  -3   8    3.59    2.34
  -3 -19   8    1.76    3.35
  -5 -19  -8   -0.22    3.96
   5  19  -8    2.65    2.44
  19  -5  -8   -2.32    3.44
  19  -5  -8   -1.43    3.81
  -5 -19   8    1.97    3.00
  19  -5   8    1.23    2.12
  19  -5   8    2.66    2.69
   5  19   8   -4.14    3.08
  -5 -19   8    2.66    3.75
  20   2  -8    1.47    3.81
   2 -20  -8   -2.51    3.58
   2 -20  -8    0.28    6.34
  20   2   8   -2.32    3.03
   2 -20   8   -2.21    3.17
  -2  20   8    0.45    2.79
   2 -20   8    0.61    2.35
 -20  -2   8   -2.64    4.50
  20   2   8   -8.50    2.87
  20   0  -8    0.58    3.36
   0 -20  -8   -3.55    3.90
  20   0  -8   -6.67    6.19
 -20   0   8   -0.34    4.58
   0 -20   8    4.99    3.45
   0  20   8    1.69    2.90
  20   0   8    3.51    2.76
   0 -20   8    1.58    2.52
  20   0   8   -1.93    2.95
  20  -2  -8   -8.43    3.27
  20  -2  -8    2.61    3.77
   2  20  -8   -0.61    3.04
  -2 -20  -8   -1.11    3.88
  20  -2   8    0.81    2.57
 -20   2   8    3.00    5.39
  20  -2   8    1.30    3.10
  -2 -20   8   -0.97    3.28
  -2 -20   8   -1.86    2.77
   2  20   8    3.20    4.98
   0  -1  -9    1.42    1.26
   0   1  -9   -1.01    1.30
  -1   0  -9    1.07    1.45
   0  -1  -9   -0.04    0.75
   0   1  -9    2.15    1.20
   1   0  -9    0.71    1.23
  -1   0  -9    3.95    1.20
   0   1   9    0.95    1.39
   0   1   9    3.55    1.54
   1   0   9   -0.05    1.31
  -1   0   9    4.22    1.53
   0  -1   9    0.81    1.35
   1   0   9    2.84    1.49
  -1   0   9    2.60    1.57
   2   1  -9   16.36    3.02
  -2  -1  -9   18.09    3.13
  -2  -1  -9   15.00    3.16
   1  -2  -9   15.71    3.33
   1  -2  -9   22.63    3.61
  -1   2  -9   12.77    3.05
  -1   2  -9   17.97    2.96
  -1   2   9   17.87    3.13
  -1   2   9   16.89    3.29
   2   1   9   17.18    3.03
  -2  -1   9   17.86    3.56
   1  -2   9   17.86    3.11
   1  -2   9   15.96    3.32
  -2  -1   9   20.00    3.55
   2   1   9   19.97    3.59
  -2   1  -9   14.30    3.03
   2  -1  -9   18.35    3.03
   1   2  -9   15.43    2.98
  -1  -2  -9   16.91    3.32
   2  -1  -9   15.13    4.02
   1   2  -9   16.61    3.20
  -2   1  -9   15.33    3.16
   2  -1   9   18.77    3.67
   2  -1   9   14.91    3.21
  -2   1   9   17.74    3.24
   1   2   9   21.84    3.34
  -2   1   9   17.55    3.19
   1   2   9   21.44    3.41
  -1  -2   9   16.94    3.03
  -1  -2   9   15.02    3.09
  -3  -2  -9   24.69    4.49
   2  -3  -9   25.29    4.82
  -2   3  -9   23.04    4.08
  -2   3  -9   25.28    4.13
   2  -3  -9   23.80    4.40
   3   2  -9   21.86    4.32
  -3  -2  -9   24.30    4.52
   3   2   9   25.24    4.62
  -2   3   9   19.68    4.68
   3   2   9   29.42    4.36
  -3  -2   9   30.60    4.54
   2  -3   9   32.41    4.30
  -3  -2   9   24.59    4.56
   2  -3   9   22.22    4.35
  -2   3   9   28.11    5.27
   3   0  -9   19.05    3.44
   0   3  -9   17.80    3.22
  -3   0  -9   19.67    3.39
   0   3  -9   15.36    3.32
  -3   0  -9   15.48    3.18
   0  -3  -9   16.80    3.41
   0  -3  -9   22.40    3.94
   3   0  -9   16.11    3.46
   3   0   9   21.74    3.39
  -3   0   9   18.49    3.68
   0  -3   9   15.83    3.39
   0   3   9   20.20    3.47
   0  -3   9   16.84    3.21
  -3   0   9   15.46    3.25
   0   3   9   22.91    3.57
   3   0   9   17.68    3.55
  -3   2  -9   23.41    4.28
   2   3  -9   24.95    4.43
  -2  -3  -9   25.62    4.43
   2   3  -9   28.64    4.42
  -3   2  -9   25.04    4.17
   3  -2  -9   24.79    4.86
   3  -2  -9   29.21    4.59
  -2  -3   9   23.92    4.65
  -3   2   9   20.49    4.74
   3  -2   9   21.26    4.49
   3  -2   9   30.13    4.37
   2   3   9   31.30    4.54
  -2  -3   9   28.55    4.59
   2   3   9   30.60    4.82
  -3   4  -9   17.10    2.80
   3  -4  -9   19.67    3.09
  -3   4  -9   13.64    2.72
  -4  -3  -9   14.79    3.26
   4   3  -9   15.97    3.28
   3  -4  -9   18.26    3.40
   4   3  -9   13.50    3.09
  -4  -3  -9   13.11    3.12
  -4  -3   9   19.09    3.72
  -3   4   9   17.21    3.15
   4   3   9   14.85    3.14
  -3   4   9   19.86    3.89
   3  -4   9   16.55    3.15
   4   3   9   21.00    3.41
  -4  -3   9   19.65    3.65
   3  -4   9   14.49    2.90
  -4  -1  -9   41.24    6.46
   1  -4  -9   40.97    6.86
   4   1  -9   35.69    6.50
  -4  -1  -9   32.15    6.92
  -1   4  -9   37.14    6.82
   1  -4  -9   42.89    6.53
   4   1  -9   46.47    6.64
  -1   4  -9   39.98    6.34
  -4  -1   9   39.91    6.63
   4   1   9   44.15    6.43
   1  -4   9   39.42    6.53
  -1   4   9   48.59    6.64
  -4  -1   9   43.47    6.63
   4   1   9   39.05    6.65
   1  -4   9   41.82    6.42
  -1   4   9   38.14    6.72
  -4   1  -9   50.30    7.28
   4  -1  -9   40.48    6.85
  -1  -4  -9   47.03    7.15
   4  -1  -9   45.05    7.08
  -4   1  -9   43.01    6.62
   1   4  -9   37.50    6.74
  -1  -4  -9   45.25    6.82
  -4   1   9   44.54    7.06
   1   4   9   43.23    7.05
  -1  -4   9   44.54    6.93
  -1  -4   9   43.67    6.83
   4  -1   9   44.41    6.87
   1   4   9   44.17    6.90
   4  -1   9   41.52    6.71
   3   4  -9   15.55    3.01
   3   4  -9   17.82    3.58
   4  -3  -9   16.54    3.24
  -3  -4  -9   17.14    3.82
  -4   3  -9   14.86    2.54
   4  -3  -9   10.87    2.79
  -4   3  -9   16.76    2.65
   3   4   9   15.54    3.07
  -3  -4   9   17.65    3.47
   4  -3   9   15.18    2.94
   3   4   9   12.53    2.84
   4  -3   9   15.17    2.82
  -4   3   9   17.89    3.07
  -3  -4   9   15.91    3.05
   4  -5  -9   11.66    2.69
  -5  -4  -9    5.41    2.31
   5   4  -9    7.68    2.16
   4  -5  -9    5.88    2.06
  -5  -4  -9    7.91    1.93
   5   4  -9   10.66    2.36
   5   4   9   10.96    2.51
   4  -5   9    8.06    1.94
  -4   5   9    6.08    2.48
   5   4   9    7.88    2.08
   4  -5   9    8.28    1.78
  -4   5   9    8.36    2.23
  -5  -4   9    7.21    2.33
  -5  -4   9   10.53    2.38
   5   2  -9   28.16    5.89
   2  -5  -9   35.92    5.96
   2  -5  -9   39.40    6.31
  -5  -2  -9   40.37    5.96
   5   2  -9   35.17    5.94
  -2   5  -9   41.52    5.57
  -5  -2  -9   31.39    5.70
  -5  -2   9   38.74    6.07
   2  -5   9   35.92    5.76
  -5  -2   9   38.75    6.10
   5   2   9   37.68    5.82
   5   2   9   32.18    6.03
  -2   5   9   36.19    6.72
  -2   5   9   39.23    6.08
   2  -5   9   32.14    5.90
   0   5  -9   40.55    6.10
   0   5  -9   40.35    6.18
  -5   0  -9   45.84    6.48
   5   0  -9   38.04    6.40
  -5   0  -9   39.92    6.23
   0  -5  -9   41.34    6.40
   0  -5  -9   37.75    6.59
   5   0  -9   45.18    6.52
   0   5   9   32.71    6.58
  -5   0   9   37.33    6.82
   5   0   9   40.09    6.41
   0  -5   9   43.56    6.34
   5   0   9   38.20    6.20
   0  -5   9   34.58    6.44
  -5   0   9   34.36    6.51
   0   5   9   41.46    6.45
   5  -2  -9   44.59    6.23
  -2  -5  -9   30.38    6.40
  -5   2  -9   34.12    5.42
  -2  -5  -9   35.39    5.92
   5  -2  -9   33.95    5.92
  -5   2  -9   37.81    5.44
   2   5  -9   36.79    5.79
   2   5  -9   35.55    5.71
   5  -2   9   32.85    5.62
  -5   2   9   35.01    6.09
   2   5   9   41.73    5.95
  -5   2   9   32.73    6.31
  -2  -5   9   31.33    5.94
   5  -2   9   40.88    5.84
   2   5   9   29.80    6.10
  -2  -5   9   39.98    5.94
   5  -4  -9    6.93    2.67
   5  -4  -9    9.64    2.19
   4   5  -9    7.81    2.06
  -4  -5  -9   12.40    2.20
   4   5   9    5.45    2.49
  -5   4   9    8.57    2.45
   5  -4   9   11.27    1.86
   5  -4   9    5.81    1.98
  -4  -5   9    9.87    2.31
  -4  -5   9   10.87    2.39
   4   5   9   10.61    2.24
  -5   4   9    3.24    2.39
   6   5  -9    8.81    2.16
   6   5  -9    6.15    2.16
   5  -6  -9    7.35    2.83
  -6  -5  -9    6.59    1.98
  -6  -5  -9    5.37    2.39
   5  -6  -9    5.49    2.14
  -6  -5   9    7.54    2.36
   6   5   9   10.71    2.67
   5  -6   9    9.67    1.73
  -5   6   9    7.04    2.39
   5  -6   9    9.24    1.91
  -5   6   9    3.37    2.53
   6   5   9    8.12    2.19
  -6  -3  -9   29.11    4.64
   6   3  -9   28.95    4.95
  -6  -3  -9   22.64    4.31
   3  -6  -9   23.87    5.08
   6   3  -9   23.35    4.63
   3  -6  -9   23.09    4.62
   6   3   9   28.58    4.46
   3  -6   9   29.88    4.28
  -6  -3   9   24.07    4.82
  -3   6   9   26.45    4.83
  -3   6   9   17.06    4.46
   6   3   9   30.84    4.80
  -6  -3   9   25.07    4.83
   3  -6   9   21.26    4.45
  -1   6  -9   70.17   10.39
   1  -6  -9   73.05   10.61
  -6  -1  -9   69.32   10.63
   6   1  -9   63.36   10.63
   6   1  -9   79.44   10.72
  -6  -1  -9   69.26   10.41
   1  -6  -9   64.92   10.85
  -1   6  -9   66.27   10.35
   1  -6   9   62.89   10.57
   1  -6   9   68.52   10.51
   6   1   9   70.57   10.65
  -6  -1   9   65.10   10.70
  -6  -1   9   75.66   10.72
   6   1   9   77.87   10.51
   6  -1  -9   69.59   10.57
   1   6  -9   72.69   10.37
   6  -1  -9   69.95   10.70
  -6   1  -9   72.09   10.24
  -1  -6  -9   72.88   10.53
  -6   1  -9   59.38   10.44
  -1  -6  -9   69.26   10.74
   1   6  -9   69.44   10.42
   1   6   9   75.95   10.60
  -6   1   9   80.20   10.69
  -1  -6   9   66.24   10.52
  -1  -6   9   58.00   10.54
  -6   1   9   67.47   10.68
   1   6   9   58.37   10.71
   6  -1   9   70.55   10.52
   6  -1   9   70.25   10.35
   3   6  -9   28.02    4.28
   6  -3  -9   27.43    4.48
   3   6  -9   18.16    4.26
   6  -3  -9   24.31    4.54
  -3  -6  -9   29.57    5.48
  -3  -6  -9   20.19    4.47
  -3  -6   9   26.06    4.54
   6  -3   9   20.42    4.25
   3   6   9   29.89    4.59
  -6   3   9   25.48    4.76
   6  -3   9   23.53    4.03
   3   6   9   24.07    4.77
  -6   3   9   23.52    4.77
   6  -5  -9    8.05    2.75
   5   6  -9    7.69    2.07
  -5  -6  -9    9.57    2.14
   6  -5  -9    6.66    2.09
  -5  -6   9    6.73    2.37
  -6   5   9   11.04    2.55
   5   6   9    7.50    2.17
   6  -5   9    7.29    1.86
   6  -5   9    5.55    1.62
   5   6   9    6.79    2.67
  -6   5   9    3.75    2.47
  -5  -6   9   10.65    2.66
   7   6  -9    0.15    1.82
   6  -7  -9    0.13    1.84
   6  -7  -9    2.90    2.68
   7   6  -9    1.10    1.86
  -7  -6  -9   -4.01    2.00
  -6   7   9    2.09    2.10
  -7  -6   9   -0.82    2.48
   7   6   9    0.94    1.89
  -7  -6   9    0.54    2.07
   6  -7   9    1.60    1.24
   7   6   9    1.99    2.35
   6  -7   9   -1.86    1.51
  -6   7   9   -2.87    2.31
  -7  -4  -9    9.87    2.28
   7   4  -9    4.38    1.92
   4  -7  -9    2.16    2.00
   7   4  -9    3.87    1.97
   4  -7  -9    6.47    2.61
  -7  -4  -9    5.39    1.73
   7   4   9    9.96    2.45
  -4   7   9    4.63    2.08
   4  -7   9    2.07    1.75
  -7  -4   9    3.90    2.29
  -4   7   9   10.93    2.51
   7   4   9    6.64    1.89
   4  -7   9    4.76    1.54
  -7  -2  -9   33.11    5.18
   2  -7  -9   33.24    5.07
   7   2  -9   19.78    5.08
   2  -7  -9   23.79    5.55
   7   2  -9   26.69    5.12
  -2   7  -9   29.73    4.41
  -7  -2  -9   29.53    4.72
  -7  -2   9   33.11    5.39
   7   2   9   27.69    5.22
  -2   7   9   33.92    5.17
   7   2   9   30.06    4.91
  -7  -2   9   34.46    5.69
   2  -7   9   29.97    4.86
  -2   7   9   25.95    5.06
   2  -7   9   22.06    4.88
   0  -7  -9   25.50    4.89
   7   0  -9   29.69    5.00
   0  -7  -9   28.74    5.33
  -7   0  -9   30.64    4.43
   0   7  -9   29.76    5.27
   0   7  -9   23.48    4.49
  -7   0  -9   29.00    4.39
   7   0  -9   33.06    5.20
   7   0   9   25.75    4.63
   0  -7   9   28.36    4.89
  -7   0   9   29.27    5.15
   0   7   9   31.04    5.02
   0  -7   9   23.94    4.88
  -7   0   9   29.09    5.10
   0   7   9   24.05    5.31
   7   0   9   25.57    4.92
  -2  -7  -9   24.75    5.75
   7  -2  -9   30.08    5.39
   2   7  -9   27.53    4.65
   2   7  -9   30.53    4.72
  -2  -7  -9   26.52    5.33
   7  -2  -9   31.30    5.08
   2   7   9   22.52    5.30
  -7   2   9   24.81    5.25
  -7   2   9   33.00    5.27
   7  -2   9   22.09    4.84
   2   7   9   34.91    5.05
   7  -2   9   29.71    4.57
  -2  -7   9   22.70    4.95
   4   7  -9    5.13    1.85
   7  -4  -9    8.01    2.77
   4   7  -9    5.83    1.84
   7  -4  -9    4.37    2.01
  -4  -7  -9    6.57    2.09
  -4  -7  -9    9.96    3.73
  -7   4   9    1.73    2.27
   4   7   9    7.52    2.14
  -7   4   9    6.37    2.31
  -4  -7   9    5.30    2.24
  -4  -7   9    3.55    2.33
   7  -4   9    5.21    1.77
   4   7   9    3.46    2.50
   7  -4   9    5.17    1.49
   7  -6  -9   -0.89    1.83
   6   7  -9    0.79    1.81
  -6  -7  -9    0.58    2.02
   7  -6  -9   -1.80    2.65
   6   7  -9    3.55    2.30
  -7   6   9    0.60    2.36
   6   7   9   -3.77    1.84
  -6  -7   9    0.73    2.36
  -7   6   9    1.76    2.15
   7  -6   9    1.20    1.14
  -6  -7   9    0.20    1.98
   6   7   9   -0.11    2.29
   7  -8  -9   13.74    3.89
   8   7  -9   14.93    3.06
  -8  -7  -9   13.21    3.21
   7  -8  -9    9.09    2.97
  -8  -7   9    6.57    3.67
   8   7   9   16.98    3.59
   7  -8   9   11.36    2.66
   8   7   9   17.97    3.12
   7  -8   9   20.29    2.78
  -7   8   9   10.14    3.23
  -8  -7   9   14.23    3.64
   8   5  -9   13.18    3.29
   8   5  -9   14.73    3.28
   5  -8  -9   13.82    3.77
  -8  -5  -9   13.09    3.41
   5  -8  -9   12.18    3.22
  -8  -5   9   11.55    3.47
   8   5   9   25.62    3.90
   5  -8   9   27.41    3.26
  -5   8   9   12.82    3.53
  -8  -5   9   20.37    3.75
   5  -8   9   19.03    3.39
   8   5   9   18.95    3.64
  -5   8   9   16.21    3.42
   8   3  -9   26.35    4.42
  -8  -3  -9   18.90    3.86
  -8  -3  -9   21.18    4.28
   3  -8  -9   22.48    4.21
   3  -8  -9   26.35    4.92
  -8  -3   9   16.46    3.89
   8   3   9   20.02    4.05
   3  -8   9   18.76    3.92
   8   3   9   23.15    4.33
   3  -8   9   22.39    3.91
  -3   8   9   15.89    3.94
  -3   8   9   25.99    4.39
  -8  -1  -9   36.59    5.77
   8   1  -9   34.05    6.28
  -1   8  -9   32.62    5.66
   1  -8  -9   40.07    6.63
   1  -8  -9   35.66    6.13
  -8  -1  -9   41.59    5.86
  -1   8  -9   38.71    5.71
   8   1  -9   47.34    6.42
   8   1   9   36.13    6.33
   8   1   9   41.04    5.96
  -1   8   9   42.78    6.68
  -1   8   9   29.33    6.44
   1  -8   9   29.25    6.09
  -8  -1   9   39.52    6.38
   1   8  -9   36.44    6.05
   1   8  -9   35.49    6.04
  -1  -8  -9   31.83    6.71
   8  -1  -9   38.82    6.46
   8  -1  -9   37.79    6.62
  -1  -8  -9   35.86    6.77
  -1  -8   9   33.04    6.38
  -8   1   9   41.48    6.61
   8  -1   9   40.84    6.07
  -1  -8   9   39.38    6.39
   8  -1   9   44.72    6.29
  -8   1   9   47.18    6.65
   1   8   9   28.60    6.63
   1   8   9   44.02    6.48
  -3  -8  -9   21.72    4.29
  -3  -8  -9   18.22    4.03
   8  -3  -9   20.65    4.24
   3   8  -9   19.88    3.98
   3   8  -9   20.11    4.18
   8  -3  -9   21.93    4.42
  -3  -8   9   24.39    4.52
  -8   3   9   15.23    3.97
  -8   3   9   26.52    4.63
  -3  -8   9   20.40    4.29
   8  -3   9   20.58    3.99
   8  -3   9   22.69    3.62
   3   8   9   22.57    4.26
   3   8   9   23.81    4.39
  -5  -8  -9   14.86    3.58
   8  -5  -9   23.51    4.16
  -5  -8  -9   16.93    3.33
   8  -5  -9   18.03    3.87
   5   8  -9   14.16    3.06
  -8   5   9   16.96    3.57
   8  -5   9   14.49    2.97
   5   8   9   16.16    3.79
   5   8   9   16.75    3.43
  -8   5   9   14.28    3.63
   8  -5   9   17.97    3.06
  -5  -8   9   17.88    3.43
  -5  -8   9   26.55    4.42
   8  -7  -9   11.35    3.16
   8  -7  -9   13.62    3.90
   7   8  -9   13.63    3.61
  -7  -8   9   16.50    3.56
   8  -7   9   14.25    3.34
  -8   7   9   16.99    5.42
  -8   7   9   13.15    3.35
   7   8   9   14.91    3.22
   7   8   9   17.01    3.75
  -7  -8   9    9.09    3.21
   8  -7   9   19.72    2.79
  -9  -8  -9   14.28    3.38
   9   8  -9   13.36    3.16
   8  -9  -9    9.31    3.12
   8  -9  -9   19.43    4.02
   8  -9   9   15.43    2.59
  -9  -8   9   16.70    3.85
  -8   9   9   11.12    3.51
  -8   9   9   17.17    3.53
   9   8   9   16.05    3.81
  -9  -8   9    9.08    3.18
   9   8   9   14.61    3.31
   9   6  -9    4.36    2.24
  -9  -6  -9    9.84    2.54
   6  -9  -9    4.60    2.29
   9   6  -9    5.29    2.40
   6  -9  -9    4.69    3.06
   6  -9   9    4.59    1.87
  -9  -6   9    9.38    2.57
  -9  -6   9    6.14    3.07
   9   6   9    7.46    2.38
   9   6   9    5.49    2.76
  -6   9   9    8.73    2.51
   9   4  -9   16.07    3.60
  -9  -4  -9   23.99    4.38
   4  -9  -9   12.55    3.50
   9   4  -9   17.17    3.69
   4  -9  -9   17.55    4.05
  -9  -4   9   16.10    3.74
  -9  -4   9   34.60    4.94
  -4   9   9   26.65    4.46
   9   4   9   18.02    3.88
   4  -9   9   20.07    3.75
  -4   9   9   18.25    3.83
   9   4   9   24.71    4.01
  -9  -2  -9   44.87    7.62
  -9  -2  -9   50.03    7.62
   2  -9  -9   58.66    7.84
   2  -9  -9   45.90    8.32
   9   2  -9   38.38    7.86
   9   2  -9   55.24    7.90
  -9  -2   9   45.64    8.02
   9   2   9   42.17    7.89
  -2   9   9   38.53    8.05
  -2   9   9   60.11    7.98
   2  -9   9   44.48    7.65
   2  -9   9   51.58    7.73
   9   2   9   51.52    7.60
   9   0  -9   57.52    8.49
   0  -9  -9   54.23    8.71
   0   9  -9   57.25    8.03
   0  -9  -9   50.02    8.37
   0   9  -9   50.66    7.98
   9   0  -9   57.97    8.60
   9   0   9   50.30    8.41
  -9   0   9   51.37    8.56
   0   9   9   63.05    8.50
   0  -9   9   50.11    8.33
   0   9   9   43.36    8.68
   9   0   9   46.84    8.10
  -9   0   9   56.21    8.63
   0  -9   9   52.02    8.36
   9  -2  -9   37.96    7.68
   2   9  -9   41.42    7.31
  -2  -9  -9   45.47    7.87
  -2  -9  -9   50.84    7.64
   9  -2  -9   57.81    7.90
   9  -2   9   45.18    7.21
  -9   2   9   48.70    7.90
   2   9   9   55.46    7.74
   2   9   9   46.85    8.01
  -2  -9   9   48.41    7.70
  -9   2   9   56.41    7.87
   9  -2   9   44.71    7.41
  -2  -9   9   40.84    7.60
  -4  -9  -9   17.98    3.65
   9  -4  -9   28.55    4.28
   4   9  -9   21.68    3.87
  -4  -9  -9   16.03    3.79
   9  -4  -9   16.61    3.67
  -9   4   9   20.17    3.94
   9  -4   9   20.66    3.33
   9  -4   9   19.66    3.68
   4   9   9   19.59    5.19
  -4  -9   9   20.11    3.82
  -9   4   9   15.01    3.87
  -4  -9   9   14.43    3.61
   4   9   9   18.49    3.72
  -6  -9  -9    3.73    2.59
   9  -6  -9    4.15    2.32
   6   9  -9    0.46    1.42
   9  -6  -9    6.96    3.17
  -6  -9   9    5.39    2.46
   6   9   9    1.21    2.79
   9  -6   9    5.90    2.00
   9  -6   9   11.45    1.84
  -6  -9   9   10.47    2.64
   6   9   9    7.79    2.41
  -9   6   9    8.47    2.56
  -9   6   9    4.01    2.90
   9  -8  -9   12.12    3.22
   9  -8  -9   15.03    3.99
   8   9  -9   12.71    3.07
   8   9   9   17.77    3.31
   9  -8   9   15.03    2.62
   9  -8   9   13.10    2.50
   8   9   9   13.88    3.75
  -8  -9   9    5.01    3.26
  -9   8   9   17.66    3.54
  -9   8   9   12.76    3.62
  -8  -9   9   19.41    3.86
   9 -10  -9    7.92    3.48
   9 -10  -9    5.35    2.56
 -10  -9  -9    2.78    2.68
  10   9  -9    6.16    2.50
   9 -10   9    3.91    1.48
 -10  -9   9   13.12    3.59
 -10  -9   9   -2.41    2.52
  10   9   9    6.34    2.56
  10   9   9    2.96    3.16
  -9  10   9    5.42    2.67
   7 -10  -9    1.53    2.99
   7 -10  -9    0.18    2.08
  10   7  -9    1.32    2.12
 -10  -7  -9   -2.26    2.31
 -10  -7   9   -0.88    2.82
 -10  -7   9   -1.64    2.29
  -7  10   9    4.78    2.52
   7 -10   9    0.90    1.48
  -7  10   9    3.22    2.41
  10   7   9   -2.51    2.73
  10   7   9    2.35    2.11
   7 -10   9    2.17    1.58
  10   5  -9   -0.64    2.13
   5 -10  -9    2.42    2.01
 -10  -5  -9   -0.30    2.10
  10   5  -9    0.12    2.18
   5 -10  -9    1.42    2.79
   5 -10   9   -0.38    1.62
   5 -10   9    0.83    1.74
  -5  10   9   -0.71    2.72
 -10  -5   9    1.40    2.88
  -5  10   9    0.29    2.04
 -10  -5   9    0.68    2.31
  10   5   9    1.05    2.57
  10   5   9    2.59    1.93
  10   3  -9    1.22    2.20
   3 -10  -9    3.55    2.05
   3 -10  -9    8.10    2.98
  10   3  -9   -1.89    2.04
 -10  -3  -9    2.93    2.03
  10   3   9    0.91    1.73
  10   3   9   -0.60    2.35
 -10  -3   9    0.60    2.28
   3 -10   9    0.04    1.81
  -3  10   9    2.59    2.01
   3 -10   9    1.36    1.77
  -3  10   9    4.29    2.39
 -10  -3   9    2.21    2.77
 -10  -1  -9    8.41    1.79
 -10  -1  -9    9.32    1.83
  -1  10  -9    9.36    1.75
   1 -10  -9    8.24    3.05
   1 -10  -9    7.24    2.46
  10   1  -9    8.40    2.64
  10   1  -9   11.04    2.77
  -1  10  -9    8.64    1.70
  -1  10   9    7.73    3.05
 -10  -1   9   11.20    2.78
   1 -10   9   11.72    2.59
  10   1   9   10.91    2.26
  10   1   9   14.58    2.77
  -1  10   9   11.36    2.75
   1 -10   9    9.79    2.53
  10  -1  -9   10.38    2.66
   1  10  -9    8.49    2.06
  -1 -10  -9    8.35    2.76
  -1 -10  -9    7.45    2.85
  10  -1  -9    7.47    2.89
   1  10   9    9.28    3.00
   1  10   9    6.09    2.65
 -10   1   9   10.62    2.91
 -10   1   9   14.64    2.96
  10  -1   9   11.12    2.05
  10  -1   9    4.64    2.40
  -1 -10   9   10.82    2.57
  -1 -10   9    8.23    2.66
  10  -3  -9    3.54    2.67
   3  10  -9    0.15    1.57
  -3 -10  -9    3.57    2.56
  -3 -10  -9    4.53    2.21
  10  -3  -9    3.61    2.25
  -3 -10   9    0.31    2.26
  10  -3   9   -2.19    1.75
  10  -3   9    1.71    1.29
   3  10   9    3.56    2.60
 -10   3   9    0.08    2.44
   3  10   9    3.72    2.28
 -10   3   9   -2.09    2.30
  -3 -10   9   -0.31    2.04
  10  -5  -9    2.72    2.38
   5  10  -9    4.56    1.80
  10  -5  -9   -0.52    2.87
  -5 -10  -9    1.65    2.60
 -10   5   9    2.06    2.64
   5  10   9    1.84    2.24
  10  -5   9    1.81    1.13
 -10   5   9   -1.64    2.32
   5  10   9   -2.34    2.60
  -5 -10   9    4.98    2.76
  -5 -10   9   -0.77    2.14
  10  -5   9    0.88    2.29
  -7 -10  -9   -1.06    2.49
  10  -7  -9   -5.56    3.09
  10  -7  -9   -2.37    2.35
 -10   7   9   -0.11    2.82
  10  -7   9    1.02    1.05
 -10   7   9    0.30    2.42
  10  -7   9    0.65    1.37
  -7 -10   9   -2.11    2.72
  -7 -10   9    4.18    2.37
   7  10   9    1.35    2.41
  -9 -10  -9    6.35    3.36
  10  -9  -9   -3.50    3.32
   9  10  -9    4.42    2.25
  10  -9  -9    5.78    2.68
   9  10   9    1.75    3.38
  -9 -10   9    0.49    2.56
 -10   9   9    4.96    2.77
   9  10   9    2.65    2.51
  -9 -10   9    5.43    3.41
 -11 -10  -9    2.25    2.50
  10 -11  -9    1.54    2.53
  11  10  -9    0.18    2.40
  10 -11  -9   -3.21    3.48
  11  10   9    4.51    2.66
  11  10   9    0.03    3.31
 -11 -10   9   -2.08    2.66
 -10  11   9   -2.80    2.88
 -11 -10   9    5.07    3.60
   8 -11  -9    6.61    3.55
 -11  -8  -9    7.75    3.02
  11   8  -9    6.71    2.82
   8 -11  -9    9.06    2.73
 -11  -8   9    6.52    3.05
   8 -11   9    9.95    2.08
  11   8   9    7.58    2.82
  11   8   9    6.50    3.27
  -8  11   9    9.85    3.06
   8 -11   9    9.00    2.00
 -11  -8   9    5.84    3.58
   6 -11  -9    3.70    2.37
   6 -11  -9    9.13    3.38
 -11  -6  -9    5.37    2.65
  11   6  -9   11.94    2.70
   6 -11   9    9.32    2.03
  11   6   9   13.74    3.28
  -6  11   9    7.55    2.60
  -6  11   9    4.26    2.67
   6 -11   9    6.56    2.81
 -11  -6   9    3.66    2.77
 -11  -6   9    7.49    3.22
  11   6   9    4.33    2.41
  11   4  -9   12.34    2.95
   4 -11  -9   13.76    3.49
   4 -11  -9   12.55    2.89
 -11  -4  -9   12.89    2.95
  11   4  -9    8.47    2.93
  -4  11   9    8.95    2.88
   4 -11   9   12.25    2.56
 -11  -4   9    9.23    3.07
 -11  -4   9   16.25    3.66
  11   4   9   10.92    2.68
  -4  11   9   15.07    3.24
  11   4   9   11.16    3.35
   4 -11   9    9.90    2.56
  11   2  -9    9.65    3.33
   2 -11  -9   14.50    3.24
   2 -11  -9   16.88    3.71
 -11  -2  -9   18.55    2.93
   2 -11   9   19.26    3.25
  -2  11   9   15.21    3.33
  -2  11   9   13.05    3.64
  11   2   9   17.72    3.11
  11   2   9   17.14    3.53
 -11  -2   9   14.79    3.51
   2 -11   9   13.94    3.11
  11   0  -9   18.55    3.54
   0 -11  -9   17.62    4.36
   0 -11  -9   11.14    3.54
  11   0  -9   14.45    3.39
   0  11  -9   13.41    2.94
  11   0   9   14.74    3.23
   0  11   9   21.15    3.54
 -11   0   9   18.98    3.57
   0 -11   9   16.36    3.22
  11   0   9   14.54    2.91
   0 -11   9   14.07    3.21
   0  11   9   12.32    3.70
  11  -2  -9    9.05    3.40
   2  11  -9   15.21    3.64
  -2 -11  -9   13.00    3.41
  -2 -11  -9   15.14    3.73
 -11   2   9   18.92    3.71
  -2 -11   9   16.80    3.65
  11  -2   9   16.68    3.24
  -2 -11   9   19.11    3.57
   2  11   9   20.24    3.65
  11  -2   9   20.02    3.22
   2  11   9   15.61    3.76
  -4 -11  -9   10.60    3.54
  -4 -11  -9   16.42    3.93
   4  11  -9   11.80    2.71
  11  -4  -9   11.47    3.19
  11  -4  -9   10.20    3.63
  11  -4   9   16.49    2.93
  -4 -11   9   17.10    3.34
 -11   4   9    7.87    3.40
 -11   4   9   19.91    3.45
  11  -4   9   14.38    2.69
   4  11   9   16.39    3.27
  -4 -11   9   10.13    3.03
   4  11   9   10.55    3.49
   6  11  -9    4.36    2.19
  -6 -11  -9    8.27    3.02
  11  -6  -9    3.23    2.80
  11  -6  -9   10.95    3.45
 -11   6   9    6.26    2.79
  11  -6   9    6.78    1.83
  -6 -11   9    9.64    3.32
   6  11   9    9.61    2.82
  -6 -11   9    7.28    2.64
   6  11   9    7.79    3.33
  11  -6   9    8.00    1.53
  11  -8  -9    4.79    3.57
   8  11  -9   10.11    2.79
  -8 -11  -9    4.85    2.90
  11  -8  -9    2.03    2.91
  -8 -11   9    5.94    2.77
  -8 -11   9    5.36    3.56
   8  11   9    6.27    3.46
 -11   8   9    8.66    3.02
   8  11   9   10.29    2.98
 -10 -11  -9    8.52    3.25
  11 -10  -9   -6.02    3.69
  11 -10  -9    4.13    2.73
  10  11  -9    2.38    2.43
  10  11   9   -0.29    3.60
 -10 -11   9    5.02    2.80
 -10 -11   9    8.98    3.80
 -11  10   9   -3.52    2.68
  10  11   9    2.86    2.92
  11 -12  -9    5.46    2.85
  11 -12  -9   -2.56    3.99
  12  11  -9    0.24    2.63
 -12 -11   9   13.47    4.27
 -11  12   9    1.20    3.02
 -12 -11   9    0.13    3.00
 -12  -9  -9    3.41    3.05
   9 -12  -9    7.77    3.84
  12   9  -9    8.19    2.79
   9 -12  -9    1.73    2.54
   9 -12   9    5.85    1.70
 -12  -9   9   16.76    4.27
 -12  -9   9    2.45    2.95
  -9  12   9   -1.42    2.95
  12   9   9    5.74    2.93
  12   9   9    9.85    3.35
   9 -12   9    7.51    2.13
   7 -12  -9    0.40    3.19
 -12  -7  -9   -2.01    2.62
   7 -12  -9    2.88    2.32
  12   7  -9    3.69    2.48
 -12  -7   9    6.29    2.83
  12   7   9    4.24    2.50
   7 -12   9    4.41    1.79
 -12  -7   9    3.04    3.60
   7 -12   9    4.42    1.92
  12   7   9    4.04    3.16
  -7  12   9    5.05    2.65
  12   5  -9    3.41    2.48
   5 -12  -9    4.07    3.02
   5 -12  -9    4.10    2.26
 -12  -5  -9    1.83    2.30
  12   5  -9    0.27    2.36
   5 -12   9    3.23    2.10
 -12  -5   9    6.26    3.26
  -5  12   9    6.80    2.46
  12   5   9    1.04    2.10
  12   5   9    4.94    2.90
  -5  12   9    4.89    3.21
 -12  -5   9    0.98    2.55
   5 -12   9   -0.18    1.88
 -12  -3  -9    2.38    1.97
  12   3  -9    1.09    2.28
   3 -12  -9    1.05    2.73
  12   3  -9    2.27    2.23
   3 -12  -9   -0.46    1.94
  12   3   9    7.37    2.75
  -3  12   9    0.76    2.66
   3 -12   9    1.19    1.96
   3 -12   9    1.43    2.01
 -12  -3   9    2.01    2.48
 -12  -3   9    1.05    3.15
  -3  12   9    2.57    2.22
  12   3   9    0.90    1.91
   1 -12  -9    6.38    2.78
   1 -12  -9    2.72    4.00
  12   1  -9    4.41    2.45
  12   1  -9   -4.59    2.11
 -12  -1   9    1.61    3.18
  12   1   9    2.42    2.46
  12   1   9   -1.06    1.73
   1 -12   9    5.52    2.16
 -12  -1   9    1.91    3.00
   1 -12   9    2.64    2.26
  -1  12   9    2.04    2.60
  -1  12   9    3.39    2.29
  -1 -12  -9    0.39    2.31
   1  12  -9    1.76    1.45
  12  -1  -9    1.23    2.36
  12  -1  -9    3.21    2.60
  -1 -12  -9    5.29    2.63
   1  12   9    1.38    2.68
   1  12   9    0.41    2.32
  -1 -12   9   -0.55    2.09
 -12   1   9    2.51    2.60
  -1 -12   9   -0.30    2.41
  12  -1   9    2.38    1.61
  12  -1   9    3.77    2.25
   3  12  -9    3.66    1.95
  -3 -12  -9   -2.48    2.78
  -3 -12  -9    3.73    2.64
  12  -3  -9    0.30    2.65
  12  -3  -9    0.36    2.35
   3  12   9    0.03    2.33
  12  -3   9    3.90    1.47
 -12   3   9    2.39    2.76
  -3 -12   9    8.60    2.90
   3  12   9    6.58    2.91
  12  -3   9    2.71    1.95
  -3 -12   9    8.60    2.35
 -12   3   9    3.10    2.79
  12  -5  -9    6.43    3.24
  -5 -12  -9    5.11    2.91
  12  -5  -9   -0.57    2.58
   5  12  -9    2.44    1.90
   5  12   9    3.82    2.54
  12  -5   9    4.59    1.75
  12  -5   9    5.16    1.33
  -5 -12   9    0.33    2.25
 -12   5   9   -0.29    2.71
  -5 -12   9    1.95    3.01
   5  12   9    4.43    3.23
   7  12  -9    4.82    1.97
  12  -7  -9    5.30    2.78
  -7 -12  -9    2.49    2.84
  12  -7  -9    2.35    3.48
   7  12   9    1.85    2.60
  12  -7   9    4.28    1.45
   7  12   9    2.63    3.19
  -7 -12   9    7.72    3.29
 -12   7   9    4.68    2.91
  -7 -12   9    1.96    2.40
  -9 -12  -9    9.72    3.36
  12  -9  -9    4.55    3.95
  12  -9  -9    3.03    3.02
 -12   9   9    7.93    3.16
  -9 -12   9    6.20    2.92
   9  12   9    8.90    3.16
  -9 -12   9    9.23    3.81
   9  12   9    7.58    3.58
  11  12  -9    1.90    2.36
  12 -11  -9   -0.06    4.14
  12 -11  -9    3.97    3.08
 -11 -12  -9    2.41    4.08
 -11 -12   9    0.01    2.90
  11  12   9    1.74    3.14
 -12  11   9   -0.48    3.04
  11  12   9    3.17    3.45
 -11 -12   9    6.79    3.92
  13  12  -9   -0.04    2.70
  12 -13  -9   -0.26    2.98
 -13 -12   9    5.64    4.34
 -13 -12   9   -0.60    5.32
  13  12   9    1.35    3.35
 -12  13   9   -4.22    3.15
  13  12   9   -2.26    3.58
  10 -13  -9    1.68    2.93
 -13 -10  -9    5.00    3.29
  13  10  -9    1.90    2.78
  10 -13  -9    3.60    3.94
  13  10   9    4.09    3.41
  10 -13   9    1.37    1.47
 -10  13   9    2.09    2.95
  13  10   9    8.01    3.07
 -13 -10   9    5.61    4.28
 -13 -10   9   -1.53    5.72
   8 -13  -9   10.76    2.78
   8 -13  -9    9.28    3.91
 -13  -8  -9    6.88    3.14
  13   8  -9    3.78    2.85
 -13  -8   9    7.88    4.16
 -13  -8   9    8.01    5.52
  13   8   9    9.34    3.13
   8 -13   9    5.19    2.03
  -8  13   9   11.00    3.24
   8 -13   9    7.75    2.31
  13   8   9    8.72    3.50
   6 -13  -9   13.09    3.00
   6 -13  -9   10.29    3.73
  13   6  -9   13.67    3.21
 -13  -6  -9    9.30    3.05
   6 -13   9    9.43    2.43
  13   6   9   11.72    3.36
 -13  -6   9    7.48    4.05
   6 -13   9   14.36    3.86
 -13  -6   9    3.82    6.29
  -6  13   9    6.22    2.97
  13   4  -9   11.13    3.05
 -13  -4  -9   10.78    2.86
   4 -13  -9   14.29    3.57
   4 -13  -9    9.37    2.72
  13   4  -9    4.55    2.89
  13   4   9   11.54    2.77
   4 -13   9   10.84    2.67
 -13  -4   9    7.74    3.64
   4 -13   9   13.33    3.29
  13   4   9   13.16    3.33
 -13  -4   9   12.99    3.87
  13   2  -9    2.46    2.60
   2 -13  -9    6.98    2.91
   2 -13  -9    4.72    2.84
  13   2  -9   10.36    3.20
  -2  13   9    4.44    2.40
  -2  13   9    1.71    2.74
  13   2   9    7.90    2.71
 -13  -2   9    6.67    3.50
 -13  -2   9   -1.06    2.68
   2 -13   9    4.14    2.48
   2 -13   9    4.52    2.24
  13   2   9    6.01    2.11
   0  13  -9   -1.01    1.26
   0 -13  -9    2.78    2.60
   0 -13  -9   -0.02    2.28
  13   0  -9    1.86    2.53
  13   0  -9   -1.30    2.35
   0  13   9   -0.74    2.55
 -13   0   9   -0.09    2.48
  13   0   9    2.85    2.29
  13   0   9   -2.11    1.64
   0 -13   9    1.91    2.24
 -13   0   9   -0.13    3.04
   0  13   9   -1.78    3.21
   0 -13   9   -0.02    2.50
  13  -2  -9    2.17    2.68
  -2 -13  -9    5.69    2.79
  13  -2  -9    3.26    2.81
   2  13  -9    2.64    1.68
  -2 -13  -9    3.15    2.96
  13  -2   9    6.93    2.21
 -13   2   9   12.35    3.76
   2  13   9    2.74    2.54
 -13   2   9    3.58    4.73
  -2 -13   9    4.12    2.69
  13  -2   9    4.26    1.65
  -2 -13   9    4.08    2.82
   2  13   9    0.34    2.91
  13  -4  -9    7.48    3.20
   4  13  -9   14.11    2.66
  -4 -13  -9    8.09    3.42
  13  -4  -9   14.89    3.62
  13  -4   9   12.17    2.59
   4  13   9   12.12    3.15
  13  -4   9   15.56    2.57
  -4 -13   9    4.78    3.35
   4  13   9    6.56    3.52
  -4 -13   9   10.87    3.19
  13  -6  -9    9.23    3.25
  -6 -13  -9    5.40    3.34
   6  13  -9    6.05    2.47
  13  -6  -9   13.50    3.98
  13  -6   9    9.66    2.17
  -6 -13   9    7.02    2.94
   6  13   9    4.79    3.66
 -13   6   9    4.67    3.21
  13  -6   9   14.82    2.17
  -6 -13   9   10.58    3.62
   6  13   9   12.32    3.23
  -8 -13  -9   10.56    3.40
  13  -8  -9    0.63    3.80
  13  -8  -9    9.65    3.25
   8  13   9    8.34    3.11
  -8 -13   9    5.64    2.89
 -13   8   9    9.80    3.37
  -8 -13   9    5.38    3.60
   8  13   9    9.60    3.85
  13 -10  -9    2.99    4.06
  13 -10  -9    2.55    3.27
 -10 -13  -9   -0.52    3.29
  10  13  -9    1.48    2.37
 -10 -13   9   12.17    3.99
  10  13   9   -1.30    3.38
 -13  10   9   -3.46    3.02
  10  13   9    5.16    3.17
 -10 -13   9    0.67    2.91
  13 -12  -9    2.47    6.57
  12  13  -9    1.17    2.62
  13 -12  -9    2.63    3.09
  12  13   9   -2.06    3.77
 -12 -13   9    2.69    3.29
 -13  12   9    3.70    3.33
 -12 -13   9   -2.31    4.05
  12  13   9    5.17    3.26
  13 -14  -9   -0.47    3.25
  14  13  -9   -0.38    2.89
  13 -14  -9    1.65    4.84
  14  13   9   -2.57    4.12
 -14 -13   9    1.01    4.88
 -13  14   9   -3.83    4.41
 -14 -13   9   -0.98    4.21
  14  13   9    0.57    3.54
  11 -14  -9   -1.12    2.86
  14  11  -9    7.05    2.98
 -14 -11  -9   -1.06    3.44
  11 -14  -9    9.78    6.55
  14  11   9   -4.18    3.91
  14  11   9    0.45    3.24
 -14 -11   9    4.63    4.42
 -11  14   9    0.83    3.29
 -14 -11   9    2.44    3.54
 -14  -9  -9    6.03    3.23
   9 -14  -9    7.86    2.77
   9 -14  -9    9.59    3.88
  14   9  -9    4.07    2.85
   9 -14   9    3.37    1.90
  14   9   9    3.17    2.97
 -14  -9   9    1.82    3.24
 -14  -9   9    4.92    4.11
  14   9   9    3.84    3.38
   9 -14   9    3.89    1.81
  -9  14   9    2.91    3.17
   7 -14  -9    0.46    2.37
  14   7  -9    3.34    2.75
   7 -14  -9    0.28    3.53
 -14  -7  -9   -0.99    2.83
 -14  -7   9   -1.19    3.92
 -14  -7   9    3.16    3.06
   7 -14   9    1.71    2.02
  -7  14   9    5.17    2.63
  14   7   9    1.40    3.02
   7 -14   9   -0.19    1.90
  14   7   9    5.86    2.64
  14   5  -9    0.78    3.82
   5 -14  -9   -0.50    2.15
   5 -14  -9    5.72    3.31
 -14  -5  -9    0.56    2.32
   5 -14   9    1.92    2.02
  -5  14   9    1.73    2.52
   5 -14   9   -0.71    2.17
 -14  -5   9    2.19    2.84
  14   5   9   -1.51    2.25
  14   5   9   -0.31    2.83
 -14  -5   9    3.57    3.84
  14   3  -9    1.27    2.54
   3 -14  -9   -1.97    2.81
 -14  -3  -9   -4.60    3.41
  14   3  -9    0.79    2.54
   3 -14  -9    3.38    2.55
 -14  -3   9    2.59    2.78
  -3  14   9   -0.31    2.39
   3 -14   9    4.48    2.42
  14   3   9   -0.12    2.61
  14   3   9    1.59    2.16
 -14  -3   9    7.79    5.59
   3 -14   9    6.05    2.14
  14   1  -9    7.70    2.91
   1 -14  -9    1.38    2.49
   1 -14  -9    3.79    2.98
  14   1   9    5.32    2.21
  -1  14   9    2.26    2.45
   1 -14   9    3.54    2.37
   1 -14   9    6.89    2.88
 -14  -1   9   13.70    3.79
  14   1   9    3.67    2.66
  -1  14   9    7.44    3.23
  -1 -14  -9    0.72    2.69
  14  -1  -9    6.33    2.81
  14  -1  -9    3.15    2.75
   1  14  -9    5.02    1.71
  -1 -14  -9    1.01    4.67
  14  -1   9    5.79    2.45
  -1 -14   9    9.97    4.92
   1  14   9    6.11    2.67
 -14   1   9    3.79    3.59
  -1 -14   9    1.32    2.37
   1  14   9    6.07    3.20
  14  -1   9    4.08    2.84
   3  14  -9    0.98    1.71
  14  -3  -9    0.49    3.04
  14  -3  -9   -2.63    2.69
  -3 -14  -9    0.27    2.96
  14  -3   9    0.85    2.22
   3  14   9    2.06    2.55
 -14   3   9    3.92    3.77
   3  14   9    3.13    5.73
  -3 -14   9    0.06    2.34
   5  14  -9    1.44    1.93
  14  -5  -9   -1.31    2.79
  -5 -14  -9    4.90    3.10
  14  -5  -9    0.83    3.11
  14  -5   9    2.16    1.81
  14  -5   9    4.85    2.45
  -5 -14   9   -0.35    4.67
   5  14   9    4.55    3.48
  -5 -14   9    3.04    2.60
   5  14   9    1.86    2.70
   7  14  -9    4.36    2.22
  -7 -14  -9    0.95    3.30
  14  -7  -9   -0.94    3.00
  14  -7  -9    5.02    3.76
  -7 -14   9    1.28    2.70
 -14   7   9   -5.20    2.99
  -7 -14   9    6.11    5.43
   7  14   9    6.11    2.91
   7  14   9    1.36    3.40
  14  -9  -9    0.95    3.98
  -9 -14  -9    5.30    3.55
  14  -9  -9    5.85    3.48
   9  14   9    6.98    4.26
  -9 -14   9   11.83    7.39
  -9 -14   9    5.02    2.91
   9  14   9    5.08    3.33
 -14   9   9    1.17    3.25
  11  14  -9   -1.90    2.37
 -11 -14  -9    4.35    3.63
  14 -11  -9    3.60    3.47
  14 -11  -9    0.27    5.11
  11  14   9   -3.86    4.05
  11  14   9    0.31    3.76
 -11 -14   9    1.78    6.62
 -14  11   9   -0.93    3.43
 -11 -14   9    0.88    3.07
  14 -13  -9    0.66    4.67
  14 -13  -9    1.41    3.47
  13  14  -9   -0.03    2.82
 -13 -14  -9    3.14    5.87
 -13 -14   9    4.11    3.76
  13  14   9    5.44    4.35
 -13 -14   9    4.13    7.47
  13  14   9   -1.15    3.63
  12 -15  -9    2.11    3.33
  15  12  -9    5.52    3.11
  12 -15  -9    7.71    4.86
 -15 -12  -9    4.13    3.94
 -12  15   9    0.14    4.44
 -15 -12   9   -2.71    4.65
  15  12   9    0.73    3.77
  15  12   9   -0.63    4.16
  10 -15  -9    4.22    2.90
  15  10  -9    3.57    3.25
  10 -15  -9    2.12    5.95
 -15 -10  -9    0.66    3.51
  15  10   9    1.08    3.84
  10 -15   9    5.59    1.83
 -10  15   9    0.29    3.30
  10 -15   9    7.73    1.96
 -15 -10   9    5.75    4.58
  15  10   9    7.48    3.38
 -15  -8  -9    5.72    3.52
  15   8  -9   11.41    4.09
   8 -15  -9   15.80    4.51
   8 -15  -9   10.94    3.21
  15   8   9    9.31    3.25
  -8  15   9   11.18    3.46
 -15  -8   9    5.17    4.46
  15   8   9    3.66    3.67
   8 -15   9   13.67    2.60
   8 -15   9    8.81    2.41
   6 -15  -9   11.35    3.36
  15   6  -9   11.86    3.67
 -15  -6  -9   12.93    3.56
   6 -15  -9   20.78    4.51
  -6  15   9   18.29    3.68
   6 -15   9   12.93    3.01
   6 -15   9   15.13    3.19
 -15  -6   9   23.23    4.97
  15   6   9   13.70    3.51
  15   6   9   16.20    4.03
   4 -15  -9   18.08    4.21
   4 -15  -9   16.24    4.25
  15   4  -9    8.92    4.34
  15   4  -9   19.64    4.07
   4 -15   9   21.44    3.70
  15   4   9   17.29    3.71
 -15  -4   9   26.23    5.12
  -4  15   9   18.50    3.79
  15   4   9    8.75    3.88
   4 -15   9   15.11    3.30
   2 -15  -9   11.08    3.41
   2 -15  -9    8.85    3.15
  15   2  -9    5.21    3.12
  15   2  -9    1.44    3.03
   2 -15   9   14.60    3.17
  15   2   9   10.82    2.74
   2 -15   9   11.85    2.70
 -15  -2   9   16.65    4.35
  -2  15   9    8.07    2.88
  15   2   9    7.41    3.14
  15   0  -9    1.99    3.06
   0  15  -9    2.65    1.61
  15   0  -9    5.06    2.83
   0 -15  -9    7.65    3.04
   0 -15  -9   -0.47    2.75
  15   0   9    1.93    2.41
   0 -15   9    1.29    2.41
 -15   0   9   10.26    3.87
  15   0   9    1.90    2.10
   0  15   9   -1.25    4.30
   0 -15   9    2.70    2.68
  -2 -15  -9    8.78    3.51
  15  -2  -9    2.04    3.10
   2  15  -9    8.52    2.16
  15  -2  -9    8.04    3.24
  -2 -15   9    5.07    2.87
  15  -2   9   10.22    2.37
  -2 -15   9   12.52    3.13
 -15   2   9   16.98    4.41
   2  15   9    0.01    3.44
   2  15   9    8.53    3.05
  15  -2   9    8.70    3.18
   4  15  -9   13.04    3.17
  15  -4  -9   13.09    4.12
  -4 -15  -9   15.94    4.13
  15  -4  -9   14.15    3.86
  -4 -15   9    8.70    3.66
 -15   4   9   16.89    4.81
  15  -4   9   16.07    3.12
   4  15   9   14.39    3.68
  15  -4   9   18.83    3.18
  -4 -15   9   21.32    4.02
   4  15   9   15.38    4.34
  -6 -15  -9    6.44    3.94
  15  -6  -9   11.42    3.85
  15  -6  -9   15.19    4.26
   6  15  -9   16.39    3.11
   6  15   9   15.48    4.33
  15  -6   9   12.38    2.44
   6  15   9   10.30    3.69
  -6 -15   9   17.86    4.16
  -6 -15   9   12.21    3.52
  15  -6   9   17.57    3.13
  -8 -15  -9   10.97    3.81
  15  -8  -9    7.86    3.72
   8  15  -9    3.78    2.78
  15  -8  -9    9.70    4.33
   8  15   9   13.47    3.52
  -8 -15   9    4.48    3.92
   8  15   9   19.77    8.56
  -8 -15   9    9.49    3.49
  15 -10  -9    1.32    3.68
 -10 -15  -9    8.75    3.71
  10  15  -9    2.07    2.93
  15 -10  -9    1.51    4.34
 -15  10   9   -0.55    3.55
  10  15   9   11.46    3.81
 -10 -15   9   -1.89    4.23
  10  15   9    5.70    4.86
 -10 -15   9    2.96    3.18
  15 -12  -9   -5.76    4.52
  12  15  -9   -1.11    2.57
 -12 -15  -9    4.30    3.86
  15 -12  -9    0.55    3.80
 -12 -15   9    3.30    4.93
 -12 -15   9    1.50    3.53
  12  15   9   -3.03    4.40
  12  15   9    2.11    3.82
  16   9  -9    1.27    3.16
   9 -16  -9    1.34    4.55
   9 -16  -9    0.58    2.88
 -16  -9  -9    1.38    3.38
   9 -16   9    1.45    1.84
   9 -16   9    4.59    2.13
  16   9   9   -1.03    3.10
  16   9   9   -0.29    3.58
 -16  -9   9   -0.06    4.61
  -9  16   9   -3.61    3.34
   7 -16  -9    0.63    2.55
 -16  -7  -9   -0.90    3.01
  16   7  -9   -0.73    3.14
   7 -16  -9   -2.03    3.60
  -7  16   9   -0.33    2.73
  16   7   9   -4.07    3.23
   7 -16   9   -1.15    2.16
  16   7   9   -3.07    2.74
   7 -16   9    3.96    1.97
 -16  -7   9   -7.02    4.27
   5 -16  -9   -0.70    2.77
   5 -16  -9   -1.15    3.28
 -16  -5  -9   -2.01    4.73
  16   5  -9   -2.87    2.95
  16   5   9   -0.19    3.02
   5 -16   9   -0.52    2.18
  16   5   9   -5.85    2.61
 -16  -5   9    4.12    4.62
  -5  16   9    0.91    2.77
   5 -16   9    1.31    2.72
  16   3  -9   -1.68    2.81
  16   3  -9    3.02    3.00
   3 -16  -9    2.33    2.78
   3 -16  -9   -0.97    3.24
  16   3   9    2.69    2.90
  16   3   9   -0.01    2.50
 -16  -3   9    3.35    4.48
  -3  16   9    5.73    2.94
   3 -16   9    4.81    2.66
   3 -16   9    5.37    2.27
   1 -16  -9    6.40    3.22
  16   1  -9    2.10    2.89
   1 -16  -9   -0.23    2.79
  16   1  -9    2.30    2.99
  16   1   9    1.75    2.21
 -16  -1   9   10.30    4.25
   1 -16   9    2.25    2.90
   1 -16   9    0.06    2.30
  -1  16   9    1.99    2.61
  16   1   9    6.43    2.87
   1  16  -9    1.21    3.05
  -1 -16  -9   10.09    3.50
  16  -1  -9    6.52    3.04
  16  -1  -9    0.16    3.37
  -1 -16   9    2.98    2.58
  -1 -16   9   -0.24    3.16
  16  -1   9    0.61    2.48
 -16   1   9    2.20    4.10
  16  -1   9    0.62    2.00
   1  16   9    8.11    2.86
  16  -3  -9    1.62    3.16
   3  16  -9    1.26    1.96
  -3 -16  -9    6.37    3.45
  16  -3  -9    1.62    3.03
  -3 -16   9    5.27    3.31
  16  -3   9    5.95    2.01
 -16   3   9    1.37    4.04
  -3 -16   9    2.17    2.65
   3  16   9    2.80    2.89
  16  -3   9    3.92    2.26
  16  -5  -9   -0.62    3.40
  16  -5  -9    2.56    3.41
   5  16  -9    2.21    4.18
  -5 -16  -9   -2.36    3.38
   5  16   9    3.48    3.08
  -5 -16   9    3.18    2.85
  16  -5   9    3.98    1.63
 -16   5   9    0.17    4.01
   5  16   9    2.56    4.91
  -5 -16   9    3.57    3.57
  16  -5   9    2.63    2.06
   7  16  -9    0.60    2.29
  16  -7  -9   -1.12    3.44
  16  -7  -9   -0.58    3.93
  -7 -16  -9    2.21    3.54
 -16   7   9    1.60    4.51
   7  16   9    1.14    4.81
  -7 -16   9   -0.59    3.93
   7  16   9    2.20    3.14
  16  -7   9    3.70    1.86
  -7 -16   9    0.74    3.01
  16  -7   9    2.07    1.29
  16  -9  -9    5.19    3.74
  -9 -16  -9    3.87    3.78
  16  -9  -9    6.30    4.45
   9  16   9    2.07    3.39
  -9 -16   9   -4.33    4.26
   9  16   9    0.64    4.17
  -9 -16   9    2.37    3.27
  16 -11  -9    0.33    4.47
   8 -17  -9    0.46    4.04
   8 -17  -9    2.72    3.02
  17   8  -9    5.53    3.64
 -17  -8  -9   -0.05    3.57
  17   8   9    4.42    3.68
   8 -17   9    9.90    2.62
 -17  -8   9   16.54    5.22
   8 -17   9    5.72    2.25
  17   8   9   13.17    3.54
  -8  17   9    3.92    3.43
   6 -17  -9    4.81    4.23
  17   6  -9   13.57    3.56
   6 -17  -9    5.27    3.65
  17   6   9   -0.08    3.33
  -6  17   9    8.82    3.25
 -17  -6   9    9.50    4.81
   6 -17   9    7.59    2.45
   6 -17   9   10.77    2.84
   4 -17  -9    6.28    3.23
   4 -17  -9    7.25    3.80
  17   4  -9   11.97    3.46
  17   4   9    3.20    2.96
  -4  17   9   12.16    3.16
   4 -17   9    8.52    2.82
  17   4   9    2.83    3.30
   4 -17   9    8.40    2.57
 -17  -4   9   16.34    6.23
   2 -17  -9    5.74    3.42
   2 -17  -9    3.10    3.07
  17   2  -9   -0.07    3.07
  17   2  -9    8.68    3.14
  17   2   9    6.60    2.53
   2 -17   9    0.80    2.45
 -17  -2   9   -1.73    4.66
   2 -17   9    5.08    2.86
  17   2   9    4.57    2.93
  -2  17   9   -1.33    2.58
  17   0  -9    9.84    3.35
  17   0  -9   -1.65    3.06
   0 -17  -9   -0.63    3.24
  17   0   9   -0.61    2.48
   0 -17   9    6.94    2.54
   0 -17   9   -2.09    2.95
  17   0   9    1.79    2.25
 -17   0   9   -0.36    4.29
  -2 -17  -9    3.43    3.55
   2  17  -9    6.53    3.25
  17  -2  -9    3.94    3.41
  17  -2  -9    1.67    3.05
  -2 -17   9    9.83    2.95
 -17   2   9    7.46    4.66
  17  -2   9   -1.40    2.34
   2  17   9    2.13    2.98
  -2 -17   9    3.89    3.32
  17  -2   9    5.56    2.18
  17  -4  -9    9.64    3.59
   4  17  -9    4.90    2.39
  -4 -17  -9    8.90    3.89
  17  -4  -9   10.29    3.84
  -4 -17   9    8.29    3.90
 -17   4   9    9.24    4.74
  17  -4   9    6.72    2.48
  17  -4   9    8.27    2.19
   4  17   9    8.63    3.37
  -4 -17   9    7.67    3.13
   6  17  -9    8.66    4.31
  17  -6  -9    3.52    3.88
  -6 -17  -9    7.08    4.69
  -6 -17   9    5.39    3.54
   6  17   9    7.07    3.57
  17  -6   9    8.97    2.06
 -17   6   9   12.38    4.81
  17  -6   9   11.40    2.59
  -6 -17   9   13.65    4.28
  17  -8  -9    6.31    4.18
  17  -8  -9    2.06    3.92
  -8 -17  -9    6.21    4.03
   8  17  -9    1.63    2.45
   8  17   9    3.07    3.29
 -17   8   9   14.85    6.04
  -8 -17   9    8.42    4.29
 -18  -7  -9    0.32    4.25
   7 -18  -9    3.51    4.29
   7 -18   9    0.07    2.13
   7 -18   9   -0.85    2.56
  -7  18   9   -0.86    2.97
  18   7   9    0.37    3.31
 -18  -7   9    1.54    5.00
   5 -18  -9   -1.87    3.05
   5 -18  -9   -0.02    3.79
  18   5  -9    5.62    3.39
   5 -18   9    1.10    2.29
  18   5   9    0.30    3.10
   5 -18   9    0.64    2.64
 -18  -5   9    2.91    4.74
  18   5   9    3.84    2.87
  -5  18   9    0.28    3.12
  18   3  -9    1.33    3.32
   3 -18  -9    4.18    3.39
   3 -18  -9    8.51    3.63
   3 -18   9    6.44    2.55
   3 -18   9    1.51    2.81
  18   3   9    7.08    3.13
  -3  18   9    2.12    2.99
  18   3   9    6.17    2.88
 -18  -3   9    2.17    4.64
  18   1  -9    4.33    3.55
  18   1  -9    3.77    3.32
   1 -18  -9    9.35    3.59
  18   1   9    4.49    2.55
 -18  -1   9    4.87    5.01
  18   1   9    2.76    2.83
   1 -18   9    1.91    2.89
   1 -18   9    4.59    2.69
  -1  18   9    4.86    2.91
  18  -1  -9    4.54    3.45
  18  -1  -9   -1.22    3.46
  -1 -18  -9   10.58    3.94
  18  -1   9   -0.37    2.35
   1  18   9    4.46    2.97
  18  -1   9    0.64    3.43
  -1 -18   9    3.53    3.12
 -18   1   9    3.52    4.79
  -1 -18   9    0.60    2.60
  -3 -18  -9   -0.27    3.66
  18  -3  -9   -0.40    3.26
   3  18  -9    4.07    2.48
  18  -3  -9    4.26    3.85
   3  18   9    7.93    3.41
  -3 -18   9    4.52    3.03
  -3 -18   9    2.96    3.22
  18  -3   9   -0.31    2.45
  18  -3   9    3.67    2.19
 -18   3   9    3.21    4.78
   5  18  -9   -1.85    2.24
  -5 -18  -9   -4.87    3.80
  18  -5  -9    0.15    3.77
  18  -5  -9    4.41    3.55
   5  18   9   -0.84    3.22
  -5 -18   9    0.21    3.56
 -18   5   9    3.66    4.79
  18  -5   9   -3.01    2.40
  -5 -18   9   -0.50    3.11
  18  -5   9    2.66    1.85
  18  -7  -9   -2.23    4.10
  -7 -18  -9   -1.22    3.80
  -7 -18   9    2.34    3.89
  -7 -18   9    2.36    3.34
 -18   7   9    2.50    6.83
  18  -7   9    1.25    2.35
   2 -19  -9    4.96    3.60
  19   2  -9    3.53    3.45
 -19  -2   9    2.34    4.92
   2 -19   9    6.09    3.25
  19   2   9    0.32    3.03
   2 -19   9    6.31    2.69
  19   2   9    3.59    2.90
  -2  19   9    3.19    2.96
  19   0  -9    1.60    3.54
   0 -19  -9    8.85    3.99
  19   0  -9    6.45    3.57
   0 -19   9    2.08    3.12
   0  19   9    3.35    3.59
  19   0   9    2.25    3.15
   0 -19   9    5.58    2.89
  19   0   9    5.31    2.60
 -19   0   9    5.98    5.31
  -2 -19  -9    5.04    4.12
  19  -2  -9    7.08    4.89
  19  -2  -9    6.45    3.89
  19  -2   9    1.21    2.96
  -2 -19   9    4.92    2.86
   2  19   9    2.43    3.27
  -2 -19   9    4.53    3.35
  19  -2   9    3.76    2.42
 -19   2   9    4.69    5.22
   0   0 -10   -2.04    1.45
   0   0 -10   -0.89    1.24
   0   0  10    0.27    1.55
   0   0  10   -1.26    1.41
   1   1 -10    1.12    1.47
  -1  -1 -10    1.76    1.41
  -1  -1 -10   -0.48    1.62
  -1   1 -10   -0.58    1.37
   1  -1 -10    1.28    1.41
   1   1 -10   -0.02    1.30
  -1   1 -10    1.49    1.24
  -1  -1  10    3.93    1.69
  -1  -1  10    1.51    1.50
   1   1  10    2.93    1.50
  -1   1  10   -0.61    1.53
  -1   1  10    2.39    1.72
   1   1  10    2.84    1.74
   1  -1  10    1.30    1.38
   1  -1  10   -0.73    1.49
  -2   0 -10    1.75    1.36
   0  -2 -10    3.37    1.51
   0   2 -10    2.97    1.41
  -2   0 -10   -0.10    1.53
   0   2 -10    1.45    1.40
   2   0 -10    2.86    1.48
   0   2  10    1.03    1.63
   0  -2  10    1.91    1.59
   0   2  10    2.23    1.79
   2   0  10    3.29    1.74
  -2   0  10    3.65    1.70
   2   0  10    4.11    1.49
  -2   0  10    2.55    1.75
   0  -2  10    1.66    1.49
  -2  -2 -10    3.55    1.51
  -2  -2 -10    3.73    1.98
  -2   2 -10    5.31    1.44
   2  -2 -10    4.42    1.93
   2   2 -10    6.56    1.61
  -2   2 -10    4.23    1.42
   2   2 -10    4.39    1.50
   2  -2 -10    4.59    2.17
   2  -2  10    4.56    1.86
  -2   2  10    3.82    1.86
  -2   2  10    4.58    1.99
   2   2  10    2.57    1.92
  -2  -2  10    3.57    1.77
  -2  -2  10    4.71    1.82
   2   2  10    7.15    1.77
   2  -2  10    3.33    1.58
  -3  -1 -10    7.88    1.89
  -1   3 -10    5.69    1.49
   1  -3 -10    3.88    1.76
  -3  -1 -10    4.20    1.58
  -1   3 -10    7.35    1.57
   3   1 -10    6.25    1.77
   1  -3 -10    2.63    2.42
  -1   3  10    4.05    1.84
   3   1  10    3.67    1.69
  -3  -1  10    2.07    1.89
   1  -3  10    0.78    1.59
  -3  -1  10    4.96    1.98
  -1   3  10    9.44    2.39
   1  -3  10    7.57    2.36
   3   1  10    7.76    2.04
  -1  -3 -10    5.31    1.72
   3  -1 -10    4.56    2.01
   1   3 -10    2.71    1.57
  -3   1 -10    3.84    1.42
   3  -1 -10    3.26    2.03
   1   3 -10    6.14    1.56
  -3   1 -10    4.56    1.49
  -3   1  10    1.77    1.88
   1   3  10    2.46    2.04
   1   3  10    5.03    1.85
  -3   1  10    2.20    1.91
   3  -1  10    6.65    1.71
   3  -1  10    4.25    1.82
  -1  -3  10    6.39    1.85
  -1  -3  10    4.20    1.81
   3   3 -10   23.28    4.34
  -3  -3 -10   25.25    4.33
  -3  -3 -10   28.06    4.72
  -3   3 -10   22.01    3.95
   3  -3 -10   31.59    4.93
  -3   3 -10   22.63    4.01
   3  -3  10   25.36    4.37
  -3   3  10   23.54    4.68
   3   3  10   32.58    4.45
  -3   3  10   18.87    4.26
   3  -3  10   20.12    4.17
  -3  -3  10   22.72    4.60
  -3  -3  10   28.26    4.62
   3   3  10   24.55    4.70
  -4  -2 -10   12.59    2.48
  -4  -2 -10   12.05    2.76
   2  -4 -10    8.08    3.84
   4   2 -10   13.59    2.66
   4   2 -10   12.92    2.68
   2  -4 -10   17.13    3.21
  -2   4 -10   12.47    2.26
  -2   4 -10   14.01    2.37
  -4  -2  10    9.89    2.68
   4   2  10   12.80    2.60
   2  -4  10   10.66    2.55
  -2   4  10   13.15    2.79
  -4  -2  10   15.31    2.83
   4   2  10   10.88    2.79
   2  -4  10   14.76    2.54
  -2   4  10   12.70    3.04
   0   4 -10    1.81    1.25
  -4   0 -10    1.31    1.29
   0   4 -10    1.66    1.33
   4   0 -10   -0.61    1.58
  -4   0 -10    2.12    1.43
   4   0 -10    3.24    1.70
   0  -4 -10    1.07    2.55
   0  -4 -10    2.02    1.65
   0  -4  10    0.53    1.51
   4   0  10   -1.12    1.66
   4   0  10    0.53    1.40
  -4   0  10    1.42    1.69
   0   4  10    3.09    1.71
  -4   0  10    1.15    1.86
   0  -4  10    0.74    1.59
   0   4  10   -0.41    1.89
   2   4 -10   13.41    2.49
  -2  -4 -10   11.96    2.60
   4  -2 -10   14.41    3.01
   2   4 -10   10.88    2.48
  -4   2 -10   12.45    2.51
  -4   2 -10   11.12    2.27
  -2  -4  10   13.19    2.74
  -2  -4  10   16.25    2.77
   2   4  10    9.57    2.98
  -4   2  10   17.64    2.96
   2   4  10   13.80    2.68
  -4   2  10    7.23    2.71
   4  -2  10   14.89    2.49
   4  -2  10   10.87    2.63
   4  -4 -10    2.51    2.43
  -4  -4 -10    1.36    1.70
   4   4 -10    4.03    1.72
  -4  -4 -10    2.55    2.15
   4  -4 -10    3.64    1.87
   4   4 -10    0.31    1.22
   4   4  10    2.95    2.06
   4  -4  10   -0.76    1.62
  -4  -4  10    4.14    1.98
   4  -4  10    4.13    1.43
  -4   4  10    3.29    2.15
  -4   4  10   -0.88    2.11
   4   4  10    4.65    1.74
  -4  -4  10    2.76    2.04
  -3   5 -10   41.00    6.57
   5   3 -10   43.05    7.11
  -5  -3 -10   56.69    7.30
   3  -5 -10   46.95    7.51
   5   3 -10   51.05    8.28
   3  -5 -10   30.44    7.62
  -5  -3 -10   45.20    6.98
  -3   5 -10   39.93    6.54
  -5  -3  10   42.66    7.23
  -3   5  10   53.17    7.23
   3  -5  10   43.76    6.82
   5   3  10   41.43    7.19
  -5  -3  10   54.01    7.29
   3  -5  10   45.34    6.97
  -3   5  10   35.61    7.31
   5   3  10   48.82    6.99
   5   1 -10   20.71    3.91
  -5  -1 -10   21.70    3.86
  -5  -1 -10   23.34    4.05
  -1   5 -10   20.91    3.84
   1  -5 -10   21.74    3.89
   1  -5 -10   23.98    4.85
   5   1 -10   27.30    4.37
  -1   5 -10   20.30    3.73
   1  -5  10   22.97    4.03
  -1   5  10   24.59    4.69
   5   1  10   20.66    4.00
  -1   5  10   19.71    3.93
   1  -5  10   21.93    4.25
  -5  -1  10   21.45    3.95
  -5  -1  10   22.57    4.33
   5   1  10   23.28    4.39
  -5   1 -10   18.47    3.59
   1   5 -10   20.59    3.62
  -5   1 -10   17.67    3.53
  -1  -5 -10   21.15    4.11
   1   5 -10   16.70    3.76
   5  -1 -10   21.69    4.42
  -1  -5 -10   23.83    4.61
  -5   1  10   32.67    4.17
   1   5  10   17.59    4.03
   5  -1  10   23.10    3.84
  -5   1  10   26.31    5.88
  -1  -5  10   24.97    4.12
   5  -1  10   24.22    3.85
   1   5  10   22.59    4.21
  -1  -5  10   19.47    3.84
   3   5 -10   41.43    7.14
   3   5 -10   42.50    7.08
   5  -3 -10   41.57    7.27
   5  -3 -10   40.93    7.60
  -3  -5 -10   48.55    7.21
   5  -3  10   45.74    6.96
  -3  -5  10   45.48    7.33
  -3  -5  10   38.76    7.34
  -5   3  10   54.06    7.55
   3   5  10   44.40    7.46
   3   5  10   54.00    7.25
   5  -3  10   44.38    7.12
  -5   3  10   41.57    7.43
   5  -5 -10   65.44   10.13
   5  -5 -10   60.31    9.76
   5   5 -10   55.36    9.89
  -5  -5 -10   60.67    9.91
   5  -5  10   58.30    9.57
  -5  -5  10   57.64    9.91
   5  -5  10   64.29    9.49
  -5   5  10   50.14    9.98
   5   5  10   67.14    9.98
  -5  -5  10   74.00    9.88
   5   5  10   70.92    9.73
  -5   5  10   66.54   10.26
  -6  -4 -10    2.64    2.16
   6   4 -10   -1.03    1.75
   6   4 -10    0.66    1.82
   4  -6 -10   -0.93    1.85
   4  -6 -10   -0.38    2.51
  -6  -4  10    3.90    2.17
   4  -6  10    2.05    1.41
  -6  -4  10    3.54    2.14
  -4   6  10    0.04    2.06
   4  -6  10   -2.14    1.59
   6   4  10    3.47    2.22
  -4   6  10   -3.34    2.30
   6   4  10   -1.32    1.74
   2  -6 -10    2.50    2.95
   2  -6 -10    1.96    2.49
  -2   6 -10    3.02    1.08
   6   2 -10    0.51    1.81
  -2   6 -10    3.80    1.19
  -6  -2 -10    2.14    1.92
   6   2 -10    2.34    1.77
  -2   6  10    6.86    2.04
  -6  -2  10    3.55    2.20
   6   2  10    3.35    1.68
  -2   6  10    4.18    2.34
   2  -6  10    2.96    1.53
  -6  -2  10    1.95    1.93
   2  -6  10    4.21    1.95
   0   6 -10    3.97    2.98
  -6   0 -10   -0.03    1.17
   6   0 -10   -0.40    1.76
   0   6 -10    3.24    1.25
   6   0 -10   -0.66    1.93
   0  -6 -10    0.46    2.16
  -6   0 -10   -0.60    1.20
   0  -6 -10    3.69    1.74
  -6   0  10    2.64    1.94
   0  -6  10    2.58    1.69
   0   6  10    2.57    1.82
   0   6  10    2.37    2.29
  -6   0  10    3.33    2.11
   6   0  10   -2.36    1.82
   6   0  10   -2.40    1.41
   0  -6  10    2.66    1.89
  -2  -6 -10    6.18    2.60
   2   6 -10    2.19    1.57
   6  -2 -10   -1.65    2.15
  -2  -6 -10    2.02    1.85
   6  -2 -10    2.02    2.34
  -6   2  10    0.13    2.14
   2   6  10    2.27    1.84
  -2  -6  10    4.28    1.96
  -2  -6  10    3.55    1.95
   6  -2  10    3.97    1.87
   2   6  10    1.06    2.20
  -6   2  10    3.82    2.20
   6  -2  10    5.48    1.54
   6  -4 -10   -1.52    1.87
   6  -4 -10   -4.03    2.44
  -4  -6 -10    0.35    3.14
   4   6 -10    3.35    1.65
  -6   4  10   -2.64    2.25
   6  -4  10    1.70    1.34
   4   6  10    6.67    2.15
   6  -4  10   -0.91    1.58
  -6   4  10   -1.99    3.73
   4   6  10    2.33    2.39
  -4  -6  10    0.06    2.07
   6  -6 -10    2.38    2.02
   6  -6 -10   -1.83    2.68
   6   6 -10    2.04    2.26
  -6  -6 -10    4.89    2.45
  -6  -6  10    3.13    2.66
   6   6  10    2.88    2.68
  -6   6  10    0.71    2.24
  -6   6  10   -2.59    2.37
   6  -6  10   -1.43    1.63
   6   6  10   -3.62    1.88
   6  -6  10    1.47    1.30
  -6  -6  10   -0.83    2.09
  -7  -5 -10   47.39    8.08
   5  -7 -10   54.88    8.42
   7   5 -10   36.66    7.76
   5  -7 -10   44.10    7.84
  -7  -5  10   56.87    8.31
   7   5  10   54.95    7.81
   7   5  10   55.88    8.14
   5  -7  10   51.80    7.47
  -5   7  10   47.56    8.23
  -7  -5  10   43.23    8.09
  -5   7  10   48.54    8.01
   5  -7  10   43.85    7.60
  -7  -3 -10   47.76    6.80
   3  -7 -10   32.09    7.22
   7   3 -10   40.14    6.77
   7   3 -10   35.91    6.78
   3  -7 -10   29.70    7.49
  -7  -3  10   48.87    6.98
   3  -7  10   44.41    6.46
  -7  -3  10   47.05    8.25
  -3   7  10   42.29    6.82
   3  -7  10   36.77    6.60
   7   3  10   37.38    6.93
  -3   7  10   25.76    7.01
   7   3  10   46.64    6.56
  -1   7 -10   13.44    3.03
   7   1 -10   14.63    3.31
   1  -7 -10   20.34    3.85
   1  -7 -10   19.42    3.83
   7   1 -10   14.83    3.33
  -7  -1 -10   13.69    2.95
  -1   7 -10   18.22    3.13
  -1   7  10   16.25    3.51
   1  -7  10   18.57    3.25
   7   1  10   20.93    3.46
   1  -7  10   21.77    3.41
  -7  -1  10   17.11    3.46
  -7  -1  10   18.70    3.57
   7   1  10   17.78    3.11
  -1   7  10   15.00    3.60
   7  -1 -10   15.28    3.53
  -1  -7 -10   18.44    3.40
  -1  -7 -10   19.36    3.89
   1   7 -10   19.33    3.23
  -1  -7  10   21.47    3.95
  -7   1  10   13.15    3.48
   1   7  10   21.03    3.60
  -7   1  10   17.96    3.68
   7  -1  10   15.30    3.35
   1   7  10   19.13    5.05
   7  -1  10   15.99    3.39
  -3  -7 -10   35.20    6.25
   7  -3 -10   39.55    6.79
   3   7 -10   34.16    6.03
   7  -3 -10   35.83    6.38
  -3  -7 -10   32.23    6.62
  -7   3  10   33.75    7.24
   3   7  10   39.73    6.70
  -7   3  10   24.88    6.50
   3   7  10   45.08    6.33
   7  -3  10   39.46    5.80
  -3  -7  10   36.27    6.32
   7  -3  10   37.49    6.04
   5   7 -10   43.23    7.48
   7  -5 -10   39.89    7.78
   7  -5 -10   41.52    8.23
  -5  -7  10   38.61    7.78
  -7   5  10   40.06    8.00
  -7   5  10   53.52    7.98
   5   7  10   45.42    8.09
  -5  -7  10   55.11    7.92
   7  -5  10   43.80    7.40
   7  -5  10   56.62    7.28
   5   7  10   52.65    7.72
   7  -7 -10   37.31    6.71
   7   7 -10   29.43    6.06
  -7  -7 -10   34.45    6.08
   7  -7 -10   31.28    5.94
  -7   7  10   50.95    6.35
  -7  -7  10   46.22    6.42
  -7  -7  10   20.78    5.49
   7   7  10   24.43    5.66
  -7   7  10   21.74    5.82
   7  -7  10   32.48    5.38
   7  -7  10   34.06    5.18
   7   7  10   42.23    5.86
  -8  -6 -10    5.34    2.66
   6  -8 -10    4.51    2.16
   6  -8 -10    4.93    3.19
   8   6 -10    5.35    2.30
  -6   8  10    1.66    2.86
  -8  -6  10    4.55    2.64
   6  -8  10    1.65    1.84
  -8  -6  10    2.75    2.94
   8   6  10    4.45    2.77
   6  -8  10    4.62    1.69
  -6   8  10    4.93    2.42
   8   6  10    3.80    2.21
   8   4 -10    6.32    2.43
   8   4 -10    6.23    2.56
   4  -8 -10   10.53    3.25
   4  -8 -10    6.97    2.70
  -8  -4 -10   14.96    2.88
  -8  -4  10   13.98    3.47
   4  -8  10    9.24    2.22
  -8  -4  10    4.46    2.71
  -4   8  10   16.06    4.31
   8   4  10    9.28    2.40
  -4   8  10    5.81    2.77
   4  -8  10   10.92    2.34
   8   4  10    9.14    2.90
   2  -8 -10   32.12    5.47
  -8  -2 -10   35.69    5.19
   8   2 -10   27.66    5.46
   8   2 -10   25.34    5.47
   2  -8 -10   28.00    5.49
  -8  -2  10   32.99    5.63
  -2   8  10   34.07    5.58
  -8  -2  10   29.99    5.69
   2  -8  10   29.05    5.15
  -2   8  10   27.02    5.80
   2  -8  10   22.69    5.19
   8   2  10   30.30    5.15
   8   2  10   28.26    5.62
   0   8 -10   19.68    4.16
   0  -8 -10   24.81    4.75
  -8   0 -10   23.82    3.88
   8   0 -10   22.41    4.35
  -8   0 -10   21.39    3.87
   0  -8 -10   31.24    4.87
   8   0 -10   27.00    5.04
   8   0  10   22.73    4.69
   0   8  10   28.45    4.80
  -8   0  10   26.79    4.60
   0   8  10   30.12    4.57
   0  -8  10   22.77    4.29
   8   0  10   26.66    4.30
  -8   0  10   23.42    4.49
  -2  -8 -10   25.41    5.45
   2   8 -10   25.22    5.09
  -2  -8 -10   27.82    6.00
   8  -2 -10   27.90    6.03
   8  -2 -10   26.93    5.81
  -2  -8  10   31.44    5.55
  -2  -8  10   26.62    5.44
  -8   2  10   35.45    5.67
   8  -2  10   26.14    5.23
   2   8  10   32.84    5.54
   8  -2  10   33.75    4.90
   2   8  10   35.41    5.63
  -8   2  10   32.17    5.79
   8  -4 -10    9.11    2.73
   8  -4 -10    8.80    3.19
  -4  -8 -10    5.72    2.90
   4   8 -10    8.85    2.24
  -8   4  10    4.53    2.82
   4   8  10    9.46    3.07
   4   8  10    9.29    2.62
  -4  -8  10   10.27    2.76
   8  -4  10    8.15    2.19
  -8   4  10    7.50    2.80
  -4  -8  10   13.00    2.83
   8  -4  10    9.33    1.91
   6   8 -10    0.99    1.24
   8  -6 -10    2.81    2.33
   8  -6 -10    2.97    3.14
  -6  -8  10    4.46    2.70
  -8   6  10    0.72    2.60
   8  -6  10    3.13    1.66
  -6  -8  10    4.06    2.44
   8  -6  10    4.24    1.43
  -8   6  10    3.81    4.56
   6   8  10    2.94    2.82
   6   8  10    8.61    2.35
   8   8 -10    2.26    2.25
  -8  -8 -10    1.82    2.48
   8  -8 -10   -0.02    2.25
   8  -8 -10    1.33    3.22
   8  -8  10   -2.94    1.28
   8  -8  10   -5.20    1.56
  -8  -8  10    4.99    2.84
  -8   8  10    3.36    2.63
   8   8  10    2.35    2.22
  -8   8  10   -2.73    2.68
  -8  -8  10    4.80    4.20
   8   8  10    2.39    2.93
   7  -9 -10   42.47    7.53
   7  -9 -10   36.40    6.68
   9   7 -10   39.21    6.62
  -9  -7 -10   37.51    6.89
   9   7  10   46.31    6.64
   7  -9  10   32.98    6.24
  -9  -7  10   27.95    6.95
   9   7  10   32.50    7.18
  -7   9  10   23.97    6.48
  -7   9  10   52.50    7.09
  -9  -7  10   50.74    7.31
   7  -9  10   43.58    6.11
   5  -9 -10   50.20    8.69
   5  -9 -10   51.84    8.21
  -9  -5 -10   54.05    8.33
   9   5 -10   48.82    8.16
  -9  -5  10   60.18    8.65
  -5   9  10   52.86    8.23
  -9  -5  10   36.62    8.38
   9   5  10   53.14    8.43
   5  -9  10   43.90    7.85
   9   5  10   51.77    8.03
  -9  -3 -10   35.55    5.22
   3  -9 -10   27.99    5.33
   9   3 -10   27.08    5.45
   3  -9 -10   31.74    6.11
   9   3 -10   27.74    5.52
   9   3  10   30.40    5.07
  -9  -3  10   29.85    5.72
   3  -9  10   26.57    5.06
  -3   9  10   33.73    5.60
  -3   9  10   16.54    4.94
   9   3  10   34.53    5.59
   9   1 -10    6.61    2.55
   1  -9 -10    8.73    3.10
  -9  -1 -10    8.88    1.84
  -1   9 -10    7.83    1.67
   1  -9 -10    6.81    2.45
   9   1 -10    8.86    2.55
  -9  -1  10    8.82    2.84
  -1   9  10   11.00    2.94
   9   1  10   13.30    2.71
   1  -9  10    6.40    2.40
  -9  -1  10    8.02    2.68
   9   1  10   10.19    2.18
  -1   9  10    6.27    2.51
   1   9 -10    8.86    1.95
   9  -1 -10    6.68    2.75
   9  -1 -10    2.03    3.99
  -1  -9 -10   11.48    3.05
  -1  -9 -10    7.43    2.50
   1   9  10    6.56    2.93
  -1  -9  10    5.51    2.41
  -9   1  10    4.19    2.70
  -9   1  10    7.09    2.79
   9  -1  10    8.53    2.41
   9  -1  10    6.05    1.98
   1   9  10   12.53    2.63
  -1  -9  10    8.83    2.56
   3   9 -10   26.44    5.09
  -3  -9 -10   19.79    5.22
   9  -3 -10   30.83    6.00
   9  -3 -10   24.53    5.12
  -3  -9  10   27.55    5.50
   9  -3  10   28.75    5.15
  -3  -9  10   42.93    5.72
   3   9  10   28.91    6.09
  -9   3  10   28.56    5.88
   9  -3  10   31.97    4.85
  -9   3  10   29.31    5.85
   3   9  10   40.58    5.58
  -5  -9 -10   40.30    7.63
   9  -5 -10   35.69    7.51
   5   9 -10   35.87    7.09
   9  -5 -10   50.78    8.53
  -9   5  10   47.05    7.60
  -5  -9  10   37.70    7.42
   5   9  10   48.45    9.36
   9  -5  10   47.78    6.74
  -9   5  10   29.21    7.70
   5   9  10   56.72    7.44
  -5  -9  10   48.17    7.58
   9  -5  10   45.81    6.98
   9  -7 -10   33.22    6.75
   9  -7 -10   44.32    7.42
   9  -7  10   38.02    6.01
  -9   7  10   53.14    7.06
  -9   7  10   22.36    6.35
  -7  -9  10   32.76    6.78
   9  -7  10   37.01    5.83
   7   9  10   31.95    7.14
   7   9  10   46.82    6.67
  -7  -9  10   44.62    6.96
   9  -9 -10   29.77    6.01
  -9  -9 -10   15.54    5.36
   9   9 -10   35.65    5.79
   9  -9 -10   31.28    6.08
  -9  -9  10   47.40    6.67
   9  -9  10   29.68    5.12
  -9   9  10   43.13    6.49
   9   9  10   30.19    5.93
   9  -9  10   35.47    5.04
  -9  -9  10   29.90    6.25
   9   9  10   26.80    5.91
 -10  -8 -10    0.27    2.52
   8 -10 -10    3.90    2.38
   8 -10 -10   -2.90    3.24
  10   8 -10    3.18    2.36
 -10  -8  10    4.94    3.30
   8 -10  10   -4.91    1.65
  -8  10  10   -2.73    2.70
 -10  -8  10    2.19    2.64
  10   8  10    3.93    3.18
  10   8  10   -3.33    2.27
   6 -10 -10   -0.15    2.23
   6 -10 -10   -3.72    3.01
  10   6 -10   -2.66    2.22
 -10  -6 -10   -1.16    2.46
  -6  10  10    0.92    2.52
  10   6  10    2.72    2.94
 -10  -6  10   -2.63    2.47
   6 -10  10    1.49    2.49
 -10  -6  10    1.71    2.98
  10   6  10    1.91    2.15
  -6  10  10    0.52    2.30
 -10  -4 -10   -2.75    2.25
   4 -10 -10    3.14    2.90
  10   4 -10    4.01    2.27
   4 -10 -10   -4.65    3.41
   4 -10  10    2.89    1.92
  -4  10  10    2.11    2.16
  10   4  10   -2.30    1.86
 -10  -4  10   -1.14    2.40
   4 -10  10   -0.37    1.83
 -10  -4  10   -0.90    2.89
  10   4  10   -2.21    3.08
  10   2 -10    2.82    2.22
   2 -10 -10   -0.11    1.92
 -10  -2 -10    1.25    1.60
  10   2 -10   -1.40    2.16
   2 -10 -10    1.52    2.55
  10   2  10    2.22    2.38
 -10  -2  10    0.81    2.33
  -2  10  10    2.78    2.16
   2 -10  10    1.86    2.04
  -2  10  10   -1.39    2.32
   2 -10  10    1.89    2.04
  10   2  10   -0.87    1.75
  10   0 -10    7.16    2.38
   0  10 -10    3.99    1.37
  10   0 -10    0.94    2.22
   0 -10 -10    0.20    2.64
   0 -10 -10    2.09    2.17
 -10   0  10    0.34    2.55
   0 -10  10   -1.22    2.18
   0  10  10    3.16    2.28
   0  10  10   -1.80    2.49
   0 -10  10    3.89    2.15
 -10   0  10    4.11    2.42
  10   0  10    8.11    2.36
  10   0  10    2.85    1.72
  -2 -10 -10    0.50    2.53
  10  -2 -10    0.64    2.46
   2  10 -10    2.69    1.64
  10  -2  10    1.84    1.47
 -10   2  10   -5.17    2.43
   2  10  10    1.39    2.21
  -2 -10  10    1.00    2.31
  10  -2  10    7.56    2.17
 -10   2  10    0.37    2.48
   2  10  10   -0.56    2.66
  -2 -10  10   -0.29    2.18
  10  -4 -10   -5.11    3.68
  -4 -10 -10    4.92    2.52
   4  10 -10    0.74    1.73
  10  -4 -10   -2.49    2.40
   4  10  10    7.10    3.02
  -4 -10  10    3.40    2.24
   4  10  10    3.38    2.38
  -4 -10  10    1.38    2.44
 -10   4  10    1.72    2.70
 -10   4  10   -1.83    2.40
  10  -4  10    2.72    1.72
  10  -4  10    3.45    1.35
  -6 -10 -10   -1.53    2.45
  10  -6 -10    1.36    2.49
  10  -6 -10   -1.17    3.08
   6  10 -10   -0.42    1.82
 -10   6  10    2.59    2.70
  -6 -10  10    3.20    2.58
 -10   6  10    0.93    2.87
   6  10  10    3.03    3.12
  10  -6  10   -0.34    1.25
   6  10  10   -1.64    2.29
  -6 -10  10    0.25    2.40
  10  -6  10   -0.02    1.56
  10  -8 -10   -3.68    3.42
  10  -8 -10    1.48    2.61
  -8 -10 -10    4.35    3.32
   8  10  10    1.95    3.92
  10  -8  10    2.01    1.47
  -8 -10  10   -0.01    3.18
  10  -8  10   -1.02    1.08
  -8 -10  10   -2.53    2.45
 -10   8  10    2.14    2.69
   8  10  10    4.14    2.46
  10 -10 -10   -3.88    3.68
  10  10 -10    0.70    2.39
 -10 -10 -10   -1.55    2.64
  10 -10 -10    4.82    2.69
 -10 -10  10   -4.13    3.57
  10 -10  10   -0.48    1.35
  10  10  10   -0.83    2.83
 -10 -10  10    1.35    2.73
  10  10  10    2.56    3.39
 -10  10  10   -1.43    2.91
 -11  -9 -10    8.68    3.30
  11   9 -10    8.97    2.75
   9 -11 -10    1.93    2.78
   9 -11 -10   10.73    4.01
 -11  -9  10   14.31    3.83
  -9  11  10    6.44    3.23
   9 -11  10    7.68    1.97
  11   9  10   17.30    3.94
   9 -11  10    4.88    2.01
 -11  -9  10    1.75    3.00
  11   7 -10    8.34    2.80
   7 -11 -10    7.99    2.87
   7 -11 -10   14.06    3.75
 -11  -7 -10   14.23    3.15
  11   7  10    9.26    3.51
 -11  -7  10    3.11    3.12
  11   7  10   10.77    2.92
   7 -11  10   16.94    4.46
  -7  11  10    6.88    3.10
 -11  -7  10   12.94    3.71
   7 -11  10    7.41    2.26
   5 -11 -10    0.85    4.91
 -11  -5 -10   15.83    3.28
   5 -11 -10   17.45    3.75
  11   5 -10   14.65    3.06
 -11  -5  10    6.24    3.22
  -5  11  10    5.64    3.18
   5 -11  10   12.88    2.75
  -5  11  10   11.62    3.10
 -11  -5  10   14.06    3.75
  11   5  10   10.95    2.85
   5 -11  10   11.56    2.71
  11   5  10   16.67    3.61
  11   3 -10    8.86    2.86
   3 -11 -10    7.00    3.22
   3 -11 -10   10.00    2.65
 -11  -3 -10   11.15    2.49
  11   3 -10    5.93    2.79
   3 -11  10    8.69    2.54
  -3  11  10    4.61    3.09
  11   3  10   13.48    2.54
  11   3  10    8.07    3.13
   3 -11  10   11.00    2.55
 -11  -3  10   16.67    3.65
 -11  -3  10    8.92    3.10
   1 -11 -10    6.55    2.85
  11   1 -10    4.84    2.40
  11   1 -10    6.02    2.54
   1 -11 -10    4.05    2.26
  -1  11  10    2.49    2.81
  11   1  10    4.84    1.87
  -1  11  10    4.72    2.38
   1 -11  10    9.33    2.38
  11   1  10    3.68    2.53
 -11  -1  10   -0.43    2.45
   1 -11  10    6.09    2.21
  -1 -11 -10    5.84    3.04
  11  -1 -10    8.07    2.71
  11  -1 -10    5.32    2.68
   1  11 -10    7.34    1.76
  -1 -11 -10    5.54    2.81
  -1 -11  10    5.04    2.44
  11  -1  10    4.82    2.38
   1  11  10    4.75    2.52
   1  11  10    3.45    2.87
  -1 -11  10    3.81    2.40
  11  -1  10    7.11    1.87
 -11   1  10    6.42    5.86
 -11   1  10    1.37    4.70
  11  -3 -10   11.91    3.18
  11  -3 -10    7.47    3.27
  -3 -11 -10    8.25    3.06
 -11   3  10    5.95    2.96
  11  -3  10   10.41    2.05
   3  11  10   10.93    2.91
  -3 -11  10   12.10    2.97
 -11   3  10    5.74    3.20
  11  -3  10    8.71    2.49
   3  11  10   12.15    3.30
  -3 -11  10    4.59    2.69
  11  -5 -10   10.98    3.33
   5  11 -10    8.67    2.73
  -5 -11 -10    8.52    3.31
  11  -5 -10   15.71    3.98
  11  -5  10   15.22    2.67
  -5 -11  10   14.80    3.49
   5  11  10   16.65    3.86
   5  11  10   10.97    3.27
 -11   5  10   10.77    3.38
  -5 -11  10    8.21    3.07
  11  -5  10   17.48    2.70
 -11   5  10   13.78    5.30
  11  -7 -10    5.21    3.06
  -7 -11 -10    8.87    3.07
   7  11 -10    9.15    2.41
  11  -7 -10    4.57    3.67
   7  11  10   10.54    3.68
 -11   7  10    6.04    3.06
   7  11  10   10.54    3.04
  11  -7  10    8.81    1.79
  11  -7  10    8.30    1.98
  -7 -11  10    8.77    3.08
  -7 -11  10    8.82    3.33
  11  -9 -10    6.84    3.14
  -9 -11 -10    7.53    3.44
   9  11 -10    7.21    3.25
  11  -9 -10   -0.71    3.96
 -11   9  10    9.12    3.30
   9  11  10   10.01    3.00
   9  11  10    9.82    3.88
  -9 -11  10   11.18    3.97
  -9 -11  10    3.04    3.03
  11 -11 -10   -1.19    3.85
  11  11 -10    0.98    2.48
  11 -11 -10    2.38    2.89
  11  11  10    4.84    4.84
 -11  11  10   -0.18    3.02
 -11 -11  10    2.62    3.04
 -11 -11  10   -0.36    3.85
  11  11  10    0.07    2.98
 -12 -10 -10    4.23    3.28
  10 -12 -10   -0.13    3.99
  10 -12 -10    0.24    2.76
  12  10 -10    4.94    2.81
  12  10  10    5.23    3.71
 -12 -10  10    1.38    3.99
  10 -12  10   -1.84    1.51
  12  10  10   -4.45    2.83
 -12 -10  10   -6.10    2.98
  10 -12  10   -2.95    1.45
 -10  12  10    1.00    3.28
   8 -12 -10    3.23    3.60
   8 -12 -10    3.92    2.58
 -12  -8 -10   -1.85    2.85
  12   8 -10    4.59    2.67
 -12  -8  10   -7.40    3.55
  -8  12  10   -0.57    2.97
  12   8  10   -0.56    2.55
   8 -12  10    1.54    1.70
 -12  -8  10    0.63    2.96
  12   8  10   -0.92    3.37
   8 -12  10   -0.37    2.07
   6 -12 -10   -2.40    3.19
 -12  -6 -10    0.05    2.56
  12   6 -10   -0.45    2.49
   6 -12  10    1.28    1.88
 -12  -6  10    0.18    2.93
  12   6  10    1.47    3.04
  12   6  10    2.07    2.35
 -12  -6  10    4.83    3.39
  -6  12  10    1.00    2.52
   6 -12  10   -0.28    1.92
  12   4 -10    2.97    2.40
 -12  -4 -10    3.40    2.41
   4 -12 -10   -0.26    2.12
   4 -12 -10    2.35    2.97
  -4  12  10    3.34    2.52
   4 -12  10   -3.16    2.51
 -12  -4  10   -2.01    3.28
   4 -12  10    3.18    2.08
  12   4  10   -2.12    2.84
  -4  12  10   -2.76    2.76
 -12  -4  10   -0.52    2.63
   2 -12 -10    3.08    3.56
   2 -12 -10    2.46    2.23
  12   2 -10   -1.16    2.32
  12   2 -10    4.28    2.59
  -2  12  10   -2.53    2.63
 -12  -2  10   -2.11    3.11
  12   2  10    0.38    2.60
 -12  -2  10   -1.79    4.50
  12   2  10    0.54    3.09
   2 -12  10   -1.12    3.37
  -2  12  10    2.39    2.36
   2 -12  10    0.19    2.03
  12   0 -10    3.18    4.18
   0 -12 -10   -1.90    2.59
   0  12 -10    0.07    1.51
   0 -12 -10    0.41    2.56
  12   0 -10   -1.68    2.44
   0 -12  10   -3.19    2.45
 -12   0  10   -5.76    4.09
   0  12  10    2.69    2.64
  12   0  10    0.34    2.34
   0 -12  10   -0.74    2.12
 -12   0  10   -2.37    2.59
  12   0  10    3.28    1.88
   0  12  10    0.97    2.25
  12  -2 -10   -2.53    3.04
  -2 -12 -10    3.22    2.66
  12  -2 -10    1.64    2.81
   2  12 -10    1.13    1.61
 -12   2  10    0.71    2.62
   2  12  10    1.21    2.87
   2  12  10    0.03    2.46
 -12   2  10   -0.64    2.84
  12  -2  10    0.78    2.05
  -2 -12  10   -0.96    2.40
  -2 -12  10   -0.25    2.47
  12  -2  10   -0.33    1.47
  12  -4 -10   -2.09    2.76
  12  -4 -10   -2.98    2.54
   4  12 -10    1.49    1.91
  -4 -12 -10   -3.92    2.52
   4  12  10    1.31    3.12
   4  12  10    2.11    2.52
  12  -4  10    1.32    1.58
 -12   4  10   -0.80    2.77
  -4 -12  10   -1.33    2.64
  -4 -12  10    2.71    2.41
  12  -4  10   -1.74    1.84
  12  -6 -10   -2.83    2.74
  -6 -12 -10    1.61    2.89
  12  -6 -10   -6.27    3.28
   6  12 -10    0.76    1.90
  12  -6  10    2.38    2.04
  -6 -12  10    1.14    3.32
  12  -6  10    2.51    1.57
   6  12  10   -1.02    2.58
  -6 -12  10    0.68    2.43
 -12   6  10   -5.15    2.72
   6  12  10    4.73    3.56
   8  12 -10   -0.30    1.60
  12  -8 -10    1.99    3.65
  -8 -12 -10   -4.34    2.93
  12  -8 -10    0.64    2.96
 -12   8  10    1.52    2.91
  -8 -12  10    2.10    3.55
  -8 -12  10    0.17    2.68
   8  12  10   -0.83    2.65
   8  12  10    8.09    3.68
 -10 -12 -10   -6.76    3.86
  12 -10 -10   -6.20    3.81
  12 -10 -10    3.17    3.08
  10  12 -10   -1.69    2.51
 -10 -12  10    1.63    3.00
  10  12  10    0.35    3.89
 -12  10  10   -4.75    2.95
  10  12  10    4.38    3.97
 -10 -12  10    8.47    4.00
  12 -12 -10    6.43    4.34
  12 -12 -10    4.46    3.17
  12  12 -10    0.44    2.59
 -12 -12  10   -1.84    4.26
 -12 -12  10   -0.35    3.28
 -12  12  10   -2.04    3.24
  12  12  10    6.76    3.18
  12  12  10   -0.52    3.72
  11 -13 -10    9.34    4.46
  13  11 -10    0.07    2.74
 -13 -11 -10    0.35    3.45
  11 -13 -10    0.80    3.13
  13  11  10   -0.14    4.61
  13  11  10   -3.95    3.09
 -13 -11  10   -0.77    4.07
 -11  13  10   -1.35    3.36
 -13 -11  10    1.78    4.42
   9 -13 -10    2.47    3.80
 -13  -9 -10   -1.07    3.18
   9 -13 -10    0.08    2.86
  13   9 -10   -1.83    2.63
  13   9  10    5.17    3.62
 -13  -9  10   -0.94    4.19
   9 -13  10    1.59    1.82
 -13  -9  10   -0.05    3.86
  13   9  10    1.51    2.69
  -9  13  10    3.65    3.25
   9 -13  10   -1.98    1.59
 -13  -7 -10   -0.90    2.82
   7 -13 -10   -2.27    3.28
  13   7 -10    0.51    2.69
   7 -13 -10    3.61    5.12
  13   7  10    0.42    2.51
   7 -13  10    2.97    2.16
 -13  -7  10   -2.19    3.92
  13   7  10   -1.53    3.30
 -13  -7  10    1.25    3.50
  -7  13  10    1.62    2.80
   7 -13  10    3.11    1.93
   5 -13 -10   -1.29    2.22
 -13  -5 -10    0.44    2.65
  13   5 -10    0.66    2.53
   5 -13 -10    0.71    3.22
   5 -13  10    0.75    3.11
  13   5  10    5.18    3.36
 -13  -5  10   -3.75    3.42
  -5  13  10   -2.42    2.36
 -13  -5  10    0.27    2.94
  13   5  10   -0.26    2.18
   5 -13  10   -1.32    2.18
   3 -13 -10    0.77    2.16
   3 -13 -10   -2.66    2.98
  13   3 -10    0.13    2.40
 -13  -3 -10   -1.72    2.64
 -13  -3  10   -2.22    2.80
   3 -13  10   -1.97    2.06
  13   3  10    2.76    2.91
   3 -13  10    1.14    2.59
  13   3  10    1.48    2.05
 -13  -3  10   -0.26    3.41
  -3  13  10   -1.16    2.78
   1 -13 -10   -4.86    4.29
  13   1 -10    0.69    2.54
  13   1 -10   -1.35    2.50
   1 -13 -10   -0.82    2.50
  -1  13  10   -0.80    2.35
   1 -13  10    1.77    2.20
 -13  -1  10   -2.28    3.28
  -1  13  10   -1.73    2.67
  13   1  10    1.88    1.78
 -13  -1  10   -0.14    2.64
  13   1  10    3.65    2.75
   1 -13  10   -4.31    2.61
  13  -1 -10   -1.78    2.55
  13  -1 -10    0.60    2.58
   1  13 -10   -0.07    1.46
  -1 -13 -10   -1.14    2.68
  13  -1  10    3.79    2.34
   1  13  10    5.89    3.77
  -1 -13  10    1.65    2.89
 -13   1  10   -4.61    3.77
  13  -1  10    1.82    1.66
   1  13  10    2.06    2.35
  -1 -13  10    1.52    2.23
  -3 -13 -10   -0.98    2.65
  13  -3 -10   -0.81    3.00
   3  13 -10   -0.89    1.70
   3  13  10    1.99    3.15
  13  -3  10    4.17    2.39
   3  13  10    0.37    2.76
  -3 -13  10    1.97    2.36
  -3 -13  10    2.52    3.18
  13  -3  10    0.63    1.47
   5  13 -10   -0.96    1.98
  -5 -13 -10    0.91    2.96
  13  -5 -10    4.54    3.23
  13  -5 -10    1.47    2.91
  -5 -13  10   -1.73    2.42
  -5 -13  10    8.29    3.75
   5  13  10    1.20    3.48
 -13   5  10   -0.74    2.95
  13  -5  10    1.16    1.36
   5  13  10    0.80    2.72
  13  -5  10    3.54    1.94
  13  -7 -10    1.12    3.73
   7  13 -10    0.74    2.04
  -7 -13 -10    3.29    3.22
  13  -7 -10   -1.37    3.03
  13  -7  10    2.59    1.59
  13  -7  10    1.03    1.22
   7  13  10    2.23    3.64
 -13   7  10   -3.54    2.98
  -7 -13  10    0.42    2.64
  -7 -13  10    3.86    3.65
   7  13  10   -1.80    2.85
  13  -9 -10   -2.03    3.17
  13  -9 -10    2.05    3.91
  -9 -13 -10    0.43    3.25
   9  13  10    6.32    4.05
  -9 -13  10    4.27    4.27
   9  13  10    3.01    3.02
  -9 -13  10   -0.60    2.95
 -13   9  10    1.11    3.16
  13 -11 -10    2.90    3.25
  13 -11 -10   -3.70    4.29
  11  13 -10    1.51    2.46
  11  13  10    3.65    3.92
 -11 -13  10   -1.20    4.24
 -11 -13  10   -7.57    3.04
  11  13  10   -1.68    3.40
 -13  11  10    2.94    3.34
 -13 -13  10   -1.11    3.98
 -13  13  10   -0.60    3.68
  10 -14 -10    0.59    4.18
  14  10 -10   -1.24    3.03
  10 -14 -10    1.53    3.44
 -14 -10 -10    0.08    3.50
  10 -14  10    1.41    1.68
  14  10  10    0.00    3.80
 -14 -10  10   -2.36    3.51
 -10  14  10   -0.35    3.35
 -14 -10  10   -1.83    4.31
  10 -14  10   -0.59    1.58
  14  10  10    0.33    3.17
 -14  -8 -10   -1.31    3.06
   8 -14 -10    3.34    5.25
   8 -14 -10    3.84    3.51
  14   8 -10    1.91    3.02
  14   8  10   -0.32    2.68
   8 -14  10    0.13    1.94
 -14  -8  10    3.55    3.46
 -14  -8  10    5.44    4.35
   8 -14  10    1.66    2.12
  -8  14  10    1.71    3.27
  14   8  10   -1.23    3.32
 -14  -6 -10   -0.03    2.83
   6 -14 -10   -2.15    2.41
   6 -14 -10    0.30    3.56
  14   6 -10   -0.19    2.70
 -14  -6  10    1.24    4.11
  -6  14  10   -1.97    2.67
   6 -14  10    0.42    2.03
  14   6  10    3.61    2.57
  14   6  10   -2.71    3.06
   6 -14  10   -2.40    2.17
 -14  -6  10   -2.10    3.16
  14   4 -10    1.62    2.91
   4 -14 -10    4.17    3.52
   4 -14 -10    1.00    2.41
 -14  -4 -10   -1.86    3.90
 -14  -4  10   -0.24    3.64
  14   4  10   -2.16    2.22
  14   4  10    2.22    2.99
   4 -14  10    1.92    2.44
   4 -14  10    0.02    2.12
  -4  14  10   -2.21    2.50
 -14  -4  10    2.85    3.41
  14   2 -10   -1.16    2.57
   2 -14 -10    2.60    2.65
   2 -14 -10    2.95    2.99
  14   2  10    3.15    2.01
  14   2  10   -1.56    2.74
   2 -14  10   -1.76    2.14
   2 -14  10    5.66    2.66
 -14  -2  10   -1.10    3.60
  -2  14  10    1.43    2.52
  14   0 -10    0.65    2.55
  14   0 -10    0.48    2.82
   0 -14 -10    2.13    2.88
  14   0  10   -0.54    2.48
   0 -14  10   -1.59    2.25
   0 -14  10    1.11    2.66
 -14   0  10    2.59    3.72
   0  14  10   -1.08    2.39
  14   0  10   -2.83    1.77
   0  14  10    5.20    3.20
   2  14 -10   -0.34    1.66
  14  -2 -10    4.93    2.85
  -2 -14 -10   -1.88    2.68
  14  -2 -10    0.79    2.82
  14  -2  10    3.49    1.63
  -2 -14  10   -0.17    2.81
   2  14  10    1.64    3.23
  -2 -14  10    1.43    2.33
   2  14  10   -0.51    2.58
 -14   2  10   -2.29    3.86
  14  -2  10    1.24    3.56
   4  14 -10    0.99    1.95
  14  -4 -10    1.02    3.31
  -4 -14 -10   -2.22    3.00
   4  14  10   -5.06    2.64
  14  -4  10    2.43    2.08
  -4 -14  10    0.48    3.29
  -4 -14  10    0.53    2.37
  14  -4  10    0.92    1.50
   4  14  10   -0.13    5.87
  14  -6 -10   -2.89    3.44
   6  14 -10    0.59    2.09
  14  -6 -10   -1.23    3.13
  -6 -14 -10    1.57    3.16
   6  14  10   -1.48    3.00
  -6 -14  10   -0.52    3.41
  14  -6  10    0.26    1.83
 -14   6  10   -2.18    3.16
  -6 -14  10   -2.26    2.58
  14  -6  10   -2.59    1.31
   6  14  10    1.78    3.71
  14  -8 -10   -4.82    3.79
  14  -8 -10   -1.80    3.28
   8  14 -10   -2.22    2.12
  -8 -14 -10    0.67    3.28
  -8 -14  10   -1.52    3.74
   8  14  10    4.27    3.23
  -8 -14  10    6.24    2.99
   8  14  10    1.44    4.12
 -14   8  10   -3.22    3.25
  14 -10 -10   -0.84    3.58
 -10 -14 -10    3.29    3.48
  14 -10 -10   -1.47    4.83
 -14  10  10    1.69    3.46
  10  14  10    0.70    3.91
 -10 -14  10    3.76    4.02
  10  14  10   -1.46    3.60
 -10 -14  10    2.72    3.27
   9 -15 -10    3.26    4.29
   9 -15 -10    3.64    3.82
 -15  -9 -10   -2.68    3.45
  15   9 -10    1.14    3.02
   9 -15  10    0.59    1.93
  -9  15  10    1.21    3.44
   9 -15  10    0.00    1.98
  15   9  10    2.58    3.10
 -15  -9  10    7.31    4.74
  15   9  10    0.84    3.72
   7 -15 -10   -0.19    3.82
   7 -15 -10    4.02    2.74
  15   7 -10   -0.76    3.23
 -15  -7 -10    0.13    3.02
   7 -15  10   -0.43    2.06
  15   7  10    3.15    3.24
  15   7  10    2.72    2.80
   7 -15  10    1.63    2.27
  -7  15  10   -0.09    2.83
 -15  -7  10   -5.63    4.31
   5 -15 -10   -3.92    2.56
  15   5 -10    1.38    3.09
 -15  -5 -10    3.44    4.92
   5 -15 -10    0.32    3.44
   5 -15  10   -1.11    2.19
   5 -15  10    0.48    2.46
  15   5  10    3.22    3.07
  15   5  10    2.58    2.54
 -15  -5  10   -1.01    4.40
  -5  15  10   -1.33    2.53
  15   3 -10   -0.10    2.81
   3 -15 -10    3.41    2.77
   3 -15 -10    1.44    3.34
   3 -15  10    0.76    2.54
  15   3  10    5.81    3.05
 -15  -3  10    6.94    4.07
  15   3  10    1.46    2.28
  -3  15  10    3.70    2.67
   3 -15  10    6.80    2.44
  15   1 -10    5.34    3.22
   1 -15 -10    4.59    3.16
   1 -15  10    4.71    2.58
  -1  15  10    6.99    2.73
 -15  -1  10    0.73    6.29
  15   1  10    3.22    2.19
  15   1  10    0.01    2.78
   1 -15  10    2.99    2.80
  15  -1 -10   -0.28    3.06
  15  -1 -10    6.31    3.03
  -1 -15 -10    3.11    3.08
   1  15 -10    4.58    1.95
  -1 -15  10    2.68    2.90
  15  -1  10    4.20    2.04
 -15   1  10    8.98    4.18
  -1 -15  10    2.83    2.73
  15  -1  10    1.18    2.61
   1  15  10    3.45    2.76
  -3 -15 -10    2.37    3.11
  15  -3 -10   -2.32    3.07
   3  15 -10    1.57    1.94
  15  -3 -10   -0.73    3.12
   3  15  10    3.15    3.71
  15  -3  10    3.08    2.32
   3  15  10    5.39    3.01
  -3 -15  10    4.94    2.64
  15  -3  10    5.35    1.73
  -3 -15  10    5.43    3.10
 -15   3  10   -0.39    3.97
  -5 -15 -10    2.70    3.41
   5  15 -10    2.75    2.17
  15  -5 -10   -2.09    3.61
   5  15  10    1.81    3.81
  15  -5  10    2.86    1.99
  -5 -15  10    4.13    3.33
  15  -5  10    1.54    1.44
   5  15  10   -3.59    2.87
  -5 -15  10    0.29    2.54
  15  -7 -10   -2.43    3.42
   7  15 -10    2.94    2.32
  15  -7 -10   -5.55    3.73
  -7 -15 -10    7.94    3.53
  -7 -15  10    5.43    3.59
   7  15  10    0.37    3.18
   7  15  10    3.09    4.09
  -7 -15  10    2.68    2.94
  15  -7  10   -0.26    1.25
  15  -7  10    4.04    1.66
   9  15 -10   -0.12    2.51
  15  -9 -10    0.52    3.76
  15  -9 -10    5.42    7.37
  -9 -15 -10    2.29    3.50
  -9 -15  10   -1.40    3.08
  -9 -15  10    1.96    4.09
   9  15  10    8.57    8.32
   9  15  10   -1.48    3.29
 -15   9  10   -3.80    3.44
   8 -16 -10   -1.79    2.77
 -16  -8 -10    3.87    3.44
  16   8 -10    1.14    3.31
   8 -16 -10   -2.15    4.78
  16   8  10   -5.42    2.90
   8 -16  10    0.33    2.18
   8 -16  10   -0.81    2.20
 -16  -8  10   -5.18    4.68
  -8  16  10   -3.83    3.23
  16   8  10    1.69    3.54
 -16  -6 -10   -3.52    3.84
  16   6 -10    2.23    3.08
   6 -16 -10   -6.16    3.32
   6 -16 -10   -0.89    2.73
  16   6  10   -3.42    2.60
  16   6  10    0.60    4.08
  -6  16  10   -0.85    2.86
 -16  -6  10   -0.36    4.66
   6 -16  10   -3.97    2.21
   6 -16  10    0.98    2.38
  16   4 -10    5.93    3.17
   4 -16 -10    2.29    3.51
   4 -16 -10   -1.39    3.16
  16   4  10    0.97    3.08
  -4  16  10   -0.29    2.83
   4 -16  10    0.15    2.71
 -16  -4  10   -0.38    4.74
  16   4  10    0.29    2.45
   4 -16  10    4.93    2.69
  16   2 -10    0.46    2.77
   2 -16 -10    0.10    3.16
   2 -16  10    3.90    2.57
 -16  -2  10    0.76    4.30
  -2  16  10   -3.82    3.11
   2 -16  10   -0.20    2.84
  16   2  10    7.05    2.96
  16   2  10    2.53    2.21
  16   0 -10   -1.33    3.23
  16   0 -10    0.96    3.05
   0 -16 -10    0.38    3.10
  16   0  10    4.07    2.63
   0 -16  10    0.50    2.64
 -16   0  10   -1.95    4.05
  16   0  10   -0.59    2.00
   0 -16  10   -2.27    2.83
   0  16  10    3.83    2.67
  16  -2 -10    1.84    2.95
  16  -2 -10   -2.30    3.26
  -2 -16 -10   -0.18    2.99
   2  16 -10    0.67    3.69
  16  -2  10   -0.82    1.90
  -2 -16  10    3.67    3.08
   2  16  10    1.34    2.88
  -2 -16  10   -2.61    2.54
 -16   2  10    0.02    4.33
  16  -2  10    0.10    2.46
  16  -4 -10    0.57    3.34
  -4 -16 -10    2.36    5.38
   4  16 -10    0.95    2.02
  16  -4 -10    0.24    3.60
  -4 -16  10    5.09    3.38
  16  -4  10    1.56    1.59
 -16   4  10    5.53    4.21
  16  -4  10   -1.12    2.19
   4  16  10   -2.42    3.10
  -4 -16  10   -2.47    2.75
   6  16 -10   -2.33    3.37
  16  -6 -10   -4.48    3.59
  -6 -16 -10   -2.92    3.49
  -6 -16  10   -4.36    3.51
   6  16  10   -1.68    2.92
  -6 -16  10    1.19    2.78
 -16   6  10   -1.90    4.65
  16  -6  10    1.79    1.47
   8  16 -10   -2.72    2.42
  16  -8 -10   -4.70    3.87
  16  -8 -10   -0.54    4.23
  -8 -16 -10   -2.07    3.49
  -8 -16  10    0.37    3.28
   8  16  10    5.26    7.18
   8  16  10    1.49    3.50
  -8 -16  10   -2.46    4.00
  17   5 -10    4.27    3.51
   5 -17 -10    4.15    3.93
   5 -17  10    0.94    2.67
  -5  17  10    2.97    3.05
   5 -17  10   -0.42    2.47
 -17  -5  10   11.64    5.17
  17   5  10    2.98    3.36
  17   5  10    3.05    2.70
  17   3 -10    6.46    3.41
   3 -17 -10    8.33    3.81
   3 -17  10    2.87    3.19
 -17  -3  10    8.74    5.14
  -3  17  10    9.19    3.29
  17   3  10    8.29    3.51
   3 -17  10    7.11    3.03
  17   3  10   11.24    3.00
  17   1 -10    7.03    3.42
   1 -17 -10    9.63    3.78
 -17  -1  10    3.10    4.89
   1 -17  10    8.17    3.26
  17   1  10    8.77    2.73
   1 -17  10    7.35    3.46
  -1  17  10    9.74    3.21
  17   1  10    7.07    3.26
  17  -1 -10    5.04    3.83
  17  -1 -10    8.66    3.74
  -1 -17 -10   12.05    3.72
  -1 -17  10    6.31    3.05
   1  17  10    7.26    3.25
  17  -1  10    5.61    2.49
  -1 -17  10    8.56    3.70
  17  -1  10    4.98    3.01
 -17   1  10    8.83    4.95
  17  -3 -10    5.96    3.47
  -3 -17 -10    9.63    3.82
  17  -3 -10    8.07    3.82
   3  17 -10    6.89    4.30
 -17   3  10    8.85    4.89
  -3 -17  10    4.51    3.72
  17  -3  10    3.82    2.48
  17  -3  10    7.98    2.26
  -3 -17  10    5.36    3.01
   3  17  10    3.04    3.38
  17  -5 -10    3.22    3.88
  17  -5 -10    1.34    4.05
  -5 -17 -10    1.57    3.74
   5  17 -10    2.65    2.28
  -5 -17  10    2.46    3.20
  17  -5  10    1.98    2.26
   5  17  10    0.90    3.31
  17  -5  10    4.07    1.73
  -5 -17  10    4.42    3.82
 -17   5  10    7.62    4.74
  17  -7 -10   -2.36    4.05
   2 -18 -10    1.42    3.51
  18   2 -10    1.00    3.44
  -2  18  10    0.65    4.83
   2 -18  10   -0.64    2.88
  18   2  10   -4.21    2.43
   2 -18  10    2.60    2.85
  18   2  10    2.24    3.10
   0 -18 -10   -5.70    3.28
  18   0 -10   -2.94    3.34
   0 -18  10   -1.85    3.05
 -18   0  10    0.71    4.97
  18   0  10   -0.54    5.09
   0 -18  10   -3.10    3.11
   0  18  10   -1.31    2.82
  18   0  10    3.25    2.35
  18  -2 -10    0.21    4.94
  -2 -18 -10   -0.28    3.63
  18  -2 -10   -1.03    3.40
  18  -2  10   -0.70    2.17
  18  -2  10   -2.48    2.69
 -18   2  10    0.28    4.98
   2  18  10    0.67    3.07
  -2 -18  10   -0.63    2.97
  -2 -18  10    5.21    3.47
   0  -1 -11   19.69    3.57
  -1   0 -11   17.27    3.32
   1   0 -11   15.56    3.34
   0  -1 -11   19.91    3.66
   0   1 -11   15.82    3.31
   1   0 -11   17.49    3.67
  -1   0  11   22.32    3.56
   0  -1  11   19.04    3.48
  -1   0  11   20.47    3.60
   1   0  11   15.84    3.38
   1   0  11   19.68    3.53
   0   1  11   22.53    3.92
   0   1  11   17.78    3.67
   0  -1  11   18.61    3.44
   1  -2 -11   10.79    2.77
  -1   2 -11   13.47    2.58
  -2  -1 -11   14.49    2.88
   2   1 -11   10.74    2.66
   2   1  11   13.54    2.78
  -1   2  11    8.56    2.96
   1  -2  11   15.77    2.80
  -2  -1  11   15.09    2.88
  -1   2  11   12.25    2.83
  -2  -1  11   15.61    3.02
   1  -2  11   18.82    2.96
   2  -1 -11    9.85    3.45
   1   2 -11   10.42    2.55
   2  -1 -11   15.93    2.74
  -1  -2 -11   11.93    2.91
  -2   1 -11   12.72    2.51
   2  -1  11   12.99    2.75
   1   2  11   11.02    2.88
   1   2  11   13.86    2.71
  -1  -2  11   14.35    2.78
  -2   1  11   11.23    2.90
   2  -1  11   17.35    2.72
  -2   1  11   11.49    2.83
  -1  -2  11    8.42    2.66
   2  -3 -11   12.86    3.09
  -2   3 -11   15.46    3.17
   2  -3 -11   17.91    3.57
  -3  -2 -11   19.00    3.33
   2  -3  11   13.83    3.07
  -2   3  11   18.13    3.24
   3   2  11   18.94    3.14
  -2   3  11   14.59    3.45
   2  -3  11   15.46    2.99
  -3  -2  11   16.70    3.21
  -3  -2  11   16.92    3.25
   3   2  11   11.82    3.26
   3   0 -11   15.90    3.28
   3   0 -11   14.22    3.18
   0  -3 -11   17.56    3.56
  -3   0 -11   18.50    3.43
   0   3 -11   18.72    3.09
   3   0  11   15.12    3.33
  -3   0  11   13.43    3.30
   0  -3  11   19.17    3.18
   0   3  11   14.81    3.25
   0   3  11   14.39    3.55
  -3   0  11   17.72    3.36
   3   0  11   18.63    3.15
   0  -3  11   14.78    3.22
  -2  -3 -11   13.11    3.25
   3  -2 -11   17.34    3.48
   3  -2 -11   14.39    3.09
   2   3 -11   13.76    2.93
  -3   2 -11   15.32    2.74
   2   3  11   11.85    3.31
   2   3  11   16.92    3.06
  -2  -3  11   20.99    3.65
   3  -2  11   19.24    2.93
   3  -2  11   13.87    2.99
  -3   2  11   14.34    3.20
  -2  -3  11   10.72    3.04
  -3   2  11   16.40    3.18
   3  -4 -11   14.66    2.99
   3  -4 -11   14.28    3.50
  -3   4 -11   13.79    2.77
  -4  -3 -11   16.27    3.21
  -3   4  11   15.67    3.11
   4   3  11   14.78    3.18
   4   3  11   16.40    2.93
   3  -4  11   12.73    2.71
  -4  -3  11   14.10    3.09
  -3   4  11   13.58    3.34
  -4  -3  11    9.69    2.98
   1  -4 -11   26.75    5.49
   4   1 -11   27.39    5.26
   1  -4 -11   26.07    4.87
  -1   4 -11   22.78    4.65
  -4  -1 -11   31.79    4.86
   4   1 -11   23.05    5.05
   4   1  11   27.49    5.09
  -4  -1  11   29.82    5.11
   1  -4  11   24.23    4.81
  -1   4  11   29.77    5.02
   4   1  11   24.72    4.72
  -4  -1  11   27.10    5.17
   1  -4  11   31.19    4.91
  -1   4  11   24.77    5.30
   4  -1 -11   21.55    4.96
   4  -1 -11   26.56    5.12
  -4   1 -11   25.88    4.46
   1   4 -11   25.51    4.65
  -1  -4  11   24.43    4.81
   1   4  11   31.29    5.00
  -1  -4  11   23.71    4.55
  -4   1  11   24.11    4.72
   4  -1  11   28.65    4.93
  -4   1  11   34.65    5.15
   1   4  11   25.99    5.26
   4  -1  11   28.88    4.66
  -3  -4 -11   14.19    3.19
   4  -3 -11   14.22    3.25
   3   4 -11   10.06    2.56
  -4   3 -11   12.66    2.61
   4  -3 -11   13.34    2.85
   3   4  11   12.89    3.07
  -4   3  11   11.98    2.96
   4  -3  11   14.48    2.77
  -3  -4  11   15.18    2.94
   4  -3  11   14.29    2.52
   3   4  11   10.97    2.77
  -3  -4  11   10.24    2.93
  -4   3  11   11.30    3.14
  -5  -4 -11   13.87    3.21
   4  -5 -11   15.80    3.47
   4  -5 -11    8.19    2.75
  -5  -4  11   13.39    3.03
  -5  -4  11   13.95    3.00
   4  -5  11   10.68    2.59
  -4   5  11    9.64    3.11
   4  -5  11   11.00    2.43
  -4   5  11    8.02    2.92
   5   4  11   14.70    2.70
   5   4  11   11.10    3.07
   5   2 -11    6.35    3.31
   2  -5 -11    9.70    3.03
  -5  -2 -11    8.87    2.41
   2  -5 -11    8.07    2.35
   2  -5  11   10.01    2.34
  -2   5  11    9.01    2.50
  -5  -2  11    8.69    2.57
  -2   5  11    3.37    2.70
   5   2  11    8.53    2.21
  -5  -2  11    8.00    2.47
   5   2  11   13.30    2.74
   2  -5  11    8.12    2.17
   5   0 -11    5.42    2.20
  -5   0 -11    5.91    1.71
   0  -5 -11    3.52    2.57
   0  -5 -11    5.04    2.65
   5   0 -11    7.11    2.42
  -5   0  11    7.09    2.38
   5   0  11    4.93    2.29
   0   5  11    6.51    2.56
   0   5  11    6.15    2.22
   0  -5  11    6.17    3.41
   5   0  11    7.54    1.98
   0  -5  11    4.75    2.04
  -5   0  11    3.45    2.61
   2   5 -11    6.45    2.11
   5  -2 -11   11.56    2.87
   5  -2 -11    2.12    2.27
  -5   2 -11    8.93    1.66
   2   5  11    4.88    2.62
   5  -2  11    8.19    2.31
   2   5  11    6.29    2.33
  -2  -5  11   12.35    2.43
  -5   2  11    8.30    2.57
  -2  -5  11    9.91    2.58
   5  -2  11    8.42    1.99
  -5   2  11    8.45    2.52
   5  -4 -11   10.97    2.77
   5  -4 -11   17.71    3.52
  -4  -5 -11   11.34    3.18
   4   5 -11   11.75    2.66
  -5   4  11   17.06    3.21
   4   5  11   12.97    2.78
   4   5  11    8.67    3.13
  -5   4  11   12.26    3.14
  -4  -5  11   13.25    2.99
   5  -4  11    6.80    2.51
  -4  -5  11   12.26    2.97
   5  -4  11   11.01    2.35
   5  -6 -11   12.72    3.31
  -6  -5 -11   18.68    3.66
   5  -6 -11   19.87    4.03
  -5   6  11   15.49    3.74
  -6  -5  11   12.18    3.56
   6   5  11   13.10    3.29
   5  -6  11   19.08    3.69
  -5   6  11   17.15    3.54
   6   5  11   13.91    3.75
   5  -6  11   21.47    3.31
   6   3 -11    9.75    2.73
   3  -6 -11   10.57    3.39
  -6  -3 -11   11.33    2.84
   3  -6 -11   10.08    2.68
   3  -6  11   12.51    2.35
  -6  -3  11    6.62    2.77
  -6  -3  11   11.97    2.97
   3  -6  11    9.47    2.56
  -3   6  11   11.81    2.81
  -3   6  11    7.27    3.15
   6   3  11   20.20    3.19
   6   3  11   11.34    3.01
   6   1 -11   34.41    5.85
   1  -6 -11   33.23    6.02
  -1   6 -11   29.72    5.34
  -6  -1 -11   32.98    5.53
   1  -6 -11   42.34    6.11
   1  -6  11   32.31    5.83
  -1   6  11   27.91    6.19
   6   1  11   38.65    5.57
  -6  -1  11   35.74    6.08
   1  -6  11   31.08    5.64
   6   1  11   31.56    5.86
  -6  -1  11   27.18    6.05
  -1   6  11   35.17    5.91
   6  -1 -11   31.35    5.96
   1   6 -11   32.95    5.53
  -1  -6 -11   33.56    6.24
  -6   1 -11   36.28    5.07
   6  -1 -11   23.31    5.76
   6  -1  11   28.29    5.67
   1   6  11   36.67    5.76
  -1  -6  11   23.17    5.68
  -6   1  11   33.78    5.96
   1   6  11   30.82    5.99
   6  -1  11   39.13    5.38
  -1  -6  11   26.87    5.86
  -6   1  11   32.02    5.94
   6  -3 -11   10.76    2.78
   6  -3 -11    8.87    3.16
   3   6 -11    8.25    2.38
  -6   3  11    5.39    2.88
   3   6  11   10.63    3.12
   6  -3  11   12.66    2.28
  -6   3  11   14.02    3.19
  -3  -6  11   11.53    2.77
   6  -3  11   13.04    2.62
  -3  -6  11    9.57    2.82
   3   6  11   12.41    2.77
   6  -5 -11   12.41    3.28
   6  -5 -11   14.88    3.97
   5   6 -11   19.18    3.63
  -5  -6 -11   14.54    3.67
   6  -5  11   21.87    3.33
   5   6  11   12.81    3.68
  -6   5  11   12.95    3.64
  -6   5  11   26.89    4.53
   6  -5  11   20.59    3.57
  -5  -6  11   10.75    3.44
   5   6  11   14.27    3.29
   6  -7 -11    8.39    2.41
   7   6 -11    5.48    2.52
   6  -7 -11    6.09    3.20
  -7  -6 -11    6.90    2.83
  -7  -6  11    8.32    2.96
   6  -7  11    4.79    1.73
  -6   7  11   10.71    3.10
   6  -7  11    2.34    1.91
   7   6  11    2.08    2.23
   7   6  11    9.38    3.03
  -7  -6  11    6.51    2.75
  -6   7  11    3.72    2.74
   4  -7 -11    6.68    3.30
   7   4 -11    7.77    2.49
  -7  -4 -11   11.83    2.89
   4  -7 -11    7.59    2.51
  -4   7  11    9.32    2.66
  -4   7  11    8.31    2.97
   4  -7  11    8.48    2.08
   7   4  11   10.07    2.42
   7   4  11    9.17    2.92
   4  -7  11    7.33    2.35
  -2   7 -11    7.51    1.71
   2  -7 -11   10.47    3.10
   7   2 -11    7.04    2.42
   2  -7 -11    8.41    2.47
  -7  -2 -11   10.50    2.36
   2  -7  11    9.90    2.29
  -2   7  11    8.68    2.62
   7   2  11    8.23    2.34
  -7  -2  11    6.31    2.54
  -2   7  11    6.36    2.89
   2  -7  11    7.43    2.52
  -7  -2  11    8.78    2.76
   7   2  11   10.14    2.74
   7   0 -11   10.06    2.67
  -7   0 -11    7.71    1.79
   0   7 -11    7.86    2.00
   7   0 -11   14.19    2.86
   0  -7 -11   14.64    3.24
   0   7  11    7.62    2.52
  -7   0  11    5.90    2.70
   0  -7  11   10.92    2.53
   7   0  11    6.19    2.07
   7   0  11   10.35    2.52
   0  -7  11    5.62    2.59
   0   7  11    5.71    2.77
  -7   0  11    5.61    2.70
   2   7 -11    8.20    2.06
   7  -2 -11    8.45    2.53
  -2  -7 -11   11.29    3.05
   7  -2 -11    7.24    2.79
   7  -2  11   10.87    2.45
   2   7  11    7.95    2.46
  -7   2  11    5.71    2.62
  -7   2  11    0.83    2.48
  -2  -7  11    7.31    2.57
   7  -2  11    9.45    1.97
   2   7  11    3.03    2.79
   4   7 -11   10.50    2.42
   7  -4 -11    6.66    2.65
   7  -4 -11    8.17    3.18
   4   7  11   12.04    3.23
  -4  -7  11    5.85    2.76
   7  -4  11   15.35    2.57
   7  -4  11    7.89    2.42
  -7   4  11   10.48    3.02
   4   7  11    5.08    2.58
  -7   4  11    6.34    2.93
   6   7 -11    1.96    1.46
  -6  -7 -11    4.82    2.72
   7  -6 -11    1.95    3.04
   7  -6 -11    5.91    2.42
  -6  -7  11    2.19    2.48
   6   7  11    4.67    2.28
  -6  -7  11    5.74    2.81
  -7   6  11    4.51    2.63
   7  -6  11    6.71    1.91
   7  -6  11    6.94    1.56
   6   7  11    4.65    2.91
  -7   6  11    1.62    2.80
   8   7 -11    2.51    2.49
   7  -8 -11    4.91    3.80
  -8  -7 -11    1.49    2.83
   7  -8 -11    3.97    2.37
  -8  -7  11    6.02    3.20
   8   7  11    0.03    2.24
   8   7  11    2.55    3.11
   7  -8  11    2.18    1.60
  -8  -7  11   -0.15    2.77
   7  -8  11    8.07    2.99
  -7   8  11    2.19    2.81
  -7   8  11    6.65    3.05
   5  -8 -11    4.34    2.43
  -8  -5 -11    7.80    2.78
   8   5 -11    4.39    2.21
   5  -8 -11    9.22    3.27
  -8  -5  11    2.92    2.76
   8   5  11    5.77    2.26
   8   5  11    7.81    2.95
   5  -8  11    6.13    1.89
  -5   8  11    6.28    2.61
  -5   8  11    6.39    2.91
  -8  -5  11   10.90    3.36
   5  -8  11    5.07    2.16
   8   3 -11    6.46    2.31
   3  -8 -11    5.46    3.01
  -8  -3 -11    2.72    2.14
   3  -8 -11    3.35    2.19
  -8  -3  11    0.65    2.32
   8   3  11    4.60    1.99
  -3   8  11    4.02    2.28
  -3   8  11    0.78    2.49
   3  -8  11    6.22    1.97
   3  -8  11    4.45    2.12
   8   3  11    2.96    3.07
  -8  -1 -11   15.97    3.25
  -1   8 -11   14.26    3.03
   8   1 -11   15.52    3.40
   1  -8 -11   21.87    4.02
   8   1  11   14.61    3.46
   1  -8  11   16.29    3.36
  -8  -1  11   16.04    3.54
  -1   8  11   14.13    3.40
   8   1  11   18.08    3.16
  -1   8  11   19.07    3.82
  -8  -1  11   17.68    3.69
   1  -8  11   16.49    3.27
  -1  -8 -11   15.67    3.88
   1   8 -11   16.42    3.32
   8  -1 -11   13.82    3.41
   8  -1 -11   13.69    3.55
  -8   1  11   14.92    3.47
   8  -1  11   15.15    2.91
  -1  -8  11   17.12    3.47
  -8   1  11   13.35    3.50
   1   8  11   21.55    3.50
   1   8  11   14.55    3.75
   8  -1  11   12.74    3.22
   3   8 -11    4.32    1.87
   8  -3 -11    3.45    2.80
  -3  -8 -11    1.23    2.80
   8  -3 -11    6.20    2.44
  -3  -8  11    6.54    2.49
  -8   3  11    2.77    2.45
   8  -3  11    2.29    1.58
   3   8  11    4.63    4.68
   3   8  11    4.78    2.34
  -8   3  11    2.91    2.69
   8  -3  11    6.15    2.08
  -3  -8  11    7.27    2.41
   8  -5 -11    8.55    3.14
   8  -5 -11    6.23    2.61
   5   8 -11    7.43    2.19
   8  -5  11    7.08    1.78
  -8   5  11    3.54    3.03
   8  -5  11    7.80    2.09
  -5  -8  11    1.74    2.58
  -8   5  11    3.12    2.84
   5   8  11    9.00    2.63
   5   8  11    4.20    3.01
  -5  -8  11    6.29    2.81
   8  -7 -11    0.94    2.38
   8  -7 -11    4.63    3.52
  -7  -8 -11   -0.57    2.72
   7   8  11    2.84    2.43
   7   8  11   -0.48    3.10
  -7  -8  11    2.35    2.84
  -7  -8  11    0.32    2.44
   8  -7  11    3.58    1.47
  -8   7  11    3.55    3.02
   8  -7  11    1.29    1.79
  -8   7  11   -1.11    4.34
   8  -9 -11   -0.09    2.47
  -9  -8 -11   -1.06    2.80
   8  -9 -11    1.29    3.54
   9   8 -11    4.40    2.32
  -9  -8  11    0.84    2.80
  -9  -8  11   -3.24    2.97
   9   8  11    5.07    3.27
  -8   9  11    0.17    2.89
   8  -9  11   -1.09    1.65
   9   8  11    0.26    2.29
   8  -9  11   -2.89    1.72
   6  -9 -11    3.69    3.71
  -9  -6 -11    0.33    2.77
   9   6 -11   -0.67    2.14
   6  -9 -11   -2.91    2.18
   9   6  11    4.94    2.89
  -9  -6  11    0.18    3.06
   6  -9  11    0.36    1.92
   6  -9  11   -2.23    3.24
  -6   9  11    2.63    2.98
  -9  -6  11    0.78    2.69
   9   6  11    2.72    2.12
  -6   9  11   -1.46    2.53
   4  -9 -11    8.06    3.24
  -9  -4 -11    2.63    2.59
   9   4 -11    5.58    2.36
   4  -9 -11    3.69    2.34
  -9  -4  11    3.20    3.47
  -4   9  11    7.65    3.04
  -4   9  11    7.93    2.65
  -9  -4  11    5.25    2.79
   4  -9  11    7.53    2.36
   9   4  11    7.75    2.33
   9   4  11   12.70    3.04
   2  -9 -11   24.81    4.17
  -9  -2 -11   15.98    3.14
   9   2 -11   13.00    3.52
   2  -9 -11   18.13    4.89
   2  -9  11   19.27    3.57
  -9  -2  11   17.26    3.80
  -2   9  11   18.09    3.68
  -9  -2  11   13.59    3.83
   9   2  11   19.70    3.36
   9   2  11   18.09    3.88
  -2   9  11   16.41    3.95
   9   0 -11   11.93    4.21
   0  -9 -11   20.44    4.22
   0   9 -11   17.79    3.04
   9   0 -11   16.15    3.72
   9   0  11   19.50    3.25
   9   0  11   15.49    3.64
   0   9  11   23.51    3.72
   0  -9  11   23.22    3.75
   0   9  11   12.32    3.94
   0  -9  11   13.76    3.59
  -9   0  11   20.88    3.92
  -9   0  11   12.25    3.75
   9  -2 -11   15.33    3.93
   9  -2 -11   14.25    3.78
  -2  -9 -11   16.02    3.98
   2   9 -11   17.47    3.28
  -9   2  11   20.64    3.92
  -9   2  11   17.96    3.97
   9  -2  11   18.59    3.54
   9  -2  11   16.01    3.48
   2   9  11   22.83    4.28
  -2  -9  11   17.23    3.75
   2   9  11   24.43    4.39
  -2  -9  11   22.27    3.86
  -4  -9 -11   10.36    3.15
   9  -4 -11    6.98    3.23
   9  -4 -11    5.75    2.76
   4   9 -11    5.82    2.14
  -4  -9  11    9.38    2.89
  -4  -9  11    6.04    2.67
  -9   4  11    5.11    5.89
   9  -4  11    8.45    2.20
   9  -4  11    7.60    1.81
  -9   4  11    6.48    2.80
   4   9  11    9.20    2.68
   4   9  11    2.81    3.06
   9  -6 -11    2.56    2.62
   6   9 -11   -0.05    1.90
  -6  -9 -11    3.33    3.51
   9  -6 -11   -1.08    3.29
   9  -6  11    0.04    1.54
  -6  -9  11    1.67    2.53
  -9   6  11    1.56    2.96
   9  -6  11    1.71    1.77
  -6  -9  11    4.07    2.78
   6   9  11    0.10    2.34
  -9   6  11   -6.75    4.78
   6   9  11   -1.92    3.05
  -8  -9 -11    2.17    2.79
   9  -8 -11    1.24    3.44
   9  -8 -11    0.98    2.59
  -8  -9  11   -3.31    2.82
   8   9  11   -0.36    3.21
  -9   8  11   -6.49    2.74
   8   9  11    3.17    2.52
   9  -8  11    0.44    1.61
  -8  -9  11    0.56    4.62
   9  -8  11   -1.10    1.44
  10   9 -11    6.70    2.68
   9 -10 -11   11.94    4.25
   9 -10 -11    5.79    2.99
 -10  -9 -11    6.93    3.28
 -10  -9  11    2.50    3.24
  -9  10  11   12.16    3.45
  10   9  11   11.90    3.91
   9 -10  11    4.55    2.05
 -10  -9  11    7.60    3.80
  10   9  11    9.14    2.94
  10   7 -11    7.06    2.64
   7 -10 -11   11.72    3.88
   7 -10 -11    8.86    2.92
 -10  -7 -11    4.70    3.34
  10   7  11   11.20    3.32
  -7  10  11    9.73    3.46
   7 -10  11    6.88    2.35
 -10  -7  11   15.35    3.76
 -10  -7  11    6.72    3.18
  10   7  11    9.22    3.53
  10   5 -11    8.32    3.06
 -10  -5 -11   14.52    3.33
   5 -10 -11   11.04    2.99
   5 -10 -11   18.76    4.46
 -10  -5  11    5.37    3.38
 -10  -5  11   19.84    3.93
  -5  10  11   10.23    3.08
   5 -10  11   13.82    2.88
  10   5  11   14.47    3.56
  -5  10  11   10.60    3.27
   3 -10 -11    8.38    3.31
   3 -10 -11    7.10    3.12
  10   3 -11    9.49    2.77
 -10  -3 -11   11.81    2.57
 -10  -3  11   16.46    3.88
  10   3  11    9.11    2.83
 -10  -3  11    7.72    3.01
  -3  10  11    9.31    2.92
  -3  10  11   12.50    3.83
   3 -10  11    8.04    2.58
  10   3  11    9.84    3.20
   1 -10 -11    3.61    3.20
  10   1 -11   10.74    2.64
 -10  -1  11    1.88    2.67
   1 -10  11   11.83    2.72
  -1  10  11    7.86    3.07
  10   1  11    6.21    2.79
   1 -10  11   10.67    2.87
  10   1  11    8.55    2.33
  -1  10  11   12.54    2.94
  -1 -10 -11    8.59    3.22
   1  10 -11   10.33    2.14
  10  -1 -11    5.01    2.91
  10  -1 -11   10.88    2.93
  -1 -10  11    6.69    2.68
  10  -1  11    7.90    2.23
   1  10  11    7.91    3.27
  10  -1  11   11.03    2.71
  -1 -10  11   10.98    2.83
 -10   1  11   12.63    3.18
 -10   1  11    7.64    3.06
   1  10  11    7.69    2.81
   3  10 -11    8.76    3.27
  -3 -10 -11   11.32    3.48
  10  -3 -11   16.37    3.19
  10  -3 -11    8.26    3.16
 -10   3  11    3.88    3.21
  -3 -10  11    8.79    2.92
  -3 -10  11    8.33    3.02
  10  -3  11   10.84    2.47
   3  10  11   15.62    3.17
 -10   3  11    9.08    3.13
   3  10  11   10.22    3.49
  10  -3  11   10.00    2.58
  -5 -10 -11   16.61    3.77
  10  -5 -11   14.71    3.66
   5  10 -11   10.05    2.96
  10  -5 -11   15.12    4.00
  -5 -10  11   15.09    3.62
   5  10  11   16.50    3.65
 -10   5  11   18.65    5.78
  -5 -10  11   15.75    3.62
 -10   5  11   11.55    3.88
  10  -5  11   17.27    2.92
   5  10  11   12.72    3.91
  10  -7 -11    7.16    3.68
  -7 -10 -11   10.68    3.97
  10  -7 -11    5.69    3.13
   7  10 -11    6.56    2.45
   7  10  11    7.51    2.96
  -7 -10  11    2.60    2.89
  10  -7  11    9.53    2.22
  -7 -10  11   10.41    3.37
 -10   7  11    5.16    3.10
   7  10  11    8.76    3.65
  10  -7  11    9.24    1.87
  10  -9 -11    0.65    4.03
  -9 -10 -11    6.55    3.34
   9  10 -11    5.90    2.79
  10  -9 -11    7.06    3.07
  10  -9  11    9.80    2.03
  -9 -10  11   12.21    3.91
  10  -9  11    5.79    1.88
   9  10  11    8.74    4.17
  -9 -10  11    7.71    3.23
 -10   9  11    7.22    3.39
  10 -11 -11    6.64    4.25
  10 -11 -11    3.63    2.98
 -11 -10 -11    4.98    3.38
  11  10 -11    2.63    2.72
  11  10  11    5.54    3.82
 -11 -10  11    2.74    3.36
  10 -11  11    3.30    1.74
  11  10  11    6.90    2.90
  10 -11  11    4.97    1.90
 -10  11  11    6.46    3.58
 -11 -10  11   13.24    4.46
   8 -11 -11   -2.15    3.76
 -11  -8 -11    2.89    3.14
   8 -11 -11    2.67    2.76
  11   8 -11    2.46    2.59
 -11  -8  11    1.92    3.04
  11   8  11    4.13    3.67
  -8  11  11    3.28    3.25
 -11  -8  11    6.29    3.56
   8 -11  11    4.38    1.97
   8 -11  11    3.29    1.99
  11   8  11    4.42    2.61
 -11  -6 -11    8.01    3.08
   6 -11 -11    5.21    3.53
   6 -11 -11    4.42    2.50
  11   6 -11    1.82    2.52
   6 -11  11    3.61    2.16
 -11  -6  11   -0.16    2.88
  -6  11  11    8.05    4.72
   6 -11  11    2.29    2.15
  11   6  11    3.72    3.32
 -11  -6  11   -0.52    3.36
  11   6  11    5.69    2.39
 -11  -4 -11    5.73    2.53
   4 -11 -11    1.66    2.87
   4 -11 -11    4.99    3.30
  11   4 -11    3.03    2.44
  -4  11  11    7.07    2.86
   4 -11  11    3.76    2.22
  11   4  11    1.06    2.17
 -11  -4  11    1.19    3.40
   4 -11  11    8.25    2.58
  -4  11  11    6.27    2.59
 -11  -4  11    6.14    2.84
  11   4  11    8.51    3.14
  11   2 -11    9.96    2.93
 -11  -2 -11    8.48    2.19
   2 -11 -11    5.99    3.46
  11   2  11   10.70    2.45
   2 -11  11    3.44    2.61
  -2  11  11   10.86    4.97
   2 -11  11   10.82    2.74
 -11  -2  11    8.41    3.10
 -11  -2  11   11.98    4.00
  -2  11  11    8.99    2.90
  11   2  11    7.71    2.99
   0 -11 -11    0.74    2.96
  11   0 -11    6.60    2.73
   0  11 -11    6.61    2.73
  11   0  11    5.07    2.50
   0  11  11    6.49    3.04
  11   0  11    6.43    2.00
   0 -11  11    7.76    2.62
   0  11  11    2.47    2.47
   0 -11  11    1.54    2.35
  11  -2 -11   11.37    3.13
  11  -2 -11    7.50    5.02
   2  11 -11    7.40    2.21
  -2 -11 -11    6.10    3.34
 -11   2  11    5.87    3.16
  -2 -11  11    8.16    3.59
  -2 -11  11    8.77    4.48
   2  11  11   10.10    3.01
 -11   2  11   16.82    3.32
  11  -2  11   10.05    2.64
   2  11  11    8.70    3.31
  11  -2  11    7.50    2.16
  11  -4 -11    5.39    3.04
   4  11 -11    3.79    3.64
  11  -4 -11    4.44    2.89
  -4 -11 -11    3.53    3.03
 -11   4  11    2.03    3.32
  11  -4  11    4.85    1.60
   4  11  11    8.51    3.35
   4  11  11    0.05    2.56
 -11   4  11    6.39    5.23
  -4 -11  11    2.62    2.62
  11  -4  11    7.13    2.21
  -6 -11 -11   11.93    3.28
  11  -6 -11    3.56    3.06
  11  -6 -11    5.35    3.70
   6  11 -11    3.53    2.19
   6  11  11    7.31    2.89
  -6 -11  11    1.58    2.59
 -11   6  11    1.65    2.95
  11  -6  11    7.77    1.69
  11  -6  11    5.13    1.95
   6  11  11    4.47    3.40
  11  -8 -11    2.51    3.89
  -8 -11 -11    6.09    3.28
  11  -8 -11    1.34    2.96
   8  11 -11    4.79    3.35
   8  11  11    6.05    3.84
  11  -8  11    4.32    1.64
   8  11  11    7.94    2.93
 -11   8  11    4.79    3.25
  11  -8  11    1.85    1.33
  -8 -11  11    1.30    3.07
  11 -10 -11   -1.15    3.03
  10  11 -11    4.13    4.54
  11 -10 -11    2.37    4.13
 -10 -11  11    0.56    3.27
  11 -10  11    7.97    1.72
  10  11  11    8.35    3.98
 -11  10  11    1.70    3.24
  10  11  11    3.77    3.07
 -10 -11  11   15.66    6.53
  11 -12 -11    1.54    4.37
  12  11 -11    6.75    2.85
 -12 -11 -11    0.24    3.54
  11 -12 -11    5.31    3.38
  12  11  11    6.82    3.28
  12  11  11   -2.77    7.84
 -12 -11  11    5.70    5.43
 -11  12  11    1.72    3.51
 -12 -11  11    0.05    3.48
   9 -12 -11    2.75    4.08
   9 -12 -11    9.24    3.14
 -12  -9 -11    6.01    3.44
  12   9 -11    4.56    2.81
  12   9  11    8.68    3.85
  -9  12  11    5.91    3.49
  12   9  11    5.73    2.95
   9 -12  11    4.69    2.10
 -12  -9  11    6.02    3.56
   9 -12  11    2.98    1.97
   7 -12 -11    0.11    3.77
  12   7 -11    6.01    2.79
   7 -12 -11    5.18    2.83
 -12  -7 -11    5.02    3.46
   7 -12  11    6.02    2.28
  -7  12  11    8.71    3.24
  12   7  11    9.59    2.81
 -12  -7  11    3.19    3.75
   7 -12  11    8.44    2.37
  12   7  11    7.66    3.72
 -12  -7  11    4.33    3.49
   5 -12 -11    3.75    3.38
   5 -12 -11    8.96    3.54
  12   5 -11    2.56    2.91
 -12  -5 -11    8.29    3.08
 -12  -5  11   16.91    4.12
   5 -12  11    7.67    2.33
  -5  12  11    9.72    2.98
  12   5  11    8.18    2.64
  12   5  11    5.89    4.78
 -12  -5  11    7.66    3.58
  12   3 -11    7.38    2.78
   3 -12 -11   10.50    3.60
 -12  -3 -11    4.79    2.38
  -3  12  11    6.37    2.81
 -12  -3  11    6.34    4.96
  -3  12  11    4.02    3.44
   3 -12  11    6.33    2.44
   3 -12  11    5.74    2.55
 -12  -3  11    6.93    3.83
  12   3  11   14.48    2.52
  12   3  11    7.03    3.30
  12   1 -11    7.19    2.66
   1 -12 -11    4.46    3.11
   1 -12  11    1.00    2.45
  12   1  11    6.69    2.07
 -12  -1  11    2.83    3.88
   1 -12  11    3.09    2.25
  12   1  11    5.73    2.68
  -1  12  11    5.94    2.64
 -12  -1  11   -0.31    2.77
  -1  12  11    3.42    3.13
   1  12 -11    1.49    1.63
  -1 -12 -11    2.06    2.94
  12  -1 -11    5.10    2.70
   1  12  11    7.09    3.05
  12  -1  11    4.20    1.85
  -1 -12  11    1.28    2.35
   1  12  11    7.27    2.71
  12  -1  11    0.46    2.30
  -1 -12  11    2.01    2.64
 -12   1  11    2.13    3.05
  12  -3 -11    5.31    3.17
  12  -3 -11    4.93    3.14
   3  12 -11    6.76    2.14
  -3 -12 -11    4.91    3.16
  -3 -12  11    7.26    3.03
   3  12  11   10.81    3.03
   3  12  11    7.89    3.47
 -12   3  11    5.59    3.23
  12  -3  11    7.90    1.94
  -3 -12  11    5.07    2.76
  12  -3  11   10.30    3.66
  -5 -12 -11    9.87    3.56
  12  -5 -11   10.88    3.71
   5  12 -11   10.84    2.60
  12  -5 -11    5.90    3.39
  12  -5  11    9.93    2.14
   5  12  11   13.40    3.89
  -5 -12  11   14.34    3.42
 -12   5  11   11.40    3.60
  12  -5  11   10.82    2.51
  -5 -12  11    7.81    3.06
   5  12  11    6.96    3.25
  -7 -12 -11    7.69    3.32
  12  -7 -11    9.95    3.55
   7  12 -11    4.32    2.39
  12  -7 -11    0.07    3.88
   7  12  11    4.08    3.10
 -12   7  11    3.55    3.32
   7  12  11   10.28    4.02
  12  -7  11    7.96    1.89
  -7 -12  11    7.13    3.88
  -7 -12  11    6.85    3.09
  12  -7  11    8.12    2.03
  12  -9 -11    4.48    3.36
  12  -9 -11   13.68    4.33
  -9 -12 -11    2.90    3.54
  -9 -12  11    6.42    4.10
   9  12  11   11.54    4.37
 -12   9  11    5.84    3.44
   9  12  11   -2.19    3.01
  -9 -12  11    1.38    3.07
  11  12 -11    2.95    2.57
  12 -11 -11   -0.21    4.41
  12 -11 -11    4.00    3.28
 -12  11  11    0.93    3.61
  11  12  11   -1.83    3.13
  11  12  11    4.74    4.51
 -11 -12  11    1.18    4.28
 -11 -12  11    6.21    3.48
  10 -13 -11    1.04    3.40
  13  10 -11    1.19    2.85
  10 -13 -11   -2.64    4.37
 -13 -10 -11    2.28    3.61
 -10  13  11    3.30    3.70
  13  10  11    2.41    2.93
  10 -13  11    0.29    1.82
 -13 -10  11    7.83    4.76
  13  10  11    4.26    3.87
 -13 -10  11    1.60    3.71
  10 -13  11   -1.68    1.71
  13   8 -11    5.42    2.88
   8 -13 -11    3.36    2.81
 -13  -8 -11    1.88    3.41
   8 -13 -11    3.23    4.07
   8 -13  11    4.49    2.24
   8 -13  11    3.20    2.14
 -13  -8  11    3.52    3.48
 -13  -8  11    2.20    4.47
  -8  13  11   -2.82    3.25
  13   8  11    2.35    2.73
  13   8  11    1.70    3.65
   6 -13 -11    4.36    3.54
  13   6 -11    2.47    2.91
 -13  -6 -11    6.01    3.26
   6 -13 -11    2.75    3.42
   6 -13  11    6.51    2.69
   6 -13  11    2.67    2.30
  -6  13  11    7.38    2.99
  13   6  11    2.38    3.38
  13   6  11    8.76    2.61
 -13  -6  11    5.63    3.92
 -13  -6  11    2.61    3.41
  13   4 -11    4.46    2.84
   4 -13 -11    6.18    3.63
 -13  -4 -11    6.12    2.83
 -13  -4  11    8.91    3.95
  13   4  11    5.28    2.46
 -13  -4  11    1.34    3.06
  -4  13  11    5.15    2.77
   4 -13  11    9.95    2.64
  13   4  11    6.62    3.46
   4 -13  11    3.96    2.45
   2 -13 -11   15.52    3.67
  13   2 -11    4.52    4.09
 -13  -2  11   12.04    4.07
   2 -13  11    9.51    2.57
   2 -13  11    2.61    2.63
 -13  -2  11    6.27    3.30
  -2  13  11    2.96    2.73
  13   2  11    3.08    2.95
  13   2  11    2.15    2.16
   0 -13 -11    8.43    3.44
  13   0 -11    4.19    2.82
   0  13  11    8.19    2.89
   0  13  11    5.01    3.24
   0 -13  11    5.62    2.86
   0 -13  11    1.69    2.77
 -13   0  11    5.74    4.15
  13   0  11    6.98    2.87
  13   0  11    8.71    2.19
   2  13 -11    7.47    2.11
  13  -2 -11    8.78    3.15
  -2 -13 -11   10.62    3.33
  13  -2  11    8.03    2.06
   2  13  11    7.45    2.97
  13  -2  11    5.20    3.10
   2  13  11    6.64    4.44
  -2 -13  11    3.98    2.87
  -2 -13  11    7.60    3.08
  13  -4 -11    6.98    3.36
  13  -4 -11    1.34    3.38
   4  13 -11    4.46    2.16
  -4 -13 -11    5.41    3.18
   4  13  11    5.77    3.01
  13  -4  11   10.99    2.35
 -13   4  11    5.19    3.41
  -4 -13  11    4.60    3.41
  13  -4  11    4.80    1.74
   4  13  11    3.71    3.62
  -4 -13  11    5.16    2.87
  -6 -13 -11    4.58    3.15
  13  -6 -11   11.24    3.58
   6  13 -11    3.94    2.21
  13  -6 -11    5.19    3.74
  -6 -13  11   -0.03    2.97
  13  -6  11    5.48    1.67
   6  13  11    3.27    3.91
  -6 -13  11    6.24    3.64
  13  -6  11    5.35    2.02
 -13   6  11    8.68    3.52
   6  13  11    6.16    3.03
  -8 -13 -11   -0.85    3.15
  13  -8 -11    1.99    3.61
   8  13 -11    4.08    2.30
  13  -8 -11    0.13    4.06
  13  -8  11    3.09    1.65
 -13   8  11    7.37    3.60
  -8 -13  11    2.84    3.14
  -8 -13  11    6.76    3.90
   8  13  11    5.37    4.18
   8  13  11   10.72    4.14
 -10 -13 -11    4.87    5.84
  13 -10 -11    2.52    3.50
  13 -10 -11   -3.37    4.40
  10  13  11    6.07    3.37
  10  13  11    6.48    4.63
 -10 -13  11   -4.85    3.19
 -13  10  11    3.73    3.58
 -10 -13  11    2.48    4.20
   9 -14 -11    4.34    4.37
 -14  -9 -11    0.90    3.56
  14   9 -11    4.64    3.07
 -14  -9  11   13.47    4.98
  14   9  11    5.21    3.01
  -9  14  11    2.15    3.77
   9 -14  11    3.33    2.29
   9 -14  11    2.40    2.08
  14   9  11    1.37    3.86
   7 -14 -11    1.79    3.61
  14   7 -11    3.66    2.95
 -14  -7 -11    0.41    3.50
   7 -14  11    0.66    2.16
  -7  14  11    0.60    3.11
 -14  -7  11    5.79    4.53
  14   7  11    2.64    2.72
  14   7  11    2.96    3.49
   7 -14  11    1.68    2.32
 -14  -7  11   -1.23    6.44
   5 -14 -11    1.06    3.63
  14   5 -11    1.63    3.03
 -14  -5 -11    1.24    3.28
   5 -14  11    6.32    2.43
  14   5  11    4.54    3.41
  14   5  11    4.91    2.44
  -5  14  11    1.16    5.04
 -14  -5  11   -0.09    3.94
   5 -14  11    6.51    2.70
   3 -14 -11    4.47    3.52
  14   3 -11    9.29    3.09
  14   3  11    7.59    2.43
   3 -14  11    1.73    2.83
   3 -14  11    4.50    2.65
  -3  14  11    4.09    2.81
 -14  -3  11    2.80    4.13
  14   3  11    6.31    3.28
   1 -14 -11    7.10    3.46
  14   1 -11    5.27    3.09
  -1  14  11    4.15    2.82
   1 -14  11    7.43    3.02
   1 -14  11    5.73    2.63
  14   1  11    7.23    2.19
 -14  -1  11    3.46    4.05
  14   1  11    2.64    3.02
   1  14 -11    6.63    2.51
  -1 -14 -11    2.24    3.15
  14  -1 -11    5.67    3.02
  -1 -14  11    3.76    2.83
   1  14  11    5.21    3.84
 -14   1  11    7.56    4.07
  -1 -14  11   11.44    3.24
  14  -1  11    7.53    2.89
  14  -1  11    4.22    2.04
   1  14  11    6.86    2.94
  14  -3 -11    4.99    3.16
  -3 -14 -11    2.74    3.20
   3  14 -11    0.49    1.95
  14  -3  11    7.46    2.55
   3  14  11    1.15    3.00
  -3 -14  11    5.84    2.75
   3  14  11    3.88    3.75
  -3 -14  11    5.91    3.28
  14  -3  11    6.59    1.87
  -5 -14 -11    1.12    3.07
  14  -5 -11    3.39    3.50
   5  14 -11    2.57    2.18
  14  -5 -11    0.51    3.45
  14  -5  11    4.65    1.65
  -5 -14  11    5.65    3.48
  14  -5  11    8.85    2.31
   5  14  11    0.82    3.05
  -5 -14  11   -1.16    2.74
   5  14  11    3.14    4.81
  14  -7 -11    3.25    3.68
  -7 -14 -11    6.35    3.45
   7  14 -11   -1.07    2.30
  14  -7 -11   -0.77    3.93
   7  14  11    9.76    3.30
   7  14  11    0.59    4.26
  -7 -14  11    5.97    3.84
  14  -7  11    5.27    1.88
 -14   7  11   -1.11    3.44
  -7 -14  11    2.93    3.17
  14  -7  11    1.66    1.45
  14  -9 -11    0.53    3.79
  14  -9 -11    0.27    4.33
  -9 -14 -11    5.18    3.74
   9  14 -11    1.07    2.40
   9  14  11   -0.16    3.32
  -9 -14  11    3.76    3.45
   9  14  11    5.19    4.41
 -14   9  11   -3.15    3.60
  -9 -14  11    4.33    4.19
   8 -15 -11    7.30    4.53
  15   8 -11    2.65    3.32
 -15  -8 -11    0.70    3.66
   8 -15  11    3.27    2.33
 -15  -8  11   10.40    5.10
  15   8  11    3.26    2.95
  15   8  11    3.84    3.85
   8 -15  11    5.10    2.42
  -8  15  11    3.69    3.67
 -15  -6 -11    0.73    3.61
  15   6 -11    9.47    3.47
   6 -15 -11    0.71    3.86
 -15  -6  11    6.00    4.75
  -6  15  11    3.13    3.10
  15   6  11    6.78    2.80
  15   6  11    5.97    4.29
   6 -15  11    5.54    2.63
   6 -15  11    4.20    2.58
   4 -15 -11    6.40    3.58
  15   4 -11    2.45    3.16
  15   4  11    3.41    2.41
  -4  15  11    3.59    3.04
 -15  -4  11    8.87    4.35
  15   4  11    2.66    3.24
   4 -15  11    4.83    2.75
   2 -15 -11    1.51    3.53
  15   2 -11   -0.65    2.83
 -15  -2  11    3.52    4.25
   2 -15  11    4.26    2.71
   2 -15  11   -0.34    2.70
  15   2  11    1.97    3.11
  15   2  11    2.93    2.21
  -2  15  11   -0.28    2.75
   0 -15 -11    4.08    3.19
  15   0 -11    0.68    2.92
  15   0  11    0.06    1.95
   0 -15  11    1.80    2.79
   0 -15  11    2.92    3.05
  15   0  11    0.62    2.77
   0  15  11    0.31    2.66
 -15   0  11   -0.03    4.25
  -2 -15 -11    5.32    4.00
  15  -2 -11    4.11    3.06
   2  15 -11    4.80    2.21
  15  -2  11    0.97    1.83
  -2 -15  11   -0.25    3.28
   2  15  11   -0.22    2.84
  -2 -15  11    5.12    2.88
  15  -2  11    0.71    2.52
 -15   2  11    4.24    5.46
  15  -4 -11   -4.61    5.80
  15  -4 -11    6.08    3.57
  -4 -15 -11   -1.38    3.09
   4  15 -11    3.20    2.12
  -4 -15  11    6.66    3.54
  -4 -15  11   -0.13    2.62
 -15   4  11    3.31    4.83
   4  15  11    4.11    3.15
   4  15  11    1.96    4.25
  15  -4  11    1.90    1.76
  15  -6 -11    1.56    3.91
  -6 -15 -11    1.37    3.39
   6  15 -11    3.78    2.45
  15  -6 -11    1.14    3.81
  -6 -15  11    3.53    3.12
  15  -6  11    4.71    2.11
  15  -6  11    2.95    1.64
   6  15  11    4.19    3.30
   6  15  11    5.90    4.38
  -6 -15  11    6.57    3.85
  -8 -15 -11    2.32    3.73
  15  -8 -11    2.45    4.05
  15  -8 -11   -2.83    4.30
   8  15 -11    2.63    2.54
  -8 -15  11    7.09    4.07
   8  15  11    2.29    4.75
   8  15  11    4.89    3.60
  -8 -15  11   -0.65    3.76
 -15   8  11    0.42    3.82
   5 -16 -11    0.31    3.82
  16   5 -11   -0.49    3.31
   5 -16  11    1.09    2.52
  16   5  11    1.94    3.41
  16   5  11   -0.54    2.52
 -16  -5  11    6.93    5.01
   5 -16  11    0.72    2.87
  -5  16  11   -4.82    2.99
  16   3 -11    1.18    3.18
   3 -16 -11    1.30    3.87
  -3  16  11    4.76    3.01
  16   3  11    2.00    2.33
   3 -16  11    0.34    2.56
  16   3  11    1.28    3.18
   3 -16  11    1.00    2.87
 -16  -3  11   -3.29    4.62
   1 -16 -11    0.62    3.53
  16   1 -11    3.54    3.18
 -16  -1  11    8.23    4.67
  16   1  11    0.54    2.95
  16   1  11    2.17    2.18
   1 -16  11   -3.40    2.81
   1 -16  11    0.66    2.62
  -1  16  11    3.08    2.82
  16  -1 -11   -1.26    3.22
  -1 -16 -11    1.26    3.25
 -16   1  11    1.46    5.82
  16  -1  11    1.82    2.12
  -1 -16  11    3.70    2.67
  -1 -16  11    3.82    3.09
  16  -1  11    4.80    2.89
   1  16  11    1.45    2.92
  16  -3 -11   -0.33    3.17
   3  16 -11   -1.42    2.34
  -3 -16 -11    2.26    3.48
  16  -3  11    1.40    2.42
 -16   3  11    8.81    4.56
  16  -3  11    1.63    1.78
  -3 -16  11    2.64    3.29
   3  16  11    1.57    3.15
  -3 -16  11    1.06    3.26
   5  16 -11    0.02    2.24
  16  -5 -11    3.16    3.78
  -5 -16 -11   -0.27    3.22
  16  -5  11    1.11    2.24
  16  -5  11    0.85    1.67
 -16   5  11    3.71    5.02
  -5 -16  11    6.65    3.40
  -5 -16  11    2.06    3.41
   5  16  11    5.54    3.41
  17   2 -11    5.51    3.39
   2 -17 -11    3.27    3.57
  17   2  11    4.82    2.48
  -2  17  11    0.18    3.05
 -17  -2  11    0.09    4.89
   2 -17  11    1.98    2.77
  17   2  11   -0.53    3.17
   2 -17  11   -1.27    3.12
  17   0 -11    3.18    3.57
   0 -17 -11   -0.82    3.44
 -17   0  11   -3.27    5.01
  17   0  11   -1.07    4.38
   0 -17  11    2.05    3.28
   0 -17  11   -3.27    2.71
   0  17  11    3.93    2.98
  17   0  11    4.54    2.16
  -2 -17 -11    2.78    3.49
  17  -2 -11   -4.64    3.13
  -2 -17  11    2.81    2.78
 -17   2  11   -0.77    4.85
  -2 -17  11    2.79    3.43
  17  -2  11    1.91    2.76
   0   0 -12    4.89    1.98
   0   0  12    7.69    2.30
   0   0  12    2.43    2.09
  -1  -1 -12  137.75   19.03
   1  -1 -12  114.77   18.95
  -1   1 -12  127.54   18.93
   1   1 -12  132.43   18.99
  -1  -1  12  120.77   19.02
  -1   1  12  135.73   19.05
   1  -1  12  126.87   19.04
  -1   1  12  129.19   19.10
   1   1  12  129.80   19.13
   1   1  12  122.30   18.98
  -1  -1  12  131.31   19.09
   1  -1  12  122.19   19.00
   0   2 -12    3.89    1.66
   2   0 -12    0.71    1.29
   0  -2 -12    1.88    2.10
  -2   0 -12    2.15    1.71
   0  -2  12    1.44    1.88
   0  -2  12    2.73    1.91
   0   2  12    2.89    2.24
   2   0  12    4.44    2.05
   0   2  12    2.61    1.85
  -2   0  12    3.48    2.10
   2   0  12    4.28    1.84
  -2   0  12    3.27    2.10
  -2   2 -12    4.86    1.62
  -2  -2 -12    4.27    2.22
   2   2 -12    1.15    1.63
   2  -2 -12    4.69    2.48
   2  -2  12    1.33    1.67
   2   2  12    3.12    2.27
  -2   2  12    0.98    2.17
  -2   2  12    2.34    2.11
   2   2  12    3.90    1.86
  -2  -2  12    0.90    2.10
  -2  -2  12    2.42    2.11
  -3  -1 -12   41.18    6.62
   1  -3 -12   41.28    7.29
  -1   3 -12   42.30    6.65
  -1   3  12   41.48    7.03
  -3  -1  12   34.24    6.86
   1  -3  12   35.47    6.51
   3   1  12   40.45    6.61
   1  -3  12   38.44    6.74
  -3  -1  12   45.70    6.88
   3   1  12   36.18    6.83
  -1   3  12   46.20    6.79
   3  -1 -12   41.54    7.40
   1   3 -12   42.79    7.06
  -1  -3 -12   39.08    7.37
  -3   1 -12   44.76    6.90
  -1  -3  12   40.22    7.25
  -1  -3  12   43.75    7.22
  -3   1  12   51.11    7.37
   3  -1  12   39.55    7.58
   1   3  12   39.52    7.41
  -3   1  12   43.35    7.37
   3  -1  12   51.88    7.09
   1   3  12   44.48    7.22
  -3   3 -12   13.84    2.41
   3  -3 -12    9.21    3.22
  -3  -3 -12    8.84    3.01
   3   3 -12   11.91    2.78
  -3  -3  12   16.89    3.02
   3  -3  12   11.81    2.59
   3   3  12   13.34    3.14
   3   3  12   13.02    2.79
  -3   3  12   10.75    3.05
   3  -3  12   10.27    2.72
  -3  -3  12   11.27    2.95
  -3   3  12   17.45    3.48
   2  -4 -12    4.69    2.71
  -2   4 -12    2.23    1.48
  -4  -2 -12    0.44    1.97
  -2   4  12    2.10    2.12
   4   2  12    5.16    1.90
   2  -4  12   -1.42    1.87
  -2   4  12    1.05    2.54
   4   2  12    0.84    2.17
  -4  -2  12    1.68    2.05
   2  -4  12   -0.20    1.61
  -4  -2  12    3.32    2.06
   0  -4 -12    1.12    2.87
  -4   0 -12    1.59    1.59
   0  -4  12   -0.71    1.66
  -4   0  12    0.78    2.15
   4   0  12   -1.65    1.65
   0   4  12    2.86    2.38
   4   0  12   -1.76    2.34
   0  -4  12    0.98    1.84
  -4   0  12    0.50    1.98
   0   4  12    2.45    2.14
  -4   2 -12    3.14    1.37
   2   4 -12    3.06    1.69
   4  -2 -12   -1.02    2.30
  -2  -4 -12   -0.67    2.30
  -4   2  12    1.10    2.22
  -4   2  12    3.05    2.17
   2   4  12    3.13    2.34
  -2  -4  12    2.01    2.03
  -2  -4  12    1.20    2.03
   4  -2  12    2.82    1.71
   2   4  12    1.20    2.01
   4  -2  12   -0.92    1.81
   4  -4 -12   -0.39    2.71
  -4  -4 -12   -3.33    2.32
   4   4 -12    0.20    1.61
  -4   4  12    0.34    2.33
  -4  -4  12   -1.85    2.00
   4  -4  12    0.04    1.78
  -4  -4  12    0.78    2.17
   4  -4  12   -0.20    1.50
   4   4  12   -1.44    2.34
  -4   4  12    0.82    2.50
   4   4  12   -1.10    1.84
   3  -5 -12    7.58    3.18
  -5  -3 -12    8.57    2.55
   3  -5  12    6.95    2.23
  -3   5  12   10.33    2.55
   5   3  12    7.07    2.19
   5   3  12    5.84    2.64
  -5  -3  12    4.82    2.52
   3  -5  12    5.78    2.08
  -3   5  12    7.24    2.85
  -5  -3  12    6.05    2.51
   5   1 -12   33.87    5.49
  -1   5 -12   24.29    4.77
   1  -5 -12   38.13    5.50
  -5  -1 -12   24.54    4.94
   1  -5  12   21.02    5.18
   1  -5  12   26.22    5.01
  -1   5  12   33.81    5.43
   5   1  12   25.78    5.76
  -5  -1  12   28.80    5.58
  -5  -1  12   33.79    5.53
  -1   5  12   30.94    5.44
   5   1  12   27.35    5.01
   5  -1 -12   41.33    5.85
  -1  -5 -12   46.73    6.85
   1   5 -12   24.53    5.56
  -5   1 -12   29.17    5.06
   1   5  12   28.26    5.51
  -1  -5  12   31.79    5.67
  -5   1  12   26.80    5.49
   5  -1  12   29.41    5.32
   5  -1  12   36.07    5.61
  -5   1  12   29.40    5.92
   1   5  12   40.84    5.73
  -1  -5  12   25.67    5.55
   5  -3 -12   10.36    3.19
   3   5 -12    4.48    2.22
  -3  -5 -12   10.71    3.05
  -3  -5  12    7.95    2.59
   3   5  12   12.74    2.60
   3   5  12   10.85    2.95
   5  -3  12    7.71    2.41
  -5   3  12    7.02    2.96
   5  -3  12    7.00    2.05
  -5   3  12   10.95    2.83
  -3  -5  12    8.69    2.68
  -5  -5 -12    2.59    2.86
   5  -5 -12    1.02    2.85
   5   5 -12    3.06    2.00
   5   5  12    3.13    2.78
  -5  -5  12    3.46    2.39
   5   5  12    0.54    2.00
  -5   5  12    4.40    2.68
   5  -5  12    5.86    1.66
  -5  -5  12    2.25    2.41
  -5   5  12    1.04    2.48
   5  -5  12    4.28    1.98
   4  -6 -12    1.65    2.89
  -6  -4 -12    0.00    2.46
   6   4 -12    1.98    2.93
  -4   6  12    2.41    2.81
   4  -6  12    0.32    1.62
  -4   6  12    1.35    2.35
  -6  -4  12    3.95    2.38
  -6  -4  12    2.88    2.33
   6   4  12    1.97    2.59
   4  -6  12   -0.76    1.94
   6   4  12    1.16    1.94
   6   2 -12   11.06    2.37
  -2   6 -12    8.03    1.75
  -6  -2 -12    8.21    2.29
   2  -6 -12    3.09    3.08
   2  -6  12    7.64    2.26
  -6  -2  12    6.71    3.20
   6   2  12    4.62    3.09
   2  -6  12    4.70    2.41
  -6  -2  12    9.28    2.80
   6   2  12    9.20    2.24
  -2   6  12    5.59    2.49
  -2   6  12    7.78    3.02
   0  -6 -12    9.03    3.10
   0   6 -12    4.06    1.84
   6   0 -12    6.00    2.36
  -6   0 -12    4.28    1.71
   6   0  12   10.05    2.52
   0   6  12    4.08    2.42
   0  -6  12   11.16    2.41
   0  -6  12    3.10    2.28
   0   6  12    6.04    2.71
   6   0  12    8.48    1.99
  -6   0  12    6.75    2.64
  -6   0  12    5.32    2.50
  -2  -6 -12    4.16    4.83
   6  -2 -12    5.71    2.61
   2   6 -12    7.80    2.17
  -6   2  12    5.03    2.70
   6  -2  12    8.47    2.44
   2   6  12    9.22    2.55
  -2  -6  12   11.04    2.65
   2   6  12    4.47    2.87
  -2  -6  12    7.10    2.69
  -6   2  12    5.73    2.74
   6  -2  12   10.28    2.14
   4   6 -12    0.33    1.80
   6  -4 -12    2.68    2.74
  -4  -6 -12    4.76    2.73
   6  -4  12    1.90    1.97
  -6   4  12    2.92    2.50
   6  -4  12    4.55    1.63
  -6   4  12    4.28    2.69
   4   6  12    1.66    2.07
  -4  -6  12   -0.32    2.42
   4   6  12    4.32    2.82
  -6  -6 -12    1.83    2.98
   6  -6 -12    7.35    3.35
   6   6 -12    2.48    1.74
  -6   6  12    5.31    2.86
   6  -6  12    6.53    2.09
  -6  -6  12    6.10    2.70
  -6   6  12    3.72    2.96
   6   6  12    8.24    3.25
   6   6  12    7.18    2.39
   6  -6  12    3.47    2.64
   7   5 -12    2.83    2.21
  -7  -5 -12   -0.43    2.76
   5  -7 -12   -3.39    3.08
   5  -7  12   -0.14    1.81
  -7  -5  12   -0.71    4.11
  -5   7  12    1.29    2.89
  -5   7  12   -0.01    2.43
   7   5  12    0.79    2.87
   5  -7  12    0.70    1.95
   7   5  12    1.25    2.01
   3  -7 -12   -4.60    2.92
   7   3 -12    0.64    1.99
  -7  -3 -12   -1.59    2.09
  -7  -3  12    3.58    2.50
   3  -7  12   -0.43    1.96
   7   3  12    3.69    2.61
   3  -7  12    1.88    1.96
  -3   7  12    1.12    2.58
  -3   7  12   -0.81    2.18
  -7  -3  12    0.32    2.39
   7   3  12   -1.83    1.89
  -1   7 -12    9.25    2.00
   1  -7 -12    6.27    3.32
   7   1 -12    8.80    2.61
  -7  -1 -12    9.00    2.09
  -7  -1  12   11.31    3.06
   7   1  12   11.08    2.86
  -1   7  12    4.68    2.69
   7   1  12   13.48    2.43
  -1   7  12    8.38    3.07
   1  -7  12   10.87    2.58
   1  -7  12    9.22    2.77
  -7  -1  12    9.26    2.98
   1   7 -12   10.21    2.14
   7  -1 -12    6.82    2.66
  -1  -7 -12    8.67    3.25
  -1  -7  12    4.31    2.50
   1   7  12    6.91    2.51
  -7   1  12    3.52    2.58
   7  -1  12   11.60    2.54
  -7   1  12   12.09    2.86
  -1  -7  12    9.51    3.11
   1   7  12    9.86    3.01
   7  -1  12    5.93    2.13
   3   7 -12    2.33    1.92
   7  -3 -12    1.74    2.65
  -3  -7 -12   -3.88    3.71
  -7   3  12    1.79    2.49
   3   7  12    3.63    2.15
   7  -3  12    3.56    2.03
   7  -3  12    3.40    1.75
   3   7  12   -0.44    2.66
  -7   3  12   -0.57    2.39
  -3  -7  12    2.29    2.38
   5   7 -12    3.90    1.92
   7  -5 -12    2.55    2.97
  -5  -7 -12   -1.43    2.66
  -7   5  12    1.91    2.84
   7  -5  12    0.64    1.81
   5   7  12   -0.62    2.12
   5   7  12   -1.24    2.84
   7  -5  12    2.69    1.89
  -5  -7  12   -0.61    2.77
  -5  -7  12   -1.79    2.39
  -7   5  12    0.19    2.73
   7  -7 -12    5.16    3.38
  -7  -7 -12   -3.77    2.94
   7  -7  12    1.59    1.89
  -7  -7  12   -1.08    2.72
  -7   7  12   -2.94    2.62
   7  -7  12    0.30    1.56
  -7   7  12   -1.53    2.89
   7   7  12   -1.88    2.23
  -7  -7  12   -0.54    2.89
   7   7  12    2.49    2.96
   6  -8 -12   -5.36    3.12
  -8  -6 -12    0.39    2.91
   8   6 -12   -1.70    2.48
  -6   8  12    1.34    2.93
  -6   8  12   -2.08    2.70
  -8  -6  12   -2.45    2.86
  -8  -6  12   -1.21    2.74
   8   6  12   -3.00    3.62
   6  -8  12   -0.57    1.63
   8   6  12    2.18    2.92
   6  -8  12    0.98    1.94
   4  -8 -12    6.40    3.34
   8   4 -12    2.06    2.07
  -8  -4 -12    3.84    2.57
  -4   8  12    7.10    2.93
   4  -8  12   -1.17    1.99
   4  -8  12    3.02    1.94
   8   4  12    2.38    2.83
  -8  -4  12    0.55    2.54
  -4   8  12    4.09    2.43
   2  -8 -12    3.25    3.26
   8   2 -12    3.63    2.18
  -8  -2 -12    7.72    2.03
  -2   8  12    5.77    2.58
   8   2  12    0.53    3.37
   8   2  12    5.90    2.75
  -8  -2  12    3.28    2.50
  -8  -2  12    9.40    2.86
  -2   8  12    0.92    2.72
   2  -8  12    2.15    2.39
   2  -8  12    7.18    3.66
   0   8 -12   14.74    2.48
   0  -8 -12    9.62    3.73
   8   0 -12    9.62    3.03
   0   8  12   11.23    3.11
   8   0  12   12.49    2.99
   0  -8  12    8.73    3.09
   0   8  12   12.62    3.47
  -8   0  12   18.23    3.40
  -8   0  12    9.91    3.16
  -2  -8 -12    5.60    2.88
   8  -2 -12    8.16    2.67
   2   8 -12    4.69    1.96
  -8   2  12    5.33    2.74
   2   8  12    6.47    2.52
   2   8  12    6.34    3.01
   8  -2  12    4.63    2.23
  -8   2  12    5.28    2.74
  -2  -8  12   -1.62    2.51
  -4  -8 -12    8.49    4.22
   8  -4 -12    2.12    3.04
   4   8 -12    4.79    1.97
   8  -4  12    2.15    1.66
   4   8  12    7.74    4.80
  -8   4  12    4.86    3.11
  -4  -8  12    0.92    2.74
   4   8  12    4.29    2.30
   8  -4  12    3.30    2.13
  -8   4  12    5.45    2.67
  -4  -8  12   -0.45    2.56
  -6  -8 -12   -2.27    2.87
   8  -6 -12   -9.06    2.92
   6   8 -12    1.53    2.02
   6   8  12    2.34    3.21
  -6  -8  12   -5.17    2.84
   6   8  12   -0.66    2.22
  -6  -8  12    0.40    2.69
  -8   6  12   -4.57    2.75
  -8   6  12    5.80    3.07
   8  -6  12    0.23    1.49
   8  -6  12    0.39    2.54
  -8  -8 -12   -1.70    3.32
   8  -8 -12   -2.51    3.46
   8   8  12    1.80    3.34
  -8  -8  12   -4.76    3.09
   8  -8  12   -0.12    1.52
   8   8  12    0.79    2.39
  -8   8  12   -1.75    2.71
   8  -8  12   -1.94    1.79
  -8  -8  12   -0.73    3.02
   9   7 -12    1.93    2.22
   7  -9 -12    1.70    3.56
  -9  -7 -12   -2.75    3.16
   9   7  12    3.04    2.36
   7  -9  12   -1.48    1.95
   7  -9  12   -3.98    1.79
  -9  -7  12   -1.14    2.87
  -9  -7  12    3.23    3.32
  -7   9  12   -1.17    2.92
   9   7  12    4.73    3.31
  -9  -5 -12    7.21    2.95
   9   5 -12   -0.01    2.34
   5  -9 -12    1.25    3.48
   9   5  12    7.22    2.33
   9   5  12    5.42    3.12
   5  -9  12    4.03    2.07
  -9  -5  12    1.29    2.75
   5  -9  12    1.00    2.05
  -5   9  12    4.67    2.73
  -9  -5  12    2.04    3.08
  -5   9  12   -0.88    2.73
   3  -9 -12    1.33    3.22
   9   3 -12    7.24    2.39
  -9  -3 -12    6.49    2.22
  -9  -3  12    2.20    2.63
   9   3  12    1.86    2.74
  -3   9  12    2.36    2.43
   3  -9  12    2.51    2.41
  -3   9  12    5.54    2.69
   9   3  12    3.37    2.05
  -9  -1 -12    8.33    1.96
   1  -9 -12    3.85    3.30
   9   1 -12    6.23    2.47
  -9  -1  12    5.17    2.91
  -9  -1  12   10.25    3.09
   9   1  12    8.84    2.94
   1  -9  12    5.72    2.75
  -1   9  12    7.28    2.80
   9   1  12    8.02    2.27
  -1   9  12    7.19    3.10
   1   9 -12    6.99    2.03
   9  -1 -12    4.19    2.72
  -1  -9 -12   11.42    3.50
   1   9  12    7.57    2.73
  -1  -9  12    5.56    2.82
  -1  -9  12   11.54    3.06
   9  -1  12    8.18    2.07
   9  -1  12    8.23    2.65
  -9   1  12    3.04    2.88
   1   9  12    9.20    3.34
  -9   1  12    8.46    2.95
   9  -3 -12    3.15    2.77
  -3  -9 -12    5.25    3.18
   3   9 -12    4.00    2.09
   9  -3  12    7.93    2.30
  -3  -9  12    7.49    2.76
   3   9  12    2.41    3.18
   9  -3  12    7.41    2.06
  -9   3  12    4.64    2.88
   3   9  12    6.70    2.53
  -3  -9  12    5.98    4.43
   9  -5 -12   -0.24    3.76
   5   9 -12    4.36    2.08
  -5  -9 -12    3.61    3.54
   5   9  12   -2.16    2.45
  -9   5  12    6.06    3.23
  -5  -9  12    2.76    2.71
   9  -5  12    2.24    1.61
  -9   5  12   -3.65    2.73
   5   9  12    8.24    3.32
   9  -5  12    7.10    3.35
   7   9 -12    0.91    2.06
   9  -7 -12   -5.41    3.31
  -7  -9 -12    1.09    3.05
   7   9  12   -0.38    3.67
   9  -7  12    0.72    1.50
   9  -7  12    2.16    1.84
  -7  -9  12   -1.47    2.82
   7   9  12    0.04    3.34
  -9   7  12   -1.09    2.93
  -9  -9 -12   -1.20    3.56
   9   9 -12    1.36    3.65
   9  -9 -12    3.97    3.74
   9  -9  12    0.16    1.85
   9   9  12    1.28    2.68
   9  -9  12   -0.37    1.64
  -9   9  12   -1.26    3.28
  -9  -9  12    2.47    3.19
   9   9  12    1.67    3.67
  10   8 -12   -0.59    2.48
 -10  -8 -12   -1.60    3.51
   8 -10 -12    0.20    3.71
 -10  -8  12    6.03    3.48
   8 -10  12    0.31    1.99
  -8  10  12    5.87    3.25
  10   8  12    5.00    3.74
  10   8  12    0.22    2.57
 -10  -8  12    6.32    3.48
   6 -10 -12   -0.80    3.53
  10   6 -12    0.53    2.36
 -10  -6 -12    1.42    3.15
  -6  10  12    3.54    2.86
  10   6  12    2.04    2.40
 -10  -6  12    1.60    3.53
  10   6  12    4.50    3.29
 -10  -6  12    0.29    3.03
   6 -10  12    0.50    2.09
  10   4 -12    0.85    2.28
   4 -10 -12    2.76    3.32
 -10  -4 -12    1.40    2.44
  -4  10  12    1.55    2.61
  10   4  12    1.07    3.21
  -4  10  12    2.21    2.80
 -10  -4  12    0.85    2.71
  10   4  12    3.83    2.16
   4 -10  12    2.83    2.30
 -10  -4  12    5.32    3.24
   2 -10 -12   -1.31    3.05
  10   2 -12   -2.02    2.37
 -10  -2 -12    0.14    1.74
  10   2  12    0.83    1.94
  -2  10  12   -1.83    2.44
  10   2  12    1.30    2.53
  -2  10  12    4.65    2.88
   2 -10  12   -1.44    2.25
   2 -10  12    2.16    2.20
 -10  -2  12   -0.69    2.54
   0  10 -12    0.95    2.83
  10   0 -12   -3.69    2.19
   0 -10 -12   -2.27    3.19
 -10   0  12    1.84    2.76
  10   0  12    2.24    1.68
   0  10  12   -2.25    2.39
   0  10  12    1.85    3.06
 -10   0  12    1.23    2.79
   0 -10  12   -2.11    2.34
  10   0  12   -0.49    2.42
   0 -10  12   -1.85    2.36
  10  -2 -12    1.70    2.58
   2  10 -12    1.21    1.74
  -2 -10 -12    4.78    3.26
   2  10  12    4.61    2.45
 -10   2  12    2.46    2.81
  -2 -10  12    4.19    2.60
  10  -2  12    0.98    1.67
  10  -2  12   -0.53    2.16
   2  10  12   -0.19    3.00
  -2 -10  12    2.47    2.94
 -10   2  12   -1.39    2.91
   4  10 -12    1.96    3.01
  10  -4 -12   -1.14    3.75
  -4 -10 -12    1.07    3.09
  -4 -10  12    3.79    2.72
   4  10  12    3.38    2.59
  10  -4  12    7.34    3.13
  -4 -10  12    3.67    2.71
  10  -4  12    2.30    1.61
 -10   4  12   -0.36    2.74
   4  10  12   -1.38    3.17
 -10   4  12    2.85    3.31
   6  10 -12    1.20    2.14
  10  -6 -12   -1.95    3.39
  -6 -10 -12   -0.99    3.49
   6  10  12    2.65    2.80
 -10   6  12   -0.22    2.94
  10  -6  12    2.46    1.51
   6  10  12    0.01    3.45
  10  -6  12    2.93    1.87
  -6 -10  12   -1.76    2.79
  -6 -10  12    9.08    3.22
  10  -8 -12    3.49    3.66
   8  10  12    3.59    4.52
   8  10  12    0.70    2.60
  10  -8  12    2.75    1.88
  10  -8  12   -0.71    1.57
  -8 -10  12    5.85    3.31
 -10   8  12    1.13    2.96
  10 -10 -12   -3.41    3.99
  10  10 -12    3.62    5.25
 -10 -10 -12   -0.94    3.47
  10  10  12   -3.69    2.86
  10 -10  12    1.76    1.80
 -10 -10  12    4.27    3.91
  10  10  12    0.92    4.08
 -10 -10  12   -2.04    3.25
  11   9 -12    1.87    2.66
 -11  -9 -12    0.12    3.99
   9 -11 -12    3.04    4.15
   9 -11  12    5.71    2.07
 -11  -9  12    9.68    6.63
 -11  -9  12   -2.28    3.42
  -9  11  12    2.92    3.87
   9 -11  12    2.02    1.96
  11   9  12    2.11    2.80
  11   9  12    6.33    4.21
 -11  -7 -12   -4.44    3.28
   7 -11 -12   -2.42    3.83
  11   7 -12    0.06    2.50
   7 -11  12    0.10    2.10
  -7  11  12   -1.59    3.08
 -11  -7  12    0.86    3.30
  11   7  12   -3.22    3.58
   7 -11  12   -1.04    2.07
  11   7  12    3.60    2.47
 -11  -7  12   -4.55    3.66
  11   5 -12   17.58    3.44
   5 -11 -12    9.64    4.04
 -11  -5 -12    8.81    3.49
  -5  11  12    6.59    3.28
   5 -11  12   20.17    3.03
   5 -11  12   10.24    4.17
  11   5  12   11.20    3.04
  11   5  12    6.83    3.82
 -11  -5  12    5.07    3.59
 -11  -5  12   19.16    4.26
 -11  -3 -12   25.58    4.92
   3 -11 -12   30.71    5.61
  11   3 -12   30.41    5.62
  -3  11  12   28.68    5.72
  11   3  12   30.60    5.20
 -11  -3  12   29.14    5.62
   3 -11  12   25.49    5.43
   3 -11  12   25.05    5.23
  -3  11  12   22.86    5.16
  11   3  12   31.53    5.12
 -11  -3  12   16.87    5.11
   1 -11 -12   46.63    7.82
  11   1 -12   43.18    7.70
 -11  -1  12   38.61    7.99
   1 -11  12   46.04    7.48
  11   1  12   38.47    7.73
  11   1  12   43.56    7.10
   1 -11  12   38.80    7.51
  -1  11  12   55.32    7.75
   1  11 -12   39.80    7.35
  -1 -11 -12   35.85    7.87
  11  -1 -12   43.74    7.38
 -11   1  12   35.60    7.17
  -1 -11  12   34.78    7.26
 -11   1  12   37.00    7.54
   1  11  12   36.51    7.87
  11  -1  12   40.61    7.10
   1  11  12   54.27    7.36
  11  -1  12   43.15    6.63
  -1 -11  12   42.94    7.18
  -3 -11 -12   25.64    5.66
  11  -3 -12   25.68    5.45
   3  11 -12   25.89    5.05
  11  -3  12   34.91    5.81
 -11   3  12   34.76    5.61
   3  11  12   30.41    5.85
  11  -3  12   30.70    4.94
  -3 -11  12   25.71    5.29
  -3 -11  12   29.70    5.24
   3  11  12   23.01    5.55
   5  11 -12   12.99    3.73
  11  -5 -12    8.66    3.81
  -5 -11 -12    8.24    3.90
  11  -5  12   11.21    2.74
 -11   5  12   10.29    3.58
   5  11  12   11.66    3.47
   5  11  12   12.97    4.21
  -5 -11  12   13.66    3.48
  11  -5  12   11.78    2.46
  -5 -11  12   14.76    3.60
  11  -7 -12    0.44    3.56
   7  11 -12    2.07    2.19
  -7 -11 -12    2.76    3.43
  -7 -11  12   -3.93    3.40
 -11   7  12   -0.96    3.07
   7  11  12    5.07    3.87
  -7 -11  12   -0.57    2.94
  11  -7  12   -0.51    1.58
   7  11  12    1.31    3.44
  11  -7  12    1.22    1.83
  11  -9 -12   -3.55    4.05
   9  11  12    3.52    4.27
  11  -9  12    1.55    1.64
 -11   9  12    1.93    4.18
  -9 -11  12    0.46    3.71
   9  11  12    3.14    3.10
  11  -9  12    3.44    1.72
  -9 -11  12   -1.90    3.33
 -11 -11 -12    4.02    3.94
  11 -11 -12    5.33    4.68
  11  11 -12    6.20    3.47
 -11 -11  12   11.95    4.76
  11  11  12    6.78    4.71
  11 -11  12    6.77    1.99
  11  11  12   10.96    3.40
 -11  11  12   11.12    3.82
 -11 -11  12   -1.78    3.80
  11 -11  12    7.00    2.17
  10 -12 -12   -5.62    4.34
  12  10 -12    1.54    2.75
 -12 -10 -12    0.29    4.93
 -12 -10  12    5.99    4.68
  10 -12  12   -1.23    1.95
 -12 -10  12   -0.26    3.92
  12  10  12   -0.07    2.90
 -10  12  12    3.15    3.83
  12  10  12   -2.90    4.17
  10 -12  12   -0.78    1.80
  12   8 -12    5.97    2.94
 -12  -8 -12   -0.65    3.75
   8 -12 -12   -3.94    4.03
 -12  -8  12   -0.17    4.15
  -8  12  12   -1.79    3.46
  12   8  12    1.40    2.66
 -12  -8  12   -2.08    4.40
  12   8  12    6.04    4.21
   8 -12  12   -1.75    2.06
   8 -12  12    0.25    1.90
   6 -12 -12    1.57    3.73
 -12  -6 -12    0.88    3.25
  12   6 -12    1.65    2.76
  12   6  12    1.41    3.58
  12   6  12    2.80    2.40
  -6  12  12    1.72    2.98
 -12  -6  12    0.73    3.89
   6 -12  12   -0.03    2.00
 -12  -6  12    1.82    7.84
   6 -12  12    4.67    2.35
  12   4 -12    2.93    2.69
   4 -12 -12    4.43    3.68
 -12  -4 -12    2.42    2.52
 -12  -4  12    3.14    3.19
   4 -12  12   -3.17    2.45
   4 -12  12    5.87    2.23
  -4  12  12   -1.63    2.63
 -12  -4  12    2.07    3.76
  12   4  12   -0.15    2.16
  12   4  12   -1.71    3.19
   2 -12 -12    7.18    3.45
  12   2 -12   -3.29    2.52
  12   2  12    0.92    2.11
  12   2  12    4.50    2.89
   2 -12  12    2.15    2.52
  -2  12  12    2.98    3.33
 -12  -2  12    3.01    3.57
   2 -12  12    1.07    2.22
 -12  -2  12    0.68    3.09
  -2  12  12    2.18    2.66
   0 -12 -12   -0.08    3.36
  12   0 -12    3.31    2.74
   0 -12  12    7.27    2.47
  12   0  12    0.63    1.87
   0  12  12   -0.01    2.54
  12   0  12    2.93    2.64
   0 -12  12    0.44    2.61
 -12   0  12   -1.90    3.55
   0  12  12    0.84    3.19
   2  12 -12    1.45    1.88
  -2 -12 -12    1.45    3.34
  12  -2 -12    0.70    2.86
  -2 -12  12    1.49    2.56
  -2 -12  12   -0.70    2.64
   2  12  12    3.00    3.41
   2  12  12    3.25    2.65
  12  -2  12    5.58    1.84
 -12   2  12   -1.26    3.00
  12  -2  12    2.33    2.42
   4  12 -12    1.04    1.95
  -4 -12 -12    2.08    3.20
  12  -4 -12    1.19    3.10
   4  12  12    4.76    3.57
  12  -4  12   -0.78    1.60
 -12   4  12   -1.64    2.99
   4  12  12    2.36    2.76
  12  -4  12    1.88    2.12
  -4 -12  12    4.02    3.08
  -4 -12  12   -2.78    2.77
  12  -6 -12    0.95    3.46
   6  12 -12    1.67    2.22
  -6 -12 -12    3.22    3.34
  -6 -12  12   -3.46    2.93
  12  -6  12    1.65    1.96
  12  -6  12   -0.38    1.53
  -6 -12  12   -1.34    3.23
   6  12  12    0.11    3.84
 -12   6  12    0.43    3.26
   6  12  12    4.23    3.12
  12  -8 -12    0.78    3.87
  -8 -12 -12    7.57    4.43
   8  12 -12    0.40    2.24
  -8 -12  12   -0.40    3.97
  12  -8  12    0.54    1.38
  -8 -12  12   -0.65    4.14
 -12   8  12   -3.92    3.63
  12  -8  12    2.59    1.77
   8  12  12    0.26    2.93
   8  12  12    3.51    4.42
  12 -10 -12   -5.09    4.42
 -10 -12  12    2.89    4.45
 -12  10  12    0.95    3.56
  10  12  12    0.75    3.17
 -10 -12  12   -1.01    3.67
  10  12  12    6.01    4.63
   9 -13 -12   12.57    4.84
 -13  -9 -12    5.53    4.35
  13   9  12    5.91    4.29
 -13  -9  12    7.65    4.71
   9 -13  12    3.23    2.31
   7 -13 -12   -2.31    3.94
  13   7 -12    3.27    2.88
 -13  -7 -12    3.70    3.60
   7 -13  12    0.06    2.35
 -13  -7  12   -3.95    3.66
  -7  13  12   -0.20    3.33
   7 -13  12    2.01    2.40
  13   7  12    3.93    2.69
  13   7  12    4.29    3.76
 -13  -7  12    1.53    4.07
  13   5 -12    7.21    3.16
 -13  -5 -12   10.50    3.39
   5 -13 -12    8.44    4.16
  13   5  12    7.26    2.85
 -13  -5  12    8.37    4.27
 -13  -5  12    1.73    3.77
  13   5  12   12.68    4.05
  -5  13  12    7.07    3.10
   5 -13  12    5.76    2.81
   5 -13  12   14.40    2.85
   3 -13 -12   24.40    5.44
  13   3 -12   19.44    4.66
  -3  13  12   21.26    4.74
   3 -13  12   27.03    4.61
   3 -13  12   27.02    4.55
  13   3  12   24.50    4.88
 -13  -3  12   14.66    5.92
 -13  -3  12   28.12    5.71
  13   3  12   22.76    5.06
  13   1 -12   35.39    7.15
   1 -13 -12   35.79    7.13
 -13  -1  12   40.38    6.78
  -1  13  12   34.96    6.67
  13   1  12   35.79    6.02
   1 -13  12   30.18    6.53
  13   1  12   37.19    6.25
   1 -13  12   27.31    6.39
  13  -1 -12   35.60    6.56
  -1 -13 -12   35.17    6.36
   1  13  12   27.82    6.27
  -1 -13  12   30.63    6.21
   1  13  12   30.69    6.37
  13  -1  12   30.12    5.55
  -1 -13  12   33.25    5.89
  13  -1  12   35.05    6.20
  -3 -13 -12   21.53    4.96
  13  -3 -12   20.79    4.65
   3  13 -12   20.19    4.23
  13  -3  12   23.33    4.00
  -3 -13  12   15.90    4.35
  -3 -13  12   29.64    5.28
  13  -3  12   16.39    3.97
 -13   3  12   21.13    4.68
   3  13  12   21.68    4.43
   3  13  12   16.24    5.84
  13  -5 -12   17.39    4.00
  -5 -13 -12   12.61    3.99
   5  13 -12    5.90    2.73
  13  -5  12   11.75    2.32
  -5 -13  12   16.58    4.07
  13  -5  12    9.88    2.65
   5  13  12   10.32    3.48
  -5 -13  12    7.84    3.49
   5  13  12    5.89    4.41
 -13   5  12    9.84    3.78
  13  -7 -12    5.77    4.07
   7  13 -12   -2.01    2.16
  -7 -13 -12    2.92    3.29
   7  13  12   -5.10    4.12
 -13   7  12    1.39    4.26
  13  -7  12    0.20    1.53
  13  -7  12    2.17    1.87
  -7 -13  12    1.52    3.87
  -7 -13  12   -3.24    3.04
   7  13  12    0.23    3.09
  13  -9 -12    8.10    4.46
  -9 -13 -12   -0.54    5.78
   9  13  12    6.70    5.23
  -9 -13  12    4.29    3.72
 -13   9  12    3.97    3.91
  14   6 -12    2.70    3.14
   6 -14 -12   -5.52    3.91
 -14  -6 -12   -2.41    3.91
   6 -14  12   -0.89    2.45
 -14  -6  12    4.10    4.25
   6 -14  12   -0.24    2.61
  -6  14  12    2.97    3.09
  14   6  12   -5.00    2.47
  14   4 -12   -2.55    3.73
   4 -14 -12   -1.08    3.66
  14   4  12    2.04    3.40
  -4  14  12    0.68    2.84
  14   4  12    0.97    2.29
   4 -14  12   -0.29    2.87
 -14  -4  12    1.33    4.29
   4 -14  12   -3.04    3.38
   2 -14 -12   -0.85    3.55
  14   2 -12    2.92    2.93
   2 -14  12   -1.95    3.05
  14   2  12    8.23    3.38
  -2  14  12    1.20    2.83
 -14  -2  12   -1.65    4.16
   2 -14  12   -2.64    2.63
  14   2  12   -0.02    2.18
   0 -14 -12   -1.16    5.60
  14   0 -12    2.27    3.01
  14   0  12    3.26    2.98
   0  14  12    1.45    2.76
  14   0  12    6.17    2.14
   0 -14  12    3.27    3.25
 -14   0  12   -3.01    4.01
   0 -14  12    0.52    2.83
  14  -2 -12    1.26    2.99
  -2 -14 -12    1.32    3.45
  -2 -14  12    1.03    3.39
  -2 -14  12   -2.66    2.68
   2  14  12   -3.98    4.55
   2  14  12    3.56    2.91
  14  -2  12    1.72    2.63
 -14   2  12   -0.01    4.85
  14  -2  12   -1.11    1.83
   4  14 -12   -1.21    2.10
  -4 -14 -12   -3.42    3.17
  14  -4 -12    2.48    3.56
  -4 -14  12   -0.11    3.42
   4  14  12   -3.12    2.84
  -4 -14  12   -1.36    2.97
  14  -4  12   -3.58    1.70
   4  14  12    2.28    4.02
  14  -4  12    6.40    2.48
  14  -6 -12    1.60    3.76
   6  14 -12   -0.40    2.29
  -6 -14 -12    1.25    3.51
  -6 -14  12    2.33    3.24
 -14   6  12   -4.59    5.44
  14  -6  12    4.04    2.16
   6  14  12    2.23    4.81
  -6 -14  12   -6.42    3.51
  14  -6  12    0.59    1.62
   5 -15 -12    6.22    4.06
  15   5  12   10.30    3.81
   5 -15  12    5.51    2.94
  15   3 -12    8.22    4.15
   3 -15 -12   17.36    4.86
   3 -15  12   18.64    4.05
   3 -15  12   18.83    4.11
  15   3  12   20.03    3.59
  15   3  12   15.93    4.29
  -3  15  12   15.32    4.20
 -15  -3  12   16.78    5.40
   1 -15 -12   22.72    5.43
  15   1 -12   25.93    5.28
  15   1  12   26.43    5.00
  15   1  12   22.30    4.33
 -15  -1  12   34.31    6.36
   1 -15  12   28.08    5.05
   1 -15  12   18.44    4.80
  -1  15  12   20.70    4.94
  15  -1 -12   21.14    4.81
  -1 -15 -12   15.84    5.14
   1  15  12   23.11    4.60
  -1 -15  12   14.62    4.48
  -1 -15  12   22.45    4.78
  15  -1  12   20.75    4.38
 -15   1  12   31.29    5.79
  15  -1  12   22.47    4.49
  -3 -15 -12    9.16    4.03
  15  -3 -12   15.56    4.12
   3  15 -12   10.55    3.04
 -15   3  12   19.64    5.65
  15  -3  12   15.25    3.32
   3  15  12    6.91    3.54
  15  -3  12   11.78    2.67
  -3 -15  12    8.88    4.61
  -3 -15  12   17.96    4.32
  15  -5 -12    8.63    4.03
  -5 -15 -12    4.27    3.68
  15  -5  12    4.36    2.48
  -5 -15  12    4.08    3.38
   0   1 -13   19.76    4.57
   0  -1 -13   23.20    4.34
   1   0 -13   23.61    4.72
  -1   0 -13   22.51    4.63
  -1   0  13   22.29    4.39
   0  -1  13   30.23    4.86
   1   0  13   22.79    4.93
  -1   0  13   24.43    4.90
   0   1  13   21.42    4.50
   0   1  13   26.40    4.89
   1   0  13   30.11    4.49
   0  -1  13   25.76    4.46
   2   1 -13   18.19    3.84
  -1   2 -13   17.50    3.85
  -2  -1 -13   21.64    3.86
  -2  -1  13   26.37    4.67
   1  -2  13   25.04    4.05
  -1   2  13   21.83    4.45
  -1   2  13   25.97    4.76
   1  -2  13   21.39    4.04
   2   1  13   23.23    3.98
  -2  -1  13   17.76    4.08
   2   1  13   23.04    4.19
  -1  -2 -13   22.72    4.09
  -2   1 -13   17.55    4.03
   1   2 -13   21.35    4.19
   2  -1  13   23.23    3.95
  -1  -2  13   24.66    4.07
  -2   1  13   14.29    4.08
  -2   1  13   25.53    4.22
   1   2  13   19.84    3.95
  -1  -2  13   19.08    3.96
   2  -1  13   23.21    4.07
   1   2  13   22.50    4.21
  -3  -2 -13   17.11    3.40
  -2   3 -13   13.99    2.88
   3   2 -13   11.23    3.01
   2  -3 -13   19.70    4.31
  -2   3  13   20.02    5.40
  -3  -2  13   13.18    3.34
   3   2  13   18.82    3.24
   3   2  13   20.02    3.62
   2  -3  13   15.08    3.27
  -2   3  13   15.41    3.33
  -3  -2  13   12.48    3.26
   2  -3  13   21.05    3.77
   0  -3 -13   21.43    4.36
  -3   0 -13   23.84    4.44
   0  -3  13   21.32    4.32
   0   3  13   27.11    4.78
  -3   0  13   22.31    4.48
   0  -3  13   22.44    4.80
   0   3  13   25.58    4.78
   3   0  13   27.11    4.65
   3   0  13   21.73    4.44
  -3   0  13   29.11    4.57
  -2  -3 -13   17.92    3.74
   2   3 -13   16.11    3.33
  -3   2 -13   16.57    3.11
   3  -2  13   17.12    3.55
  -3   2  13   14.98    3.73
  -2  -3  13   20.17    3.70
   2   3  13   15.60    3.77
   3  -2  13   19.33    3.41
  -2  -3  13   20.42    3.58
  -3   2  13   17.69    5.27
   2   3  13   15.67    3.49
   3  -4 -13   14.61    3.64
  -3   4 -13   18.05    2.95
  -4  -3 -13   14.33    3.17
   4   3 -13   12.19    3.01
   3  -4  13   10.13    2.97
   4   3  13   12.36    3.36
  -3   4  13    7.44    3.46
   4   3  13   20.81    3.18
   3  -4  13   13.54    2.97
  -4  -3  13   13.03    3.21
  -4  -3  13   16.11    3.29
  -3   4  13   12.84    3.24
   1  -4 -13   15.74    3.95
  -1   4 -13   13.00    2.80
  -4  -1 -13   12.97    2.86
   4   1  13   12.78    3.39
  -1   4  13   13.06    3.16
   1  -4  13   14.34    3.29
  -4  -1  13   12.20    3.16
  -4  -1  13   13.60    3.18
   4   1  13   16.99    2.99
   1  -4  13   17.66    3.11
  -1   4  13   13.35    5.17
   4  -1 -13   11.17    3.41
  -4   1 -13   14.85    2.79
  -1  -4 -13   14.77    3.46
   1   4 -13   17.46    4.45
   4  -1  13   16.22    3.37
  -4   1  13   13.24    3.62
   4  -1  13   15.12    3.37
   1   4  13   16.77    3.33
  -4   1  13   14.64    3.61
  -1  -4  13   13.00    3.23
  -1  -4  13   14.95    3.21
   1   4  13   20.55    3.75
   3   4 -13   10.72    2.67
  -3  -4 -13   12.77    3.34
   4  -3 -13   13.76    3.40
  -3  -4  13    6.53    2.90
  -3  -4  13   13.64    3.09
  -4   3  13   15.55    3.20
  -4   3  13   13.37    3.40
   3   4  13   15.31    3.38
   3   4  13   12.57    3.01
   4  -3  13   11.98    2.92
   4  -3  13   14.46    3.02
  -5  -4 -13   14.25    3.34
   5   4 -13    8.80    2.68
   4  -5 -13   11.08    3.60
  -5  -4  13    9.75    3.09
   4  -5  13   11.26    2.87
  -4   5  13   16.35    3.56
   4  -5  13   15.15    2.59
  -5  -4  13   13.84    3.26
  -4   5  13   10.81    3.20
   5   4  13    8.32    3.17
   5   4  13   11.87    3.35
  -2   5 -13   17.43    3.32
  -5  -2 -13   14.95    3.30
   2  -5 -13   16.21    3.99
   2  -5  13   17.42    3.21
  -2   5  13   16.88    3.92
  -2   5  13   15.63    3.45
   2  -5  13   14.02    3.37
   5   2  13   17.47    3.63
  -5  -2  13   18.57    3.60
  -5  -2  13   12.47    3.49
   0   5 -13   26.25    4.49
   0  -5 -13   25.95    5.11
  -5   0 -13   23.72    4.39
   5   0 -13   28.21    5.04
   0   5  13   28.50    4.60
   5   0  13   24.93    4.66
  -5   0  13   18.72    4.62
   0  -5  13   18.55    4.71
  -5   0  13   27.17    4.65
   0  -5  13   29.37    5.98
   2   5 -13   12.16    3.25
  -2  -5 -13   17.34    3.84
   5  -2 -13   12.86    3.52
  -5   2  13   21.84    3.98
   2   5  13   19.05    3.51
  -2  -5  13   14.85    3.53
  -5   2  13   19.63    3.98
   5  -2  13   17.29    3.50
   2   5  13   19.10    3.85
  -2  -5  13   20.50    3.62
   5  -2  13   15.43    3.22
  -4  -5 -13   12.04    3.59
   4   5 -13   12.70    2.94
   5  -4 -13   13.06    3.66
   5  -4  13   15.16    3.10
   4   5  13   22.43    3.89
  -5   4  13   15.13    3.81
  -5   4  13   20.76    3.50
   5  -4  13   13.38    2.72
  -4  -5  13   11.19    3.28
   4   5  13    7.72    3.52
  -4  -5  13   10.37    3.17
   6   5 -13    8.95    2.63
   5  -6 -13   11.26    3.80
  -6  -5 -13   10.60    3.43
  -6  -5  13    7.62    3.01
   6   5  13   10.38    3.57
   5  -6  13    9.89    2.52
   6   5  13    8.39    2.78
   5  -6  13   14.20    2.80
  -5   6  13   14.92    3.45
  -5   6  13   15.70    3.73
   3  -6 -13   18.14    4.03
   6   3 -13   19.81    4.33
  -6  -3 -13   13.86    3.09
   3  -6  13   10.78    2.83
  -6  -3  13    9.22    4.26
   3  -6  13   13.06    3.19
  -3   6  13   13.06    3.81
  -6  -3  13   10.71    3.41
  -3   6  13   18.43    3.40
   6   3  13   14.79    3.09
   6   3  13   15.34    3.65
   6   1 -13   12.94    3.34
  -6  -1 -13   18.35    3.68
  -1   6 -13   17.23    3.05
   1  -6 -13   17.74    4.24
   6   1  13   20.34    3.37
  -6  -1  13   22.98    3.86
  -1   6  13   16.94    3.90
  -1   6  13   16.58    3.64
   1  -6  13   15.44    3.49
  -6  -1  13   14.01    3.77
   6   1  13   13.47    3.58
   1  -6  13   17.98    3.41
   1   6 -13   19.00    3.82
  -6   1 -13   15.76    3.23
   6  -1 -13   19.26    3.87
  -1  -6 -13   16.18    4.44
   6  -1  13   19.56    3.81
   6  -1  13   18.61    3.78
  -1  -6  13   19.13    4.18
  -6   1  13   17.37    3.78
  -6   1  13   11.32    3.83
   1   6  13   21.05    3.73
  -1  -6  13   16.69    3.62
   1   6  13   21.05    5.10
  -3  -6 -13   15.04    3.83
   6  -3 -13    9.07    3.70
   3   6 -13   14.71    3.06
   3   6  13   13.79    3.29
  -6   3  13   16.30    3.71
   6  -3  13   15.09    2.94
   6  -3  13   17.90    3.32
  -6   3  13   15.72    3.93
  -3  -6  13   15.20    3.53
  -3  -6  13   23.32    5.07
   3   6  13   18.96    4.01
   5   6 -13   12.70    2.69
   6  -5 -13   13.23    3.64
  -5  -6 -13    9.09    3.65
   6  -5  13    7.81    2.30
  -5  -6  13   10.85    3.08
   6  -5  13    9.67    2.64
  -6   5  13    4.39    3.32
  -6   5  13   11.12    3.18
   5   6  13   16.43    3.74
   6  -7 -13   10.38    3.67
  -7  -6 -13    4.54    3.38
   7   6  13    3.13    2.50
   6  -7  13    4.63    1.94
  -7  -6  13    1.32    4.62
   6  -7  13    4.58    2.24
  -6   7  13    4.30    3.21
  -7  -6  13   10.93    3.78
   7   6  13   11.40    3.52
  -6   7  13    3.39    3.40
   7   4 -13   12.64    3.05
  -7  -4 -13   10.72    3.15
   4  -7 -13    9.61    3.84
   4  -7  13   11.32    2.63
  -7  -4  13    6.75    3.04
   7   4  13   11.35    3.49
   4  -7  13    7.90    2.79
  -4   7  13   13.77    3.39
  -4   7  13   12.10    3.53
   7   4  13   10.95    2.71
   2  -7 -13   20.84    4.86
   7   2 -13   17.81    4.12
  -7  -2 -13   24.89    4.37
  -2   7  13   15.49    4.53
  -2   7  13   24.05    4.34
   7   2  13   17.16    4.33
   2  -7  13   20.42    4.19
   2  -7  13   25.18    4.45
  -7  -2  13   27.21    4.49
  -7  -2  13   24.04    4.49
   7   2  13   23.59    4.39
   0  -7 -13   39.39    5.68
   0   7 -13   28.01    4.81
  -7   0 -13   27.89    4.75
   7   0 -13   32.81    5.47
  -7   0  13   19.96    5.00
   7   0  13   23.37    4.94
   0  -7  13   28.56    5.01
   0   7  13   36.07    5.57
   0  -7  13   27.67    5.33
   7   0  13   21.97    4.97
  -7   0  13   30.93    5.75
   0   7  13   26.43    5.37
   2   7 -13   21.13    4.14
  -2  -7 -13   24.71    4.84
   7  -2 -13   22.48    4.18
   7  -2  13   24.42    4.02
  -2  -7  13   22.07    4.04
   2   7  13   16.72    3.95
  -7   2  13   17.23    4.13
   7  -2  13   19.39    3.94
   2   7  13   18.93    4.46
  -2  -7  13   19.73    4.15
  -7   2  13   14.25    4.22
   4   7 -13   10.50    2.78
  -4  -7 -13   13.68    3.78
   7  -4 -13   11.50    3.63
   7  -4  13   13.98    2.57
   7  -4  13   12.75    2.90
  -7   4  13    8.45    3.62
  -4  -7  13    9.69    3.47
   4   7  13   10.37    2.97
  -7   4  13   15.07    3.57
   4   7  13   14.99    3.88
   6   7 -13    4.97    2.36
   7  -6 -13    1.04    3.36
  -6  -7 -13    2.94    3.36
  -7   6  13   11.79    3.19
   6   7  13    6.39    3.57
   7  -6  13    2.26    1.69
   6   7  13    7.11    2.63
  -7   6  13    9.86    3.49
  -6  -7  13   11.07    3.40
  -6  -7  13    2.26    2.96
   7  -6  13    5.67    2.23
   7  -8 -13    4.32    4.78
  -8  -7 -13    1.30    3.64
   8   7  13    1.68    3.59
   8   7  13    2.53    2.53
   7  -8  13    0.72    1.85
   7  -8  13    5.32    2.16
  -8  -7  13   -3.23    3.07
  -7   8  13    3.71    2.99
  -8  -7  13    7.67    3.98
   5  -8 -13    7.12    3.72
  -8  -5 -13    8.14    3.20
   8   5 -13    7.90    4.76
  -5   8  13    6.21    3.16
   5  -8  13    3.85    2.43
  -8  -5  13   13.33    4.01
  -5   8  13    8.78    3.47
   5  -8  13    9.34    2.29
  -8  -5  13    4.62    2.90
   8   5  13    9.13    3.32
   8   5  13    4.87    2.55
   3  -8 -13    2.46    3.68
   8   3 -13    6.86    2.52
  -8  -3 -13    4.92    2.34
  -8  -3  13    4.20    2.84
   3  -8  13    4.39    2.49
  -8  -3  13    3.19    2.74
   3  -8  13    8.52    2.39
  -3   8  13   11.06    2.94
  -3   8  13    5.22    3.13
   8   3  13    7.91    3.70
   8   3  13    4.17    2.17
   8   1 -13    2.67    2.24
  -1   8 -13    5.62    1.86
  -8  -1 -13    4.34    1.80
   1  -8 -13    2.73    3.43
   1  -8  13    5.82    2.48
  -8  -1  13    4.33    2.77
  -1   8  13    6.00    2.61
   8   1  13    2.80    2.67
   8   1  13    6.11    2.03
   1  -8  13    2.52    2.25
  -8  -1  13   -0.98    2.70
  -1   8  13   -0.42    2.82
   8  -1 -13    9.03    2.72
  -1  -8 -13    1.65    3.33
   1   8 -13    4.73    1.88
  -8   1  13    4.19    2.87
   8  -1  13    2.63    2.46
   1   8  13    4.68    2.56
  -8   1  13    2.24    2.76
  -1  -8  13    5.46    3.05
   1   8  13    3.37    2.96
   8  -1  13    4.28    1.98
   3   8 -13    7.42    2.19
  -3  -8 -13    3.84    3.70
   8  -3 -13    2.75    2.78
   8  -3  13    6.69    2.08
  -3  -8  13    5.80    2.97
   8  -3  13    6.50    2.42
   3   8  13    4.42    2.60
  -8   3  13    2.31    2.89
  -8   3  13    2.62    3.41
  -3  -8  13    8.79    3.15
   3   8  13   11.82    3.56
   8  -5 -13    4.76    3.43
  -5  -8 -13    5.68    3.97
   5   8 -13    4.87    2.34
   8  -5  13    6.69    1.98
  -5  -8  13    7.67    3.11
  -8   5  13   10.60    3.20
  -8   5  13    4.59    3.47
   8  -5  13    6.05    2.34
  -5  -8  13    5.28    3.17
   5   8  13    7.79    3.86
   7   8 -13    2.16    2.26
   8  -7 -13    5.67    3.95
  -7  -8 -13    0.10    3.45
   8  -7  13    2.17    2.06
  -7  -8  13   -0.96    2.90
  -8   7  13    0.03    3.19
   8  -7  13    0.57    1.69
   7   8  13    7.65    3.74
  -7  -8  13    1.52    3.18
   7   8  13    5.35    2.64
   8  -9 -13    2.74    3.94
  -9  -8 -13   -1.60    4.02
  -9  -8  13   -1.90    3.20
   9   8  13    2.23    2.60
   8  -9  13    3.95    2.10
   8  -9  13   -2.92    1.94
   9   8  13    6.10    3.78
  -8   9  13    2.26    3.23
  -9  -8  13   -5.09    3.32
   9   6 -13    1.23    2.34
   6  -9 -13   -0.41    5.50
  -9  -6 -13    2.74    3.32
   9   6  13    5.87    2.48
  -6   9  13    2.79    3.21
  -9  -6  13   -3.20    2.88
  -9  -6  13    1.98    3.52
   9   6  13    0.13    3.43
   6  -9  13   -1.06    2.09
   6  -9  13   -3.34    2.81
  -9  -4 -13    5.27    2.72
   9   4 -13    7.00    2.61
   4  -9 -13    3.76    3.84
  -4   9  13    3.07    3.24
  -9  -4  13    2.39    2.97
  -4   9  13   10.78    3.09
   9   4  13   10.38    2.62
   4  -9  13    8.11    2.64
  -9  -4  13   15.26    4.21
   9   4  13    7.29    3.44
   9   2 -13   10.76    3.07
   2  -9 -13   14.41    4.12
  -9  -2 -13   10.90    2.53
  -9  -2  13    9.19    3.38
   9   2  13   13.23    2.81
  -2   9  13   11.41    3.42
  -2   9  13   12.35    3.57
  -9  -2  13    7.80    3.39
   2  -9  13   11.04    3.20
   9   2  13   11.87    3.50
   9   0 -13   13.46    3.65
   0  -9 -13   19.59    4.54
   0   9 -13   14.51    3.19
  -9   0  13    9.11    3.96
   0  -9  13   22.79    4.15
  -9   0  13   18.66    4.15
   0   9  13   20.37    3.90
   9   0  13   21.39    3.41
   0   9  13   13.57    4.17
   9   0  13   21.81    3.95
  -2  -9 -13   14.33    4.10
   2   9 -13   12.93    2.73
   9  -2 -13   12.30    3.54
  -2  -9  13   14.24    3.41
   2   9  13    9.76    3.20
  -2  -9  13    9.09    3.49
   9  -2  13   14.71    3.18
  -9   2  13   14.27    3.61
  -9   2  13   12.04    5.67
   2   9  13   15.19    4.04
   9  -2  13   11.79    2.75
   4   9 -13   10.33    2.52
  -4  -9 -13    7.22    3.94
   9  -4 -13    6.97    3.15
   4   9  13    7.45    2.83
   4   9  13   12.38    3.87
  -9   4  13    1.02    3.06
  -9   4  13    7.82    3.63
   9  -4  13    7.52    2.13
  -4  -9  13    0.69    3.01
  -4  -9  13   11.32    3.31
   9  -4  13    7.02    2.45
   9  -6 -13   -1.23    3.51
   6   9 -13    3.69    2.22
  -9   6  13    1.99    2.87
   9  -6  13    7.40    2.29
   6   9  13    1.61    2.58
   6   9  13    2.65    4.15
   9  -6  13    3.50    1.65
  -6  -9  13   -2.06    3.07
  -6  -9  13   -2.22    3.17
   9  -8 -13   -0.60    3.78
   8   9 -13    1.43    2.50
  -8  -9 -13    0.30    3.70
   8   9  13   -1.17    2.69
  -8  -9  13   -2.57    3.41
   9  -8  13    2.85    2.09
   9  -8  13   -0.82    1.69
   8   9  13    6.13    3.78
  -9   8  13    1.50    3.44
  -8  -9  13    3.58    3.44
   9 -10 -13   -0.99    4.13
 -10  -9 -13    3.22    5.20
  10   9 -13    2.28    3.13
 -10  -9  13   -2.58    3.61
  -9  10  13   -4.47    3.57
   9 -10  13    1.73    2.10
 -10  -9  13    0.97    3.71
  10   9  13   -0.60    2.68
  10   9  13   11.98    4.58
 -10  -7 -13   -0.86    3.64
  10   7 -13    6.10    2.51
   7 -10 -13    3.86    4.02
 -10  -7  13    6.70    4.50
 -10  -7  13   -3.16    3.31
  10   7  13    2.50    3.70
   7 -10  13    0.93    2.25
  -7  10  13    2.21    3.54
  10   7  13    2.26    2.58
   5 -10 -13    5.25    5.90
 -10  -5 -13    0.49    3.00
  10   5 -13    8.59    2.89
   5 -10  13   10.85    2.96
  10   5  13    6.85    2.50
 -10  -5  13    8.00    3.85
  10   5  13    8.40    3.45
 -10  -5  13    2.52    3.13
  -5  10  13    5.52    3.08
 -10  -3 -13    1.91    2.25
   3 -10 -13    1.33    3.66
  10   3 -13    2.45    2.42
  -3  10  13   -0.54    2.61
  10   3  13    0.15    2.95
   3 -10  13    1.93    2.58
 -10  -3  13    9.22    4.12
  -3  10  13    2.57    2.99
 -10  -3  13    1.89    2.94
  10   3  13    1.58    2.18
  10   1 -13    3.35    2.42
   1 -10 -13    5.08    3.43
 -10  -1  13    0.99    2.92
  -1  10  13   -1.14    2.44
   1 -10  13   -0.49    2.55
  10   1  13    4.13    2.89
 -10  -1  13   -3.17    3.25
   1 -10  13    3.67    2.43
  10   1  13   -1.04    1.94
  -1  10  13   -0.01    3.25
  -1 -10 -13    3.06    3.49
   1  10 -13   -1.29    3.74
  10  -1 -13   -2.66    2.33
 -10   1  13    1.88    3.20
  -1 -10  13   -0.89    2.66
   1  10  13    3.45    3.37
   1  10  13   -0.10    2.58
  -1 -10  13    0.19    2.51
 -10   1  13   -3.09    2.93
  10  -1  13    2.96    1.85
  10  -1  13    1.90    2.59
  -3 -10 -13    4.44    3.50
  10  -3 -13    0.01    2.86
   3  10 -13    0.57    1.90
  10  -3  13    2.10    1.77
 -10   3  13    1.58    3.37
  10  -3  13    1.57    2.28
 -10   3  13   -0.49    3.01
   3  10  13    3.24    3.47
  -3 -10  13    0.59    2.86
   3  10  13    5.64    2.60
  -3 -10  13    1.22    2.93
  -5 -10 -13    2.11    4.05
  10  -5 -13    1.21    3.20
   5  10 -13    8.98    4.29
  -5 -10  13    6.21    3.07
  10  -5  13    2.74    2.24
  10  -5  13    2.61    1.85
 -10   5  13    2.46    3.06
   5  10  13    3.72    3.70
  -5 -10  13    1.37    3.06
   5  10  13    4.41    3.15
   7  10 -13    0.34    2.27
  10  -7 -13    4.89    3.78
 -10   7  13    0.67    3.32
  10  -7  13    3.65    2.02
  10  -7  13    1.20    1.70
  -7 -10  13   -1.98    3.22
  -7 -10  13   -1.24    3.33
   7  10  13    3.78    2.91
   7  10  13    3.97    3.84
  10  -9 -13    2.54    4.20
  -9 -10 -13    4.61    4.06
  -9 -10  13    0.83    3.73
   9  10  13    4.29    2.99
   9  10  13    5.49    6.92
  10  -9  13    1.18    2.06
 -10   9  13   -0.24    3.41
  10  -9  13   -2.09    1.77
  -9 -10  13    3.75    3.87
 -11  -8 -13   -0.12    4.02
  11   8 -13    4.59    2.73
   8 -11 -13    3.76    4.29
 -11  -8  13   -4.85    3.67
   8 -11  13   -2.34    2.19
  -8  11  13    2.68    3.62
  11   8  13    5.71    2.87
  11   8  13    8.88    4.38
 -11  -8  13    3.23    3.76
   8 -11  13    2.70    2.30
  11   6 -13    1.98    2.59
 -11  -6 -13   -5.37    3.30
   6 -11 -13    3.48    4.04
   6 -11  13   -3.35    2.30
 -11  -6  13   -0.19    3.20
  11   6  13   -2.77    2.40
   6 -11  13    2.10    2.42
  -6  11  13    4.63    3.24
 -11  -6  13    0.97    4.10
  11   6  13    2.33    3.57
  11   4 -13    5.38    2.76
   4 -11 -13   -0.37    4.60
 -11  -4 -13    2.61    2.55
  -4  11  13    3.64    2.73
   4 -11  13    2.39    2.44
 -11  -4  13    0.04    3.90
  11   4  13    6.22    3.42
   4 -11  13    2.09    2.71
 -11  -4  13    0.30    3.62
  11   4  13    3.63    2.34
  11   2 -13    3.64    2.70
   2 -11 -13    7.48    3.81
 -11  -2  13    3.30    4.41
  -2  11  13    5.07    3.48
  11   2  13    2.75    2.18
   2 -11  13    4.35    2.53
  -2  11  13    0.94    2.78
 -11  -2  13   -3.02    3.12
  11   2  13    7.97    3.16
   2 -11  13    1.05    2.72
   0 -11 -13    1.58    3.33
  11   0 -13    3.40    2.53
  11   0  13    1.68    2.65
   0 -11  13    5.71    2.93
   0  11  13    9.31    6.21
 -11   0  13   -2.79    3.06
   0 -11  13    3.24    2.65
  11   0  13    3.43    1.96
   0  11  13   -0.92    2.68
 -11   0  13   -0.79    3.33
  11  -2 -13    1.14    3.01
  -2 -11 -13    3.46    3.67
   2  11 -13    1.51    3.74
  -2 -11  13   -2.72    2.62
  11  -2  13    3.29    1.89
 -11   2  13    0.19    2.98
   2  11  13    0.20    2.60
  11  -2  13    4.38    2.60
   2  11  13    4.82    3.58
  -2 -11  13    2.58    3.23
   4  11 -13    1.88    2.07
  11  -4 -13   -1.62    2.86
  -4 -11 -13    4.09    3.86
 -11   4  13    3.23    3.25
  -4 -11  13    1.09    2.75
   4  11  13    3.71    3.22
  11  -4  13    5.50    2.42
  -4 -11  13    3.87    3.24
  11  -4  13    1.13    1.79
   4  11  13    4.89    3.64
  -6 -11 -13    1.58    4.29
   6  11 -13    0.60    4.67
  11  -6 -13    0.49    3.75
  -6 -11  13    3.13    3.09
   6  11  13   -1.92    2.80
   6  11  13    5.87    4.13
  -6 -11  13   -1.45    3.21
 -11   6  13   -0.65    3.21
  11  -6  13   -0.06    1.61
  11  -6  13    3.35    2.06
   8  11 -13    2.23    2.52
  11  -8 -13   -0.01    4.01
  11  -8  13    3.60    2.03
  11  -8  13    0.96    1.68
   8  11  13    5.50    3.09
 -11   8  13   -3.71    3.40
   8  11  13    8.97    4.54
  -8 -11  13    6.33    3.88
  -8 -11  13   -1.02    5.32
 -12  -7 -13    1.89    3.94
   7 -12 -13    3.18    4.50
  12   7 -13    4.30    2.84
 -12  -7  13    0.77    4.12
   7 -12  13    5.55    2.68
   7 -12  13    7.66    2.57
  12   7  13    6.85    4.36
  -7  12  13    7.77    3.83
 -12  -7  13    5.83    4.80
  12   7  13   10.70    3.05
 -12  -5 -13    1.26    3.33
   5 -12 -13    4.50    4.03
  12   5 -13    2.11    2.93
  12   5  13    9.78    2.83
  12   5  13   10.43    4.06
  -5  12  13    6.32    3.17
 -12  -5  13    6.76    4.35
   5 -12  13    9.92    3.08
 -12  -5  13    3.15    3.61
   5 -12  13    7.55    2.62
  12   3 -13    9.40    3.11
   3 -12 -13    7.59    4.55
 -12  -3  13    8.57    4.02
  -3  12  13    7.52    3.03
  12   3  13    8.60    2.60
  12   3  13    4.99    3.42
 -12  -3  13    3.51    3.68
   3 -12  13    3.23    3.04
   3 -12  13    6.69    2.74
   1 -12 -13    0.16    3.45
  12   1 -13    3.52    2.83
  -1  12  13    4.46    2.92
   1 -12  13   -1.72    2.38
  -1  12  13    5.19    4.52
  12   1  13    4.85    2.97
 -12  -1  13    5.54    4.44
  12   1  13   -1.62    2.01
   1 -12  13    1.33    2.98
  12  -1 -13    2.26    3.22
  -1 -12 -13    0.47    3.68
  12  -1  13    1.00    1.97
  -1 -12  13    3.80    2.60
   1  12  13    2.85    3.61
   1  12  13   -0.29    2.62
  12  -1  13   -1.00    2.63
  -1 -12  13    4.15    2.98
   3  12 -13    2.08    2.27
  -3 -12 -13    3.33    3.74
  12  -3 -13    1.70    3.22
  12  -3  13    4.69    1.96
   3  12  13    2.44    3.90
 -12   3  13    3.26    3.49
  -3 -12  13   -2.17    2.88
  12  -3  13    4.53    2.43
  -3 -12  13    5.97    2.81
   3  12  13    7.33    2.96
   5  12 -13    4.97    2.33
  12  -5 -13    2.77    3.50
  -5 -12 -13   10.27    3.91
  12  -5  13    6.38    2.48
   5  12  13    6.98    4.22
   5  12  13    7.63    3.14
  12  -5  13    4.50    1.91
  -5 -12  13    5.34    3.54
  -5 -12  13    8.09    3.46
 -12   5  13    0.26    3.61
   7  12 -13   10.41    3.30
  12  -7 -13    2.59    4.07
  -7 -12 -13   -4.28    5.01
  -7 -12  13    2.82    3.62
   7  12  13    8.37    4.69
  12  -7  13    6.34    2.34
   7  12  13   10.43    3.62
 -12   7  13   13.55    4.06
  -7 -12  13    9.07    3.91
  12  -7  13    4.35    1.85
   4 -13 -13    0.61    4.00
  13   4 -13    0.98    2.88
 -13  -4  13    0.31    4.08
  -4  13  13    2.14    3.02
   4 -13  13   -2.29    3.81
   4 -13  13    5.58    2.67
  13   4  13    4.03    2.48
  13   4  13    0.67    3.74
   2 -13 -13   -3.56    3.53
  13   2 -13   -2.13    2.80
  -2  13  13   -1.77    2.86
 -13  -2  13   -1.37    4.09
   2 -13  13    5.97    2.80
  13   2  13    2.92    2.20
  13   2  13    4.52    3.34
   2 -13  13    1.60    2.98
  13   0 -13   -0.92    2.78
   0 -13 -13   -3.11    3.58
  13   0  13    0.89    2.92
   0 -13  13    0.43    2.79
   0  13  13   -3.83    2.66
 -13   0  13   -2.99    4.73
  13   0  13    1.43    2.04
   0 -13  13    1.21    2.89
  -2 -13 -13    2.09    3.80
  13  -2 -13   -1.36    2.84
   2  13  13    4.21    3.92
  13  -2  13   -1.18    2.59
  -2 -13  13    2.64    3.06
  13  -2  13    1.39    2.01
   2  13  13    1.59    2.84
  -2 -13  13   -1.84    2.93
  -4 -13 -13    0.01    3.82
  13  -4 -13   -0.80    3.30
   4  13 -13   -0.28    2.17
   4  13  13    0.98    4.21
  -4 -13  13    4.14    3.17
  13  -4  13    3.53    2.44
 -13   4  13    3.95    3.62
  13  -4  13    2.28    1.85
  -4 -13  13    0.22    2.99
  14   1 -13   -0.20    3.18
   1 -14 -13    4.28    4.11
   1 -14  13    1.25    3.21
   1 -14  13   -2.44    3.01
 -14  -1  13    7.77    4.42
  14   1  13    2.46    2.23
  14   1  13    3.22    3.35
  -1  14  13    4.31    3.25
  -1 -14 -13    5.24    3.97
  14  -1 -13    1.25    3.11
  14  -1  13    5.11    3.52
  14  -1  13    2.47    2.12
 -14   1  13    0.88    4.99
  -1 -14  13   -0.33    3.15
  -1 -14  13    5.87    3.42
   1  14  13    0.28    2.77
   0   0 -14   -0.58    1.77
   0   0  14    1.00    2.26
  -1  -1 -14    1.43    1.94
  -1   1 -14   -0.09    1.72
   1  -1 -14   -0.94    1.98
   1   1 -14    1.26    1.77
  -1   1  14   -3.22    2.10
  -1  -1  14    4.04    2.21
  -1   1  14    1.02    2.46
   1   1  14    3.49    2.41
   1  -1  14    0.43    2.25
   1  -1  14    0.42    2.21
   0   2 -14    2.51    3.16
   0  -2 -14   -1.08    1.88
  -2   0 -14   -1.86    1.64
   2   0 -14    0.25    1.95
   0  -2  14   -0.03    2.01
   2   0  14   -1.21    2.06
  -2   0  14   -4.84    2.04
   2   0  14   -1.07    2.20
   0   2  14    1.04    2.33
   0   2  14    1.17    2.47
   0  -2  14    0.76    2.05
  -2   0  14    1.53    2.22
  -2   2 -14    5.37    1.79
   2   2 -14    1.26    1.92
  -2  -2 -14    0.67    2.07
  -2   2  14    6.54    3.06
  -2  -2  14    2.13    3.55
   2   2  14    6.59    2.23
  -2  -2  14    3.52    2.34
   2   2  14    0.60    2.63
   2  -2  14    2.25    2.30
   2  -2  14    1.68    2.09
  -2   2  14    4.29    2.43
   3   1 -14    2.39    1.89
  -1   3 -14    3.48    1.74
   1  -3 -14   -0.76    1.71
  -3  -1 -14    2.87    2.00
   3   1  14    1.83    2.09
   3   1  14    8.00    2.70
   1  -3  14    8.10    2.24
  -1   3  14    3.18    2.46
  -3  -1  14    1.72    2.24
   1  -3  14    4.16    2.19
  -3  -1  14    3.53    2.39
  -1   3  14    4.91    2.78
  -3   1 -14    3.63    1.77
  -1  -3 -14    2.40    2.58
   1   3  14    5.77    2.79
  -3   1  14    1.54    4.03
   3  -1  14    1.76    2.62
   1   3  14    5.75    2.70
  -1  -3  14    2.30    2.08
   3  -1  14    4.06    2.05
  -1  -3  14    5.74    2.19
  -3   1  14    0.98    2.23
  -3  -3 -14   10.83    3.09
   3   3 -14    7.02    2.64
   3  -3 -14   11.62    3.77
  -3   3 -14   12.46    3.22
   3  -3  14   11.47    2.96
  -3   3  14   11.33    3.30
  -3   3  14   11.76    3.23
   3  -3  14   11.04    2.65
   3   3  14   17.60    3.38
  -3  -3  14    8.98    2.90
  -3  -3  14   11.30    3.05
   3   3  14   12.27    2.85
  -2   4 -14    4.88    1.92
  -4  -2 -14    4.70    2.09
   2  -4 -14   -0.42    5.77
   4   2 -14    6.58    2.22
   2  -4  14    5.02    2.19
  -4  -2  14    2.01    2.53
  -4  -2  14    7.06    2.74
  -2   4  14    4.03    2.56
   2  -4  14    2.55    2.25
   4   2  14    7.78    2.31
  -2   4  14    7.89    3.00
   4   2  14    5.73    2.74
   0  -4 -14   -3.34    1.83
  -4   0 -14    0.33    1.64
   0   4 -14    3.92    1.86
   4   0  14    5.10    2.89
   4   0  14    2.86    1.95
   0   4  14    2.42    2.77
   0  -4  14    2.17    1.95
   0   4  14    3.62    2.23
  -4   0  14   -2.61    2.75
   0  -4  14   -0.76    2.16
  -4   0  14   -2.22    2.25
   2   4 -14    5.05    2.48
   4  -2 -14    2.46    2.34
  -2  -4 -14    2.28    2.73
   4  -2  14    8.80    2.24
  -4   2  14    0.84    2.63
   4  -2  14    3.81    2.43
  -2  -4  14    1.73    2.35
   2   4  14    9.30    2.90
  -4   2  14    6.59    2.84
  -2  -4  14    2.62    2.45
   4  -4 -14    6.31    3.05
  -4  -4 -14    6.99    2.97
   4   4 -14    4.34    2.19
   4  -4  14    6.44    2.60
   4  -4  14    5.56    2.00
  -4   4  14    3.74    3.18
  -4  -4  14    7.65    2.81
  -4   4  14    9.35    3.15
  -4  -4  14    6.81    2.63
   4   4  14    3.69    2.37
   4   4  14   11.55    3.32
   3  -5 -14   17.95    3.79
   5   3 -14    8.77    2.91
  -5  -3 -14   12.82    3.26
  -5  -3  14   12.29    3.31
   5   3  14   13.95    3.08
   3  -5  14   12.32    2.89
   3  -5  14   10.09    3.13
  -3   5  14   20.31    3.56
  -3   5  14   14.90    3.86
   5   3  14   14.83    3.69
   1  -5 -14    1.12    6.56
  -5  -1 -14    8.16    2.18
  -1   5 -14    6.20    2.03
   5   1  14    7.88    2.32
  -1   5  14    5.77    3.09
   1  -5  14    4.82    2.43
  -5  -1  14    1.39    2.67
   5   1  14    3.22    2.76
  -1   5  14    7.80    2.58
   1  -5  14    5.51    2.30
  -5  -1  14    5.19    2.62
  -1  -5 -14    3.81    2.67
  -5   1 -14    8.04    3.51
   5  -1 -14    8.80    2.59
   1   5 -14   10.48    2.24
  -5   1  14    5.60    2.88
   1   5  14    7.09    2.72
  -1  -5  14    4.21    2.60
   1   5  14    9.62    3.24
   5  -1  14    5.26    2.29
   5  -1  14    4.65    2.71
  -1  -5  14    9.42    2.64
  -5   1  14    7.88    2.85
   3   5 -14   17.51    3.17
   5  -3 -14   15.65    3.43
  -3  -5 -14   16.82    3.97
  -3  -5  14   14.04    3.40
   5  -3  14   12.59    3.30
   5  -3  14   14.62    2.97
  -3  -5  14    9.23    3.31
   3   5  14   17.30    3.40
  -5   3  14   11.07    3.66
  -5   3  14   11.10    3.82
   3   5  14   17.28    3.95
  -5  -5 -14   15.71    4.48
   5   5 -14   18.86    3.98
   5  -5 -14   29.94    4.86
   5   5  14   26.46    4.69
  -5   5  14   23.39    4.47
   5  -5  14   12.78    3.95
  -5  -5  14   30.90    5.23
  -5  -5  14   14.84    4.25
  -5   5  14   19.99    4.67
   5   5  14   23.48    4.76
   5  -5  14   27.25    4.24
  -6  -4 -14    8.20    2.95
   4  -6 -14    5.72    3.41
   4  -6  14    2.32    2.51
   6   4  14    6.31    2.52
  -4   6  14   14.25    3.27
  -6  -4  14    5.62    4.25
  -4   6  14   10.69    3.54
   4  -6  14    9.03    2.24
   6   4  14    7.76    3.30
  -6  -4  14    8.85    3.06
  -6  -2 -14    5.39    2.15
   6   2 -14    4.79    2.96
   2  -6 -14    9.23    3.59
   2  -6  14    4.72    2.51
  -2   6  14    8.50    3.26
  -2   6  14   11.08    2.71
   6   2  14    5.68    3.00
   6   2  14    6.58    2.40
  -6  -2  14    5.48    2.87
  -6  -2  14    3.69    2.64
   2  -6  14    4.41    2.34
   0   6 -14    3.55    1.85
   6   0 -14    4.14    2.30
   0  -6 -14    2.06    4.91
  -6   0 -14    1.54    2.01
   0  -6  14    2.14    2.32
   0   6  14    9.67    2.98
  -6   0  14   -0.66    2.62
  -6   0  14    2.28    2.50
   6   0  14    1.36    1.96
   0   6  14    5.61    2.41
   6   0  14    4.13    2.56
   0  -6  14   -1.11    2.29
   2   6 -14    8.72    2.39
   6  -2 -14    8.23    2.93
   6  -2  14    7.49    2.39
  -2  -6  14    8.53    2.90
   6  -2  14    9.22    2.86
  -6   2  14    9.01    3.03
  -2  -6  14    9.32    2.86
   2   6  14   11.58    5.39
  -6   2  14    6.79    3.31
   6  -4 -14    3.85    3.03
   4   6 -14    5.90    2.29
  -4  -6 -14    9.86    3.45
   4   6  14    6.74    2.66
  -6   4  14    5.37    3.33
  -4  -6  14    5.27    2.78
   6  -4  14    6.54    2.59
   4   6  14   12.17    3.55
  -6   4  14    9.59    3.27
   6  -4  14    4.84    2.03
   6  -6 -14    7.70    3.66
   6   6 -14    6.33    2.57
  -6  -6 -14   12.13    3.77
   6  -6  14    7.18    2.71
   6  -6  14    9.30    2.36
  -6  -6  14    2.79    3.08
   6   6  14    8.47    2.78
  -6   6  14   12.25    3.33
   6   6  14   16.38    4.00
  -6   6  14    7.50    3.86
  -7  -5 -14   19.22    4.68
   5  -7 -14   31.80    5.33
   5  -7  14   27.63    4.64
  -5   7  14   44.24    6.04
   7   5  14   33.09    4.99
   5  -7  14   16.16    4.24
  -7  -5  14   13.67    4.62
   7   5  14   26.17    5.19
  -5   7  14   15.22    5.13
   3  -7 -14   11.47    4.37
  -7  -3 -14   19.62    3.47
   7   3 -14   15.11    3.77
   7   3  14   15.64    4.07
  -3   7  14   18.03    3.80
  -7  -3  14   14.00    4.54
  -3   7  14   15.89    4.13
   3  -7  14   18.26    3.35
  -7  -3  14   10.78    3.86
   7   3  14   15.44    3.29
  -1   7 -14    5.50    2.38
   7   1 -14    8.37    2.41
   1  -7 -14    6.80    3.45
  -7  -1 -14    3.19    1.97
   1  -7  14    4.55    2.46
   7   1  14    4.90    2.22
   1  -7  14    3.46    2.49
  -7  -1  14    2.67    2.73
   7   1  14    5.20    2.92
  -7  -1  14    8.29    3.01
  -1   7  14    1.84    2.50
  -1   7  14    4.74    3.13
  -1  -7 -14    3.72    4.61
   1   7 -14    4.60    1.99
   7  -1 -14    3.47    2.56
  -1  -7  14    2.75    2.67
   1   7  14    6.94    2.67
   1   7  14    6.52    3.27
  -7   1  14    1.14    2.91
  -7   1  14    2.74    2.87
  -1  -7  14    6.61    2.67
   7  -1  14    8.45    2.16
   7  -1  14    5.12    2.59
   7  -3 -14   13.28    3.73
   3   7 -14   16.32    3.30
   3   7  14   20.48    3.82
   3   7  14   19.23    4.68
  -7   3  14   19.51    3.93
   7  -3  14   19.53    3.71
  -7   3  14   11.94    4.18
   7  -3  14   14.66    3.61
  -3  -7  14   11.17    3.65
   7  -5 -14   20.47    5.16
  -5  -7 -14   28.71    5.50
   5   7 -14   25.03    5.13
  -5  -7  14   31.96    6.02
   5   7  14   39.92    6.54
   7  -5  14   29.72    4.72
  -7   5  14   24.51    5.11
   5   7  14   26.33    5.28
   7  -5  14   27.83    5.15
  -7   5  14   20.20    5.33
  -5  -7  14   15.54    4.80
   7   7 -14   39.75    6.15
   7  -7 -14   30.62    6.33
  -7  -7 -14   27.78    6.56
   7  -7  14   31.93    5.62
   7   7  14   33.78    6.19
   7  -7  14   27.86    6.52
  -7   7  14   41.10    7.03
  -7  -7  14   43.39    6.93
   7   7  14   29.38    6.33
  -7  -7  14   18.85    6.97
  -8  -6 -14    9.25    3.63
   6  -8 -14    3.07    3.90
  -8  -6  14    6.21    3.65
   6  -8  14    1.02    3.75
   8   6  14    5.89    3.80
   6  -8  14    4.44    2.26
  -8  -6  14    8.20    3.48
  -6   8  14    4.30    3.55
   8   6  14    7.90    2.68
  -8  -4 -14    5.56    2.64
   4  -8 -14    4.99    3.86
   8   4 -14    9.06    3.72
   8   4  14    3.57    3.45
   8   4  14    5.31    2.34
   4  -8  14    5.15    2.42
  -8  -4  14    2.79    2.86
  -4   8  14    6.91    3.03
   4  -8  14    2.60    2.51
  -4   8  14    5.08    3.40
   8   2 -14    4.48    2.65
   2  -8 -14    5.56    3.83
  -8  -2 -14    6.12    2.33
  -2   8  14    4.16    2.81
  -8  -2  14    5.11    3.14
  -8  -2  14    5.52    3.02
   2  -8  14    8.16    2.64
   8   2  14    3.67    2.27
  -2   8  14    0.92    3.27
   2  -8  14    8.69    2.71
   8   2  14    7.62    3.29
   0   8 -14    0.04    1.82
   0  -8 -14   -0.19    3.57
   8   0 -14    2.30    2.26
   0   8  14   -0.21    3.07
   0  -8  14    0.31    2.39
  -8   0  14   -0.94    2.97
  -8   0  14   -3.09    2.87
   8   0  14   -2.41    1.88
   0   8  14   -1.16    2.42
   8   0  14    0.97    2.66
   8  -2 -14    7.70    2.82
   2   8 -14    1.90    1.94
  -2  -8 -14    8.87    4.82
  -2  -8  14    1.99    2.54
   8  -2  14    3.97    2.49
   2   8  14    4.00    3.39
  -8   2  14   -0.10    2.90
   8  -2  14    0.24    1.87
  -8   2  14    2.35    3.85
   4   8 -14    3.71    2.20
   8  -4 -14   -0.16    2.83
  -4  -8  14    0.52    2.75
   4   8  14   12.27    3.81
  -8   4  14    2.46    3.82
   8  -4  14    5.97    2.54
  -4  -8  14    8.73    3.13
   8  -4  14    5.39    1.90
   4   8  14   -0.54    2.43
  -8   4  14    4.15    3.05
   8  -6 -14    3.18    3.58
   6   8 -14    2.25    2.36
  -6  -8 -14    4.83    3.92
   6   8  14    8.44    3.95
   6   8  14    2.96    2.61
  -6  -8  14   10.34    3.37
  -6  -8  14    3.28    3.26
   8  -6  14    6.62    2.59
  -8   6  14    4.46    3.40
   8  -6  14    2.99    1.75
   8   8 -14    2.08    2.56
   8  -8 -14    5.48    3.82
  -8  -8 -14    5.99    5.31
  -8  -8  14   -2.47    3.46
   8  -8  14   -0.85    2.36
  -8   8  14    4.83    3.84
   8   8  14    4.96    2.71
   8   8  14    6.93    4.17
   8  -8  14    3.03    2.08
  -8  -8  14    1.97    3.55
  -9  -7 -14   15.29    4.69
   7  -9 -14   26.03    5.24
  -9  -7  14   10.29    4.24
   9   7  14   15.98    3.78
  -9  -7  14   16.07    4.74
  -7   9  14   20.75    4.54
   9   7  14   15.80    4.71
   7  -9  14    9.81    3.42
   7  -9  14   23.76    4.05
   5  -9 -14   18.99    4.76
  -9  -5 -14   14.38    3.86
   9   5 -14   12.26    3.67
   9   5  14   13.76    3.49
  -5   9  14   15.47    4.15
   5  -9  14   18.89    3.47
  -9  -5  14   22.21    4.60
   9   5  14   25.10    4.51
   5  -9  14   12.27    3.54
  -9  -5  14    9.60    4.06
   9   3 -14    6.88    2.74
  -9  -3 -14    7.76    2.62
   3  -9 -14    4.13    4.08
  -3   9  14    6.06    3.53
   9   3  14    8.25    2.57
  -3   9  14   12.88    3.21
   3  -9  14    9.96    2.99
  -9  -3  14    5.57    3.34
   9   3  14   14.22    3.75
   9   1 -14    4.66    2.45
   1  -9 -14    0.41    3.69
  -9  -1  14   -1.28    3.12
   9   1  14    1.57    1.99
  -1   9  14    6.60    2.76
   1  -9  14    0.29    2.48
  -9  -1  14    3.38    2.97
   9   1  14    3.19    3.02
  -1   9  14    1.36    3.27
  -1  -9 -14    1.55    3.77
   9  -1 -14    3.01    2.56
   1   9 -14    1.17    2.14
   1   9  14    7.59    2.87
  -9   1  14    0.53    3.42
  -9   1  14    4.48    3.12
  -1  -9  14    2.46    2.80
   9  -1  14    3.21    2.10
   1   9  14    6.54    3.58
   9  -1  14    6.16    2.75
  -1  -9  14    3.15    2.99
   3   9 -14    8.63    2.57
   9  -3 -14   10.14    3.41
  -3  -9 -14   10.84    4.68
   9  -3  14    7.38    2.92
   9  -3  14   10.26    2.44
   3   9  14   10.16    3.01
  -9   3  14   10.60    3.43
   3   9  14    9.89    3.97
  -3  -9  14    5.05    3.49
  -3  -9  14   13.11    3.33
  -9   3  14    1.90    3.90
   5   9 -14   13.99    3.24
   9  -5 -14    8.25    3.95
  -5  -9  14   23.54    4.02
  -5  -9  14   10.80    4.05
   5   9  14   11.77    3.36
   9  -5  14   13.04    2.92
  -9   5  14   11.52    3.97
   5   9  14    9.87    4.46
   9  -5  14   14.80    3.17
  -7  -9 -14   11.47    4.96
   9  -7 -14   19.70    4.88
   7   9 -14   16.16    3.63
  -7  -9  14   14.41    4.63
  -9   7  14   14.05    4.29
   7   9  14   16.90    3.87
  -7  -9  14   22.95    4.64
   9  -7  14   16.89    3.65
   9  -7  14   20.37    3.87
   7   9  14   17.19    7.40
 -10  -6 -14   -6.64    3.37
  10   6 -14    3.50    2.64
   6 -10 -14    2.11    4.12
 -10  -6  14    9.23    3.87
  10   6  14    0.76    3.74
 -10  -6  14    1.60    3.53
  10   6  14    7.79    2.69
   6 -10  14    0.54    2.51
  -6  10  14    5.47    3.71
   4 -10 -14   -2.01    4.01
  10   4 -14    4.50    2.59
 -10  -4 -14   -1.13    2.89
 -10  -4  14    5.54    5.88
  -4  10  14    2.60    2.99
   4 -10  14    3.55    2.62
  10   4  14    0.84    3.60
 -10  -4  14    3.37    3.34
  10   4  14    4.92    2.40
  10   2 -14   -1.27    2.62
   2 -10 -14   -1.68    3.92
 -10  -2  14    0.56    7.26
  10   2  14   -0.99    2.07
  -2  10  14    5.23    3.32
  -2  10  14    1.19    2.71
  10   2  14   -0.75    3.01
   2 -10  14    1.73    2.66
   2 -10  14   -0.21    2.60
  10   0 -14    1.64    2.71
   0 -10 -14    2.93    3.88
  10   0  14    4.54    2.06
  10   0  14    0.43    2.92
   0 -10  14    1.77    2.92
 -10   0  14    0.20    3.10
   0 -10  14    1.72    2.78
   0  10  14    0.51    2.76
 -10   0  14    3.38    3.32
   0  10  14    0.96    3.85
  10  -2 -14    4.98    2.95
  -2 -10 -14    4.67    3.74
 -10   2  14    3.17    3.28
  10  -2  14    1.75    2.03
   2  10  14    2.76    3.68
 -10   2  14   -2.41    6.12
  10  -2  14    3.85    2.77
  -2 -10  14   -6.53    4.24
  -2 -10  14    3.86    3.05
   2  10  14    8.07    3.37
   4  10 -14    2.88    2.17
  10  -4 -14    2.33    4.88
  -4 -10 -14    0.76    5.13
  -4 -10  14    1.62    3.25
  10  -4  14    4.00    2.55
  10  -4  14    3.40    2.00
 -10   4  14    3.67    3.33
  -4 -10  14    0.55    3.12
   4  10  14    2.93    2.73
   4  10  14    7.48    3.93
  10  -6 -14   -3.97    3.49
   6  10 -14    2.45    3.76
  -6 -10  14   -0.55    3.37
 -10   6  14   -1.67    3.38
   6  10  14    2.30    2.68
  10  -6  14    0.42    1.73
  -6 -10  14   -1.26    3.39
   6  10  14    3.90    4.31
  10  -6  14    4.97    2.34
   5 -11 -14   -2.89    4.17
 -11  -5 -14    4.07    4.10
  11   5 -14    4.03    2.92
 -11  -5  14    6.03    4.07
  11   5  14    5.92    4.59
  -5  11  14    5.85    3.42
   5 -11  14    0.83    2.66
   5 -11  14    7.10    2.68
  11   3 -14    2.22    2.51
   3 -11 -14   -3.30    4.14
   3 -11  14   -1.85    2.64
 -11  -3  14    1.66    4.39
  -3  11  14    4.70    2.96
 -11  -3  14   -0.23    3.46
   3 -11  14    3.10    2.64
  11   3  14    2.45    2.30
  11   3  14    3.96    3.47
   1 -11 -14    6.17    4.00
  11   1 -14    1.53    2.87
  11   1  14    2.19    2.12
 -11  -1  14   -5.18    4.28
  11   1  14    3.55    3.04
  -1  11  14    1.74    3.97
  -1  11  14   -2.69    2.71
   1 -11  14   -3.61    3.13
   1 -11  14    2.76    2.66
  -1 -11 -14   -0.45    3.86
  11  -1 -14    4.00    2.72
 -11   1  14    0.40    3.14
   1  11  14    4.90    6.73
  11  -1  14    5.70    2.94
  -1 -11  14    2.19    3.15
  -1 -11  14    4.57    2.93
   1  11  14   -0.35    3.42
  11  -1  14   -1.45    1.91
  11  -3 -14    1.17    3.27
  -3 -11 -14    6.33    4.01
  -3 -11  14   -4.06    3.04
 -11   3  14   -5.53    3.16
   3  11  14   -1.13    2.65
  -3 -11  14    2.23    2.87
   3  11  14    1.32    4.06
  11  -3  14    1.73    1.98
  11  -3  14    3.94    2.82
  11  -5 -14    0.91    3.47
   5  11 -14    3.41    2.43
  -5 -11 -14   -1.99    4.61
   5  11  14    3.57    4.64
  11  -5  14    4.42    2.46
  -5 -11  14    9.80    3.33
 -11   5  14    1.72    3.62
  11  -5  14    1.73    1.87
  -5 -11  14   -0.29    3.58
   2 -12 -14   -0.18    4.07
   2 -12  14    1.15    3.19
   0 -12 -14   -6.32    3.88
  12   0 -14   -2.91    2.74
   0  12  14   -0.08    3.01
  12   0  14    1.30    3.07
   0 -12  14   -3.05    3.15
   0 -12  14   -1.78    2.58
  12   0  14   -0.90    2.02
  -2 -12 -14   -0.69    3.81
  -2 -12  14   -2.66    3.35
 -12   2  14   -0.93    3.50
   0   1 -15    2.77    1.95
   1   0 -15    0.91    1.95
   0  -1 -15    2.26    2.07
  -1   0 -15    3.09    1.95
   0  -1  15    0.02    2.44
   1   0  15   -0.25    2.07
   0   1  15   -1.03    2.23
  -1   0  15   -4.34    2.02
   1   0  15    2.03    2.54
   0   1  15   -1.87    2.59
  -1   0  15   -0.79    2.54
   0  -1  15   -0.43    1.98
   2   1 -15   13.28    3.26
   1  -2 -15   17.13    3.52
  -2  -1 -15   12.53    3.28
  -1   2 -15   13.24    3.12
   1  -2  15   16.11    3.36
  -2  -1  15   15.44    3.71
   2   1  15   20.17    3.96
   1  -2  15   13.42    3.59
  -1   2  15   15.87    3.94
   2   1  15   20.02    3.59
  -2  -1  15   21.12    3.82
  -1   2  15   20.37    3.82
  -1  -2 -15   12.00    3.21
   2  -1 -15   12.75    3.20
   1   2 -15    9.67    4.27
  -2   1 -15   12.97    3.02
  -1  -2  15   19.31    3.58
  -2   1  15   16.67    3.76
  -1  -2  15   13.62    3.33
  -2   1  15   14.41    3.37
   1   2  15   12.63    3.82
   2  -1  15   14.87    3.51
   2  -1  15   15.59    3.20
   1   2  15   15.29    3.44
  -3  -2 -15    3.89    2.24
   3   2 -15    4.39    2.34
  -2   3 -15    6.89    3.12
  -3  -2  15    4.54    2.66
   3   2  15    4.52    2.34
  -2   3  15    1.28    3.01
   2  -3  15    4.75    2.76
  -2   3  15    4.19    2.83
  -3  -2  15    4.58    2.72
   3   2  15   11.08    3.10
   2  -3  15    3.05    2.22
   0  -3 -15   -4.18    2.16
   0   3 -15    0.80    1.81
  -3   0 -15    1.95    1.82
   3   0 -15   -1.00    1.98
   3   0  15    1.51    2.58
   0   3  15   -2.61    2.31
   3   0  15    2.48    2.12
   0  -3  15    1.24    2.30
  -3   0  15   -0.34    2.39
  -3   0  15   -2.23    2.85
   0  -3  15    2.33    2.20
   0   3  15    2.09    2.93
  -2  -3 -15    4.04    2.50
   3  -2  15    6.17    2.74
  -2  -3  15    4.73    2.59
   2   3  15    5.94    2.46
   2   3  15    3.80    3.04
  -2  -3  15    5.90    2.64
  -3   2  15    5.53    2.69
   3  -2  15    6.10    2.32
  -3   2  15    4.69    3.27
   4   3 -15    7.92    2.39
   3  -4 -15    7.07    3.52
  -4  -3 -15    6.48    2.67
   3  -4  15    9.05    2.71
   3  -4  15    9.85    2.58
  -4  -3  15   10.14    2.94
  -3   4  15    2.92    3.37
   4   3  15   12.02    2.86
  -4  -3  15    2.75    2.86
   4   3  15    7.67    3.34
  -3   4  15   12.42    3.88
   4   1 -15   24.07    5.01
  -1   4 -15   26.30    4.95
  -4  -1 -15   22.56    4.87
   4   1  15   25.81    4.96
  -4  -1  15   30.48    5.54
  -1   4  15   23.60    5.26
   1  -4  15   23.45    4.53
   1  -4  15   19.73    5.51
   4   1  15   27.85    5.55
  -1   4  15   28.99    5.45
  -1  -4 -15   24.40    4.85
   1   4 -15   23.13    4.82
  -4   1  15   32.02    4.94
   4  -1  15   23.71    4.89
  -1  -4  15   18.77    4.54
   4  -1  15   24.36    4.70
   1   4  15   26.03    5.07
   1   4  15   25.65    4.97
  -1  -4  15   24.66    4.55
  -4   1  15   17.79    4.81
   3   4 -15    9.50    3.71
   4  -3 -15    9.40    2.87
  -3  -4 -15    3.15    3.06
  -3  -4  15    9.00    2.91
  -4   3  15    8.59    3.45
   4  -3  15    7.89    2.50
   4  -3  15   13.55    3.15
  -4   3  15    9.36    5.14
   3   4  15    6.96    2.82
  -3  -4  15   10.03    3.09
   3   4  15   12.32    3.47
   4  -5 -15    0.03    3.29
  -5  -4 -15    4.28    2.73
   5   4 -15    5.50    2.20
   5   4  15   -0.27    2.34
   4  -5  15    0.29    2.07
   4  -5  15    3.14    2.44
  -4   5  15    8.79    3.65
  -4   5  15    2.44    3.94
   5   4  15    3.40    3.41
  -5  -4  15    4.84    2.96
  -5  -4  15    6.64    3.11
  -5  -2 -15   -0.74    2.14
   2  -5 -15   -0.06    3.81
   5   2 -15    4.23    2.87
   2  -5  15   -0.87    2.26
   2  -5  15    2.06    2.01
  -5  -2  15   -0.35    2.59
  -5  -2  15   -0.23    2.54
  -2   5  15    1.69    3.18
   5   2  15    3.53    2.26
  -2   5  15    3.94    2.67
   5   2  15    2.80    2.85
   0   5 -15   -0.92    1.99
  -5   0 -15    1.93    2.02
   0  -5  15   -0.96    2.19
  -5   0  15    1.84    2.62
   0   5  15    1.25    2.35
   0  -5  15    1.03    2.33
   5   0  15    0.19    2.62
  -5   0  15    0.41    2.70
   5   0  15   -0.89    2.01
   0   5  15   -1.16    2.95
   2   5 -15    4.04    2.07
   5  -2 -15    4.16    2.48
  -2  -5 -15    3.75    2.91
  -2  -5  15    5.81    2.71
  -5   2  15    2.84    3.21
   2   5  15    2.23    2.48
   5  -2  15    1.13    2.21
   5  -2  15    5.59    2.63
   2   5  15   -0.70    3.22
  -2  -5  15   -0.39    2.56
  -5   2  15   -7.13    4.29
   4   5 -15    5.40    2.44
   5  -4 -15   -1.40    2.63
  -4  -5 -15    7.30    3.19
  -4  -5  15    0.02    2.73
  -5   4  15   -2.05    3.20
   4   5  15    0.69    3.45
   5  -4  15    0.31    1.74
  -4  -5  15    4.15    2.79
  -5   4  15   -0.32    3.23
   5  -4  15    3.15    2.60
   4   5  15    3.46    2.48
  -6  -5 -15    1.70    3.08
   6   5 -15    2.45    2.41
   5  -6 -15    7.06    3.56
   6   5  15    7.20    3.79
  -5   6  15    5.76    3.92
  -5   6  15   -2.17    2.97
   5  -6  15    5.42    2.14
  -6  -5  15   -0.48    4.57
   5  -6  15    7.97    2.79
   6   5  15    0.53    2.45
   3  -6 -15   20.50    4.31
  -6  -3 -15    6.09    3.16
  -6  -3  15   19.23    3.98
   3  -6  15   15.68    3.53
   6   3  15   17.66    3.53
  -6  -3  15   13.02    3.80
   6   3  15   21.51    4.20
  -3   6  15   15.59    4.36
   3  -6  15   17.63    3.38
  -6  -1 -15   36.18    5.98
   6   1 -15   37.01    6.82
   1  -6 -15   38.92    8.51
  -1   6  15   40.01    6.62
   1  -6  15   39.42    6.34
  -1   6  15   27.56    6.43
  -6  -1  15   24.65    6.20
   1  -6  15   30.94    6.51
   6   1  15   36.76    6.24
   6   1  15   34.57    6.76
  -6  -1  15   43.31    6.82
   6  -1 -15   33.35    6.20
   1   6 -15   34.37    5.78
  -1  -6  15   28.00    5.77
   1   6  15   33.83    6.26
  -6   1  15   26.89    6.11
   6  -1  15   31.33    5.74
   1   6  15   39.42    6.28
   6  -1  15   31.67    6.29
  -1  -6  15   34.97    6.25
  -6   1  15   38.88    7.35
   3   6 -15   15.56    3.12
   6  -3 -15   13.19    3.52
  -3  -6 -15   10.51    4.07
  -3  -6  15   17.01    3.58
  -3  -6  15    6.32    3.37
   6  -3  15   12.06    2.89
   3   6  15   17.09    3.46
  -6   3  15    9.83    4.21
   3   6  15   19.28    4.60
   6  -3  15   14.43    3.52
  -6   3  15   17.79    4.07
   6  -5 -15    6.74    3.37
   5   6 -15    6.41    2.35
  -5  -6 -15    1.71    3.68
   5   6  15    5.31    3.84
  -6   5  15    2.92    3.48
   6  -5  15   -0.54    1.88
  -5  -6  15    3.11    2.86
  -6   5  15    7.87    3.96
   6  -5  15    8.86    2.75
   5   6  15    6.44    2.65
  -7  -6 -15   -2.24    3.40
   7   6 -15    4.65    2.34
   6  -7 -15    4.80    3.51
  -7  -6  15   -3.77    3.73
   7   6  15    6.88    2.58
  -6   7  15   -1.10    3.06
   6  -7  15    0.15    2.08
   7   6  15    2.51    3.85
  -7  -6  15   -4.27    2.97
   6  -7  15   -2.82    2.53
   4  -7 -15   -4.21    3.39
  -7  -4 -15   -0.04    2.69
  -4   7  15   -0.30    3.29
   7   4  15    1.06    2.29
   4  -7  15   -2.68    2.11
  -7  -4  15   -4.47    2.87
   4  -7  15   -3.12    2.46
  -4   7  15    4.02    3.66
   7   4  15    0.56    3.55
  -7  -2 -15    2.07    2.37
   7   2 -15    1.63    2.75
   2  -7 -15   -4.82    3.43
  -7  -2  15    0.00    2.89
   2  -7  15    2.22    2.40
  -2   7  15    2.62    3.17
   7   2  15    2.44    2.16
   2  -7  15    0.13    2.43
   7   2  15    1.15    3.19
  -7  -2  15    3.53    3.04
  -2   7  15    0.83    3.42
   7   0 -15    1.59    2.19
   0   7 -15    1.86    2.47
   0   7  15   -0.95    3.39
  -7   0  15    1.51    3.01
   7   0  15   -0.07    2.12
   0   7  15   -0.10    2.60
  -7   0  15   -1.35    2.79
   7   0  15    1.41    2.91
   0  -7  15   -1.11    2.46
   0  -7  15   -0.67    2.50
   7  -2 -15   -0.31    2.43
   2   7 -15    0.86    2.08
   7  -2  15   -0.40    1.88
   2   7  15    3.37    3.57
   7  -2  15    7.28    2.75
  -2  -7  15    3.14    2.63
  -7   2  15    0.93    3.34
   2   7  15    4.01    2.76
  -7   2  15    2.00    3.45
  -4  -7 -15    0.30    3.56
   4   7 -15    2.88    2.31
   7  -4 -15   -1.34    2.65
   7  -4  15   -0.17    1.82
  -7   4  15   -2.33    2.93
   4   7  15    3.44    6.13
   4   7  15   -4.29    2.52
  -7   4  15    1.80    3.63
   7  -4  15    0.40    2.66
  -4  -7  15    1.05    2.76
   6   7 -15    1.45    2.46
  -6  -7 -15    3.84    5.71
   7  -6 -15    0.90    3.36
   7  -6  15   -2.40    1.93
   6   7  15    0.15    4.07
  -6  -7  15    0.81    3.22
   6   7  15   -0.81    2.52
  -7   6  15    2.53    3.25
  -6  -7  15    0.70    3.14
   7  -6  15    1.95    3.00
   5  -8 -15   -0.57    3.76
  -8  -5 -15    3.51    3.03
   8   5  15    4.24    3.76
  -8  -5  15    0.09    3.14
   5  -8  15    1.09    2.37
  -8  -5  15    1.80    4.08
  -5   8  15    7.09    3.56
   5  -8  15    1.69    2.50
   3  -8 -15    5.77    4.00
  -8  -3 -15    7.96    2.88
   3  -8  15   10.34    2.97
  -3   8  15   10.43    3.87
   3  -8  15    8.81    3.01
  -8  -3  15    5.89    3.64
  -3   8  15    6.67    4.17
   8   3  15    8.18    4.99
   8   3  15   10.35    2.81
   8   1 -15   21.06    4.56
   1  -8 -15   21.16    5.36
  -1   8  15   30.03    5.55
   8   1  15   22.51    4.35
  -8  -1  15   14.40    4.95
   1  -8  15   21.21    4.57
   1  -8  15   34.05    4.74
  -8  -1  15   28.67    5.08
   8   1  15   22.90    5.02
  -1   8  15   20.47    5.32
   8  -1 -15   29.37    5.59
   1   8 -15   24.30    5.02
  -8   1  15   30.52    7.84
   8  -1  15   22.69    5.02
   1   8  15   28.33    5.62
   8  -1  15   22.49    5.03
   1   8  15   32.21    5.20
  -1  -8  15   21.65    5.62
  -8   1  15   20.69    8.78
   3   8 -15    7.37    2.62
   8  -3 -15   12.99    3.37
  -8   3  15    6.09    4.03
   3   8  15    7.70    4.33
   8  -3  15    8.95    2.40
  -3  -8  15   10.38    3.71
   8  -3  15   10.46    3.06
   3   8  15    6.96    3.08
  -8   3  15    3.83    3.44
  -3  -8  15    6.53    3.15
   8  -5 -15    3.19    2.89
  -5  -8 -15   -1.00    4.07
  -8   5  15    0.31    3.16
  -5  -8  15    3.12    3.11
   5   8  15    2.29    4.29
   8  -5  15    3.35    2.04
  -5  -8  15    5.35    3.43
   8  -5  15    2.28    4.22
   2  -9 -15   -1.11    3.75
   9   2 -15    1.02    2.43
  -2   9  15    0.86    3.58
   2  -9  15   -1.58    2.51
  -9  -2  15    1.72    3.54
  -2   9  15    3.90    3.62
   9   2  15    1.57    3.51
   9   2  15    0.21    2.23
   0  -9 -15    0.34    3.84
   9   0 -15    0.10    2.39
   9   0  15    8.07    3.22
   0  -9  15   -1.05    2.74
  -9   0  15    3.25    3.86
   0   9  15    0.67    2.81
   0   9  15    4.13    3.82
  -9   0  15   -0.35    3.48
   9   0  15    2.22    2.22
  -2  -9 -15   -3.48    6.61
   2   9 -15   -0.86    2.34
   9  -2 -15    1.30    2.77
   2   9  15    2.57    2.89
  -9   2  15   -2.34    3.29
   9  -2  15    4.50    2.81
  -9   2  15    3.54    4.22
  -2  -9  15    3.07    2.94
   9  -2  15   -2.81    2.23
   2   9  15    2.71    4.25
  -2  -9  15   -0.81    2.90
   0   0 -16   35.88    6.35
   0   0  16   33.17    6.98
   0   0  16   38.50    6.58
   1  -1 -16   19.12    4.33
   1   1 -16   21.88    4.43
  -1  -1 -16   19.96    4.27
  -1   1 -16   28.85    4.41
  -1   1  16   16.72    4.87
   1  -1  16   25.97    4.86
   1   1  16   29.01    4.63
  -1  -1  16   24.83    4.64
  -1  -1  16   21.47    4.79
   1   1  16   24.38    4.94
  -1   1  16   24.46    4.67
   1  -1  16   23.01    4.40
   0  -2 -16   27.63    5.72
   0   2 -16   27.05    5.36
   2   0 -16   26.24    5.46
  -2   0 -16   25.83    5.34
   0  -2  16   29.77    5.42
   2   0  16   28.76    5.58
   0   2  16   30.03    5.83
  -2   0  16   25.63    5.55
  -2   0  16   27.26    5.88
   2   0  16   30.78    5.52
   0   2  16   27.36    5.85
   0  -2  16   35.60    5.30
  -2  -2 -16   20.48    4.28
   2  -2 -16   24.11    4.45
   2   2 -16   18.25    5.29
   2  -2  16   18.41    4.65
  -2  -2  16   16.68    4.55
  -2   2  16   23.76    4.94
  -2   2  16   24.35    4.57
   2  -2  16   19.71    4.19
  -2  -2  16   26.57    4.58
   2   2  16   25.73    4.52
   2   2  16   25.39    4.96
   3   1 -16    7.21    2.65
  -3  -1 -16    8.81    2.50
   1  -3 -16    8.04    2.79
  -1   3  16    3.44    2.96
   3   1  16   11.24    3.51
   3   1  16    8.89    2.88
  -3  -1  16    9.42    3.32
   1  -3  16    5.03    2.68
  -1   3  16    8.09    3.71
  -3  -1  16   11.81    3.10
   1  -3  16    6.62    3.05
   3  -1 -16    6.35    2.52
  -3   1 -16    5.67    2.85
   1   3 -16    9.54    2.53
  -1  -3 -16    6.48    2.73
  -1  -3  16    3.65    2.84
   3  -1  16    6.87    3.18
  -1  -3  16    6.59    2.87
  -3   1  16    9.74    3.93
  -3   1  16   11.17    3.14
   3  -1  16    8.46    2.56
   1   3  16    7.71    3.66
   1   3  16    5.91    2.97
  -3  -3 -16    0.55    2.40
  -3  -3  16    1.45    2.83
  -3  -3  16    0.16    2.58
   3   3  16    1.19    3.15
   3  -3  16    3.16    2.91
   3  -3  16    0.86    2.15
  -3   3  16    5.22    3.58
  -3   3  16    0.81    2.64
   3   3  16    0.97    2.30
  -4  -2 -16    8.49    2.86
   4   2 -16    6.04    2.80
  -2   4  16   15.43    3.68
   2  -4  16   12.63    2.87
   4   2  16   13.16    3.66
  -2   4  16   10.40    4.15
  -4  -2  16   11.88    3.37
   2  -4  16    7.74    3.18
   4   2  16   10.22    2.85
   4   0 -16   15.89    3.37
   0   4 -16    7.84    4.75
  -4   0 -16   13.02    3.28
   0  -4 -16   11.87    3.61
   4   0  16   17.48    3.95
   0  -4  16    9.97    3.48
   0  -4  16   15.97    3.51
   4   0  16   14.50    3.42
   0   4  16   19.48    3.74
  -4   0  16    9.05    4.01
   0   4  16   14.66    4.27
  -4   0  16   17.80    3.85
  -2  -4 -16    8.14    3.29
   2   4 -16    9.59    2.83
   2   4  16    8.23    2.91
   4  -2  16    7.50    2.75
   2   4  16   11.90    3.78
  -2  -4  16    7.59    3.24
  -4   2  16    6.06    3.76
  -4   2  16    9.21    3.42
  -2  -4  16   11.64    3.18
   4  -2  16   12.79    3.32
  -5  -1 -16    2.41    2.36
   5   1 -16    4.24    2.91
  -5  -1  16    1.17    3.20
   1  -5  16    4.80    2.55
  -5  -1  16    2.08    2.84
   5   1  16    3.04    3.06
   5   1  16    0.73    2.12
  -1   5  16   -1.43    2.59
   1  -5  16    1.06    2.42
  -1   5  16    5.95    3.64
  -1  -5 -16    3.92    3.18
   1   5 -16    4.44    2.57
  -5   1  16    5.47    3.49
  -1  -5  16   -0.35    2.47
  -1  -5  16    2.06    2.70
  -5   1  16   -0.41    2.72
   1   5  16    1.77    3.49
   1   5  16   -0.05    2.49
   5  -1  16    6.82    2.96
   5  -1  16   -0.68    2.35
   0   0   0    0.00    0.00
;
_shelx_hkl_checksum   11615

_shelx_fab_file
;
    2    2    0   -206.92      0.00
   -2    4    0     -5.25      0.00
    0    4    0      4.06      0.00
    2    4    0     -3.64      0.00
    4    4    0     -9.06      0.00
   -4    6    0      4.31      0.00
   -2    6    0     44.12      0.00
    0    6    0     64.75      0.00
    2    6    0     34.71      0.00
    4    6    0     -2.73      0.00
    6    6    0     -8.53      0.00
   -6    8    0      0.28      0.00
   -4    8    0      0.47      0.00
   -2    8    0      5.29      0.00
    0    8    0     13.64      0.00
    2    8    0     17.45      0.00
    4    8    0      8.68      0.00
    6    8    0      0.02      0.00
    8    8    0     -0.65      0.00
   -8   10    0      3.20      0.00
   -6   10    0      4.15      0.00
   -4   10    0     -5.36      0.00
   -2   10    0    -24.15      0.00
    0   10    0    -35.25      0.00
    2   10    0    -26.98      0.00
    4   10    0     -6.43      0.00
    6   10    0      5.85      0.00
    8   10    0      5.15      0.00
   10   10    0      2.34      0.00
  -10   12    0      1.64      0.00
   -8   12    0     -1.40      0.00
   -6   12    0     -1.49      0.00
   -4   12    0      4.58      0.00
   -2   12    0      6.58      0.00
    0   12    0      3.90      0.00
    2   12    0      4.41      0.00
    4   12    0      1.75      0.00
    6   12    0     -5.36      0.00
    8   12    0     -6.32      0.00
   10   12    0     -2.10      0.00
   12   12    0      1.63      0.00
  -12   14    0     -1.75      0.00
  -10   14    0     -5.19      0.00
   -8   14    0     -7.58      0.00
   -6   14    0     -5.45      0.00
   -4   14    0     -0.82      0.00
   -2   14    0      5.55      0.00
    0   14    0     10.14      0.00
    2   14    0      7.14      0.00
    4   14    0      2.78      0.00
    6   14    0      1.80      0.00
    8   14    0      0.23      0.00
   10   14    0      0.22      0.00
   12   14    0      0.70      0.00
   14   14    0     -0.50      0.00
  -14   16    0     -0.76      0.00
  -12   16    0      0.05      0.00
  -10   16    0      4.92      0.00
   -8   16    0      8.61      0.00
   -6   16    0      2.19      0.00
   -4   16    0     -3.73      0.00
   -2   16    0     -0.24      0.00
    0   16    0      1.59      0.00
    2   16    0     -1.37      0.00
    4   16    0     -0.90      0.00
    6   16    0      4.38      0.00
    8   16    0      6.60      0.00
   10   16    0      2.30      0.00
   12   16    0     -0.01      0.00
   14   16    0      1.84      0.00
   16   16    0      1.13      0.00
  -14   18    0      1.06      0.00
  -12   18    0     -2.71      0.00
  -10   18    0     -6.70      0.00
   -8   18    0     -4.21      0.00
   -6   18    0      5.97      0.00
   -4   18    0      5.35      0.00
   -2   18    0     -5.00      0.00
    0   18    0     -6.15      0.00
    2   18    0     -2.18      0.00
    4   18    0     -1.72      0.00
    6   18    0     -4.57      0.00
    8   18    0     -7.22      0.00
   10   18    0     -6.35      0.00
   12   18    0     -4.51      0.00
   14   18    0     -3.33      0.00
  -10   20    0      5.83      0.00
   -8   20    0      1.10      0.00
   -6   20    0     -4.80      0.00
   -4   20    0      0.91      0.00
   -2   20    0      4.93      0.00
    0   20    0     -1.76      0.00
    2   20    0     -1.66      0.00
    4   20    0     -0.21      0.00
    6   20    0     -1.86      0.00
    8   20    0      3.27      0.00
   10   20    0      7.66      0.00
   -6   22    0      0.99      0.00
   -4   22    0     -1.94      0.00
   -2   22    0      0.56      0.00
    0   22    0      6.09      0.00
    2   22    0      0.60      0.00
    4   22    0     -0.96      0.00
    6   22    0      3.96      0.00
    0    1    1    -24.14      0.00
   -1    2    1    -26.84      0.00
    1    2    1    -16.12      0.00
   -2    3    1    -58.61      0.00
    0    3    1    -75.10      0.00
    2    3    1    -30.68      0.00
   -3    4    1     10.37      0.00
   -1    4    1      8.71      0.00
    1    4    1     -1.44      0.00
    3    4    1    -18.63      0.00
   -4    5    1     24.08      0.00
   -2    5    1     71.57      0.00
    0    5    1     89.46      0.00
    2    5    1     45.46      0.00
    4    5    1     -3.38      0.00
   -5    6    1    -12.80      0.00
   -3    6    1     -8.23      0.00
   -1    6    1      6.98      0.00
    1    6    1      6.11      0.00
    3    6    1      0.89      0.00
    5    6    1      5.67      0.00
   -6    7    1     -4.39      0.00
   -4    7    1    -12.95      0.00
   -2    7    1    -21.84      0.00
    0    7    1    -17.97      0.00
    2    7    1    -12.21      0.00
    4    7    1     -8.54      0.00
    6    7    1     -0.43      0.00
   -7    8    1      2.21      0.00
   -5    8    1      1.48      0.00
   -3    8    1     -1.89      0.00
   -1    8    1     -0.17      0.00
    1    8    1      5.49      0.00
    3    8    1      1.09      0.00
    5    8    1     -6.92      0.00
    7    8    1     -2.67      0.00
   -8    9    1     -4.05      0.00
   -6    9    1     -4.75      0.00
   -4    9    1      0.89      0.00
   -2    9    1     -7.18      0.00
    0    9    1    -19.56      0.00
    2    9    1     -7.32      0.00
    4    9    1     10.83      0.00
    6    9    1      8.42      0.00
    8    9    1      0.42      0.00
   -9   10    1     -0.58      0.00
   -7   10    1      3.45      0.00
   -5   10    1      4.74      0.00
   -3   10    1      1.97      0.00
   -1   10    1     -1.30      0.00
    1   10    1     -0.87      0.00
    3   10    1      3.58      0.00
    5   10    1      4.28      0.00
    7   10    1      0.78      0.00
    9   10    1      2.08      0.00
  -10   11    1     -4.74      0.00
   -8   11    1      1.70      0.00
   -6   11    1      6.52      0.00
   -4   11    1      1.20      0.00
   -2   11    1      0.38      0.00
    0   11    1      6.11      0.00
    2   11    1      2.73      0.00
    4   11    1     -5.52      0.00
    6   11    1     -7.06      0.00
    8   11    1     -3.45      0.00
   10   11    1      1.71      0.00
  -11   12    1      2.37      0.00
   -9   12    1     -0.24      0.00
   -7   12    1     -5.24      0.00
   -5   12    1     -3.59      0.00
   -3   12    1      1.48      0.00
   -1   12    1      1.18      0.00
    1   12    1     -1.84      0.00
    3   12    1     -2.62      0.00
    5   12    1     -1.10      0.00
    7   12    1     -0.09      0.00
    9   12    1     -1.84      0.00
   11   12    1     -1.59      0.00
  -12   13    1     -1.62      0.00
  -10   13    1      3.62      0.00
   -8   13    1      2.89      0.00
   -6   13    1     -1.99      0.00
   -4   13    1      1.88      0.00
   -2   13    1     11.49      0.00
    0   13    1     11.49      0.00
    2   13    1      4.00      0.00
    4   13    1      0.85      0.00
    6   13    1      2.78      0.00
    8   13    1      2.78      0.00
   10   13    1     -1.08      0.00
   12   13    1     -0.74      0.00
  -13   14    1      1.94      0.00
  -11   14    1      0.94      0.00
   -9   14    1     -0.34      0.00
   -7   14    1      1.24      0.00
   -5   14    1      3.41      0.00
   -3   14    1      0.38      0.00
   -1   14    1     -5.11      0.00
    1   14    1     -5.76      0.00
    3   14    1     -0.95      0.00
    5   14    1      2.44      0.00
    7   14    1      1.19      0.00
    9   14    1     -0.98      0.00
   11   14    1     -3.04      0.00
   13   14    1     -4.64      0.00
  -14   15    1      2.73      0.00
  -12   15    1      1.47      0.00
  -10   15    1     -2.54      0.00
   -8   15    1     -4.57      0.00
   -6   15    1     -1.56      0.00
   -4   15    1     -2.72      0.00
   -2   15    1    -10.46      0.00
    0   15    1    -11.27      0.00
    2   15    1     -3.89      0.00
    4   15    1      0.61      0.00
    6   15    1     -0.07      0.00
    8   15    1     -0.13      0.00
   10   15    1      1.84      0.00
   12   15    1     -0.31      0.00
   14   15    1     -2.99      0.00
  -15   16    1      2.04      0.00
  -13   16    1      3.80      0.00
  -11   16    1      1.12      0.00
   -9   16    1      0.61      0.00
   -7   16    1     -0.04      0.00
   -5   16    1     -3.41      0.00
   -3   16    1     -0.67      0.00
   -1   16    1      6.06      0.00
    1   16    1      4.42      0.00
    3   16    1     -3.15      0.00
    5   16    1     -5.07      0.00
    7   16    1     -2.17      0.00
    9   16    1     -0.97      0.00
   11   16    1     -0.46      0.00
   13   16    1      0.25      0.00
   15   16    1     -0.58      0.00
  -14   17    1     -0.63      0.00
  -12   17    1     -0.91      0.00
  -10   17    1     -0.15      0.00
   -8   17    1      3.12      0.00
   -6   17    1      3.93      0.00
   -4   17    1      2.88      0.00
   -2   17    1      2.30      0.00
    0   17    1      1.05      0.00
    2   17    1      1.12      0.00
    4   17    1      2.06      0.00
    6   17    1      2.30      0.00
    8   17    1     -0.27      0.00
   10   17    1     -4.18      0.00
   12   17    1     -1.59      0.00
   14   17    1      3.47      0.00
  -13   18    1     -8.47      0.00
  -11   18    1     -3.99      0.00
   -9   18    1      2.35      0.00
   -7   18    1      5.28      0.00
   -5   18    1      3.27      0.00
   -3   18    1     -2.77      0.00
   -1   18    1     -3.71      0.00
    1   18    1      0.52      0.00
    3   18    1      1.66      0.00
    5   18    1     -0.17      0.00
    7   18    1     -0.42      0.00
    9   18    1      2.71      0.00
   11   18    1      6.03      0.00
   13   18    1      5.97      0.00
  -12   19    1      1.86      0.00
  -10   19    1      3.07      0.00
   -8   19    1     -0.72      0.00
   -6   19    1     -2.16      0.00
   -4   19    1     -0.49      0.00
   -2   19    1      2.25      0.00
    0   19    1      3.51      0.00
    2   19    1     -1.58      0.00
    4   19    1     -5.05      0.00
    6   19    1     -2.41      0.00
    8   19    1      2.79      0.00
   10   19    1      6.48      0.00
   12   19    1      3.61      0.00
  -11   20    1      1.97      0.00
   -9   20    1     -3.52      0.00
   -7   20    1     -6.59      0.00
   -5   20    1     -2.91      0.00
   -3   20    1      1.47      0.00
   -1   20    1     -1.52      0.00
    1   20    1     -0.86      0.00
    3   20    1      5.88      0.00
    5   20    1      5.89      0.00
    7   20    1      2.93      0.00
    9   20    1      0.77      0.00
   11   20    1     -3.69      0.00
   -8   21    1      1.00      0.00
   -6   21    1     -1.04      0.00
   -4   21    1     -1.99      0.00
   -2   21    1      1.05      0.00
    0   21    1      2.92      0.00
    2   21    1      6.77      0.00
    4   21    1      5.63      0.00
    6   21    1     -2.12      0.00
    8   21    1     -5.99      0.00
   -5   22    1     -0.89      0.00
   -3   22    1     -1.85      0.00
   -1   22    1      0.40      0.00
    1   22    1     -1.53      0.00
    3   22    1     -4.23      0.00
    5   22    1      0.17      0.00
    7   22    1      1.15      0.00
   -2   23    1     -5.13      0.00
    0   23    1     -7.42      0.00
    2   23    1     -8.23      0.00
    1    1    2     -4.29      0.00
    0    2    2     -0.94      0.00
    2    2    2     -9.90      0.00
   -1    3    2      5.90      0.00
    1    3    2     -3.41      0.00
    3    3    2      9.35      0.00
   -2    4    2     -4.30      0.00
    0    4    2      5.82      0.00
    2    4    2     12.37      0.00
    4    4    2      3.86      0.00
   -3    5    2    -16.17      0.00
   -1    5    2     -7.17      0.00
    1    5    2      8.06      0.00
    3    5    2      3.21      0.00
    5    5    2     -4.21      0.00
   -4    6    2      0.75      0.00
   -2    6    2      3.80      0.00
    0    6    2     -3.53      0.00
    2    6    2     -8.37      0.00
    4    6    2     -1.64      0.00
    6    6    2      2.78      0.00
   -5    7    2      0.17      0.00
   -3    7    2      3.88      0.00
   -1    7    2      7.48      0.00
    1    7    2      2.16      0.00
    3    7    2     -6.57      0.00
    5    7    2     -6.17      0.00
    7    7    2     -0.03      0.00
   -6    8    2      1.09      0.00
   -4    8    2     -4.12      0.00
   -2    8    2    -10.49      0.00
    0    8    2     -5.60      0.00
    2    8    2      2.13      0.00
    4    8    2      1.82      0.00
    6    8    2     -1.27      0.00
    8    8    2     -0.87      0.00
   -7    9    2     -0.52      0.00
   -5    9    2      5.00      0.00
   -3    9    2      5.90      0.00
   -1    9    2     -2.63      0.00
    1    9    2     -2.09      0.00
    3    9    2      6.60      0.00
    5    9    2      4.96      0.00
    7    9    2     -1.24      0.00
    9    9    2     -1.17      0.00
   -8   10    2      1.59      0.00
   -6   10    2      1.17      0.00
   -4   10    2      3.06      0.00
   -2   10    2      8.34      0.00
    0   10    2      6.00      0.00
    2   10    2     -1.33      0.00
    4   10    2     -4.32      0.00
    6   10    2     -3.27      0.00
    8   10    2     -0.92      0.00
   10   10    2      0.81      0.00
   -9   11    2      0.71      0.00
   -7   11    2     -1.18      0.00
   -5   11    2     -4.94      0.00
   -3   11    2     -5.19      0.00
   -1   11    2     -0.69      0.00
    1   11    2     -1.84      0.00
    3   11    2     -4.54      0.00
    5   11    2      0.23      0.00
    7   11    2      4.55      0.00
    9   11    2      4.32      0.00
   11   11    2      3.23      0.00
  -10   12    2      1.94      0.00
   -8   12    2      1.35      0.00
   -6   12    2     -0.41      0.00
   -4   12    2     -3.49      0.00
   -2   12    2     -5.76      0.00
    0   12    2     -3.04      0.00
    2   12    2     -0.44      0.00
    4   12    2     -0.40      0.00
    6   12    2      2.03      0.00
    8   12    2      3.10      0.00
   10   12    2      0.73      0.00
   12   12    2      0.72      0.00
  -11   13    2     -2.01      0.00
   -9   13    2     -3.02      0.00
   -7   13    2     -1.72      0.00
   -5   13    2      0.29      0.00
   -3   13    2      1.53      0.00
   -1   13    2     -1.35      0.00
    1   13    2     -3.72      0.00
    3   13    2     -1.63      0.00
    5   13    2     -1.08      0.00
    7   13    2     -4.66      0.00
    9   13    2     -7.46      0.00
   11   13    2     -5.17      0.00
   13   13    2      0.14      0.00
  -12   14    2      0.27      0.00
  -10   14    2     -3.19      0.00
   -8   14    2     -6.28      0.00
   -6   14    2     -2.50      0.00
   -4   14    2      3.67      0.00
   -2   14    2      2.96      0.00
    0   14    2     -0.55      0.00
    2   14    2      5.50      0.00
    4   14    2     13.46      0.00
    6   14    2      7.80      0.00
    8   14    2     -2.28      0.00
   10   14    2     -4.55      0.00
   12   14    2     -2.98      0.00
   14   14    2      0.13      0.00
  -13   15    2     -2.18      0.00
  -11   15    2      1.85      0.00
   -9   15    2      3.67      0.00
   -7   15    2      3.03      0.00
   -5   15    2      1.71      0.00
   -3   15    2     -0.22      0.00
   -1   15    2      1.87      0.00
    1   15    2      4.50      0.00
    3   15    2      0.93      0.00
    5   15    2     -4.07      0.00
    7   15    2     -3.83      0.00
    9   15    2      1.59      0.00
   11   15    2      6.97      0.00
   13   15    2      5.38      0.00
   15   15    2     -0.54      0.00
  -14   16    2      3.19      0.00
  -12   16    2      3.04      0.00
  -10   16    2      1.91      0.00
   -8   16    2      3.31      0.00
   -6   16    2      2.89      0.00
   -4   16    2     -0.33      0.00
   -2   16    2     -0.26      0.00
    0   16    2      0.49      0.00
    2   16    2     -7.23      0.00
    4   16    2    -14.03      0.00
    6   16    2     -7.18      0.00
    8   16    2      2.47      0.00
   10   16    2      3.82      0.00
   12   16    2      1.58      0.00
   14   16    2      0.61      0.00
   16   16    2      1.23      0.00
  -15   17    2      2.73      0.00
  -13   17    2      2.70      0.00
  -11   17    2     -0.20      0.00
   -9   17    2     -0.66      0.00
   -7   17    2      0.70      0.00
   -5   17    2      1.21      0.00
   -3   17    2     -0.07      0.00
   -1   17    2     -3.22      0.00
    1   17    2     -2.52      0.00
    3   17    2      1.31      0.00
    5   17    2      6.05      0.00
    7   17    2     11.19      0.00
    9   17    2      4.96      0.00
   11   17    2    -10.72      0.00
   13   17    2    -13.53      0.00
   15   17    2     -3.35      0.00
  -14   18    2     -2.78      0.00
  -12   18    2     -4.15      0.00
  -10   18    2     -0.85      0.00
   -8   18    2      0.61      0.00
   -6   18    2     -3.41      0.00
   -4   18    2     -3.72      0.00
   -2   18    2      1.58      0.00
    0   18    2      5.19      0.00
    2   18    2      6.58      0.00
    4   18    2      4.68      0.00
    6   18    2     -0.91      0.00
    8   18    2     -3.27      0.00
   10   18    2     -0.52      0.00
   12   18    2      0.43      0.00
   14   18    2     -2.47      0.00
  -11   19    2     -1.14      0.00
   -9   19    2     -0.27      0.00
   -7   19    2     -1.34      0.00
   -5   19    2     -2.26      0.00
   -3   19    2     -2.21      0.00
   -1   19    2      0.82      0.00
    1   19    2      1.67      0.00
    3   19    2      1.27      0.00
    5   19    2     -0.65      0.00
    7   19    2     -7.95      0.00
    9   19    2     -5.07      0.00
   11   19    2      8.92      0.00
  -10   20    2      1.65      0.00
   -8   20    2     -0.36      0.00
   -6   20    2      3.63      0.00
   -4   20    2      4.70      0.00
   -2   20    2     -0.83      0.00
    0   20    2     -3.15      0.00
    2   20    2     -1.92      0.00
    4   20    2     -0.63      0.00
    6   20    2      0.30      0.00
    8   20    2     -0.01      0.00
   10   20    2     -2.16      0.00
   -9   21    2     -3.18      0.00
   -7   21    2     -2.44      0.00
   -5   21    2     -1.82      0.00
   -3   21    2      2.34      0.00
   -1   21    2      3.28      0.00
    1   21    2     -0.04      0.00
    3   21    2     -2.34      0.00
    5   21    2     -2.53      0.00
    7   21    2      2.09      0.00
    9   21    2      3.45      0.00
   -6   22    2     -1.17      0.00
   -4   22    2     -0.12      0.00
   -2   22    2      1.31      0.00
    0   22    2     -2.22      0.00
    2   22    2     -3.24      0.00
    4   22    2     -0.23      0.00
    6   22    2      1.18      0.00
    0    1    3    -14.56      0.00
   -1    2    3      8.08      0.00
    1    2    3      9.59      0.00
   -2    3    3      9.29      0.00
    0    3    3      9.34      0.00
    2    3    3      4.49      0.00
   -3    4    3     -0.90      0.00
   -1    4    3     -1.21      0.00
    1    4    3     -1.41      0.00
    3    4    3     -1.04      0.00
   -4    5    3      2.15      0.00
   -2    5    3    -13.04      0.00
    0    5    3    -14.87      0.00
    2    5    3     -5.22      0.00
    4    5    3      5.78      0.00
   -5    6    3    -12.04      0.00
   -3    6    3     -8.13      0.00
   -1    6    3     -4.36      0.00
    1    6    3      2.39      0.00
    3    6    3      1.93      0.00
    5    6    3     -5.25      0.00
   -6    7    3     -4.74      0.00
   -4    7    3     -2.73      0.00
   -2    7    3     12.63      0.00
    0    7    3     19.29      0.00
    2    7    3      9.13      0.00
    4    7    3     -8.39      0.00
    6    7    3    -14.43      0.00
   -7    8    3      3.47      0.00
   -5    8    3      4.60      0.00
   -3    8    3      8.65      0.00
   -1    8    3      5.85      0.00
    1    8    3     -2.21      0.00
    3    8    3     -4.73      0.00
    5    8    3     -2.15      0.00
    7    8    3     -1.52      0.00
   -8    9    3     -0.68      0.00
   -6    9    3     -1.96      0.00
   -4    9    3     -1.59      0.00
   -2    9    3     -7.44      0.00
    0    9    3    -12.72      0.00
    2    9    3    -10.65      0.00
    4    9    3     -1.57      0.00
    6    9    3      6.84      0.00
    8    9    3      5.50      0.00
   -9   10    3      0.38      0.00
   -7   10    3      1.84      0.00
   -5   10    3     -0.98      0.00
   -3   10    3     -2.54      0.00
   -1   10    3     -1.74      0.00
    1   10    3     -0.79      0.00
    3   10    3      1.48      0.00
    5   10    3      2.69      0.00
    7   10    3     -0.42      0.00
    9   10    3     -4.20      0.00
  -10   11    3     -1.59      0.00
   -8   11    3     -0.02      0.00
   -6   11    3      3.16      0.00
   -4   11    3      1.66      0.00
   -2   11    3     -0.54      0.00
    0   11    3     -0.80      0.00
    2   11    3      1.24      0.00
    4   11    3      4.31      0.00
    6   11    3      1.86      0.00
    8   11    3     -3.43      0.00
   10   11    3     -2.85      0.00
  -11   12    3      0.89      0.00
   -9   12    3     -1.24      0.00
   -7   12    3      2.42      0.00
   -5   12    3      5.26      0.00
   -3   12    3      2.56      0.00
   -1   12    3      0.59      0.00
    1   12    3      0.82      0.00
    3   12    3     -0.49      0.00
    5   12    3      0.50      0.00
    7   12    3      4.48      0.00
    9   12    3      3.93      0.00
   11   12    3     -2.05      0.00
  -12   13    3     -5.28      0.00
  -10   13    3     -3.32      0.00
   -8   13    3     -1.46      0.00
   -6   13    3     -1.83      0.00
   -4   13    3      1.29      0.00
   -2   13    3      4.11      0.00
    0   13    3      3.94      0.00
    2   13    3      4.29      0.00
    4   13    3      1.86      0.00
    6   13    3     -1.24      0.00
    8   13    3      0.72      0.00
   10   13    3      3.13      0.00
   12   13    3      3.70      0.00
  -13   14    3     -2.96      0.00
  -11   14    3     -1.28      0.00
   -9   14    3     -1.47      0.00
   -7   14    3     -2.37      0.00
   -5   14    3     -0.47      0.00
   -3   14    3      2.11      0.00
   -1   14    3      1.36      0.00
    1   14    3     -0.06      0.00
    3   14    3      0.41      0.00
    5   14    3     -1.11      0.00
    7   14    3     -4.24      0.00
    9   14    3     -2.80      0.00
   11   14    3      1.70      0.00
   13   14    3      3.05      0.00
  -14   15    3      1.47      0.00
  -12   15    3      2.26      0.00
  -10   15    3      1.32      0.00
   -8   15    3      0.59      0.00
   -6   15    3      0.61      0.00
   -4   15    3     -2.09      0.00
   -2   15    3     -0.01      0.00
    0   15    3      4.58      0.00
    2   15    3      2.17      0.00
    4   15    3     -0.44      0.00
    6   15    3     -0.57      0.00
    8   15    3     -2.59      0.00
   10   15    3     -2.26      0.00
   12   15    3     -0.80      0.00
   14   15    3     -2.65      0.00
  -15   16    3      2.38      0.00
  -13   16    3     -0.01      0.00
  -11   16    3     -0.64      0.00
   -9   16    3     -0.08      0.00
   -7   16    3     -0.59      0.00
   -5   16    3     -3.73      0.00
   -3   16    3     -6.70      0.00
   -1   16    3     -4.10      0.00
    1   16    3      0.17      0.00
    3   16    3      0.01      0.00
    5   16    3     -0.89      0.00
    7   16    3      1.39      0.00
    9   16    3      2.52      0.00
   11   16    3      0.08      0.00
   13   16    3     -2.20      0.00
   15   16    3     -2.30      0.00
  -14   17    3     -0.31      0.00
  -12   17    3      0.01      0.00
  -10   17    3     -1.03      0.00
   -8   17    3     -2.56      0.00
   -6   17    3      0.84      0.00
   -4   17    3      5.33      0.00
   -2   17    3     -0.08      0.00
    0   17    3     -5.01      0.00
    2   17    3     -2.72      0.00
    4   17    3     -3.48      0.00
    6   17    3     -0.86      0.00
    8   17    3      5.97      0.00
   10   17    3      1.77      0.00
   12   17    3     -4.73      0.00
   14   17    3     -0.34      0.00
  -13   18    3      0.79      0.00
  -11   18    3      1.15      0.00
   -9   18    3      4.04      0.00
   -7   18    3      2.99      0.00
   -5   18    3     -0.20      0.00
   -3   18    3      0.94      0.00
   -1   18    3     -0.43      0.00
    1   18    3     -2.76      0.00
    3   18    3     -0.71      0.00
    5   18    3      0.54      0.00
    7   18    3      0.11      0.00
    9   18    3      0.88      0.00
   11   18    3      2.03      0.00
   13   18    3      2.16      0.00
  -12   19    3      0.29      0.00
  -10   19    3      5.83      0.00
   -8   19    3      9.33      0.00
   -6   19    3      1.87      0.00
   -4   19    3     -3.84      0.00
   -2   19    3      1.70      0.00
    0   19    3      2.63      0.00
    2   19    3     -1.93      0.00
    4   19    3      1.68      0.00
    6   19    3      2.04      0.00
    8   19    3     -4.08      0.00
   10   19    3      0.07      0.00
   12   19    3      5.80      0.00
   -9   20    3     -2.74      0.00
   -7   20    3     -3.15      0.00
   -5   20    3      1.15      0.00
   -3   20    3      1.83      0.00
   -1   20    3      3.58      0.00
    1   20    3      3.07      0.00
    3   20    3     -1.57      0.00
    5   20    3     -1.35      0.00
    7   20    3     -0.35      0.00
    9   20    3     -1.19      0.00
   -8   21    3     -8.58      0.00
   -6   21    3     -2.79      0.00
   -4   21    3     -0.55      0.00
   -2   21    3     -4.02      0.00
    0   21    3     -2.43      0.00
    2   21    3      1.48      0.00
    4   21    3     -1.00      0.00
    6   21    3     -4.13      0.00
    8   21    3     -2.00      0.00
   -5   22    3      0.94      0.00
   -3   22    3      0.38      0.00
   -1   22    3     -1.53      0.00
    1   22    3      0.04      0.00
    3   22    3      5.78      0.00
    5   22    3      5.52      0.00
    0    0    4    -12.70      0.00
    1    1    4     -2.88      0.00
    0    2    4      1.41      0.00
    2    2    4     -3.61      0.00
   -1    3    4     -5.87      0.00
    1    3    4      2.34      0.00
    3    3    4      5.78      0.00
   -2    4    4      8.21      0.00
    0    4    4      8.70      0.00
    2    4    4      6.03      0.00
    4    4    4      3.91      0.00
   -3    5    4     -0.72      0.00
   -1    5    4      2.64      0.00
    1    5    4      1.70      0.00
    3    5    4     -3.25      0.00
    5    5    4     -2.38      0.00
   -4    6    4      2.24      0.00
   -2    6    4      0.86      0.00
    0    6    4      1.98      0.00
    2    6    4      1.72      0.00
    4    6    4     -1.18      0.00
    6    6    4      0.51      0.00
   -5    7    4     -0.18      0.00
   -3    7    4      4.57      0.00
   -1    7    4      0.57      0.00
    1    7    4     -2.05      0.00
    3    7    4      5.11      0.00
    5    7    4      7.27      0.00
    7    7    4      2.38      0.00
   -6    8    4     -2.08      0.00
   -4    8    4     -6.66      0.00
   -2    8    4     -8.06      0.00
    0    8    4    -10.35      0.00
    2    8    4     -9.01      0.00
    4    8    4     -4.93      0.00
    6    8    4     -1.42      0.00
    8    8    4      2.28      0.00
   -7    9    4     -2.97      0.00
   -5    9    4     -1.52      0.00
   -3    9    4     -1.41      0.00
   -1    9    4      2.07      0.00
    1    9    4      3.23      0.00
    3    9    4     -3.79      0.00
    5    9    4     -5.27      0.00
    7    9    4      0.24      0.00
    9    9    4      2.44      0.00
   -8   10    4     -1.65      0.00
   -6   10    4      0.73      0.00
   -4   10    4      3.70      0.00
   -2   10    4      3.61      0.00
    0   10    4      1.84      0.00
    2   10    4      2.37      0.00
    4   10    4      4.48      0.00
    6   10    4      3.22      0.00
    8   10    4      0.41      0.00
   10   10    4      0.01      0.00
   -9   11    4      1.90      0.00
   -7   11    4      7.75      0.00
   -5   11    4      7.20      0.00
   -3   11    4      2.66      0.00
   -1   11    4     -0.99      0.00
    1   11    4     -2.71      0.00
    3   11    4     -0.96      0.00
    5   11    4      0.64      0.00
    7   11    4      0.19      0.00
    9   11    4      0.84      0.00
   11   11    4      1.44      0.00
  -10   12    4     -1.51      0.00
   -8   12    4     -1.20      0.00
   -6   12    4      2.20      0.00
   -4   12    4      2.16      0.00
   -2   12    4      1.34      0.00
    0   12    4      3.49      0.00
    2   12    4      4.31      0.00
    4   12    4      3.70      0.00
    6   12    4      1.26      0.00
    8   12    4     -3.08      0.00
   10   12    4     -1.14      0.00
   12   12    4      2.29      0.00
  -11   13    4     -0.75      0.00
   -9   13    4     -1.28      0.00
   -7   13    4     -5.69      0.00
   -5   13    4     -5.49      0.00
   -3   13    4     -1.64      0.00
   -1   13    4     -1.49      0.00
    1   13    4     -0.25      0.00
    3   13    4      2.83      0.00
    5   13    4      0.48      0.00
    7   13    4     -3.16      0.00
    9   13    4     -2.38      0.00
   11   13    4     -0.27      0.00
   13   13    4      2.00      0.00
  -12   14    4     -0.49      0.00
  -10   14    4      0.69      0.00
   -8   14    4     -0.25      0.00
   -6   14    4     -3.27      0.00
   -4   14    4     -2.87      0.00
   -2   14    4      0.16      0.00
    0   14    4      2.68      0.00
    2   14    4      2.20      0.00
    4   14    4     -2.15      0.00
    6   14    4     -1.65      0.00
    8   14    4      2.96      0.00
   10   14    4      0.51      0.00
   12   14    4     -2.49      0.00
   14   14    4     -0.69      0.00
  -13   15    4      2.30      0.00
  -11   15    4      2.39      0.00
   -9   15    4      2.80      0.00
   -7   15    4      2.65      0.00
   -5   15    4     -1.76      0.00
   -3   15    4     -5.10      0.00
   -1   15    4     -0.83      0.00
    1   15    4      1.53      0.00
    3   15    4     -1.25      0.00
    5   15    4     -0.41      0.00
    7   15    4      0.86      0.00
    9   15    4     -1.09      0.00
   11   15    4     -1.22      0.00
   13   15    4     -1.33      0.00
   15   15    4     -2.67      0.00
  -14   16    4      1.60      0.00
  -12   16    4      1.26      0.00
  -10   16    4      1.68      0.00
   -8   16    4      1.23      0.00
   -6   16    4      1.10      0.00
   -4   16    4     -0.71      0.00
   -2   16    4     -2.35      0.00
    0   16    4     -4.26      0.00
    2   16    4     -5.44      0.00
    4   16    4     -2.63      0.00
    6   16    4     -1.18      0.00
    8   16    4     -0.81      0.00
   10   16    4      0.64      0.00
   12   16    4     -0.97      0.00
   14   16    4     -0.58      0.00
  -13   17    4      2.65      0.00
  -11   17    4      2.18      0.00
   -9   17    4     -3.36      0.00
   -7   17    4     -5.71      0.00
   -5   17    4     -0.79      0.00
   -3   17    4      1.84      0.00
   -1   17    4     -1.12      0.00
    1   17    4     -1.66      0.00
    3   17    4     -0.34      0.00
    5   17    4     -0.39      0.00
    7   17    4      2.86      0.00
    9   17    4      6.53      0.00
   11   17    4      4.29      0.00
   13   17    4      1.21      0.00
  -12   18    4     -2.36      0.00
  -10   18    4     -0.76      0.00
   -8   18    4      1.70      0.00
   -6   18    4      2.26      0.00
   -4   18    4      4.32      0.00
   -2   18    4      3.13      0.00
    0   18    4      0.03      0.00
    2   18    4      1.73      0.00
    4   18    4      2.14      0.00
    6   18    4     -0.47      0.00
    8   18    4     -3.22      0.00
   10   18    4     -3.77      0.00
   12   18    4      0.39      0.00
  -11   19    4     -6.36      0.00
   -9   19    4      0.23      0.00
   -7   19    4      5.21      0.00
   -5   19    4      3.07      0.00
   -3   19    4      2.70      0.00
   -1   19    4      1.90      0.00
    1   19    4     -1.82      0.00
    3   19    4     -1.17      0.00
    5   19    4      2.05      0.00
    7   19    4     -0.60      0.00
    9   19    4     -6.10      0.00
   11   19    4     -5.92      0.00
  -10   20    4     -1.15      0.00
   -8   20    4     -3.59      0.00
   -6   20    4     -5.97      0.00
   -4   20    4     -8.11      0.00
   -2   20    4     -3.93      0.00
    0   20    4      3.65      0.00
    2   20    4      3.44      0.00
    4   20    4      1.55      0.00
    6   20    4      2.04      0.00
    8   20    4      1.42      0.00
   10   20    4      2.92      0.00
   -7   21    4      0.11      0.00
   -5   21    4      1.85      0.00
   -3   21    4      0.28      0.00
   -1   21    4      1.19      0.00
    1   21    4      4.27      0.00
    3   21    4      3.09      0.00
    5   21    4     -0.29      0.00
    7   21    4     -1.54      0.00
   -4   22    4      5.74      0.00
   -2   22    4      2.02      0.00
    0   22    4     -4.19      0.00
    2   22    4     -6.32      0.00
    4   22    4     -4.82      0.00
    0    1    5      0.96      0.00
   -1    2    5     -1.49      0.00
    1    2    5      3.56      0.00
   -2    3    5     -3.70      0.00
    0    3    5      1.16      0.00
    2    3    5      5.10      0.00
   -3    4    5     -0.83      0.00
   -1    4    5     -0.40      0.00
    1    4    5      0.29      0.00
    3    4    5      1.93      0.00
   -4    5    5     -5.41      0.00
   -2    5    5      0.76      0.00
    0    5    5      2.70      0.00
    2    5    5     -1.18      0.00
    4    5    5     -1.60      0.00
   -5    6    5      0.30      0.00
   -3    6    5      4.49      0.00
   -1    6    5      1.69      0.00
    1    6    5     -2.45      0.00
    3    6    5     -4.02      0.00
    5    6    5     -1.03      0.00
   -6    7    5      0.12      0.00
   -4    7    5      5.80      0.00
   -2    7    5     -0.12      0.00
    0    7    5     -7.85      0.00
    2    7    5     -4.48      0.00
    4    7    5      3.01      0.00
    6    7    5      4.33      0.00
   -7    8    5      4.82      0.00
   -5    8    5      0.55      0.00
   -3    8    5     -3.02      0.00
   -1    8    5     -1.63      0.00
    1    8    5      1.43      0.00
    3    8    5      1.10      0.00
    5    8    5     -5.38      0.00
    7    8    5     -5.26      0.00
   -8    9    5     -1.07      0.00
   -6    9    5     -2.45      0.00
   -4    9    5     -1.46      0.00
   -2    9    5      2.48      0.00
    0    9    5      5.94      0.00
    2    9    5      3.01      0.00
    4    9    5     -1.24      0.00
    6    9    5     -0.66      0.00
    8    9    5     -1.90      0.00
   -9   10    5     -0.92      0.00
   -7   10    5     -4.90      0.00
   -5   10    5     -4.51      0.00
   -3   10    5     -0.72      0.00
   -1   10    5      0.58      0.00
    1   10    5     -0.64      0.00
    3   10    5      0.30      0.00
    5   10    5      3.31      0.00
    7   10    5      2.19      0.00
    9   10    5     -0.11      0.00
  -10   11    5     -0.85      0.00
   -8   11    5      0.28      0.00
   -6   11    5      1.00      0.00
   -4   11    5     -2.48      0.00
   -2   11    5     -4.07      0.00
    0   11    5     -2.91      0.00
    2   11    5     -0.37      0.00
    4   11    5      0.44      0.00
    6   11    5     -1.19      0.00
    8   11    5      0.22      0.00
   10   11    5      0.46      0.00
  -11   12    5      0.41      0.00
   -9   12    5     -3.02      0.00
   -7   12    5     -1.14      0.00
   -5   12    5      2.55      0.00
   -3   12    5      2.16      0.00
   -1   12    5      1.06      0.00
    1   12    5     -0.29      0.00
    3   12    5     -2.02      0.00
    5   12    5     -0.13      0.00
    7   12    5      1.44      0.00
    9   12    5      0.12      0.00
   11   12    5      1.10      0.00
  -12   13    5      0.61      0.00
  -10   13    5      1.85      0.00
   -8   13    5      1.18      0.00
   -6   13    5      0.64      0.00
   -4   13    5      1.82      0.00
   -2   13    5      1.19      0.00
    0   13    5      0.48      0.00
    2   13    5      0.85      0.00
    4   13    5      1.00      0.00
    6   13    5     -0.47      0.00
    8   13    5     -2.58      0.00
   10   13    5     -1.87      0.00
   12   13    5     -2.34      0.00
  -13   14    5     -2.99      0.00
  -11   14    5     -4.02      0.00
   -9   14    5     -1.05      0.00
   -7   14    5      1.44      0.00
   -5   14    5      0.57      0.00
   -3   14    5     -0.39      0.00
   -1   14    5     -1.45      0.00
    1   14    5      0.02      0.00
    3   14    5      2.26      0.00
    5   14    5     -0.79      0.00
    7   14    5     -4.64      0.00
    9   14    5     -5.01      0.00
   11   14    5     -3.68      0.00
   13   14    5      1.46      0.00
  -14   15    5     -6.29      0.00
  -12   15    5     -7.37      0.00
  -10   15    5     -3.41      0.00
   -8   15    5      0.18      0.00
   -6   15    5     -0.17      0.00
   -4   15    5      0.27      0.00
   -2   15    5      1.82      0.00
    0   15    5      2.34      0.00
    2   15    5      0.74      0.00
    4   15    5     -1.92      0.00
    6   15    5     -0.15      0.00
    8   15    5      1.68      0.00
   10   15    5      0.18      0.00
   12   15    5      3.74      0.00
   14   15    5      6.66      0.00
  -15   16    5      1.65      0.00
  -13   16    5     -0.65      0.00
  -11   16    5      2.63      0.00
   -9   16    5      4.34      0.00
   -7   16    5      4.40      0.00
   -5   16    5      3.04      0.00
   -3   16    5      0.41      0.00
   -1   16    5      0.47      0.00
    1   16    5      0.81      0.00
    3   16    5     -0.55      0.00
    5   16    5      1.08      0.00
    7   16    5      7.64      0.00
    9   16    5     12.09      0.00
   11   16    5      6.34      0.00
   13   16    5     -2.07      0.00
   15   16    5     -2.53      0.00
  -14   17    5      3.77      0.00
  -12   17    5      7.09      0.00
  -10   17    5      3.44      0.00
   -8   17    5     -0.12      0.00
   -6   17    5      0.27      0.00
   -4   17    5     -0.51      0.00
   -2   17    5     -0.15      0.00
    0   17    5     -0.43      0.00
    2   17    5     -1.18      0.00
    4   17    5      1.62      0.00
    6   17    5      0.73      0.00
    8   17    5     -0.46      0.00
   10   17    5      0.86      0.00
   12   17    5     -6.45      0.00
   14   17    5    -12.36      0.00
  -11   18    5      1.18      0.00
   -9   18    5      0.72      0.00
   -7   18    5     -2.78      0.00
   -5   18    5     -4.31      0.00
   -3   18    5     -0.78      0.00
   -1   18    5      0.26      0.00
    1   18    5     -2.30      0.00
    3   18    5     -2.56      0.00
    5   18    5     -1.36      0.00
    7   18    5     -3.49      0.00
    9   18    5     -6.75      0.00
   11   18    5     -3.75      0.00
  -10   19    5     -0.18      0.00
   -8   19    5      1.04      0.00
   -6   19    5     -0.27      0.00
   -4   19    5     -0.02      0.00
   -2   19    5      0.06      0.00
    0   19    5      0.16      0.00
    2   19    5      0.76      0.00
    4   19    5     -1.64      0.00
    6   19    5     -1.16      0.00
    8   19    5      0.16      0.00
   10   19    5     -1.19      0.00
   -9   20    5     -1.71      0.00
   -7   20    5      0.80      0.00
   -5   20    5      1.37      0.00
   -3   20    5     -3.06      0.00
   -1   20    5     -5.43      0.00
    1   20    5     -1.79      0.00
    3   20    5      1.70      0.00
    5   20    5      1.80      0.00
    7   20    5     -1.05      0.00
    9   20    5     -3.03      0.00
   -6   21    5      0.55      0.00
   -4   21    5      1.83      0.00
   -2   21    5     -1.15      0.00
    0   21    5     -4.07      0.00
    2   21    5     -4.61      0.00
    4   21    5     -1.80      0.00
    6   21    5      1.13      0.00
   -1   22    5     10.89      0.00
    1   22    5      8.26      0.00
    1    1    6      7.20      0.00
    0    2    6     -2.98      0.00
    2    2    6     -2.96      0.00
   -1    3    6     -1.59      0.00
    1    3    6      1.02      0.00
    3    3    6      2.94      0.00
   -2    4    6      0.47      0.00
    0    4    6      5.66      0.00
    2    4    6      5.47      0.00
    4    4    6      1.65      0.00
   -3    5    6     -1.77      0.00
   -1    5    6      1.11      0.00
    1    5    6     -3.42      0.00
    3    5    6     -5.48      0.00
    5    5    6     -3.05      0.00
   -4    6    6      1.27      0.00
   -2    6    6     -0.18      0.00
    0    6    6     -4.05      0.00
    2    6    6     -4.38      0.00
    4    6    6     -0.95      0.00
    6    6    6      1.74      0.00
   -5    7    6      1.81      0.00
   -3    7    6      0.90      0.00
   -1    7    6     -3.29      0.00
    1    7    6     -0.14      0.00
    3    7    6      1.77      0.00
    5    7    6     -2.02      0.00
    7    7    6     -3.92      0.00
   -6    8    6      0.40      0.00
   -4    8    6     -1.23      0.00
   -2    8    6     -0.34      0.00
    0    8    6      0.97      0.00
    2    8    6      1.55      0.00
    4    8    6     -0.27      0.00
    6    8    6     -3.62      0.00
    8    8    6     -0.13      0.00
   -7    9    6     -0.68      0.00
   -5    9    6     -3.49      0.00
   -3    9    6     -0.06      0.00
   -1    9    6      3.10      0.00
    1    9    6     -0.53      0.00
    3    9    6     -2.50      0.00
    5    9    6      0.78      0.00
    7    9    6      2.84      0.00
    9    9    6      0.65      0.00
   -8   10    6      1.17      0.00
   -6   10    6     -0.95      0.00
   -4   10    6      0.56      0.00
   -2   10    6      1.97      0.00
    0   10    6      2.59      0.00
    2   10    6      2.03      0.00
    4   10    6      1.47      0.00
    6   10    6      2.19      0.00
    8   10    6     -0.63      0.00
   10   10    6     -0.67      0.00
   -9   11    6      0.73      0.00
   -7   11    6      3.60      0.00
   -5   11    6      4.18      0.00
   -3   11    6      1.27      0.00
   -1   11    6     -0.12      0.00
    1   11    6      0.52      0.00
    3   11    6      2.00      0.00
    5   11    6      2.48      0.00
    7   11    6      0.64      0.00
    9   11    6     -0.61      0.00
   11   11    6      0.15      0.00
  -10   12    6      2.09      0.00
   -8   12    6      5.65      0.00
   -6   12    6      7.34      0.00
   -4   12    6      1.27      0.00
   -2   12    6     -4.59      0.00
    0   12    6     -5.57      0.00
    2   12    6     -4.03      0.00
    4   12    6     -1.30      0.00
    6   12    6      1.75      0.00
    8   12    6      2.48      0.00
   10   12    6     -0.78      0.00
   12   12    6      1.16      0.00
  -11   13    6     -2.41      0.00
   -9   13    6     -0.59      0.00
   -7   13    6      0.62      0.00
   -5   13    6      1.11      0.00
   -3   13    6     -0.78      0.00
   -1   13    6     -0.61      0.00
    1   13    6      3.57      0.00
    3   13    6      2.95      0.00
    5   13    6     -0.96      0.00
    7   13    6      0.34      0.00
    9   13    6      2.09      0.00
   11   13    6     -0.75      0.00
   13   13    6     -3.61      0.00
  -12   14    6      6.19      0.00
  -10   14    6      0.48      0.00
   -8   14    6     -4.97      0.00
   -6   14    6     -6.66      0.00
   -4   14    6     -1.71      0.00
   -2   14    6      4.26      0.00
    0   14    6      6.36      0.00
    2   14    6      5.30      0.00
    4   14    6      1.35      0.00
    6   14    6     -5.61      0.00
    8   14    6     -6.36      0.00
   10   14    6      0.50      0.00
   12   14    6     -1.70      0.00
   14   14    6     -7.94      0.00
  -13   15    6      3.38      0.00
  -11   15    6      3.65      0.00
   -9   15    6      2.56      0.00
   -7   15    6     -0.71      0.00
   -5   15    6     -2.44      0.00
   -3   15    6     -1.24      0.00
   -1   15    6     -2.47      0.00
    1   15    6     -4.84      0.00
    3   15    6     -3.29      0.00
    5   15    6      0.20      0.00
    7   15    6      0.62      0.00
    9   15    6     -0.60      0.00
   11   15    6      0.98      0.00
   13   15    6      2.08      0.00
   15   15    6      0.50      0.00
  -14   16    6     -2.95      0.00
  -12   16    6     -2.83      0.00
  -10   16    6     -2.39      0.00
   -8   16    6     -1.88      0.00
   -6   16    6     -1.62      0.00
   -4   16    6     -0.95      0.00
   -2   16    6     -2.60      0.00
    0   16    6     -5.00      0.00
    2   16    6     -5.09      0.00
    4   16    6     -3.07      0.00
    6   16    6      3.00      0.00
    8   16    6      3.51      0.00
   10   16    6     -6.11      0.00
   12   16    6     -7.32      0.00
   14   16    6      0.65      0.00
  -13   17    6     -1.76      0.00
  -11   17    6     -0.63      0.00
   -9   17    6     -0.01      0.00
   -7   17    6     -0.11      0.00
   -5   17    6     -2.00      0.00
   -3   17    6     -2.08      0.00
   -1   17    6      0.99      0.00
    1   17    6      0.88      0.00
    3   17    6     -0.50      0.00
    5   17    6     -1.69      0.00
    7   17    6     -3.16      0.00
    9   17    6     -0.29      0.00
   11   17    6      1.22      0.00
   13   17    6     -0.10      0.00
  -10   18    6      0.36      0.00
   -8   18    6      1.39      0.00
   -6   18    6      2.50      0.00
   -4   18    6      1.67      0.00
   -2   18    6      3.21      0.00
    0   18    6      4.39      0.00
    2   18    6      2.96      0.00
    4   18    6      4.28      0.00
    6   18    6      4.17      0.00
    8   18    6      3.85      0.00
   10   18    6      8.54      0.00
   -9   19    6     -4.31      0.00
   -7   19    6     -4.14      0.00
   -5   19    6     -1.18      0.00
   -3   19    6      2.47      0.00
   -1   19    6      3.04      0.00
    1   19    6      1.50      0.00
    3   19    6     -0.16      0.00
    5   19    6      0.07      0.00
    7   19    6      1.28      0.00
    9   19    6     -1.75      0.00
   -6   20    6      0.60      0.00
   -4   20    6     -1.14      0.00
   -2   20    6     -4.13      0.00
    0   20    6     -3.24      0.00
    2   20    6      0.52      0.00
    4   20    6     -1.67      0.00
    6   20    6     -5.65      0.00
    8   20    6     -5.72      0.00
   -3   21    6      3.96      0.00
   -1   21    6     -2.02      0.00
    1   21    6      1.11      0.00
    3   21    6      4.90      0.00
    0    1    7      8.04      0.00
   -1    2    7     -0.95      0.00
    1    2    7     -6.24      0.00
   -2    3    7     -2.34      0.00
    0    3    7      0.65      0.00
    2    3    7      3.54      0.00
   -3    4    7     -2.92      0.00
   -1    4    7     -4.68      0.00
    1    4    7      1.30      0.00
    3    4    7      2.15      0.00
   -4    5    7     -2.07      0.00
   -2    5    7     -1.45      0.00
    0    5    7     -1.03      0.00
    2    5    7      0.52      0.00
    4    5    7      2.58      0.00
   -5    6    7     -2.17      0.00
   -3    6    7      2.37      0.00
   -1    6    7      4.62      0.00
    1    6    7     -0.40      0.00
    3    6    7     -2.07      0.00
    5    6    7     -0.42      0.00
   -6    7    7     -1.85      0.00
   -4    7    7      2.40      0.00
   -2    7    7     -0.17      0.00
    0    7    7     -3.96      0.00
    2    7    7     -4.20      0.00
    4    7    7     -2.67      0.00
    6    7    7     -0.20      0.00
   -7    8    7      0.11      0.00
   -5    8    7      2.82      0.00
   -3    8    7     -0.52      0.00
   -1    8    7     -2.86      0.00
    1    8    7     -1.08      0.00
    3    8    7      1.43      0.00
    5    8    7      3.89      0.00
    7    8    7      4.13      0.00
   -8    9    7      1.38      0.00
   -6    9    7      3.20      0.00
   -4    9    7      0.62      0.00
   -2    9    7      2.04      0.00
    0    9    7      3.21      0.00
    2    9    7      1.14      0.00
    4    9    7     -1.17      0.00
    6    9    7     -4.14      0.00
    8    9    7     -3.15      0.00
   -9   10    7      2.01      0.00
   -7   10    7      0.58      0.00
   -5   10    7     -3.70      0.00
   -3   10    7     -3.36      0.00
   -1   10    7      0.07      0.00
    1   10    7      3.16      0.00
    3   10    7      0.82      0.00
    5   10    7     -3.30      0.00
    7   10    7     -1.50      0.00
    9   10    7      1.52      0.00
  -10   11    7      2.39      0.00
   -8   11    7      1.94      0.00
   -6   11    7     -1.72      0.00
   -4   11    7     -1.98      0.00
   -2   11    7     -1.73      0.00
    0   11    7      0.49      0.00
    2   11    7      3.26      0.00
    4   11    7      5.02      0.00
    6   11    7      5.14      0.00
    8   11    7      0.12      0.00
   10   11    7     -1.01      0.00
  -11   12    7     -2.30      0.00
   -9   12    7     -3.14      0.00
   -7   12    7     -2.74      0.00
   -5   12    7      0.56      0.00
   -3   12    7      1.70      0.00
   -1   12    7     -0.07      0.00
    1   12    7     -3.54      0.00
    3   12    7     -2.30      0.00
    5   12    7      0.88      0.00
    7   12    7     -0.73      0.00
    9   12    7     -1.41      0.00
   11   12    7      1.11      0.00
  -12   13    7      0.46      0.00
  -10   13    7     -3.88      0.00
   -8   13    7     -3.00      0.00
   -6   13    7     -0.10      0.00
   -4   13    7      0.31      0.00
   -2   13    7     -0.65      0.00
    0   13    7     -2.07      0.00
    2   13    7     -2.72      0.00
    4   13    7     -4.22      0.00
    6   13    7     -1.64      0.00
    8   13    7      4.02      0.00
   10   13    7     -1.39      0.00
   12   13    7     -8.10      0.00
  -13   14    7      3.54      0.00
  -11   14    7      0.51      0.00
   -9   14    7      0.09      0.00
   -7   14    7      0.62      0.00
   -5   14    7      1.11      0.00
   -3   14    7      0.51      0.00
   -1   14    7      0.63      0.00
    1   14    7      3.74      0.00
    3   14    7      3.94      0.00
    5   14    7     -0.15      0.00
    7   14    7     -1.12      0.00
    9   14    7      0.53      0.00
   11   14    7     -1.98      0.00
   13   14    7     -5.04      0.00
  -14   15    7     -1.97      0.00
  -12   15    7      2.56      0.00
  -10   15    7      1.10      0.00
   -8   15    7     -3.80      0.00
   -6   15    7     -2.91      0.00
   -4   15    7      0.71      0.00
   -2   15    7      2.08      0.00
    0   15    7      1.33      0.00
    2   15    7      0.27      0.00
    4   15    7      2.09      0.00
    6   15    7     -0.08      0.00
    8   15    7     -3.80      0.00
   10   15    7      4.32      0.00
   12   15    7     11.10      0.00
   14   15    7      5.30      0.00
  -13   16    7      0.32      0.00
  -11   16    7      0.76      0.00
   -9   16    7      3.11      0.00
   -7   16    7      2.04      0.00
   -5   16    7     -0.88      0.00
   -3   16    7      1.28      0.00
   -1   16    7      2.99      0.00
    1   16    7     -0.48      0.00
    3   16    7     -3.36      0.00
    5   16    7     -0.76      0.00
    7   16    7      2.43      0.00
    9   16    7      2.08      0.00
   11   16    7      4.50      0.00
   13   16    7      7.56      0.00
  -12   17    7     -2.82      0.00
  -10   17    7      4.10      0.00
   -8   17    7     10.05      0.00
   -6   17    7      5.26      0.00
   -4   17    7     -0.71      0.00
   -2   17    7     -1.46      0.00
    0   17    7      0.32      0.00
    2   17    7      1.75      0.00
    4   17    7      0.31      0.00
    6   17    7      0.41      0.00
    8   17    7      2.07      0.00
   10   17    7     -1.93      0.00
   12   17    7     -5.26      0.00
   -9   18    7     -1.64      0.00
   -7   18    7     -0.59      0.00
   -5   18    7      3.29      0.00
   -3   18    7      1.13      0.00
   -1   18    7     -2.76      0.00
    1   18    7     -4.35      0.00
    3   18    7     -2.57      0.00
    5   18    7      1.70      0.00
    7   18    7      2.16      0.00
    9   18    7     -1.22      0.00
   -8   19    7     -5.35      0.00
   -6   19    7     -2.56      0.00
   -4   19    7      0.65      0.00
   -2   19    7      2.46      0.00
    0   19    7      0.82      0.00
    2   19    7     -3.12      0.00
    4   19    7     -4.17      0.00
    6   19    7     -3.37      0.00
    8   19    7     -2.45      0.00
   -5   20    7     -1.53      0.00
   -3   20    7     -3.03      0.00
   -1   20    7     -2.10      0.00
    1   20    7      2.78      0.00
    3   20    7      5.89      0.00
    5   20    7      0.08      0.00
    0    0    8    -23.53      0.00
    1    1    8      0.83      0.00
    0    2    8     21.50      0.00
    2    2    8     17.78      0.00
   -1    3    8      3.29      0.00
    1    3    8     -1.13      0.00
    3    3    8     -4.05      0.00
   -2    4    8     -6.92      0.00
    0    4    8    -10.20      0.00
    2    4    8     -7.27      0.00
    4    4    8     -1.31      0.00
   -3    5    8     -2.53      0.00
   -1    5    8     -5.88      0.00
    1    5    8     -0.09      0.00
    3    5    8      3.61      0.00
    5    5    8     -1.02      0.00
   -4    6    8     -3.47      0.00
   -2    6    8     -1.88      0.00
    0    6    8     -3.20      0.00
    2    6    8     -2.38      0.00
    4    6    8     -0.55      0.00
    6    6    8     -5.82      0.00
   -5    7    8     -4.23      0.00
   -3    7    8      0.77      0.00
   -1    7    8      5.97      0.00
    1    7    8      2.28      0.00
    3    7    8     -1.34      0.00
    5    7    8     -0.35      0.00
    7    7    8     -0.04      0.00
   -6    8    8      8.24      0.00
   -4    8    8      4.27      0.00
   -2    8    8      1.23      0.00
    0    8    8      3.37      0.00
    2    8    8      2.20      0.00
    4    8    8     -0.21      0.00
    6    8    8      5.13      0.00
    8    8    8      5.75      0.00
   -7    9    8     -1.29      0.00
   -5    9    8      2.18      0.00
   -3    9    8     -0.15      0.00
   -1    9    8     -2.42      0.00
    1    9    8     -3.42      0.00
    3    9    8     -2.49      0.00
    5    9    8      1.75      0.00
    7    9    8      5.37      0.00
    9    9    8      4.95      0.00
   -8   10    8     -0.08      0.00
   -6   10    8     -0.91      0.00
   -4   10    8     -0.51      0.00
   -2   10    8      2.14      0.00
    0   10    8      1.96      0.00
    2   10    8      0.52      0.00
    4   10    8     -1.03      0.00
    6   10    8     -2.16      0.00
    8   10    8      2.44      0.00
   10   10    8      1.91      0.00
   -9   11    8      1.26      0.00
   -7   11    8      0.82      0.00
   -5   11    8      0.03      0.00
   -3   11    8     -0.51      0.00
   -1   11    8     -1.18      0.00
    1   11    8      2.70      0.00
    3   11    8      3.41      0.00
    5   11    8     -2.64      0.00
    7   11    8     -6.27      0.00
    9   11    8     -3.72      0.00
   11   11    8      0.78      0.00
  -10   12    8      4.65      0.00
   -8   12    8     -0.67      0.00
   -6   12    8     -3.24      0.00
   -4   12    8     -1.01      0.00
   -2   12    8     -1.77      0.00
    0   12    8     -1.71      0.00
    2   12    8      2.14      0.00
    4   12    8      6.64      0.00
    6   12    8      3.75      0.00
    8   12    8     -5.87      0.00
   10   12    8     -4.32      0.00
   12   12    8      3.38      0.00
  -11   13    8      1.62      0.00
   -9   13    8      2.81      0.00
   -7   13    8      3.08      0.00
   -5   13    8      1.38      0.00
   -3   13    8      1.25      0.00
   -1   13    8      1.99      0.00
    1   13    8     -0.96      0.00
    3   13    8     -2.42      0.00
    5   13    8      0.35      0.00
    7   13    8      3.20      0.00
    9   13    8      2.49      0.00
   11   13    8     -0.70      0.00
   13   13    8     -0.95      0.00
  -12   14    8     -0.61      0.00
  -10   14    8     -1.98      0.00
   -8   14    8      1.37      0.00
   -6   14    8      1.33      0.00
   -4   14    8     -1.23      0.00
   -2   14    8     -0.92      0.00
    0   14    8     -0.85      0.00
    2   14    8     -3.03      0.00
    4   14    8     -7.43      0.00
    6   14    8     -4.93      0.00
    8   14    8      4.90      0.00
   10   14    8      4.36      0.00
   12   14    8     -1.42      0.00
   14   14    8      0.99      0.00
  -13   15    8      0.77      0.00
  -11   15    8      1.67      0.00
   -9   15    8     -1.62      0.00
   -7   15    8     -3.55      0.00
   -5   15    8     -1.45      0.00
   -3   15    8      0.34      0.00
   -1   15    8      0.37      0.00
    1   15    8     -0.59      0.00
    3   15    8     -0.21      0.00
    5   15    8      2.17      0.00
    7   15    8      2.51      0.00
    9   15    8      2.53      0.00
   11   15    8      3.87      0.00
   13   15    8      2.68      0.00
  -12   16    8     -2.13      0.00
  -10   16    8     -2.13      0.00
   -8   16    8     -2.78      0.00
   -6   16    8     -1.35      0.00
   -4   16    8      0.51      0.00
   -2   16    8      1.86      0.00
    0   16    8      0.80      0.00
    2   16    8     -2.53      0.00
    4   16    8     -2.22      0.00
    6   16    8     -3.03      0.00
    8   16    8     -7.23      0.00
   10   16    8     -3.64      0.00
   12   16    8      2.16      0.00
   -9   17    8     -1.71      0.00
   -7   17    8      0.91      0.00
   -5   17    8      0.42      0.00
   -3   17    8     -1.31      0.00
   -1   17    8     -2.85      0.00
    1   17    8     -0.80      0.00
    3   17    8      1.59      0.00
    5   17    8     -0.48      0.00
    7   17    8     -3.47      0.00
    9   17    8     -6.52      0.00
   11   17    8     -7.63      0.00
   -8   18    8      1.40      0.00
   -6   18    8      1.48      0.00
   -4   18    8      1.70      0.00
   -2   18    8      0.49      0.00
    0   18    8      2.19      0.00
    2   18    8      5.76      0.00
    4   18    8      7.11      0.00
    6   18    8      7.81      0.00
    8   18    8      6.37      0.00
   -5   19    8     -1.87      0.00
   -3   19    8     -1.29      0.00
   -1   19    8      1.45      0.00
    1   19    8      3.11      0.00
    3   19    8      1.67      0.00
    5   19    8      0.28      0.00
   -2   20    8     -2.25      0.00
    0   20    8     -4.12      0.00
    2   20    8     -3.36      0.00
    0    1    9      5.12      0.00
   -1    2    9      1.42      0.00
    1    2    9      3.25      0.00
   -2    3    9     -0.17      0.00
    0    3    9     -0.41      0.00
    2    3    9      1.16      0.00
   -3    4    9      2.26      0.00
   -1    4    9      1.62      0.00
    1    4    9     -0.55      0.00
    3    4    9     -1.27      0.00
   -4    5    9      3.36      0.00
   -2    5    9     -2.87      0.00
    0    5    9     -4.89      0.00
    2    5    9     -1.81      0.00
    4    5    9     -0.63      0.00
   -5    6    9     -0.51      0.00
   -3    6    9      0.94      0.00
   -1    6    9      0.19      0.00
    1    6    9     -0.37      0.00
    3    6    9      1.74      0.00
    5    6    9      3.13      0.00
   -6    7    9      0.38      0.00
   -4    7    9     -3.04      0.00
   -2    7    9      1.24      0.00
    0    7    9      2.68      0.00
    2    7    9     -0.98      0.00
    4    7    9     -0.84      0.00
    6    7    9      1.30      0.00
   -7    8    9      3.24      0.00
   -5    8    9      0.37      0.00
   -3    8    9     -3.49      0.00
   -1    8    9     -1.69      0.00
    1    8    9      1.61      0.00
    3    8    9     -0.01      0.00
    5    8    9      1.44      0.00
    7    8    9      6.17      0.00
   -8    9    9     -2.18      0.00
   -6    9    9     -2.99      0.00
   -4    9    9     -1.30      0.00
   -2    9    9     -1.08      0.00
    0    9    9      0.57      0.00
    2    9    9      2.11      0.00
    4    9    9      0.51      0.00
    6    9    9      1.29      0.00
    8    9    9      0.44      0.00
   -9   10    9     -2.77      0.00
   -7   10    9     -2.47      0.00
   -5   10    9      1.46      0.00
   -3   10    9      3.41      0.00
   -1   10    9      0.73      0.00
    1   10    9     -3.49      0.00
    3   10    9     -2.33      0.00
    5   10    9     -3.30      0.00
    7   10    9     -6.04      0.00
    9   10    9     -0.67      0.00
  -10   11    9     -3.19      0.00
   -8   11    9     -3.83      0.00
   -6   11    9      0.01      0.00
   -4   11    9      0.31      0.00
   -2   11    9     -0.54      0.00
    0   11    9     -0.82      0.00
    2   11    9      1.21      0.00
    4   11    9      2.17      0.00
    6   11    9     -2.41      0.00
    8   11    9     -4.38      0.00
   10   11    9     -2.15      0.00
  -11   12    9     -1.42      0.00
   -9   12    9      2.38      0.00
   -7   12    9      0.10      0.00
   -5   12    9     -1.80      0.00
   -3   12    9     -2.21      0.00
   -1   12    9     -0.82      0.00
    1   12    9      3.60      0.00
    3   12    9      3.53      0.00
    5   12    9      1.72      0.00
    7   12    9      1.70      0.00
    9   12    9      1.36      0.00
   11   12    9      5.05      0.00
  -12   13    9     -7.50      0.00
  -10   13    9     -0.10      0.00
   -8   13    9      0.78      0.00
   -6   13    9      0.00      0.00
   -4   13    9      2.54      0.00
   -2   13    9      3.04      0.00
    0   13    9      1.05      0.00
    2   13    9     -1.95      0.00
    4   13    9     -2.43      0.00
    6   13    9     -0.08      0.00
    8   13    9      1.08      0.00
   10   13    9      3.50      0.00
   12   13    9      5.88      0.00
  -13   14    9      3.28      0.00
  -11   14    9      0.49      0.00
   -9   14    9     -0.24      0.00
   -7   14    9     -1.10      0.00
   -5   14    9     -3.63      0.00
   -3   14    9     -0.60      0.00
   -1   14    9      2.92      0.00
    1   14    9     -0.85      0.00
    3   14    9     -4.25      0.00
    5   14    9     -2.98      0.00
    7   14    9      0.12      0.00
    9   14    9     -0.57      0.00
   11   14    9     -7.21      0.00
   13   14    9     -8.98      0.00
  -12   15    9      2.48      0.00
  -10   15    9      0.88      0.00
   -8   15    9      2.39      0.00
   -6   15    9      1.08      0.00
   -4   15    9     -0.44      0.00
   -2   15    9      2.41      0.00
    0   15    9      2.85      0.00
    2   15    9     -0.44      0.00
    4   15    9     -1.63      0.00
    6   15    9      1.17      0.00
    8   15    9      2.42      0.00
   10   15    9     -2.53      0.00
   12   15    9     -6.04      0.00
   -9   16    9     -1.47      0.00
   -7   16    9      2.55      0.00
   -5   16    9      7.12      0.00
   -3   16    9      2.11      0.00
   -1   16    9     -3.23      0.00
    1   16    9      0.39      0.00
    3   16    9      6.46      0.00
    5   16    9      6.51      0.00
    7   16    9     -0.16      0.00
    9   16    9     -3.39      0.00
   11   16    9      0.99      0.00
   -8   17    9     -1.21      0.00
   -6   17    9      0.83      0.00
   -4   17    9     -0.34      0.00
   -2   17    9     -6.01      0.00
    0   17    9     -6.07      0.00
    2   17    9      0.80      0.00
    4   17    9      3.31      0.00
    6   17    9     -0.58      0.00
    8   17    9     -1.57      0.00
   -7   18    9     -3.36      0.00
   -5   18    9     -4.45      0.00
   -3   18    9     -0.40      0.00
   -1   18    9      1.26      0.00
    1   18    9     -2.17      0.00
    3   18    9     -5.56      0.00
    5   18    9     -3.99      0.00
    7   18    9      1.81      0.00
   -2   19    9      1.00      0.00
    0   19    9      2.79      0.00
    2   19    9      0.24      0.00
    1    1   10      0.82      0.00
    0    2   10      3.97      0.00
    2    2   10      0.11      0.00
   -1    3   10     -2.08      0.00
    1    3   10     -1.28      0.00
    3    3   10     -0.49      0.00
   -2    4   10     -3.02      0.00
    0    4   10     -6.04      0.00
    2    4   10     -4.11      0.00
    4    4   10     -0.35      0.00
   -3    5   10      2.73      0.00
   -1    5   10      3.00      0.00
    1    5   10      0.99      0.00
    3    5   10     -0.17      0.00
    5    5   10      1.48      0.00
   -4    6   10      2.02      0.00
   -2    6   10      1.14      0.00
    0    6   10     -0.48      0.00
    2    6   10      0.77      0.00
    4    6   10      1.33      0.00
    6    6   10      0.47      0.00
   -5    7   10     -1.97      0.00
   -3    7   10     -3.90      0.00
   -1    7   10     -1.87      0.00
    1    7   10     -0.52      0.00
    3    7   10     -0.17      0.00
    5    7   10      0.85      0.00
    7    7   10      1.53      0.00
   -6    8   10      0.83      0.00
   -4    8   10     -5.58      0.00
   -2    8   10     -3.41      0.00
    0    8   10      3.97      0.00
    2    8   10      3.09      0.00
    4    8   10     -1.45      0.00
    6    8   10     -3.03      0.00
    8    8   10     -4.70      0.00
   -7    9   10     -1.22      0.00
   -5    9   10      1.63      0.00
   -3    9   10      3.93      0.00
   -1    9   10      2.09      0.00
    1    9   10      2.64      0.00
    3    9   10      0.97      0.00
    5    9   10     -2.85      0.00
    7    9   10     -1.75      0.00
    9    9   10     -0.02      0.00
   -8   10   10     -6.51      0.00
   -6   10   10     -3.24      0.00
   -4   10   10      5.38      0.00
   -2   10   10      5.30      0.00
    0   10   10     -2.11      0.00
    2   10   10     -1.76      0.00
    4   10   10      3.00      0.00
    6   10   10      3.45      0.00
    8   10   10      3.18      0.00
   10   10   10      4.64      0.00
   -9   11   10      0.12      0.00
   -7   11   10      1.33      0.00
   -5   11   10     -0.30      0.00
   -3   11   10     -1.99      0.00
   -1   11   10      0.27      0.00
    1   11   10     -0.56      0.00
    3   11   10      0.08      0.00
    5   11   10      1.82      0.00
    7   11   10     -0.61      0.00
    9   11   10     -0.22      0.00
   11   11   10      2.31      0.00
  -10   12   10      2.14      0.00
   -8   12   10      1.60      0.00
   -6   12   10      1.11      0.00
   -4   12   10     -1.96      0.00
   -2   12   10     -1.22      0.00
    0   12   10      0.97      0.00
    2   12   10     -1.40      0.00
    4   12   10     -3.22      0.00
    6   12   10      0.01      0.00
    8   12   10      0.10      0.00
   10   12   10     -5.59      0.00
   12   12   10     -6.83      0.00
  -11   13   10     -2.00      0.00
   -9   13   10      0.32      0.00
   -7   13   10     -2.34      0.00
   -5   13   10     -2.98      0.00
   -3   13   10     -2.39      0.00
   -1   13   10     -4.46      0.00
    1   13   10     -3.13      0.00
    3   13   10     -1.55      0.00
    5   13   10     -2.63      0.00
    7   13   10     -2.56      0.00
    9   13   10     -2.34      0.00
   11   13   10     -2.46      0.00
   13   13   10     -2.75      0.00
  -10   14   10      3.96      0.00
   -8   14   10      7.56      0.00
   -6   14   10      5.88      0.00
   -4   14   10      3.86      0.00
   -2   14   10      3.36      0.00
    0   14   10      3.31      0.00
    2   14   10      1.44      0.00
    4   14   10     -2.00      0.00
    6   14   10     -4.05      0.00
    8   14   10      0.26      0.00
   10   14   10      7.53      0.00
   -9   15   10     -0.31      0.00
   -7   15   10      2.31      0.00
   -5   15   10      2.78      0.00
   -3   15   10      2.36      0.00
   -1   15   10      2.63      0.00
    1   15   10     -0.37      0.00
    3   15   10     -0.27      0.00
    5   15   10      7.55      0.00
    7   15   10     12.42      0.00
    9   15   10      7.13      0.00
   -8   16   10     -7.04      0.00
   -6   16   10     -5.47      0.00
   -4   16   10     -6.19      0.00
   -2   16   10    -10.31      0.00
    0   16   10     -8.57      0.00
    2   16   10      0.83      0.00
    4   16   10      7.42      0.00
    6   16   10      4.67      0.00
    8   16   10     -2.40      0.00
   -5   17   10      1.15      0.00
   -3   17   10      0.83      0.00
   -1   17   10     -0.89      0.00
    1   17   10      2.13      0.00
    3   17   10      2.19      0.00
    5   17   10     -7.07      0.00
    7   17   10    -13.09      0.00
   -2   18   10      7.68      0.00
    0   18   10      5.04      0.00
    2   18   10     -2.09      0.00
    0    1   11     -4.94      0.00
   -1    2   11      2.81      0.00
    1    2   11      1.66      0.00
   -2    3   11     -2.01      0.00
    0    3   11     -2.02      0.00
    2    3   11      0.74      0.00
   -3    4   11     -0.63      0.00
   -1    4   11      0.98      0.00
    1    4   11     -0.14      0.00
    3    4   11     -2.89      0.00
   -4    5   11     -1.81      0.00
   -2    5   11      2.58      0.00
    0    5   11      4.08      0.00
    2    5   11      1.51      0.00
    4    5   11      1.10      0.00
   -5    6   11     -0.86      0.00
   -3    6   11      0.83      0.00
   -1    6   11     -0.96      0.00
    1    6   11      1.48      0.00
    3    6   11      4.66      0.00
    5    6   11      2.16      0.00
   -6    7   11     -0.90      0.00
   -4    7   11     -1.72      0.00
   -2    7   11     -2.44      0.00
    0    7   11     -3.85      0.00
    2    7   11     -3.44      0.00
    4    7   11     -3.12      0.00
    6    7   11     -2.51      0.00
   -7    8   11      1.36      0.00
   -5    8   11     -0.55      0.00
   -3    8   11     -2.64      0.00
   -1    8   11      0.43      0.00
    1    8   11      0.81      0.00
    3    8   11      0.15      0.00
    5    8   11      1.22      0.00
    7    8   11      0.11      0.00
   -8    9   11      0.05      0.00
   -6    9   11      1.41      0.00
   -4    9   11      0.48      0.00
   -2    9   11     -0.84      0.00
    0    9   11      1.37      0.00
    2    9   11      1.23      0.00
    4    9   11     -0.75      0.00
    6    9   11      0.13      0.00
    8    9   11     -0.02      0.00
   -9   10   11      2.96      0.00
   -7   10   11     -1.84      0.00
   -5   10   11     -0.93      0.00
   -3   10   11      2.88      0.00
   -1   10   11      0.29      0.00
    1   10   11     -0.79      0.00
    3   10   11     -0.97      0.00
    5   10   11     -2.58      0.00
    7   10   11     -1.07      0.00
    9   10   11      0.04      0.00
  -10   11   11      1.11      0.00
   -8   11   11     -1.85      0.00
   -6   11   11     -2.00      0.00
   -4   11   11      2.29      0.00
   -2   11   11      5.06      0.00
    0   11   11      2.63      0.00
    2   11   11      1.29      0.00
    4   11   11      2.67      0.00
    6   11   11      0.91      0.00
    8   11   11     -0.19      0.00
   10   11   11      2.33      0.00
  -11   12   11     -2.37      0.00
   -9   12   11     -4.85      0.00
   -7   12   11      1.03      0.00
   -5   12   11      1.64      0.00
   -3   12   11     -3.02      0.00
   -1   12   11     -3.39      0.00
    1   12   11     -4.05      0.00
    3   12   11     -3.12      0.00
    5   12   11      1.29      0.00
    7   12   11      2.17      0.00
    9   12   11      0.29      0.00
   11   12   11     -1.02      0.00
  -10   13   11     -1.98      0.00
   -8   13   11      2.14      0.00
   -6   13   11      2.85      0.00
   -4   13   11     -0.20      0.00
   -2   13   11     -1.79      0.00
    0   13   11     -0.76      0.00
    2   13   11      1.58      0.00
    4   13   11      1.08      0.00
    6   13   11     -0.06      0.00
    8   13   11      0.76      0.00
   10   13   11      1.55      0.00
   -9   14   11      4.07      0.00
   -7   14   11      2.34      0.00
   -5   14   11      0.86      0.00
   -3   14   11      2.61      0.00
   -1   14   11      2.91      0.00
    1   14   11      2.96      0.00
    3   14   11      1.31      0.00
    5   14   11     -2.37      0.00
    7   14   11     -3.20      0.00
    9   14   11     -1.41      0.00
   -8   15   11     -1.52      0.00
   -6   15   11     -1.43      0.00
   -4   15   11     -1.99      0.00
   -2   15   11     -4.02      0.00
    0   15   11     -4.35      0.00
    2   15   11     -4.73      0.00
    4   15   11     -2.79      0.00
    6   15   11      0.06      0.00
    8   15   11     -1.37      0.00
   -5   16   11     -1.43      0.00
   -3   16   11      0.07      0.00
   -1   16   11      0.44      0.00
    1   16   11      0.69      0.00
    3   16   11      2.34      0.00
    5   16   11      3.85      0.00
   -2   17   11      4.47      0.00
    0   17   11      5.41      0.00
    2   17   11      4.30      0.00
    0    0   12     -3.35      0.00
    1    1   12     -1.19      0.00
    0    2   12      1.94      0.00
    2    2   12      2.34      0.00
   -1    3   12     -1.32      0.00
    1    3   12      3.07      0.00
    3    3   12      3.21      0.00
   -2    4   12     -5.07      0.00
    0    4   12     -0.74      0.00
    2    4   12     -0.43      0.00
    4    4   12     -4.48      0.00
   -3    5   12      0.02      0.00
   -1    5   12      1.34      0.00
    1    5   12     -1.93      0.00
    3    5   12     -1.90      0.00
    5    5   12      2.43      0.00
   -4    6   12      5.52      0.00
   -2    6   12      3.16      0.00
    0    6   12     -2.00      0.00
    2    6   12     -3.50      0.00
    4    6   12     -1.31      0.00
    6    6   12      1.07      0.00
   -5    7   12      1.22      0.00
   -3    7   12      0.65      0.00
   -1    7   12     -0.67      0.00
    1    7   12      1.43      0.00
    3    7   12      2.40      0.00
    5    7   12     -1.62      0.00
    7    7   12     -2.20      0.00
   -6    8   12      0.84      0.00
   -4    8   12     -0.78      0.00
   -2    8   12      3.99      0.00
    0    8   12      5.07      0.00
    2    8   12      1.40      0.00
    4    8   12     -0.52      0.00
    6    8   12      0.37      0.00
    8    8   12      4.23      0.00
   -7    9   12      1.31      0.00
   -5    9   12      3.89      0.00
   -3    9   12      0.19      0.00
   -1    9   12      0.06      0.00
    1    9   12      0.04      0.00
    3    9   12     -2.20      0.00
    5    9   12     -0.30      0.00
    7    9   12      2.55      0.00
    9    9   12      2.91      0.00
   -8   10   12     -5.44      0.00
   -6   10   12     -4.43      0.00
   -4   10   12     -3.07      0.00
   -2   10   12     -4.90      0.00
    0   10   12     -1.18      0.00
    2   10   12      5.89      0.00
    4   10   12      4.95      0.00
    6   10   12     -0.35      0.00
    8   10   12     -3.85      0.00
   10   10   12     -3.44      0.00
   -9   11   12      1.19      0.00
   -7   11   12     -3.88      0.00
   -5   11   12     -4.56      0.00
   -3   11   12      0.79      0.00
   -1   11   12     -0.12      0.00
    1   11   12     -2.02      0.00
    3   11   12      0.17      0.00
    5   11   12     -0.76      0.00
    7   11   12     -3.27      0.00
    9   11   12     -2.13      0.00
   11   11   12      0.30      0.00
  -10   12   12     -0.07      0.00
   -8   12   12      1.56      0.00
   -6   12   12      5.08      0.00
   -4   12   12      4.17      0.00
   -2   12   12      0.37      0.00
    0   12   12     -5.06      0.00
    2   12   12     -8.12      0.00
    4   12   12     -1.50      0.00
    6   12   12      4.45      0.00
    8   12   12      2.58      0.00
   10   12   12      0.75      0.00
   -9   13   12      0.91      0.00
   -7   13   12      3.61      0.00
   -5   13   12      1.27      0.00
   -3   13   12     -1.68      0.00
   -1   13   12      0.41      0.00
    1   13   12      0.63      0.00
    3   13   12     -0.41      0.00
    5   13   12      2.73      0.00
    7   13   12      5.47      0.00
    9   13   12      2.36      0.00
   -6   14   12     -3.88      0.00
   -4   14   12     -3.57      0.00
   -2   14   12      2.23      0.00
    0   14   12      5.85      0.00
    2   14   12      4.30      0.00
    4   14   12     -2.56      0.00
    6   14   12     -4.96      0.00
   -5   15   12      1.62      0.00
   -3   15   12      1.12      0.00
   -1   15   12     -1.60      0.00
    1   15   12     -0.01      0.00
    3   15   12      1.20      0.00
    5   15   12     -0.60      0.00
    0    1   13      1.26      0.00
   -1    2   13      1.34      0.00
    1    2   13      1.54      0.00
   -2    3   13     -1.03      0.00
    0    3   13     -0.27      0.00
    2    3   13      0.02      0.00
   -3    4   13     -2.19      0.00
   -1    4   13     -2.11      0.00
    1    4   13     -0.32      0.00
    3    4   13      0.23      0.00
   -4    5   13     -0.86      0.00
   -2    5   13     -0.09      0.00
    0    5   13     -0.17      0.00
    2    5   13     -1.11      0.00
    4    5   13     -0.36      0.00
   -5    6   13      0.79      0.00
   -3    6   13      1.98      0.00
   -1    6   13      1.54      0.00
    1    6   13      0.60      0.00
    3    6   13      0.98      0.00
    5    6   13      0.90      0.00
   -6    7   13      2.76      0.00
   -4    7   13      4.19      0.00
   -2    7   13      3.40      0.00
    0    7   13      1.49      0.00
    2    7   13      1.05      0.00
    4    7   13      1.91      0.00
    6    7   13      2.83      0.00
   -7    8   13      0.59      0.00
   -5    8   13     -1.15      0.00
   -3    8   13      0.46      0.00
   -1    8   13      0.59      0.00
    1    8   13     -0.18      0.00
    3    8   13     -0.83      0.00
    5    8   13     -1.00      0.00
    7    8   13      2.48      0.00
   -8    9   13     -3.08      0.00
   -6    9   13     -0.98      0.00
   -4    9   13     -2.47      0.00
   -2    9   13     -3.94      0.00
    0    9   13     -1.58      0.00
    2    9   13      0.38      0.00
    4    9   13     -0.29      0.00
    6    9   13     -2.55      0.00
    8    9   13     -1.55      0.00
   -9   10   13      2.30      0.00
   -7   10   13      0.92      0.00
   -5   10   13     -2.06      0.00
   -3   10   13     -4.01      0.00
   -1   10   13     -2.75      0.00
    1   10   13     -1.25      0.00
    3   10   13     -1.14      0.00
    5   10   13     -0.87      0.00
    7   10   13     -0.71      0.00
    9   10   13     -0.55      0.00
   -8   11   13     -1.27      0.00
   -6   11   13     -6.93      0.00
   -4   11   13     -3.81      0.00
   -2   11   13      0.82      0.00
    0   11   13     -0.65      0.00
    2   11   13     -1.38      0.00
    4   11   13     -0.69      0.00
    6   11   13     -0.12      0.00
    8   11   13     -0.19      0.00
   -7   12   13     -0.21      0.00
   -5   12   13      5.40      0.00
   -3   12   13      5.19      0.00
   -1   12   13      1.46      0.00
    1   12   13     -0.79      0.00
    3   12   13     -0.04      0.00
    5   12   13      1.70      0.00
    7   12   13     -0.73      0.00
   -4   13   13      4.04      0.00
   -2   13   13      0.36      0.00
    0   13   13      1.49      0.00
    2   13   13      0.18      0.00
    4   13   13     -0.76      0.00
   -1   14   13      0.26      0.00
    1   14   13      1.76      0.00
    1    1   14     -1.69      0.00
    0    2   14     -0.67      0.00
    2    2   14      0.39      0.00
   -1    3   14     -0.06      0.00
    1    3   14      0.34      0.00
    3    3   14     -1.80      0.00
   -2    4   14     -0.02      0.00
    0    4   14      0.81      0.00
    2    4   14      1.21      0.00
    4    4   14      0.80      0.00
   -3    5   14      0.82      0.00
   -1    5   14      0.92      0.00
    1    5   14      1.84      0.00
    3    5   14      2.60      0.00
    5    5   14     -0.72      0.00
   -4    6   14      0.77      0.00
   -2    6   14      0.34      0.00
    0    6   14     -1.18      0.00
    2    6   14     -2.64      0.00
    4    6   14     -0.97      0.00
    6    6   14     -0.68      0.00
   -5    7   14      0.05      0.00
   -3    7   14     -0.28      0.00
   -1    7   14     -0.86      0.00
    1    7   14     -2.26      0.00
    3    7   14     -2.18      0.00
    5    7   14      0.21      0.00
    7    7   14     -2.65      0.00
   -6    8   14     -1.02      0.00
   -4    8   14      1.70      0.00
   -2    8   14      4.07      0.00
    0    8   14      4.47      0.00
    2    8   14      3.00      0.00
    4    8   14     -1.42      0.00
    6    8   14     -2.77      0.00
    8    8   14     -0.92      0.00
   -7    9   14      5.65      0.00
   -5    9   14      3.22      0.00
   -3    9   14      0.61      0.00
   -1    9   14     -1.48      0.00
    1    9   14     -3.11      0.00
    3    9   14     -2.79      0.00
    5    9   14      0.37      0.00
    7    9   14      4.59      0.00
   -6   10   14     -1.03      0.00
   -4   10   14     -3.82      0.00
   -2   10   14     -5.93      0.00
    0   10   14     -7.31      0.00
    2   10   14     -5.99      0.00
    4   10   14      0.17      0.00
    6   10   14      4.12      0.00
   -5   11   14     -1.38      0.00
   -3   11   14      1.84      0.00
   -1   11   14      3.41      0.00
    1   11   14      5.72      0.00
    3   11   14      5.85      0.00
    5   11   14      0.25      0.00
   -2   12   14      0.29      0.00
    0   12   14      5.31      0.00
    2   12   14      8.86      0.00
    0    1   15      3.56      0.00
   -1    2   15     -3.39      0.00
    1    2   15      0.15      0.00
   -2    3   15      1.59      0.00
    0    3   15      0.47      0.00
    2    3   15     -3.24      0.00
   -3    4   15      2.09      0.00
   -1    4   15     -0.17      0.00
    1    4   15     -1.94      0.00
    3    4   15      0.49      0.00
   -4    5   15      3.17      0.00
   -2    5   15      0.63      0.00
    0    5   15     -3.15      0.00
    2    5   15     -1.92      0.00
    4    5   15     -1.82      0.00
   -5    6   15      2.04      0.00
   -3    6   15      1.24      0.00
   -1    6   15      0.86      0.00
    1    6   15     -0.84      0.00
    3    6   15     -1.85      0.00
    5    6   15     -0.34      0.00
   -6    7   15      3.31      0.00
   -4    7   15     -0.14      0.00
   -2    7   15      0.31      0.00
    0    7   15      5.06      0.00
    2    7   15      7.05      0.00
    4    7   15      7.25      0.00
    6    7   15      3.67      0.00
   -5    8   15      0.53      0.00
   -3    8   15     -1.05      0.00
   -1    8   15      0.76      0.00
    1    8   15      2.62      0.00
    3    8   15      1.39      0.00
    5    8   15     -0.82      0.00
   -2    9   15     -1.80      0.00
    0    9   15     -3.81      0.00
    2    9   15     -4.98      0.00
    0    0   16      1.45      0.00
    1    1   16      0.62      0.00
    0    2   16      0.28      0.00
    2    2   16     -0.25      0.00
   -1    3   16      0.30      0.00
    1    3   16     -0.99      0.00
    3    3   16      0.10      0.00
   -2    4   16      2.77      0.00
    0    4   16     -1.88      0.00
    2    4   16     -0.58      0.00
   -1    5   16      0.22      0.00
    1    5   16      0.27      0.00
    0    1    0      0.00      0.00
    0    2    0   -353.65      0.00
   -2    3    0      0.00      0.00
    0    3    0      0.00      0.00
    2    3    0      0.00      0.00
   -4    5    0      0.00      0.00
   -2    5    0      0.00      0.00
    0    5    0      0.00      0.00
    2    5    0      0.00      0.00
    4    5    0      0.00      0.00
   -6    7    0      0.00      0.00
   -4    7    0      0.00      0.00
   -2    7    0      0.00      0.00
    0    7    0      0.00      0.00
    2    7    0      0.00      0.00
    4    7    0      0.00      0.00
    6    7    0      0.00      0.00
   -8    9    0      0.00      0.00
   -6    9    0      0.00      0.00
   -4    9    0      0.00      0.00
   -2    9    0      0.00      0.00
    0    9    0      0.00      0.00
    2    9    0      0.00      0.00
    4    9    0      0.00      0.00
    6    9    0      0.00      0.00
    8    9    0      0.00      0.00
  -10   11    0      0.00      0.00
   -8   11    0      0.00      0.00
   -6   11    0      0.00      0.00
   -4   11    0      0.00      0.00
   -2   11    0      0.00      0.00
    0   11    0      0.00      0.00
    2   11    0      0.00      0.00
    4   11    0      0.00      0.00
    6   11    0      0.00      0.00
    8   11    0      0.00      0.00
   10   11    0      0.00      0.00
  -12   13    0      0.00      0.00
  -10   13    0      0.00      0.00
   -8   13    0      0.00      0.00
   -6   13    0      0.00      0.00
   -4   13    0      0.00      0.00
   -2   13    0      0.00      0.00
    0   13    0      0.00      0.00
    2   13    0      0.00      0.00
    4   13    0      0.00      0.00
    6   13    0      0.00      0.00
    8   13    0      0.00      0.00
   10   13    0      0.00      0.00
   12   13    0      0.00      0.00
  -14   15    0      0.00      0.00
  -12   15    0      0.00      0.00
  -10   15    0      0.00      0.00
   -8   15    0      0.00      0.00
   -6   15    0      0.00      0.00
   -4   15    0      0.00      0.00
   -2   15    0      0.00      0.00
    0   15    0      0.00      0.00
    2   15    0      0.00      0.00
    4   15    0      0.00      0.00
    6   15    0      0.00      0.00
    8   15    0      0.00      0.00
   10   15    0      0.00      0.00
   12   15    0      0.00      0.00
   14   15    0      0.00      0.00
  -16   17    0      0.00      0.00
  -14   17    0      0.00      0.00
  -12   17    0      0.00      0.00
  -10   17    0      0.00      0.00
   -8   17    0      0.00      0.00
   -6   17    0      0.00      0.00
   -4   17    0      0.00      0.00
   -2   17    0      0.00      0.00
    0   17    0      0.00      0.00
    2   17    0      0.00      0.00
    4   17    0      0.00      0.00
    6   17    0      0.00      0.00
    8   17    0      0.00      0.00
   10   17    0      0.00      0.00
   12   17    0      0.00      0.00
   14   17    0      0.00      0.00
   16   17    0      0.00      0.00
  -12   19    0      0.00      0.00
  -10   19    0      0.00      0.00
   -8   19    0      0.00      0.00
   -6   19    0      0.00      0.00
   -4   19    0      0.00      0.00
   -2   19    0      0.00      0.00
    0   19    0      0.00      0.00
    2   19    0      0.00      0.00
    4   19    0      0.00      0.00
    6   19    0      0.00      0.00
    8   19    0      0.00      0.00
   10   19    0      0.00      0.00
   12   19    0      0.00      0.00
  -12   20    0      4.58      0.00
   12   20    0      4.66      0.00
  -10   21    0      0.00      0.00
   -8   21    0      0.00      0.00
   -6   21    0      0.00      0.00
   -4   21    0      0.00      0.00
   -2   21    0      0.00      0.00
    0   21    0      0.00      0.00
    2   21    0      0.00      0.00
    4   21    0      0.00      0.00
    6   21    0      0.00      0.00
    8   21    0      0.00      0.00
   10   21    0      0.00      0.00
   -4   23    0      0.00      0.00
   -2   23    0      0.00      0.00
    0   23    0      0.00      0.00
    2   23    0      0.00      0.00
    4   23    0      0.00      0.00
    2    2    1      0.00      0.00
   -1    3    1      0.00      0.00
    3    3    1      0.00      0.00
    0    4    1      0.00      0.00
    4    4    1      0.00      0.00
   -1    5    1      0.00      0.00
    3    5    1      0.00      0.00
   -4    6    1      0.00      0.00
    0    6    1      0.00      0.00
    4    6    1      0.00      0.00
   -5    7    1      0.00      0.00
   -1    7    1      0.00      0.00
    3    7    1      0.00      0.00
    7    7    1      0.00      0.00
   -4    8    1      0.00      0.00
    0    8    1      0.00      0.00
    4    8    1      0.00      0.00
    8    8    1      0.00      0.00
   -7    9    1      0.00      0.00
   -3    9    1      0.00      0.00
    1    9    1      0.00      0.00
    5    9    1      0.00      0.00
    9    9    1      0.00      0.00
   -6   10    1      0.00      0.00
   -2   10    1      0.00      0.00
    2   10    1      0.00      0.00
    6   10    1      0.00      0.00
   10   10    1      0.00      0.00
   -7   11    1      0.00      0.00
   -3   11    1      0.00      0.00
    1   11    1      0.00      0.00
    5   11    1      0.00      0.00
    9   11    1      0.00      0.00
  -10   12    1      0.00      0.00
   -6   12    1      0.00      0.00
   -2   12    1      0.00      0.00
    2   12    1      0.00      0.00
    6   12    1      0.00      0.00
   10   12    1      0.00      0.00
   -9   13    1      0.00      0.00
   -5   13    1      0.00      0.00
   -1   13    1      0.00      0.00
    3   13    1      0.00      0.00
    7   13    1      0.00      0.00
   11   13    1      0.00      0.00
  -12   14    1      0.00      0.00
   -8   14    1      0.00      0.00
   -4   14    1      0.00      0.00
    0   14    1      0.00      0.00
    4   14    1      0.00      0.00
    8   14    1      0.00      0.00
   12   14    1      0.00      0.00
  -11   15    1      0.00      0.00
   -7   15    1      0.00      0.00
   -3   15    1      0.00      0.00
    1   15    1      0.00      0.00
    5   15    1      0.00      0.00
    9   15    1      0.00      0.00
   13   15    1      0.00      0.00
  -14   16    1      0.00      0.00
  -10   16    1      0.00      0.00
   -6   16    1      0.00      0.00
   -2   16    1      0.00      0.00
    2   16    1      0.00      0.00
    6   16    1      0.00      0.00
   10   16    1      0.00      0.00
   14   16    1      0.00      0.00
  -13   17    1      0.00      0.00
   -9   17    1      0.00      0.00
   -5   17    1      0.00      0.00
   -1   17    1      0.00      0.00
    3   17    1      0.00      0.00
    7   17    1      0.00      0.00
   11   17    1      0.00      0.00
   15   17    1      0.00      0.00
  -12   18    1      0.00      0.00
   -8   18    1      0.00      0.00
   -4   18    1      0.00      0.00
    0   18    1      0.00      0.00
    4   18    1      0.00      0.00
    8   18    1      0.00      0.00
   12   18    1      0.00      0.00
  -11   19    1      0.00      0.00
   -7   19    1      0.00      0.00
   -3   19    1      0.00      0.00
    1   19    1      0.00      0.00
    5   19    1      0.00      0.00
    9   19    1      0.00      0.00
   13   19    1      0.00      0.00
  -10   20    1      0.00      0.00
   -6   20    1      0.00      0.00
   -2   20    1      0.00      0.00
    2   20    1      0.00      0.00
    6   20    1      0.00      0.00
   10   20    1      0.00      0.00
  -10   21    1     -1.40      0.00
   -7   21    1      0.00      0.00
   -3   21    1      0.00      0.00
    1   21    1      0.00      0.00
    5   21    1      0.00      0.00
    9   21    1      0.00      0.00
   10   21    1     -4.39      0.00
   -7   22    1      1.35      0.00
   -4   22    1      0.00      0.00
    0   22    1      0.00      0.00
    4   22    1      0.00      0.00
   -1   23    1      0.00      0.00
    3   23    1      0.00      0.00
    0    1    2      0.00      0.00
   -1    2    2      0.00      0.00
    0    3    2      0.00      0.00
   -1    4    2      0.00      0.00
    3    4    2      0.00      0.00
   -4    5    2      0.00      0.00
    0    5    2      0.00      0.00
    4    5    2      0.00      0.00
   -5    6    2      0.00      0.00
   -1    6    2      0.00      0.00
    3    6    2      0.00      0.00
   -4    7    2      0.00      0.00
    0    7    2      0.00      0.00
    4    7    2      0.00      0.00
   -7    8    2      0.00      0.00
   -3    8    2      0.00      0.00
    1    8    2      0.00      0.00
    5    8    2      0.00      0.00
   -8    9    2      0.00      0.00
   -4    9    2      0.00      0.00
    0    9    2      0.00      0.00
    4    9    2      0.00      0.00
    8    9    2      0.00      0.00
   -7   10    2      0.00      0.00
   -3   10    2      0.00      0.00
    1   10    2      0.00      0.00
    5   10    2      0.00      0.00
    9   10    2      0.00      0.00
  -10   11    2      0.00      0.00
   -6   11    2      0.00      0.00
   -2   11    2      0.00      0.00
    2   11    2      0.00      0.00
    6   11    2      0.00      0.00
   10   11    2      0.00      0.00
   -9   12    2      0.00      0.00
   -5   12    2      0.00      0.00
   -1   12    2      0.00      0.00
    3   12    2      0.00      0.00
    7   12    2      0.00      0.00
   11   12    2      0.00      0.00
  -12   13    2      0.00      0.00
   -8   13    2      0.00      0.00
   -4   13    2      0.00      0.00
    0   13    2      0.00      0.00
    4   13    2      0.00      0.00
    8   13    2      0.00      0.00
   12   13    2      0.00      0.00
  -13   14    2      0.00      0.00
   -9   14    2      0.00      0.00
   -5   14    2      0.00      0.00
   -1   14    2      0.00      0.00
    3   14    2      0.00      0.00
    7   14    2      0.00      0.00
   11   14    2      0.00      0.00
  -12   15    2      0.00      0.00
   -8   15    2      0.00      0.00
   -4   15    2      0.00      0.00
    0   15    2      0.00      0.00
    4   15    2      0.00      0.00
    8   15    2      0.00      0.00
   12   15    2      0.00      0.00
  -15   16    2      0.00      0.00
  -11   16    2      0.00      0.00
   -7   16    2      0.00      0.00
   -3   16    2      0.00      0.00
    1   16    2      0.00      0.00
    5   16    2      0.00      0.00
    9   16    2      0.00      0.00
   13   16    2      0.00      0.00
  -14   17    2      0.00      0.00
  -10   17    2      0.00      0.00
   -6   17    2      0.00      0.00
   -2   17    2      0.00      0.00
    2   17    2      0.00      0.00
    6   17    2      0.00      0.00
   10   17    2      0.00      0.00
   14   17    2      0.00      0.00
  -13   18    2      0.00      0.00
   -9   18    2      0.00      0.00
   -5   18    2      0.00      0.00
   -1   18    2      0.00      0.00
    3   18    2      0.00      0.00
    7   18    2      0.00      0.00
   11   18    2      0.00      0.00
  -13   19    2     -2.90      0.00
  -10   19    2      0.00      0.00
   -6   19    2      0.00      0.00
   -2   19    2      0.00      0.00
    2   19    2      0.00      0.00
    6   19    2      0.00      0.00
   10   19    2      0.00      0.00
   13   19    2     11.07      0.00
   -9   20    2      0.00      0.00
   -5   20    2      0.00      0.00
   -1   20    2      0.00      0.00
    3   20    2      0.00      0.00
    7   20    2      0.00      0.00
   11   20    2      0.00      0.00
   -8   21    2      0.00      0.00
   -4   21    2      0.00      0.00
    0   21    2      0.00      0.00
    4   21    2      0.00      0.00
    8   21    2      0.00      0.00
   -5   22    2      0.00      0.00
   -1   22    2      0.00      0.00
    3   22    2      0.00      0.00
    7   22    2      0.00      0.00
   -1   23    2     -3.59      0.00
    1   23    2     -1.37      0.00
    0    2    3      0.00      0.00
   -1    3    3      0.00      0.00
    3    3    3      0.00      0.00
    0    4    3      0.00      0.00
    4    4    3      0.00      0.00
   -1    5    3      0.00      0.00
    3    5    3      0.00      0.00
   -4    6    3      0.00      0.00
    0    6    3      0.00      0.00
    4    6    3      0.00      0.00
   -3    7    3      0.00      0.00
    1    7    3      0.00      0.00
    5    7    3      0.00      0.00
   -4    8    3      0.00      0.00
    0    8    3      0.00      0.00
    4    8    3      0.00      0.00
    8    8    3      0.00      0.00
   -7    9    3      0.00      0.00
   -3    9    3      0.00      0.00
    1    9    3      0.00      0.00
    5    9    3      0.00      0.00
    9    9    3      0.00      0.00
   -6   10    3      0.00      0.00
   -2   10    3      0.00      0.00
    2   10    3      0.00      0.00
    6   10    3      0.00      0.00
   10   10    3      0.00      0.00
   -9   11    3      0.00      0.00
   -5   11    3      0.00      0.00
   -1   11    3      0.00      0.00
    3   11    3      0.00      0.00
    7   11    3      0.00      0.00
   11   11    3      0.00      0.00
  -10   12    3      0.00      0.00
   -6   12    3      0.00      0.00
   -2   12    3      0.00      0.00
    2   12    3      0.00      0.00
    6   12    3      0.00      0.00
   10   12    3      0.00      0.00
   -9   13    3      0.00      0.00
   -5   13    3      0.00      0.00
   -1   13    3      0.00      0.00
    3   13    3      0.00      0.00
    7   13    3      0.00      0.00
   11   13    3      0.00      0.00
  -12   14    3      0.00      0.00
   -8   14    3      0.00      0.00
   -4   14    3      0.00      0.00
    0   14    3      0.00      0.00
    4   14    3      0.00      0.00
    8   14    3      0.00      0.00
   12   14    3      0.00      0.00
  -11   15    3      0.00      0.00
   -7   15    3      0.00      0.00
   -3   15    3      0.00      0.00
    1   15    3      0.00      0.00
    5   15    3      0.00      0.00
    9   15    3      0.00      0.00
   13   15    3      0.00      0.00
  -14   16    3      0.00      0.00
  -10   16    3      0.00      0.00
   -6   16    3      0.00      0.00
   -2   16    3      0.00      0.00
    2   16    3      0.00      0.00
    6   16    3      0.00      0.00
   10   16    3      0.00      0.00
   14   16    3      0.00      0.00
  -13   17    3      0.00      0.00
   -9   17    3      0.00      0.00
   -5   17    3      0.00      0.00
   -1   17    3      0.00      0.00
    3   17    3      0.00      0.00
    7   17    3      0.00      0.00
   11   17    3      0.00      0.00
   15   17    3      0.00      0.00
  -12   18    3      0.00      0.00
   -8   18    3      0.00      0.00
   -4   18    3      0.00      0.00
    0   18    3      0.00      0.00
    4   18    3      0.00      0.00
    8   18    3      0.00      0.00
   12   18    3      0.00      0.00
  -11   19    3      0.00      0.00
   -7   19    3      0.00      0.00
   -3   19    3      0.00      0.00
    1   19    3      0.00      0.00
    5   19    3      0.00      0.00
    9   19    3      0.00      0.00
  -11   20    3      0.86      0.00
   -8   20    3      0.00      0.00
   -4   20    3      0.00      0.00
    0   20    3      0.00      0.00
    4   20    3      0.00      0.00
    8   20    3      0.00      0.00
   11   20    3     -0.24      0.00
   -7   21    3      0.00      0.00
   -3   21    3      0.00      0.00
    1   21    3      0.00      0.00
    5   21    3      0.00      0.00
    9   21    3      0.00      0.00
   -4   22    3      0.00      0.00
    0   22    3      0.00      0.00
    4   22    3      0.00      0.00
    0    1    4      0.00      0.00
   -1    2    4      0.00      0.00
    0    3    4      0.00      0.00
   -1    4    4      0.00      0.00
    3    4    4      0.00      0.00
   -4    5    4      0.00      0.00
    0    5    4      0.00      0.00
    4    5    4      0.00      0.00
   -3    6    4      0.00      0.00
    1    6    4      0.00      0.00
    5    6    4      0.00      0.00
   -4    7    4      0.00      0.00
    0    7    4      0.00      0.00
    4    7    4      0.00      0.00
   -7    8    4      0.00      0.00
   -3    8    4      0.00      0.00
    1    8    4      0.00      0.00
    5    8    4      0.00      0.00
   -6    9    4      0.00      0.00
   -2    9    4      0.00      0.00
    2    9    4      0.00      0.00
    6    9    4      0.00      0.00
   -7   10    4      0.00      0.00
   -3   10    4      0.00      0.00
    1   10    4      0.00      0.00
    5   10    4      0.00      0.00
    9   10    4      0.00      0.00
  -10   11    4      0.00      0.00
   -6   11    4      0.00      0.00
   -2   11    4      0.00      0.00
    2   11    4      0.00      0.00
    6   11    4      0.00      0.00
   10   11    4      0.00      0.00
   -9   12    4      0.00      0.00
   -5   12    4      0.00      0.00
   -1   12    4      0.00      0.00
    3   12    4      0.00      0.00
    7   12    4      0.00      0.00
   11   12    4      0.00      0.00
  -12   13    4      0.00      0.00
   -8   13    4      0.00      0.00
   -4   13    4      0.00      0.00
    0   13    4      0.00      0.00
    4   13    4      0.00      0.00
    8   13    4      0.00      0.00
   12   13    4      0.00      0.00
  -11   14    4      0.00      0.00
   -7   14    4      0.00      0.00
   -3   14    4      0.00      0.00
    1   14    4      0.00      0.00
    5   14    4      0.00      0.00
    9   14    4      0.00      0.00
   13   14    4      0.00      0.00
  -14   15    4      0.00      0.00
  -10   15    4      0.00      0.00
   -6   15    4      0.00      0.00
   -2   15    4      0.00      0.00
    2   15    4      0.00      0.00
    6   15    4      0.00      0.00
   10   15    4      0.00      0.00
   14   15    4      0.00      0.00
  -13   16    4      0.00      0.00
   -9   16    4      0.00      0.00
   -5   16    4      0.00      0.00
   -1   16    4      0.00      0.00
    3   16    4      0.00      0.00
    7   16    4      0.00      0.00
   11   16    4      0.00      0.00
   15   16    4      0.00      0.00
   16   16    4      3.16      0.00
  -12   17    4      0.00      0.00
   -8   17    4      0.00      0.00
   -4   17    4      0.00      0.00
    0   17    4      0.00      0.00
    4   17    4      0.00      0.00
    8   17    4      0.00      0.00
   12   17    4      0.00      0.00
  -11   18    4      0.00      0.00
   -7   18    4      0.00      0.00
   -3   18    4      0.00      0.00
    1   18    4      0.00      0.00
    5   18    4      0.00      0.00
    9   18    4      0.00      0.00
   13   18    4      0.00      0.00
  -10   19    4      0.00      0.00
   -6   19    4      0.00      0.00
   -2   19    4      0.00      0.00
    2   19    4      0.00      0.00
    6   19    4      0.00      0.00
   10   19    4      0.00      0.00
   -9   20    4      0.00      0.00
   -5   20    4      0.00      0.00
   -1   20    4      0.00      0.00
    3   20    4      0.00      0.00
    7   20    4      0.00      0.00
   -6   21    4      0.00      0.00
   -2   21    4      0.00      0.00
    2   21    4      0.00      0.00
    6   21    4      0.00      0.00
   -3   22    4      0.00      0.00
    1   22    4      0.00      0.00
    5   22    4      0.00      0.00
    0    2    5      0.00      0.00
    1    3    5      0.00      0.00
    0    4    5      0.00      0.00
    4    4    5      0.00      0.00
   -3    5    5      0.00      0.00
    1    5    5      0.00      0.00
    5    5    5      0.00      0.00
   -4    6    5      0.00      0.00
    0    6    5      0.00      0.00
    4    6    5      0.00      0.00
   -3    7    5      0.00      0.00
    1    7    5      0.00      0.00
    5    7    5      0.00      0.00
   -6    8    5      0.00      0.00
   -2    8    5      0.00      0.00
    2    8    5      0.00      0.00
    6    8    5      0.00      0.00
   -7    9    5      0.00      0.00
   -3    9    5      0.00      0.00
    1    9    5      0.00      0.00
    5    9    5      0.00      0.00
    9    9    5      0.00      0.00
   -6   10    5      0.00      0.00
   -2   10    5      0.00      0.00
    2   10    5      0.00      0.00
    6   10    5      0.00      0.00
   10   10    5      0.00      0.00
   -9   11    5      0.00      0.00
   -5   11    5      0.00      0.00
   -1   11    5      0.00      0.00
    3   11    5      0.00      0.00
    7   11    5      0.00      0.00
   11   11    5      0.00      0.00
   -8   12    5      0.00      0.00
   -4   12    5      0.00      0.00
    0   12    5      0.00      0.00
    4   12    5      0.00      0.00
    8   12    5      0.00      0.00
   12   12    5      0.00      0.00
  -11   13    5      0.00      0.00
   -7   13    5      0.00      0.00
   -3   13    5      0.00      0.00
    1   13    5      0.00      0.00
    5   13    5      0.00      0.00
    9   13    5      0.00      0.00
   13   13    5      0.00      0.00
  -12   14    5      0.00      0.00
   -8   14    5      0.00      0.00
   -4   14    5      0.00      0.00
    0   14    5      0.00      0.00
    4   14    5      0.00      0.00
    8   14    5      0.00      0.00
   12   14    5      0.00      0.00
  -11   15    5      0.00      0.00
   -7   15    5      0.00      0.00
   -3   15    5      0.00      0.00
    1   15    5      0.00      0.00
    5   15    5      0.00      0.00
    9   15    5      0.00      0.00
   13   15    5      0.00      0.00
  -14   16    5      0.00      0.00
  -10   16    5      0.00      0.00
   -6   16    5      0.00      0.00
   -2   16    5      0.00      0.00
    2   16    5      0.00      0.00
    6   16    5      0.00      0.00
   10   16    5      0.00      0.00
   14   16    5      0.00      0.00
  -13   17    5      0.00      0.00
   -9   17    5      0.00      0.00
   -5   17    5      0.00      0.00
   -1   17    5      0.00      0.00
    3   17    5      0.00      0.00
    7   17    5      0.00      0.00
   11   17    5      0.00      0.00
  -13   18    5      1.21      0.00
  -10   18    5      0.00      0.00
   -6   18    5      0.00      0.00
   -2   18    5      0.00      0.00
    2   18    5      0.00      0.00
    6   18    5      0.00      0.00
   10   18    5      0.00      0.00
   13   18    5      0.77      0.00
   -9   19    5      0.00      0.00
   -5   19    5      0.00      0.00
   -1   19    5      0.00      0.00
    3   19    5      0.00      0.00
    7   19    5      0.00      0.00
   11   19    5      0.00      0.00
   -8   20    5      0.00      0.00
   -4   20    5      0.00      0.00
    0   20    5      0.00      0.00
    4   20    5      0.00      0.00
    8   20    5      0.00      0.00
   -5   21    5      0.00      0.00
   -1   21    5      0.00      0.00
    3   21    5      0.00      0.00
    7   21    5      0.00      0.00
   -3   22    5      6.28      0.00
    0   22    5      0.00      0.00
    3   22    5      2.20      0.00
    0    1    6      0.00      0.00
    1    2    6      0.00      0.00
    0    3    6      0.00      0.00
   -3    4    6      0.00      0.00
    1    4    6      0.00      0.00
   -2    5    6      0.00      0.00
    2    5    6      0.00      0.00
   -3    6    6      0.00      0.00
    1    6    6      0.00      0.00
    5    6    6      0.00      0.00
   -6    7    6      0.00      0.00
   -2    7    6      0.00      0.00
    2    7    6      0.00      0.00
    6    7    6      0.00      0.00
   -7    8    6      0.00      0.00
   -3    8    6      0.00      0.00
    1    8    6      0.00      0.00
    5    8    6      0.00      0.00
   -6    9    6      0.00      0.00
   -2    9    6      0.00      0.00
    2    9    6      0.00      0.00
    6    9    6      0.00      0.00
   -9   10    6      0.00      0.00
   -5   10    6      0.00      0.00
   -1   10    6      0.00      0.00
    3   10    6      0.00      0.00
    7   10    6      0.00      0.00
   -8   11    6      0.00      0.00
   -4   11    6      0.00      0.00
    0   11    6      0.00      0.00
    4   11    6      0.00      0.00
    8   11    6      0.00      0.00
  -11   12    6      0.00      0.00
   -7   12    6      0.00      0.00
   -3   12    6      0.00      0.00
    1   12    6      0.00      0.00
    5   12    6      0.00      0.00
    9   12    6      0.00      0.00
  -12   13    6      0.00      0.00
   -8   13    6      0.00      0.00
   -4   13    6      0.00      0.00
    0   13    6      0.00      0.00
    4   13    6      0.00      0.00
    8   13    6      0.00      0.00
   12   13    6      0.00      0.00
  -11   14    6      0.00      0.00
   -7   14    6      0.00      0.00
   -3   14    6      0.00      0.00
    1   14    6      0.00      0.00
    5   14    6      0.00      0.00
    9   14    6      0.00      0.00
   13   14    6      0.00      0.00
  -14   15    6      0.00      0.00
  -10   15    6      0.00      0.00
   -6   15    6      0.00      0.00
   -2   15    6      0.00      0.00
    2   15    6      0.00      0.00
    6   15    6      0.00      0.00
   10   15    6      0.00      0.00
   14   15    6      0.00      0.00
  -13   16    6      0.00      0.00
   -9   16    6      0.00      0.00
   -5   16    6      0.00      0.00
   -1   16    6      0.00      0.00
    3   16    6      0.00      0.00
    7   16    6      0.00      0.00
   11   16    6      0.00      0.00
  -12   17    6      0.00      0.00
   -8   17    6      0.00      0.00
   -4   17    6      0.00      0.00
    0   17    6      0.00      0.00
    4   17    6      0.00      0.00
    8   17    6      0.00      0.00
   12   17    6      0.00      0.00
  -12   18    6     -0.61      0.00
   -9   18    6      0.00      0.00
   -5   18    6      0.00      0.00
   -1   18    6      0.00      0.00
    3   18    6      0.00      0.00
    7   18    6      0.00      0.00
   11   18    6      0.00      0.00
   12   18    6      8.96      0.00
   -8   19    6      0.00      0.00
   -4   19    6      0.00      0.00
    0   19    6      0.00      0.00
    4   19    6      0.00      0.00
    8   19    6      0.00      0.00
   -8   20    6      1.45      0.00
   -5   20    6      0.00      0.00
   -1   20    6      0.00      0.00
    3   20    6      0.00      0.00
    7   20    6      0.00      0.00
   -5   21    6      7.24      0.00
   -2   21    6      0.00      0.00
    2   21    6      0.00      0.00
    5   21    6      3.57      0.00
    1    1    7      0.00      0.00
    2    2    7      0.00      0.00
    1    3    7      0.00      0.00
   -2    4    7      0.00      0.00
    2    4    7      0.00      0.00
   -3    5    7      0.00      0.00
    1    5    7      0.00      0.00
    5    5    7      0.00      0.00
   -2    6    7      0.00      0.00
    2    6    7      0.00      0.00
    6    6    7      0.00      0.00
   -5    7    7      0.00      0.00
   -1    7    7      0.00      0.00
    3    7    7      0.00      0.00
    7    7    7      0.00      0.00
   -6    8    7      0.00      0.00
   -2    8    7      0.00      0.00
    2    8    7      0.00      0.00
    6    8    7      0.00      0.00
   -5    9    7      0.00      0.00
   -1    9    7      0.00      0.00
    3    9    7      0.00      0.00
    7    9    7      0.00      0.00
   -8   10    7      0.00      0.00
   -4   10    7      0.00      0.00
    0   10    7      0.00      0.00
    4   10    7      0.00      0.00
    8   10    7      0.00      0.00
   -7   11    7      0.00      0.00
   -3   11    7      0.00      0.00
    1   11    7      0.00      0.00
    5   11    7      0.00      0.00
    9   11    7      0.00      0.00
   -8   12    7      0.00      0.00
   -4   12    7      0.00      0.00
    0   12    7      0.00      0.00
    4   12    7      0.00      0.00
    8   12    7      0.00      0.00
   12   12    7      0.00      0.00
  -11   13    7      0.00      0.00
   -7   13    7      0.00      0.00
   -3   13    7      0.00      0.00
    1   13    7      0.00      0.00
    5   13    7      0.00      0.00
    9   13    7      0.00      0.00
   13   13    7      0.00      0.00
  -10   14    7      0.00      0.00
   -6   14    7      0.00      0.00
   -2   14    7      0.00      0.00
    2   14    7      0.00      0.00
    6   14    7      0.00      0.00
   10   14    7      0.00      0.00
   14   14    7      0.00      0.00
  -13   15    7      0.00      0.00
   -9   15    7      0.00      0.00
   -5   15    7      0.00      0.00
   -1   15    7      0.00      0.00
    3   15    7      0.00      0.00
    7   15    7      0.00      0.00
   11   15    7      0.00      0.00
  -12   16    7      0.00      0.00
   -8   16    7      0.00      0.00
   -4   16    7      0.00      0.00
    0   16    7      0.00      0.00
    4   16    7      0.00      0.00
    8   16    7      0.00      0.00
   12   16    7      0.00      0.00
  -11   17    7      0.00      0.00
   -7   17    7      0.00      0.00
   -3   17    7      0.00      0.00
    1   17    7      0.00      0.00
    5   17    7      0.00      0.00
    9   17    7      0.00      0.00
  -11   18    7      1.23      0.00
   -8   18    7      0.00      0.00
   -4   18    7      0.00      0.00
    0   18    7      0.00      0.00
    4   18    7      0.00      0.00
    8   18    7      0.00      0.00
   11   18    7     -5.17      0.00
   -7   19    7      0.00      0.00
   -3   19    7      0.00      0.00
    1   19    7      0.00      0.00
    5   19    7      0.00      0.00
    9   19    7      0.00      0.00
   -4   20    7      0.00      0.00
    0   20    7      0.00      0.00
    4   20    7      0.00      0.00
   -2   21    7     -3.06      0.00
    0   21    7     -2.70      0.00
    2   21    7      1.66      0.00
    1    2    8      0.00      0.00
   -2    3    8      0.00      0.00
    2    3    8      0.00      0.00
   -1    4    8      0.00      0.00
    3    4    8      0.00      0.00
   -2    5    8      0.00      0.00
    2    5    8      0.00      0.00
   -5    6    8      0.00      0.00
   -1    6    8      0.00      0.00
    3    6    8      0.00      0.00
   -4    7    8      0.00      0.00
    0    7    8      0.00      0.00
    4    7    8      0.00      0.00
   -5    8    8      0.00      0.00
   -1    8    8      0.00      0.00
    3    8    8      0.00      0.00
    7    8    8      0.00      0.00
   -8    9    8      0.00      0.00
   -4    9    8      0.00      0.00
    0    9    8      0.00      0.00
    4    9    8      0.00      0.00
    8    9    8      0.00      0.00
   -7   10    8      0.00      0.00
   -3   10    8      0.00      0.00
    1   10    8      0.00      0.00
    5   10    8      0.00      0.00
    9   10    8      0.00      0.00
   -8   11    8      0.00      0.00
   -4   11    8      0.00      0.00
    0   11    8      0.00      0.00
    4   11    8      0.00      0.00
    8   11    8      0.00      0.00
  -11   12    8      0.00      0.00
   -7   12    8      0.00      0.00
   -3   12    8      0.00      0.00
    1   12    8      0.00      0.00
    5   12    8      0.00      0.00
    9   12    8      0.00      0.00
  -10   13    8      0.00      0.00
   -6   13    8      0.00      0.00
   -2   13    8      0.00      0.00
    2   13    8      0.00      0.00
    6   13    8      0.00      0.00
   10   13    8      0.00      0.00
  -13   14    8      0.00      0.00
   -9   14    8      0.00      0.00
   -5   14    8      0.00      0.00
   -1   14    8      0.00      0.00
    3   14    8      0.00      0.00
    7   14    8      0.00      0.00
   11   14    8      0.00      0.00
  -12   15    8      0.00      0.00
   -8   15    8      0.00      0.00
   -4   15    8      0.00      0.00
    0   15    8      0.00      0.00
    4   15    8      0.00      0.00
    8   15    8      0.00      0.00
   12   15    8      0.00      0.00
  -11   16    8      0.00      0.00
   -7   16    8      0.00      0.00
   -3   16    8      0.00      0.00
    1   16    8      0.00      0.00
    5   16    8      0.00      0.00
    9   16    8      0.00      0.00
  -11   17    8     -3.55      0.00
   -8   17    8      0.00      0.00
   -4   17    8      0.00      0.00
    0   17    8      0.00      0.00
    4   17    8      0.00      0.00
    8   17    8      0.00      0.00
   -7   18    8      0.00      0.00
   -3   18    8      0.00      0.00
    1   18    8      0.00      0.00
    5   18    8      0.00      0.00
    9   18    8      0.00      0.00
   -7   19    8     -1.22      0.00
   -4   19    8      0.00      0.00
    0   19    8      0.00      0.00
    4   19    8      0.00      0.00
    7   19    8     -0.31      0.00
   -4   20    8     -0.87      0.00
   -1   20    8      0.00      0.00
    3   20    8      0.00      0.00
    4   20    8     -2.39      0.00
    2    2    9      0.00      0.00
   -1    3    9      0.00      0.00
    3    3    9      0.00      0.00
    0    4    9      0.00      0.00
    4    4    9      0.00      0.00
   -1    5    9      0.00      0.00
    3    5    9      0.00      0.00
   -4    6    9      0.00      0.00
    0    6    9      0.00      0.00
    4    6    9      0.00      0.00
   -5    7    9      0.00      0.00
   -1    7    9      0.00      0.00
    3    7    9      0.00      0.00
    7    7    9      0.00      0.00
   -4    8    9      0.00      0.00
    0    8    9      0.00      0.00
    4    8    9      0.00      0.00
    8    8    9      0.00      0.00
   -7    9    9      0.00      0.00
   -3    9    9      0.00      0.00
    1    9    9      0.00      0.00
    5    9    9      0.00      0.00
    9    9    9      0.00      0.00
   -6   10    9      0.00      0.00
   -2   10    9      0.00      0.00
    2   10    9      0.00      0.00
    6   10    9      0.00      0.00
   10   10    9      0.00      0.00
   -7   11    9      0.00      0.00
   -3   11    9      0.00      0.00
    1   11    9      0.00      0.00
    5   11    9      0.00      0.00
    9   11    9      0.00      0.00
  -10   12    9      0.00      0.00
   -6   12    9      0.00      0.00
   -2   12    9      0.00      0.00
    2   12    9      0.00      0.00
    6   12    9      0.00      0.00
   10   12    9      0.00      0.00
   -9   13    9      0.00      0.00
   -5   13    9      0.00      0.00
   -1   13    9      0.00      0.00
    3   13    9      0.00      0.00
    7   13    9      0.00      0.00
   11   13    9      0.00      0.00
  -12   14    9      0.00      0.00
   -8   14    9      0.00      0.00
   -4   14    9      0.00      0.00
    0   14    9      0.00      0.00
    4   14    9      0.00      0.00
    8   14    9      0.00      0.00
   12   14    9      0.00      0.00
  -11   15    9      0.00      0.00
   -7   15    9      0.00      0.00
   -3   15    9      0.00      0.00
    1   15    9      0.00      0.00
    5   15    9      0.00      0.00
    9   15    9      0.00      0.00
  -11   16    9     -0.17      0.00
   -8   16    9      0.00      0.00
   -4   16    9      0.00      0.00
    0   16    9      0.00      0.00
    4   16    9      0.00      0.00
    8   16    9      0.00      0.00
   -7   17    9      0.00      0.00
   -3   17    9      0.00      0.00
    1   17    9      0.00      0.00
    5   17    9      0.00      0.00
    9   17    9      0.00      0.00
   -6   18    9      0.00      0.00
   -2   18    9      0.00      0.00
    2   18    9      0.00      0.00
    6   18    9      0.00      0.00
   -4   19    9     -0.86      0.00
   -1   19    9      0.00      0.00
    3   19    9      0.00      0.00
    4   19    9     -1.38      0.00
    0    1   10      0.00      0.00
   -1    2   10      0.00      0.00
    0    3   10      0.00      0.00
   -3    4   10      0.00      0.00
    1    4   10      0.00      0.00
   -4    5   10      0.00      0.00
    0    5   10      0.00      0.00
    4    5   10      0.00      0.00
   -3    6   10      0.00      0.00
    1    6   10      0.00      0.00
    5    6   10      0.00      0.00
   -4    7   10      0.00      0.00
    0    7   10      0.00      0.00
    4    7   10      0.00      0.00
   -7    8   10      0.00      0.00
   -3    8   10      0.00      0.00
    1    8   10      0.00      0.00
    5    8   10      0.00      0.00
   -6    9   10      0.00      0.00
   -2    9   10      0.00      0.00
    2    9   10      0.00      0.00
    6    9   10      0.00      0.00
   -9   10   10      0.00      0.00
   -5   10   10      0.00      0.00
   -1   10   10      0.00      0.00
    3   10   10      0.00      0.00
    7   10   10      0.00      0.00
   -8   11   10      0.00      0.00
   -4   11   10      0.00      0.00
    0   11   10      0.00      0.00
    4   11   10      0.00      0.00
    8   11   10      0.00      0.00
  -11   12   10      0.00      0.00
   -7   12   10      0.00      0.00
   -3   12   10      0.00      0.00
    1   12   10      0.00      0.00
    5   12   10      0.00      0.00
    9   12   10      0.00      0.00
  -12   13   10      0.00      0.00
   -8   13   10      0.00      0.00
   -4   13   10      0.00      0.00
    0   13   10      0.00      0.00
    4   13   10      0.00      0.00
    8   13   10      0.00      0.00
   12   13   10      0.00      0.00
  -12   14   10     -2.48      0.00
   -9   14   10      0.00      0.00
   -5   14   10      0.00      0.00
   -1   14   10      0.00      0.00
    3   14   10      0.00      0.00
    7   14   10      0.00      0.00
   11   14   10      0.00      0.00
   12   14   10      7.20      0.00
  -11   15   10      0.75      0.00
   -8   15   10      0.00      0.00
   -4   15   10      0.00      0.00
    0   15   10      0.00      0.00
    4   15   10      0.00      0.00
    8   15   10      0.00      0.00
   11   15   10     -0.17      0.00
   -7   16   10      0.00      0.00
   -3   16   10      0.00      0.00
    1   16   10      0.00      0.00
    5   16   10      0.00      0.00
    9   16   10      0.00      0.00
   -7   17   10     -1.20      0.00
   -4   17   10      0.00      0.00
    0   17   10      0.00      0.00
    4   17   10      0.00      0.00
   -4   18   10      3.30      0.00
   -1   18   10      0.00      0.00
    3   18   10      0.00      0.00
    4   18   10     -5.58      0.00
    1    1   11      0.00      0.00
    0    2   11      0.00      0.00
    1    3   11      0.00      0.00
   -2    4   11      0.00      0.00
    2    4   11      0.00      0.00
   -3    5   11      0.00      0.00
    1    5   11      0.00      0.00
    5    5   11      0.00      0.00
   -2    6   11      0.00      0.00
    2    6   11      0.00      0.00
    6    6   11      0.00      0.00
   -5    7   11      0.00      0.00
   -1    7   11      0.00      0.00
    3    7   11      0.00      0.00
    7    7   11      0.00      0.00
   -6    8   11      0.00      0.00
   -2    8   11      0.00      0.00
    2    8   11      0.00      0.00
    6    8   11      0.00      0.00
   -5    9   11      0.00      0.00
   -1    9   11      0.00      0.00
    3    9   11      0.00      0.00
    7    9   11      0.00      0.00
   -8   10   11      0.00      0.00
   -4   10   11      0.00      0.00
    0   10   11      0.00      0.00
    4   10   11      0.00      0.00
    8   10   11      0.00      0.00
   -7   11   11      0.00      0.00
   -3   11   11      0.00      0.00
    1   11   11      0.00      0.00
    5   11   11      0.00      0.00
    9   11   11      0.00      0.00
  -10   12   11      0.00      0.00
   -6   12   11      0.00      0.00
   -2   12   11      0.00      0.00
    2   12   11      0.00      0.00
    6   12   11      0.00      0.00
   10   12   11      0.00      0.00
   -9   13   11      0.00      0.00
   -5   13   11      0.00      0.00
   -1   13   11      0.00      0.00
    3   13   11      0.00      0.00
    7   13   11      0.00      0.00
   11   13   11      0.00      0.00
   -8   14   11      0.00      0.00
   -4   14   11      0.00      0.00
    0   14   11      0.00      0.00
    4   14   11      0.00      0.00
    8   14   11      0.00      0.00
   -7   15   11      0.00      0.00
   -3   15   11      0.00      0.00
    1   15   11      0.00      0.00
    5   15   11      0.00      0.00
    9   15   11      0.00      0.00
   -7   16   11     -3.69      0.00
   -4   16   11      0.00      0.00
    0   16   11      0.00      0.00
    4   16   11      0.00      0.00
    7   16   11      2.68      0.00
   -4   17   11      1.38      0.00
   -1   17   11      0.00      0.00
    3   17   11      0.00      0.00
    4   17   11      0.95      0.00
   -1    2   12      0.00      0.00
   -2    3   12      0.00      0.00
    2    3   12      0.00      0.00
   -1    4   12      0.00      0.00
    3    4   12      0.00      0.00
   -2    5   12      0.00      0.00
    2    5   12      0.00      0.00
   -5    6   12      0.00      0.00
   -1    6   12      0.00      0.00
    3    6   12      0.00      0.00
   -4    7   12      0.00      0.00
    0    7   12      0.00      0.00
    4    7   12      0.00      0.00
   -7    8   12      0.00      0.00
   -3    8   12      0.00      0.00
    1    8   12      0.00      0.00
    5    8   12      0.00      0.00
   -8    9   12      0.00      0.00
   -4    9   12      0.00      0.00
    0    9   12      0.00      0.00
    4    9   12      0.00      0.00
    8    9   12      0.00      0.00
   -7   10   12      0.00      0.00
   -3   10   12      0.00      0.00
    1   10   12      0.00      0.00
    5   10   12      0.00      0.00
    9   10   12      0.00      0.00
  -10   11   12      0.00      0.00
   -6   11   12      0.00      0.00
   -2   11   12      0.00      0.00
    2   11   12      0.00      0.00
    6   11   12      0.00      0.00
   10   11   12      0.00      0.00
   -9   12   12      0.00      0.00
   -5   12   12      0.00      0.00
   -1   12   12      0.00      0.00
    3   12   12      0.00      0.00
    7   12   12      0.00      0.00
   -8   13   12      0.00      0.00
   -4   13   12      0.00      0.00
    0   13   12      0.00      0.00
    4   13   12      0.00      0.00
    8   13   12      0.00      0.00
   -8   14   12      0.50      0.00
   -5   14   12      0.00      0.00
   -1   14   12      0.00      0.00
    3   14   12      0.00      0.00
    7   14   12      0.00      0.00
    8   14   12     -0.37      0.00
   -4   15   12      0.00      0.00
    0   15   12      0.00      0.00
    4   15   12      0.00      0.00
   -2   16   12     -1.00      0.00
    0   16   12     -1.25      0.00
    2   16   12      0.18      0.00
    0    2   13      0.00      0.00
    1    3   13      0.00      0.00
    0    4   13      0.00      0.00
    4    4   13      0.00      0.00
   -3    5   13      0.00      0.00
    1    5   13      0.00      0.00
    5    5   13      0.00      0.00
   -2    6   13      0.00      0.00
    2    6   13      0.00      0.00
    6    6   13      0.00      0.00
   -3    7   13      0.00      0.00
    1    7   13      0.00      0.00
    5    7   13      0.00      0.00
   -6    8   13      0.00      0.00
   -2    8   13      0.00      0.00
    2    8   13      0.00      0.00
    6    8   13      0.00      0.00
   -5    9   13      0.00      0.00
   -1    9   13      0.00      0.00
    3    9   13      0.00      0.00
    7    9   13      0.00      0.00
   -8   10   13      0.00      0.00
   -4   10   13      0.00      0.00
    0   10   13      0.00      0.00
    4   10   13      0.00      0.00
    8   10   13      0.00      0.00
   -7   11   13      0.00      0.00
   -3   11   13      0.00      0.00
    1   11   13      0.00      0.00
    5   11   13      0.00      0.00
    9   11   13      0.00      0.00
   -6   12   13      0.00      0.00
   -2   12   13      0.00      0.00
    2   12   13      0.00      0.00
    6   12   13      0.00      0.00
   -6   13   13      7.24      0.00
   -3   13   13      0.00      0.00
    1   13   13      0.00      0.00
    5   13   13      0.00      0.00
    6   13   13      0.40      0.00
   -3   14   13     -2.14      0.00
    0   14   13      0.00      0.00
    3   14   13      1.42      0.00
    1    2   14      0.00      0.00
   -2    3   14      0.00      0.00
    2    3   14      0.00      0.00
   -1    4   14      0.00      0.00
    3    4   14      0.00      0.00
   -2    5   14      0.00      0.00
    2    5   14      0.00      0.00
   -5    6   14      0.00      0.00
   -1    6   14      0.00      0.00
    3    6   14      0.00      0.00
   -4    7   14      0.00      0.00
    0    7   14      0.00      0.00
    4    7   14      0.00      0.00
   -7    8   14      0.00      0.00
   -3    8   14      0.00      0.00
    1    8   14      0.00      0.00
    5    8   14      0.00      0.00
   -6    9   14      0.00      0.00
   -2    9   14      0.00      0.00
    2    9   14      0.00      0.00
    6    9   14      0.00      0.00
   -5   10   14      0.00      0.00
   -1   10   14      0.00      0.00
    3   10   14      0.00      0.00
    7   10   14      0.00      0.00
   -4   11   14      0.00      0.00
    0   11   14      0.00      0.00
    4   11   14      0.00      0.00
   -1   12   14      0.00      0.00
    3   12   14      0.00      0.00
    1    1   15      0.00      0.00
    0    2   15      0.00      0.00
    1    3   15      0.00      0.00
   -2    4   15      0.00      0.00
    2    4   15      0.00      0.00
   -3    5   15      0.00      0.00
    1    5   15      0.00      0.00
    5    5   15      0.00      0.00
   -2    6   15      0.00      0.00
    2    6   15      0.00      0.00
    6    6   15      0.00      0.00
   -5    7   15      0.00      0.00
   -1    7   15      0.00      0.00
    3    7   15      0.00      0.00
    7    7   15      0.00      0.00
   -4    8   15      0.00      0.00
    0    8   15      0.00      0.00
    4    8   15      0.00      0.00
   -4    9   15     -2.41      0.00
   -1    9   15      0.00      0.00
    3    9   15      0.00      0.00
    4    9   15     -4.53      0.00
   -1   10   15     -0.62      0.00
    1   10   15     -0.73      0.00
    0    1   16      0.00      0.00
    1    2   16      0.00      0.00
   -2    3   16      0.00      0.00
    2    3   16      0.00      0.00
   -1    4   16      0.00      0.00
    3    4   16      0.00      0.00
    4    4   16      4.44      0.00
   -3    5   16      1.37      0.00
    0    5   16      0.00      0.00
    3    5   16     -0.69      0.00
   -2    6   16     -1.81      0.00
    0    6   16      1.22      0.00
    2    6   16      1.64      0.00
    0    0    0      0.00      0.00
# SQUEEZE RESULTS (Version =  10421)
# Note: Data are Listed for all Voids in the P1 Unit Cell
# i.e. Centre of Gravity, Solvent Accessible Volume,
# Recovered number of Electrons in the Void and
# Details about the Squeezed Material
loop_
  _platon_squeeze_void_nr
  _platon_squeeze_void_average_x
  _platon_squeeze_void_average_y
  _platon_squeeze_void_average_z
  _platon_squeeze_void_volume
  _platon_squeeze_void_count_electrons
  _platon_squeeze_void_content
   1  0.000  0.250  0.017       487       135 ' '
   2  0.000  0.750 -0.041       487       135 ' '
   3  0.500  0.250 -0.010       487       135 ' '
   4  0.500  0.750 -0.025       487       135 ' '
# Missing Reflections Below sin(th)/lambda = 0.25
loop_
  _platon_missing_refln_index_h
  _platon_missing_refln_index_k
  _platon_missing_refln_index_l
  _platon_missing_refln_theta
    0    1    0     1.075
    0    2    0     2.150
   -2    3    0     3.878
    0    3    0     3.226
    2    3    0     3.878
   -4    5    0     6.898
   -2    5    0     5.798
    0    5    0     5.382
    2    5    0     5.798
    4    5    0     6.898
   -6    7    0     9.959
   -4    7    0     8.698
   -2    7    0     7.849
    0    7    0     7.545
    2    7    0     7.849
    4    7    0     8.698
    6    7    0     9.959
   -2    9    0     9.959
    0    9    0     9.719
    2    9    0     9.959
    2    2    1     3.396
   -1    3    1     3.721
    3    3    1     4.809
    0    4    1     4.561
    4    4    1     6.277
   -1    5    1     5.693
    3    5    1     6.460
   -4    6    1     7.921
    0    6    1     6.637
    4    6    1     7.921
   -5    7    1     9.410
   -1    7    1     7.772
    3    7    1     8.352
   -4    8    1     9.778
    0    8    1     8.763
    4    8    1     9.778
    1    9    1     9.898
    0    1    2     3.205
   -1    2    2     3.861
    0    3    2     4.421
   -1    4    2     5.369
    3    4    2     6.175
   -4    5    2     7.536
    0    5    2     6.175
    4    5    2     7.536
   -5    6    2     8.956
   -1    6    2     7.219
    3    6    2     7.840
   -4    7    2     9.215
    0    7    2     8.133
    4    7    2     9.215
   -3    8    2     9.712
    1    8    2     9.215
    0    9    2    10.186
    0    2    3     5.018
   -1    3    3     5.670
    3    3    3     6.439
    0    4    3     6.255
    4    4    3     7.602
   -1    5    3     7.126
    3    5    3     7.754
   -4    6    3     9.012
    0    6    3     7.904
    4    6    3     9.012
   -3    7    3     9.395
    1    7    3     8.881
    0    8    3     9.764
    0    1    4     6.142
   -1    2    4     6.511
    0    3    4     6.859
   -1    4    4     7.509
    3    4    4     8.108
   -4    5    4     9.193
    0    5    4     8.108
    4    5    4     9.193
   -3    6    4     9.445
    1    6    4     8.934
    0    7    4     9.691
    0    2    5     7.870
    1    3    5     8.304
    0    4    5     8.717
    4    4    5     9.736
   -3    5    5     9.856
    1    5    5     9.367
    0    6    5     9.975
    0    1    6     9.156
    1    2    6     9.409
    0    3    6     9.656
    1    4    6    10.133
_platon_squeeze_void_probe_radius                  1.20
_platon_squeeze_details
)
TITL OAV-605          I 41/a       R = 0.12
CELL   18.9450   18.9450   13.4937     90.00     90.00     90.00
SPGR I41/a
# Solvent Accessible Volume =      1949
# Electrons Found in S.A.V. =       536
# Note: Atoms in Void are Labelled as Cxxx and Qxxx for all Others
Q101 0.236 0.030 0.034 !       4.60 eA-3
Q102 0.711 0.514 0.036 !       3.68 eA-3
Q103 0.832 0.957 0.226 !       2.52 eA-3
Q104 0.283 0.903 0.282 !       2.38 eA-3
C105 0.500 0.749 0.062 !       1.40 eA-3
C106 0.909 0.732 0.070 !       1.36 eA-3
C107 0.051 0.753 0.199 !       1.35 eA-3
Q108 0.201 0.471 0.465 !       1.35 eA-3
C109 0.500 0.250 0.063 !       1.35 eA-3
C110 0.996 0.279 0.485 !       1.29 eA-3
C111 1.000 0.750 0.375 !       1.20 eA-3
C112 0.079 0.782 0.172 !       1.20 eA-3
C113 0.106 0.703 0.081 !       1.18 eA-3
C114 0.442 0.752 0.206 !       1.14 eA-3
Q115 0.219 0.515 0.101 !       1.13 eA-3
C116 0.913 0.761 0.213 !       1.11 eA-3
C117 0.090 0.811 0.124 !       1.09 eA-3
C118 0.572 0.154 0.209 !       1.06 eA-3
C119 0.082 0.250 0.055 !       1.06 eA-3
C120 0.890 0.798 0.156 !       1.02 eA-3
Q121 0.399 0.251 0.344 !       1.02 eA-3
Q122 0.818 0.139 0.211 !       1.01 eA-3
C123 0.537 0.796 0.192 !       0.99 eA-3
C124 0.070 0.158 0.221 !       0.98 eA-3
C125 0.013 0.142 0.408 !       0.96 eA-3
Q126 0.112 0.171 0.092 !       0.95 eA-3
Q127 0.108 0.345 0.096 !       0.93 eA-3
Q128 0.723 0.562 0.159 !       0.92 eA-3
C129 0.094 0.202 0.027 !       0.89 eA-3
Q130 0.379 0.966 0.447 !       0.89 eA-3
Q131 0.306 0.173 0.109 !       0.85 eA-3
C132 0.043 0.752 0.150 !       0.85 eA-3
C133 0.968 0.707 0.191 !       0.84 eA-3
Q134 0.765 0.076 0.348 !       0.82 eA-3
Q135 0.554 0.970 0.092 !       0.81 eA-3
Q136 0.628 0.982 0.088 !       0.80 eA-3
Q137 0.764 0.578 0.053 !       0.79 eA-3
Q138 0.592 0.798 0.160 !       0.79 eA-3
Q139 0.379 0.362 0.230 !       0.78 eA-3
Q140 0.414 0.299 0.166 !       0.78 eA-3
C141 0.024 0.736 0.122 !       0.77 eA-3
Q142 0.875 0.158 0.186 !       0.77 eA-3
C143 0.068 0.798 0.078 !       0.77 eA-3
C144 0.547 0.283 0.073 !       0.76 eA-3
C145 0.953 0.217 0.427 !       0.76 eA-3
Q146 0.096 0.937 0.268 !       0.75 eA-3
C147 0.517 0.187 0.698 !       0.73 eA-3
C148 0.952 0.236 0.143 !       0.73 eA-3
Q149 0.281 0.197 0.017 !       0.73 eA-3
Q150 0.794 0.030 0.079 !       0.72 eA-3
Q151 0.240 0.887-0.009 !       0.72 eA-3
Q152 0.116 0.314 0.143 !       0.72 eA-3
C153 0.417 0.189 0.372 !       0.72 eA-3
C154 0.443 0.793 0.104 !       0.71 eA-3
Q155 0.808 0.933 0.095 !       0.69 eA-3
Q156 0.462 0.985 0.357 !       0.69 eA-3
Q157 0.766 0.813 0.491 !       0.68 eA-3
Q158 0.891 0.316 0.154 !       0.68 eA-3
C159 0.966 0.209 0.190 !       0.68 eA-3
Q160 0.670 0.125 0.255 !       0.68 eA-3
Q161 0.973 0.675 0.251 !       0.67 eA-3
Q162 0.933 0.155 0.004 !       0.66 eA-3
Q163 0.283 0.392 0.314 !       0.65 eA-3
Q164 0.881 0.689 0.187 !       0.65 eA-3
C165 0.470 0.377 0.016 !       0.65 eA-3
Q166 0.215 0.969 0.016 !       0.65 eA-3
Q167 0.281 0.247 0.032 !       0.65 eA-3
Q168 0.107 0.356 0.246 !       0.64 eA-3
Q169 0.377 0.844 0.001 !       0.64 eA-3
Q170 0.928 0.655 0.325 !       0.64 eA-3
Q171 0.226 0.113 0.017 !       0.62 eA-3
C172 0.437 0.169 0.397 !       0.62 eA-3
Q173 0.700 0.828 0.034 !       0.62 eA-3
Q174 0.785 0.861 0.223 !       0.62 eA-3
C175 0.498 0.858 0.056 !       0.61 eA-3
Q176 0.346 0.123 0.381 !       0.61 eA-3
C177 0.925 0.196 0.329 !       0.60 eA-3
Q178 0.157 0.030 0.382 !       0.60 eA-3
Q179 0.885 0.982 0.106 !       0.60 eA-3
Q180 0.172 0.592 0.361 !       0.59 eA-3
Q181 0.215 0.654 0.396 !       0.58 eA-3
Q182 0.063 0.061 0.487 !       0.58 eA-3
Q183 0.269 0.116 0.093 !       0.57 eA-3
Q184 0.445 0.654 0.349 !       0.57 eA-3
Q185 0.522 1.003 0.377 !       0.55 eA-3
C186 0.436 0.269 0.299 !       0.54 eA-3
Q187 0.778 0.370 0.308 !       0.54 eA-3
C188 0.591 0.702 0.216 !       0.53 eA-3
Q189 0.701 0.423 0.384 !       0.53 eA-3
Q190 0.630 0.768 0.145 !       0.52 eA-3
Q191 0.643 0.531 0.034 !       0.52 eA-3
Q192 0.140 0.950 0.302 !       0.52 eA-3
Q193 0.752 0.809 0.039 !       0.51 eA-3
Q194 0.989 0.940 0.136 !       0.51 eA-3
Q195 0.535 0.091 0.209 !       0.51 eA-3
Q196 0.205 0.173 0.256 !       0.50 eA-3
Q197 0.990 0.099 0.134 !       0.50 eA-3
)
;
_shelx_fab_checksum   46650

