 
data_pvl650a
 
_audit_creation_method            'SHELXL-2018/3'
_shelx_SHELXL_version_number      '2018/3'
_chemical_name_systematic         ?
_chemical_name_common             ?
_chemical_melting_point           ?
_chemical_formula_moiety          ?
_chemical_formula_sum
 'C H N O S Zn' 
_chemical_formula_weight          140.46

loop_
 _atom_type_symbol
 _atom_type_description
 _atom_type_scat_dispersion_real
 _atom_type_scat_dispersion_imag
 _atom_type_scat_source
 'C'  'C'   0.0033   0.0016
 'International Tables Vol C Tables 4.2.6.8 and 6.1.1.4'
 'H'  'H'   0.0000   0.0000
 'International Tables Vol C Tables 4.2.6.8 and 6.1.1.4'
 'N'  'N'   0.0061   0.0033
 'International Tables Vol C Tables 4.2.6.8 and 6.1.1.4'
 'O'  'O'   0.0106   0.0060
 'International Tables Vol C Tables 4.2.6.8 and 6.1.1.4'
 'S'  'S'   0.1246   0.1234
 'International Tables Vol C Tables 4.2.6.8 and 6.1.1.4'
 'Zn'  'Zn'   0.2839   1.4301
 'International Tables Vol C Tables 4.2.6.8 and 6.1.1.4'
 
_space_group_crystal_system       triclinic
_space_group_IT_number            2
_space_group_name_H-M_alt         'P -1'
_space_group_name_Hall            '-P 1'
 
_shelx_space_group_comment
;
The symmetry employed for this shelxl refinement is uniquely defined
by the following loop, which should always be used as a source of
symmetry information in preference to the above space-group names.
They are only intended as comments.
;
 
loop_
 _space_group_symop_operation_xyz
 'x, y, z'
 '-x, -y, -z'
 
_cell_length_a                    8.1307(4)
_cell_length_b                    12.8451(6)
_cell_length_c                    12.8637(6)
_cell_angle_alpha                 78.3190(10)
_cell_angle_beta                  81.877(2)
_cell_angle_gamma                 80.923(2)
_cell_volume                      1290.85(11)
_cell_formula_units_Z             12
_cell_measurement_temperature     150(2)
_cell_measurement_reflns_used     ?
_cell_measurement_theta_min       ?
_cell_measurement_theta_max       ?
 
_exptl_crystal_description        ?
_exptl_crystal_colour             ?
_exptl_crystal_density_meas       ?
_exptl_crystal_density_method     ?
_exptl_crystal_density_diffrn     2.168          
_exptl_crystal_F_000              816
_exptl_transmission_factor_min    ?
_exptl_transmission_factor_max    ?
_exptl_crystal_size_max           ?
_exptl_crystal_size_mid           ?
_exptl_crystal_size_min           ?
_exptl_absorpt_coefficient_mu     6.002
_shelx_estimated_absorpt_T_min    ?
_shelx_estimated_absorpt_T_max    ?
_exptl_absorpt_correction_type    ?
_exptl_absorpt_correction_T_min   ?
_exptl_absorpt_correction_T_max   ?
_exptl_absorpt_process_details    ?
_exptl_absorpt_special_details    ?
_diffrn_ambient_temperature       150(2)
_diffrn_radiation_wavelength      0.71073
_diffrn_radiation_type            MoK\a
_diffrn_source                    ?
_diffrn_measurement_device_type   ?
_diffrn_measurement_method        ?
_diffrn_detector_area_resol_mean  ?
_diffrn_reflns_number             19188
_diffrn_reflns_av_unetI/netI      0.0333
_diffrn_reflns_av_R_equivalents   0.0376
_diffrn_reflns_limit_h_min        -9
_diffrn_reflns_limit_h_max        9
_diffrn_reflns_limit_k_min        -15
_diffrn_reflns_limit_k_max        15
_diffrn_reflns_limit_l_min        -15
_diffrn_reflns_limit_l_max        15
_diffrn_reflns_theta_min          1.627
_diffrn_reflns_theta_max          25.070
_diffrn_reflns_theta_full         25.070
_diffrn_measured_fraction_theta_max   0.996
_diffrn_measured_fraction_theta_full  0.996
_diffrn_reflns_Laue_measured_fraction_max    0.996
_diffrn_reflns_Laue_measured_fraction_full   0.996
_diffrn_reflns_point_group_measured_fraction_max   0.996
_diffrn_reflns_point_group_measured_fraction_full  0.996
_reflns_number_total              4578
_reflns_number_gt                 3929
_reflns_threshold_expression      'I > 2\s(I)'
_reflns_Friedel_coverage          0.000
_reflns_Friedel_fraction_max      .
_reflns_Friedel_fraction_full     .
 
_reflns_special_details
;
 Reflections were merged by SHELXL according to the crystal
 class for the calculation of statistics and refinement.
 
 _reflns_Friedel_fraction is defined as the number of unique
 Friedel pairs measured divided by the number that would be
 possible theoretically, ignoring centric projections and
 systematic absences.
;
 
_computing_data_collection        ?
_computing_cell_refinement        ?
_computing_data_reduction         ?
_computing_structure_solution     'SHELXT 2018/2 (Sheldrick, 2018)'
_computing_structure_refinement 'SHELXL-2018/3 (Sheldrick, 2018)'
_computing_molecular_graphics     ?
_computing_publication_material   ?
_refine_special_details           ?
_refine_ls_structure_factor_coef  Fsqd
_refine_ls_matrix_type            full
_refine_ls_weighting_scheme       calc
_refine_ls_weighting_details
'w=1/[\s^2^(Fo^2^)+(0.0939P)^2^+2.6857P] where P=(Fo^2^+2Fc^2^)/3'
_atom_sites_solution_primary      ?
_atom_sites_solution_secondary    ?
_atom_sites_solution_hydrogens    geom
_refine_ls_hydrogen_treatment     constr
_refine_ls_extinction_method      none
_refine_ls_extinction_coef        .
_refine_ls_number_reflns          4578
_refine_ls_number_parameters      389
_refine_ls_number_restraints      0
_refine_ls_R_factor_all           0.0650
_refine_ls_R_factor_gt            0.0555
_refine_ls_wR_factor_ref          0.1627
_refine_ls_wR_factor_gt           0.1509
_refine_ls_goodness_of_fit_ref    1.065
_refine_ls_restrained_S_all       1.065
_refine_ls_shift/su_max           0.001
_refine_ls_shift/su_mean          0.000
 
loop_
 _atom_site_label
 _atom_site_type_symbol
 _atom_site_fract_x
 _atom_site_fract_y
 _atom_site_fract_z
 _atom_site_U_iso_or_equiv
 _atom_site_adp_type
 _atom_site_occupancy
 _atom_site_site_symmetry_order  
 _atom_site_calc_flag
 _atom_site_refinement_flags_posn
 _atom_site_refinement_flags_adp
 _atom_site_refinement_flags_occupancy
 _atom_site_disorder_assembly
 _atom_site_disorder_group
Zn1 Zn 0.65219(6) 0.56018(4) 1.20946(3) 0.02590(19) Uani 1 1 d . . . . .
S1 S 0.9884(2) 0.89988(10) 0.62796(10) 0.0577(4) Uani 1 1 d . . . . .
O1 O 0.4350(4) 0.6302(3) 1.1724(3) 0.0392(8) Uani 1 1 d . . . . .
O2 O 0.6631(4) 0.4190(3) 1.3001(3) 0.0396(8) Uani 1 1 d . . . . .
O3 O 0.3407(5) 0.6934(4) 1.3218(3) 0.0612(11) Uani 1 1 d . . . . .
O4 O 0.5949(4) 0.3643(3) 1.1611(2) 0.0365(7) Uani 1 1 d . . . . .
N1 N 0.7513(5) 0.6405(3) 0.3002(3) 0.0319(8) Uani 1 1 d . . . . .
N2 N 0.8173(5) 0.6754(3) 0.4481(3) 0.0348(9) Uani 1 1 d . . . . .
N3 N 0.7878(4) 0.5912(3) 1.0667(3) 0.0278(8) Uani 1 1 d . . . . .
N4 N 0.8615(4) 0.6288(3) 0.8935(3) 0.0266(7) Uani 1 1 d . . . . .
N5 N 0.9565(6) 0.8159(3) 0.7381(3) 0.0429(10) Uani 1 1 d . . . . .
N6 N 0.9381(6) 0.8378(3) 0.5427(3) 0.0406(10) Uani 1 1 d . . . . .
C3 C 0.7647(9) 0.6070(4) 0.4010(4) 0.0539(15) Uani 1 1 d . . . . .
H3 H 0.738558 0.538706 0.437875 0.065 Uiso 1 1 calc R U . A 2
C6 C 0.8345(5) 0.6628(4) 0.5589(3) 0.0285(9) Uani 1 1 d . . . . .
C7 C 0.7892(6) 0.5748(4) 0.6300(3) 0.0347(10) Uani 1 1 d . . . . .
H7 H 0.749638 0.519927 0.604481 0.042 Uiso 1 1 calc R U . . .
C8 C 0.8000(5) 0.5633(4) 0.7411(3) 0.0294(9) Uani 1 1 d . . . . .
H8 H 0.767634 0.500831 0.787998 0.035 Uiso 1 1 calc R U . . .
C9 C 0.8552(5) 0.6390(3) 0.7821(3) 0.0262(9) Uani 1 1 d . . . . .
C10 C 0.9044(6) 0.7323(3) 0.7104(3) 0.0299(9) Uani 1 1 d . . . . .
C11 C 0.8930(6) 0.7438(4) 0.5986(3) 0.0303(9) Uani 1 1 d . . . . .
C12 C 0.9468(6) 0.6217(4) 1.0478(4) 0.0351(10) Uani 1 1 d . . . . .
H12 H 1.013124 0.625636 1.101727 0.042 Uiso 1 1 calc R U . . .
C13 C 0.9937(6) 0.6447(4) 0.9425(3) 0.0339(10) Uani 1 1 d . . . . .
H13 H 1.096877 0.667441 0.908478 0.041 Uiso 1 1 calc R U . . .
C14 C 0.7402(5) 0.5964(3) 0.9719(3) 0.0262(9) Uani 1 1 d . . . . .
H14 H 0.635437 0.579749 0.960049 0.031 Uiso 1 1 calc R U . . .
C15 C 0.3457(6) 0.6978(4) 1.2246(4) 0.0372(11) Uani 1 1 d . . . . .
C16 C 0.2404(5) 0.7860(4) 1.1585(4) 0.0325(10) Uani 1 1 d . . . . .
C17 C 0.2374(6) 0.7884(4) 1.0509(4) 0.0359(10) Uani 1 1 d . . . . .
H17 H 0.301202 0.732519 1.018404 0.043 Uiso 1 1 calc R U . . .
C18 C 0.1431(6) 0.8709(4) 0.9901(4) 0.0365(10) Uani 1 1 d . . . . .
H18 H 0.142645 0.870229 0.916387 0.044 Uiso 1 1 calc R U . . .
C19 C 0.0493(6) 0.9545(3) 1.0331(4) 0.0308(9) Uani 1 1 d . . . . .
C20 C 0.0529(9) 0.9516(5) 1.1415(5) 0.069(2) Uani 1 1 d . . . . .
H20 H -0.011107 1.007302 1.174218 0.083 Uiso 1 1 calc R U . . .
C21 C 0.1476(9) 0.8692(5) 1.2024(5) 0.068(2) Uani 1 1 d . . . . .
H21 H 0.148785 0.869779 1.276024 0.082 Uiso 1 1 calc R U . . .
C22 C 0.6170(5) 0.3487(3) 1.2557(4) 0.0307(10) Uani 1 1 d . . . . .
C23 C 0.5877(5) 0.2443(4) 1.3287(4) 0.0325(10) Uani 1 1 d . . . . .
C24 C 0.5378(8) 0.1645(4) 1.2902(4) 0.0485(14) Uani 1 1 d . . . . .
H24 H 0.525470 0.174514 1.216358 0.058 Uiso 1 1 calc R U . . .
C25 C 0.5048(9) 0.0689(4) 1.3565(4) 0.0522(15) Uani 1 1 d . . . . .
H25 H 0.471021 0.014649 1.326992 0.063 Uiso 1 1 calc R U . . .
C26 C 0.5197(6) 0.0509(4) 1.4640(4) 0.0343(10) Uani 1 1 d . . . . .
C27 C 0.5711(10) 0.1320(5) 1.5026(5) 0.072(2) Uani 1 1 d . . . . .
H27 H 0.583878 0.121675 1.576416 0.086 Uiso 1 1 calc R U . . .
C28 C 0.6046(10) 0.2281(5) 1.4369(5) 0.070(2) Uani 1 1 d . . . . .
H28 H 0.638893 0.282525 1.465913 0.084 Uiso 1 1 calc R U . . .
O5 O 0.5609(8) 0.9580(5) 0.1339(4) 0.0919(17) Uani 1 1 d . . . . .
C29 C 0.6380(8) 0.8759(5) -0.0328(7) 0.073(2) Uani 1 1 d . . . . .
H29A H 0.658967 0.903736 -0.109571 0.110 Uiso 1 1 calc R U . . .
H29B H 0.569974 0.817197 -0.021205 0.110 Uiso 1 1 calc R U . . .
H29C H 0.745076 0.849338 -0.003755 0.110 Uiso 1 1 calc R U . . .
C30 C 0.5484(8) 0.9619(5) 0.0212(7) 0.073(2) Uani 1 1 d . . . . .
C2 C 0.7337(13) 0.7558(7) 0.2921(7) 0.0323(19) Uani 0.5 1 d . . P B 1
H2 H 0.700186 0.806450 0.231634 0.039 Uiso 0.5 1 calc R U P B 1
C5 C 0.7713(12) 0.7819(7) 0.3818(7) 0.0316(19) Uani 0.5 1 d . . P B 1
H5 H 0.768754 0.850973 0.398270 0.038 Uiso 0.5 1 calc R U P B 1
C1 C 0.8620(15) 0.7104(8) 0.2737(7) 0.043(2) Uani 0.5 1 d . . P B 2
H1 H 0.901867 0.741351 0.202903 0.052 Uiso 0.5 1 calc R U P B 2
C4 C 0.9083(16) 0.7302(9) 0.3641(7) 0.047(3) Uani 0.5 1 d . . P B 2
H4 H 0.989708 0.774358 0.368088 0.056 Uiso 0.5 1 calc R U P B 2
 
loop_
 _atom_site_aniso_label
 _atom_site_aniso_U_11
 _atom_site_aniso_U_22
 _atom_site_aniso_U_33
 _atom_site_aniso_U_23
 _atom_site_aniso_U_13
 _atom_site_aniso_U_12
Zn1 0.0316(3) 0.0277(3) 0.0167(3) 0.00073(19) -0.00238(18) -0.0055(2)
S1 0.1181(14) 0.0340(7) 0.0242(6) 0.0002(5) -0.0049(7) -0.0301(8)
O1 0.0349(17) 0.0341(17) 0.049(2) -0.0067(15) -0.0092(15) -0.0022(14)
O2 0.057(2) 0.0320(17) 0.0311(17) 0.0032(13) -0.0117(15) -0.0140(15)
O3 0.063(3) 0.072(3) 0.038(2) -0.0007(19) -0.0117(18) 0.016(2)
O4 0.0405(18) 0.0400(18) 0.0259(17) 0.0038(13) -0.0021(13) -0.0102(14)
N1 0.036(2) 0.042(2) 0.0186(18) -0.0026(15) -0.0027(14) -0.0120(17)
N2 0.040(2) 0.048(2) 0.0180(18) 0.0008(16) -0.0053(15) -0.0181(18)
N3 0.0300(18) 0.0328(19) 0.0193(17) 0.0009(14) -0.0051(14) -0.0055(15)
N4 0.0327(19) 0.0291(18) 0.0162(17) -0.0001(14) -0.0010(14) -0.0058(15)
N5 0.076(3) 0.032(2) 0.022(2) -0.0040(16) -0.0016(19) -0.017(2)
N6 0.067(3) 0.032(2) 0.0212(19) -0.0004(16) -0.0011(18) -0.0125(19)
C3 0.107(5) 0.038(3) 0.020(2) -0.005(2) -0.013(3) -0.018(3)
C6 0.029(2) 0.040(2) 0.017(2) -0.0017(17) 0.0010(16) -0.0099(18)
C7 0.039(2) 0.042(3) 0.026(2) -0.0022(19) -0.0054(18) -0.017(2)
C8 0.032(2) 0.037(2) 0.018(2) 0.0014(17) -0.0022(16) -0.0114(19)
C9 0.029(2) 0.032(2) 0.0166(19) -0.0016(16) 0.0003(16) -0.0052(17)
C10 0.041(2) 0.029(2) 0.019(2) 0.0000(16) -0.0027(17) -0.0073(19)
C11 0.036(2) 0.033(2) 0.019(2) -0.0006(17) -0.0005(17) -0.0050(19)
C12 0.035(2) 0.047(3) 0.024(2) 0.0006(19) -0.0063(18) -0.011(2)
C13 0.029(2) 0.047(3) 0.024(2) -0.0023(19) 0.0011(17) -0.011(2)
C14 0.030(2) 0.030(2) 0.018(2) -0.0023(16) -0.0002(16) -0.0072(17)
C15 0.031(2) 0.039(3) 0.041(3) -0.001(2) -0.005(2) -0.006(2)
C16 0.030(2) 0.032(2) 0.034(2) -0.0025(19) -0.0062(18) -0.0046(19)
C17 0.036(2) 0.032(2) 0.040(3) -0.011(2) -0.006(2) 0.0006(19)
C18 0.044(3) 0.037(2) 0.030(2) -0.012(2) -0.009(2) 0.002(2)
C19 0.033(2) 0.026(2) 0.035(2) -0.0035(18) -0.0096(18) -0.0065(18)
C20 0.101(5) 0.061(4) 0.038(3) -0.022(3) -0.024(3) 0.043(4)
C21 0.094(5) 0.068(4) 0.031(3) -0.015(3) -0.018(3) 0.044(4)
C22 0.024(2) 0.033(2) 0.031(2) 0.0030(19) -0.0011(17) -0.0054(18)
C23 0.031(2) 0.031(2) 0.032(2) 0.0023(18) -0.0015(18) -0.0050(18)
C24 0.092(4) 0.033(3) 0.021(2) -0.0013(19) -0.005(2) -0.017(3)
C25 0.099(5) 0.030(3) 0.029(3) -0.003(2) -0.003(3) -0.021(3)
C26 0.033(2) 0.033(2) 0.034(2) 0.001(2) -0.0004(19) -0.0054(19)
C27 0.118(6) 0.068(4) 0.039(3) 0.023(3) -0.036(3) -0.059(4)
C28 0.110(5) 0.057(4) 0.052(4) 0.017(3) -0.038(4) -0.049(4)
O5 0.112(4) 0.104(4) 0.059(3) 0.013(3) -0.030(3) -0.029(3)
C29 0.054(4) 0.053(4) 0.109(6) -0.004(4) -0.016(4) -0.001(3)
C30 0.056(4) 0.058(4) 0.101(6) 0.018(4) -0.022(4) -0.028(3)
C2 0.045(6) 0.029(4) 0.022(4) 0.004(3) -0.008(4) -0.010(4)
C5 0.047(6) 0.027(4) 0.024(4) 0.001(3) -0.012(4) -0.012(4)
C1 0.069(8) 0.043(6) 0.020(5) -0.002(4) -0.002(5) -0.026(6)
C4 0.073(8) 0.054(6) 0.023(5) -0.005(4) -0.004(5) -0.036(6)
 
_geom_special_details
;
 All esds (except the esd in the dihedral angle between two l.s. planes)
 are estimated using the full covariance matrix.  The cell esds are taken
 into account individually in the estimation of esds in distances, angles
 and torsion angles; correlations between esds in cell parameters are only
 used when they are defined by crystal symmetry.  An approximate (isotropic)
 treatment of cell esds is used for estimating esds involving l.s. planes.
;
 
loop_
 _geom_bond_atom_site_label_1
 _geom_bond_atom_site_label_2
 _geom_bond_distance
 _geom_bond_site_symmetry_2
 _geom_bond_publ_flag
Zn1 O1 1.928(3) . ?
Zn1 O2 1.944(3) . ?
Zn1 N3 2.005(3) . ?
Zn1 N1 2.023(4) 1_556 ?
S1 N6 1.609(4) . ?
S1 N5 1.613(4) . ?
O1 C15 1.278(6) . ?
O2 C22 1.287(6) . ?
O3 C15 1.235(6) . ?
O4 C22 1.227(5) . ?
N1 C3 1.295(6) . ?
N1 C1 1.333(11) . ?
N1 C2 1.449(10) . ?
N2 C3 1.314(6) . ?
N2 C4 1.357(10) . ?
N2 C6 1.426(5) . ?
N2 C5 1.481(9) . ?
N3 C14 1.316(5) . ?
N3 C12 1.385(6) . ?
N4 C14 1.357(5) . ?
N4 C13 1.381(6) . ?
N4 C9 1.420(5) . ?
N5 C10 1.343(6) . ?
N6 C11 1.350(6) . ?
C3 C1 2.039(11) . ?
C6 C7 1.367(6) . ?
C6 C11 1.416(6) . ?
C7 C8 1.421(6) . ?
C8 C9 1.356(6) . ?
C9 C10 1.430(6) . ?
C10 C11 1.430(6) . ?
C12 C13 1.340(6) . ?
C15 C16 1.500(6) . ?
C16 C21 1.378(7) . ?
C16 C17 1.382(7) . ?
C17 C18 1.379(7) . ?
C18 C19 1.379(6) . ?
C19 C20 1.392(7) . ?
C19 C19 1.493(9) 2_577 ?
C20 C21 1.380(8) . ?
C22 C23 1.505(6) . ?
C23 C24 1.362(7) . ?
C23 C28 1.388(8) . ?
C24 C25 1.387(7) . ?
C25 C26 1.374(7) . ?
C26 C27 1.382(8) . ?
C26 C26 1.494(9) 2_658 ?
C27 C28 1.390(8) . ?
O5 C30 1.458(10) . ?
C29 C30 1.465(11) . ?
C30 C30 1.239(13) 2_675 ?
C2 C5 1.351(12) . ?
C1 C4 1.354(14) . ?
 
loop_
 _geom_angle_atom_site_label_1
 _geom_angle_atom_site_label_2
 _geom_angle_atom_site_label_3
 _geom_angle
 _geom_angle_site_symmetry_1
 _geom_angle_site_symmetry_3
 _geom_angle_publ_flag
O1 Zn1 O2 117.58(15) . . ?
O1 Zn1 N3 99.76(14) . . ?
O2 Zn1 N3 123.49(15) . . ?
O1 Zn1 N1 111.95(15) . 1_556 ?
O2 Zn1 N1 100.14(14) . 1_556 ?
N3 Zn1 N1 103.28(14) . 1_556 ?
N6 S1 N5 101.5(2) . . ?
C15 O1 Zn1 122.3(3) . . ?
C22 O2 Zn1 112.5(3) . . ?
C3 N1 C1 101.7(6) . . ?
C3 N1 C2 101.7(5) . . ?
C3 N1 Zn1 123.7(3) . 1_554 ?
C2 N1 Zn1 126.6(4) . 1_554 ?
C3 N2 C4 100.4(5) . . ?
C3 N2 C6 126.8(4) . . ?
C4 N2 C6 127.8(5) . . ?
C3 N2 C5 104.8(5) . . ?
C6 N2 C5 121.9(5) . . ?
C14 N3 C12 105.9(3) . . ?
C14 N3 Zn1 127.7(3) . . ?
C12 N3 Zn1 126.2(3) . . ?
C14 N4 C13 107.3(3) . . ?
C14 N4 C9 125.8(4) . . ?
C13 N4 C9 126.9(3) . . ?
C10 N5 S1 105.5(3) . . ?
C11 N6 S1 106.5(3) . . ?
N1 C3 N2 114.5(4) . . ?
N1 C3 C1 39.8(4) . . ?
N2 C3 C1 78.1(4) . . ?
C7 C6 C11 118.4(4) . . ?
C7 C6 N2 121.0(4) . . ?
C11 C6 N2 120.5(4) . . ?
C6 C7 C8 121.6(4) . . ?
C9 C8 C7 121.8(4) . . ?
C8 C9 N4 121.7(4) . . ?
C8 C9 C10 118.4(4) . . ?
N4 C9 C10 119.9(4) . . ?
N5 C10 C9 125.9(4) . . ?
N5 C10 C11 114.3(4) . . ?
C9 C10 C11 119.7(4) . . ?
N6 C11 C6 127.6(4) . . ?
N6 C11 C10 112.2(4) . . ?
C6 C11 C10 120.2(4) . . ?
C13 C12 N3 110.1(4) . . ?
C12 C13 N4 106.1(4) . . ?
N3 C14 N4 110.7(4) . . ?
O3 C15 O1 124.9(5) . . ?
O3 C15 C16 120.6(4) . . ?
O1 C15 C16 114.6(4) . . ?
C21 C16 C17 117.8(4) . . ?
C21 C16 C15 121.0(4) . . ?
C17 C16 C15 121.2(4) . . ?
C18 C17 C16 120.9(4) . . ?
C17 C18 C19 121.9(4) . . ?
C18 C19 C20 117.0(4) . . ?
C18 C19 C19 122.1(5) . 2_577 ?
C20 C19 C19 120.9(5) . 2_577 ?
C21 C20 C19 121.2(5) . . ?
C16 C21 C20 121.3(5) . . ?
O4 C22 O2 123.6(4) . . ?
O4 C22 C23 121.0(4) . . ?
O2 C22 C23 115.3(4) . . ?
C24 C23 C28 118.3(4) . . ?
C24 C23 C22 120.3(4) . . ?
C28 C23 C22 121.3(4) . . ?
C23 C24 C25 121.4(5) . . ?
C26 C25 C24 121.5(5) . . ?
C25 C26 C27 116.9(4) . . ?
C25 C26 C26 121.6(6) . 2_658 ?
C27 C26 C26 121.5(5) . 2_658 ?
C26 C27 C28 122.1(5) . . ?
C23 C28 C27 119.8(5) . . ?
C30 C30 O5 115.3(11) 2_675 . ?
C30 C30 C29 124.2(11) 2_675 . ?
O5 C30 C29 120.3(6) . . ?
C5 C2 N1 111.2(7) . . ?
C2 C5 N2 102.4(7) . . ?
N1 C1 C4 108.8(8) . . ?
N1 C1 C3 38.5(3) . . ?
C4 C1 C3 71.2(6) . . ?
C1 C4 N2 107.5(8) . . ?
 
_refine_diff_density_max    2.417
_refine_diff_density_min   -0.569
_refine_diff_density_rms    0.121

_shelx_res_file
;
TITL mo_CCU_TS2_0m_a.res in P-1
    pvl650a.res
    created by SHELXL-2018/3 at 00:16:42 on 26-Oct-2022
REM Old TITL mo_CCU_TS2_0m in P1
REM SHELXT solution in P-1: R1 0.148, Rweak 0.012, Alpha 0.045
REM <I/s>   0.000 for    0 systematic absences,  Orientation as input
REM Formula found by SHELXT:  C31 N6 O4 S Zn
CELL  0.71073   8.1307  12.8451  12.8637   78.319   81.877   80.923
ZERR   12.000   0.0004   0.0006   0.0006    0.001    0.002    0.002
LATT  1
SFAC C H N O S ZN
UNIT 12 12 12 12 12 12
ACTA
TEMP -123.150
L.S. 10
BOND
LIST 6
FMAP 2
PLAN 20
WGHT    0.093900    2.685700
FVAR       0.41014
ZN1   6    0.652191    0.560181    1.209458    11.00000    0.03163    0.02775 =
         0.01668    0.00073   -0.00238   -0.00554
S1    5    0.988362    0.899882    0.627962    11.00000    0.11809    0.03399 =
         0.02422    0.00020   -0.00489   -0.03006
O1    4    0.435006    0.630212    1.172374    11.00000    0.03488    0.03413 =
         0.04868   -0.00666   -0.00922   -0.00217
O2    4    0.663076    0.418991    1.300130    11.00000    0.05667    0.03197 =
         0.03106    0.00320   -0.01173   -0.01400
O3    4    0.340687    0.693383    1.321849    11.00000    0.06281    0.07232 =
         0.03784   -0.00066   -0.01174    0.01636
O4    4    0.594898    0.364269    1.161113    11.00000    0.04051    0.03997 =
         0.02587    0.00385   -0.00211   -0.01019
N1    3    0.751347    0.640512    0.300192    11.00000    0.03616    0.04179 =
         0.01859   -0.00258   -0.00273   -0.01198
N2    3    0.817279    0.675351    0.448100    11.00000    0.03994    0.04800 =
         0.01801    0.00083   -0.00526   -0.01813
N3    3    0.787765    0.591194    1.066654    11.00000    0.02999    0.03277 =
         0.01926    0.00093   -0.00515   -0.00548
N4    3    0.861512    0.628826    0.893502    11.00000    0.03274    0.02907 =
         0.01620   -0.00012   -0.00099   -0.00575
N5    3    0.956509    0.815932    0.738061    11.00000    0.07616    0.03223 =
         0.02195   -0.00404   -0.00158   -0.01677
N6    3    0.938130    0.837779    0.542725    11.00000    0.06702    0.03235 =
         0.02119   -0.00042   -0.00113   -0.01246
C3    1    0.764676    0.607048    0.400998    11.00000    0.10730    0.03780 =
         0.02043   -0.00453   -0.01264   -0.01770
AFIX  43
H3    2    0.738558    0.538706    0.437875    11.00000   -1.20000
AFIX   0
C6    1    0.834497    0.662840    0.558934    11.00000    0.02857    0.03950 =
         0.01655   -0.00168    0.00097   -0.00994
C7    1    0.789232    0.574762    0.629996    11.00000    0.03909    0.04219 =
         0.02550   -0.00220   -0.00541   -0.01741
AFIX  43
H7    2    0.749638    0.519927    0.604481    11.00000   -1.20000
AFIX   0
C8    1    0.800003    0.563291    0.741117    11.00000    0.03174    0.03744 =
         0.01837    0.00143   -0.00222   -0.01144
AFIX  43
H8    2    0.767634    0.500831    0.787998    11.00000   -1.20000
AFIX   0
C9    1    0.855196    0.639024    0.782078    11.00000    0.02850    0.03163 =
         0.01664   -0.00158    0.00034   -0.00518
C10   1    0.904365    0.732260    0.710367    11.00000    0.04079    0.02874 =
         0.01899    0.00001   -0.00271   -0.00727
C11   1    0.893032    0.743751    0.598560    11.00000    0.03629    0.03307 =
         0.01917   -0.00056   -0.00054   -0.00503
C12   1    0.946841    0.621667    1.047819    11.00000    0.03490    0.04660 =
         0.02370    0.00062   -0.00632   -0.01125
AFIX  43
H12   2    1.013124    0.625636    1.101727    11.00000   -1.20000
AFIX   0
C13   1    0.993679    0.644739    0.942520    11.00000    0.02925    0.04725 =
         0.02395   -0.00230    0.00105   -0.01056
AFIX  43
H13   2    1.096877    0.667441    0.908478    11.00000   -1.20000
AFIX   0
C14   1    0.740227    0.596397    0.971925    11.00000    0.02970    0.02991 =
         0.01835   -0.00227   -0.00022   -0.00723
AFIX  43
H14   2    0.635437    0.579749    0.960049    11.00000   -1.20000
AFIX   0
C15   1    0.345723    0.697783    1.224648    11.00000    0.03055    0.03871 =
         0.04083   -0.00145   -0.00540   -0.00649
C16   1    0.240404    0.786014    1.158517    11.00000    0.03044    0.03244 =
         0.03389   -0.00250   -0.00622   -0.00460
C17   1    0.237411    0.788441    1.050899    11.00000    0.03618    0.03193 =
         0.04025   -0.01131   -0.00604    0.00062
AFIX  43
H17   2    0.301202    0.732519    1.018404    11.00000   -1.20000
AFIX   0
C18   1    0.143071    0.870946    0.990051    11.00000    0.04382    0.03721 =
         0.02990   -0.01152   -0.00942    0.00201
AFIX  43
H18   2    0.142645    0.870229    0.916387    11.00000   -1.20000
AFIX   0
C19   1    0.049330    0.954465    1.033087    11.00000    0.03303    0.02649 =
         0.03465   -0.00350   -0.00960   -0.00648
C20   1    0.052851    0.951557    1.141538    11.00000    0.10104    0.06082 =
         0.03795   -0.02169   -0.02411    0.04321
AFIX  43
H20   2   -0.011107    1.007302    1.174218    11.00000   -1.20000
AFIX   0
C21   1    0.147561    0.869167    1.202413    11.00000    0.09399    0.06763 =
         0.03076   -0.01460   -0.01761    0.04351
AFIX  43
H21   2    0.148785    0.869779    1.276024    11.00000   -1.20000
AFIX   0
C22   1    0.616991    0.348742    1.255699    11.00000    0.02419    0.03259 =
         0.03141    0.00299   -0.00111   -0.00543
C23   1    0.587684    0.244341    1.328681    11.00000    0.03068    0.03082 =
         0.03213    0.00232   -0.00145   -0.00504
C24   1    0.537845    0.164510    1.290204    11.00000    0.09191    0.03347 =
         0.02083   -0.00127   -0.00455   -0.01680
AFIX  43
H24   2    0.525470    0.174514    1.216358    11.00000   -1.20000
AFIX   0
C25   1    0.504768    0.068922    1.356513    11.00000    0.09899    0.03018 =
         0.02941   -0.00327   -0.00274   -0.02126
AFIX  43
H25   2    0.471021    0.014649    1.326992    11.00000   -1.20000
AFIX   0
C26   1    0.519716    0.050944    1.463983    11.00000    0.03280    0.03286 =
         0.03354    0.00128   -0.00041   -0.00544
C27   1    0.571069    0.131994    1.502607    11.00000    0.11841    0.06771 =
         0.03872    0.02279   -0.03608   -0.05854
AFIX  43
H27   2    0.583878    0.121675    1.576416    11.00000   -1.20000
AFIX   0
C28   1    0.604563    0.228113    1.436886    11.00000    0.10989    0.05749 =
         0.05224    0.01714   -0.03766   -0.04907
AFIX  43
H28   2    0.638893    0.282525    1.465913    11.00000   -1.20000
AFIX   0
O5    4    0.560905    0.958001    0.133880    11.00000    0.11209    0.10373 =
         0.05898    0.01302   -0.03017   -0.02938
C29   1    0.638026    0.875931   -0.032812    11.00000    0.05381    0.05282 =
         0.10864   -0.00441   -0.01597   -0.00116
AFIX 137
H29A  2    0.658967    0.903736   -0.109571    11.00000   -1.50000
H29B  2    0.569974    0.817197   -0.021205    11.00000   -1.50000
H29C  2    0.745076    0.849338   -0.003755    11.00000   -1.50000
AFIX   0
C30   1    0.548413    0.961931    0.021152    11.00000    0.05559    0.05798 =
         0.10117    0.01750   -0.02226   -0.02845
PART 1
C2    1    0.733743    0.755785    0.292131    10.50000    0.04509    0.02919 =
         0.02191    0.00386   -0.00820   -0.00971
AFIX  43
H2    2    0.700186    0.806450    0.231634    10.50000   -1.20000
AFIX   0
C5    1    0.771255    0.781850    0.381839    10.50000    0.04681    0.02665 =
         0.02384    0.00052   -0.01203   -0.01214
AFIX  43
H5    2    0.768754    0.850973    0.398270    10.50000   -1.20000
AFIX   0
PART 0
PART 2
C1    1    0.862007    0.710431    0.273679    10.50000    0.06932    0.04347 =
         0.02027   -0.00219   -0.00204   -0.02588
AFIX  43
H1    2    0.901867    0.741351    0.202903    10.50000   -1.20000
AFIX   0
C4    1    0.908308    0.730171    0.364135    10.50000    0.07276    0.05356 =
         0.02272   -0.00525   -0.00365   -0.03578
AFIX  43
H4    2    0.989708    0.774358    0.368088    10.50000   -1.20000
PART 0
AFIX   0
HKLF 4




REM  mo_CCU_TS2_0m_a.res in P-1
REM wR2 = 0.1627, GooF = S = 1.065, Restrained GooF = 1.065 for all data
REM R1 = 0.0555 for 3929 Fo > 4sig(Fo) and 0.0650 for all 4578 data
REM 389 parameters refined using 0 restraints

END

WGHT      0.0939      2.6852

REM Highest difference peak  2.417,  deepest hole -0.569,  1-sigma level  0.121
Q1    1   0.4740  0.5599  0.4937  11.00000  0.05    2.42
Q2    1   0.4785  1.0225  0.0609  11.00000  0.05    1.07
Q3    1   0.6423  0.5598  0.4375  11.00000  0.05    0.81
Q4    1   0.8201  0.3736  0.4971  11.00000  0.05    0.72
Q5    1   0.6499  0.5609  0.8229  11.00000  0.05    0.72
Q6    1   0.6474  0.5597  0.6154  11.00000  0.05    0.69
Q7    1   0.6497  0.5598  1.0304  11.00000  0.05    0.57
Q8    1   0.0071  0.8964  1.2001  11.00000  0.05    0.41
Q9    1  -0.0106  0.9210  1.1139  11.00000  0.05    0.36
Q10   1   0.6376  0.1031  1.4600  11.00000  0.05    0.36
Q11   1   0.4739  0.9385  0.2132  11.00000  0.05    0.36
Q12   1   0.4572  0.0188  1.4986  11.00000  0.05    0.36
Q13   1   0.0125  0.8995  0.9873  11.00000  0.05    0.36
Q14   1   0.9948  0.9028  0.4004  11.00000  0.05    0.35
Q15   1   0.9196  0.8356  0.3530  11.00000  0.05    0.34
Q16   1   0.5487 -0.0271  1.3332  11.00000  0.05    0.34
Q17   1   0.9578  0.8223  0.1400  11.00000  0.05    0.34
Q18   1   0.9058  0.9046  0.5995  11.00000  0.05    0.34
Q19   1   0.4159  0.0575  1.3415  11.00000  0.05    0.34
Q20   1   0.8925  0.9195  0.6197  11.00000  0.05    0.34
;
_shelx_res_checksum   44359

_shelx_hkl_file
;
  -1   0   0   46.60    2.00
  -1   0   0   54.49    2.10
  -1   0   0   50.09    1.60
   1   0   0   49.50    1.80
   1   0   0   48.50    2.00
   1   0   0   56.29    2.10
  -2   0   0   25.40    1.80
  -2   0   0   22.40    2.50
  -2   0   0   25.00    2.20
   2   0   0   24.60    1.90
   2   0   0   21.10    2.00
   2   0   0   25.70    2.70
  -3   0   0  167.28    6.50
  -3   0   0  175.08    5.90
  -3   0   0  166.88    5.20
   3   0   0  178.58    6.70
   3   0   0  179.88    5.90
   3   0   0  172.08    5.40
  -4   0   0  120.39    5.50
  -4   0   0  115.29    4.60
  -4   0   0  115.59    6.20
   4   0   0  118.89    4.90
   4   0   0  121.39    5.30
   4   0   0  120.99    6.10
  -5   0   0  122.89    7.00
  -5   0   0  124.49    6.00
   5   0   0  119.79    6.00
   5   0   0  122.69    6.80
   5   0   0  126.19    5.60
  -6   0   0   71.49    6.20
  -6   0   0   61.69    4.10
   6   0   0   67.19    4.90
   6   0   0   66.79    4.70
   6   0   0   53.79    4.10
   6   0   0   62.69    5.60
  -7   0   0   80.49    5.10
  -7   0   0   91.19    7.60
   7   0   0   74.09    5.20
   7   0   0   94.29    8.00
   7   0   0   91.09    5.80
   7   0   0   83.49    5.90
  -8   0   0    6.50    3.50
  -8   0   0   10.00    2.90
   8   0   0   15.40    3.50
   8   0   0    8.30    2.60
   8   0   0    8.90    3.50
  -9   0   0   19.80    5.30
  -9   0   0   27.20    4.20
   9   0   0   19.60    4.20
   9   0   0   23.00    4.20
   9   0   0   20.50    4.40
   9  -1   0   10.00    3.40
   9  -1   0    7.80    3.60
  -9   1   0    4.80    3.80
  -9   1   0    6.80    2.90
   8  -1   0    9.00    3.20
   8  -1   0   14.00    3.50
   8  -1   0   14.30    3.30
  -8   1   0   19.60    4.90
  -8   1   0    8.80    2.60
   7  -1   0  106.39    6.50
   7  -1   0  109.19    7.00
   7  -1   0  117.39    6.30
  -7   1   0  105.39    5.60
  -7   1   0  105.59    8.20
   6  -1   0   28.70    3.70
   6  -1   0   24.70    3.80
   6  -1   0   28.90    7.20
   6  -1   0   32.20    4.00
  -6   1   0   31.30    5.20
  -6   1   0   32.30    3.40
   5  -1   0   65.19    4.00
   5  -1   0   63.99    4.20
   5  -1   0   64.09    4.70
   5  -1   0   63.29    5.10
  -5   1   0   63.09    3.60
  -5   1   0   63.89    5.40
   4  -1   0  913.21   20.60
   4  -1   0  891.11   18.50
   4  -1   0  837.92   21.10
  -4   1   0  897.81   21.80
  -4   1   0  890.01   18.30
   3  -1   0  470.75   10.40
   3  -1   0  474.75   12.60
   3  -1   0  477.45   12.00
  -3   1   0  449.86   10.20
  -3   1   0  458.85   12.60
  -3   1   0  477.95   12.10
   2  -1   0 9957.80  200.18
   2  -1   0 9862.01  185.08
  -2   1   0 9699.13  184.38
  -2   1   0 9999.00  200.78
   1  -1   0  920.51   17.30
   1  -1   0  887.51   17.20
   1  -1   0  884.31   15.80
  -1   1   0  887.61   17.30
  -1   1   0  869.11   15.80
   0   1   0   -0.10    0.10
  -1  -1   0   28.10    1.50
  -1  -1   0   30.40    1.60
  -1  -1   0   28.50    1.20
   1   1   0   31.10    1.70
   1   1   0   29.60    1.50
   1   1   0   27.70    1.00
  -2  -1   0   65.99    3.00
  -2  -1   0   71.99    3.60
  -2  -1   0   64.09    2.60
   2   1   0   64.09    3.30
   2   1   0   62.69    2.50
   2   1   0   68.09    3.20
  -3  -1   0   42.70    2.60
  -3  -1   0   41.40    2.70
  -3  -1   0   40.00    3.30
   3   1   0   43.80    3.20
   3   1   0   41.20    2.80
   3   1   0   44.90    2.60
  -4  -1   0   85.19    6.70
  -4  -1   0   83.89    4.10
  -4  -1   0   85.69    4.20
   4   1   0   77.59    3.90
   4   1   0   83.99    5.00
   4   1   0   78.89    4.30
  -5  -1   0   15.90    3.30
  -5  -1   0   15.50    2.50
   5   1   0   17.00    3.10
   5   1   0   12.10    2.30
  -6  -1   0  108.69    7.30
  -6  -1   0  115.19    5.90
   6   1   0  114.49    6.30
   6   1   0  118.29    6.30
   6   1   0  127.19    7.50
   6   1   0  111.69    5.90
  -7  -1   0   38.20    4.40
  -7  -1   0   43.20    6.00
   7   1   0   36.60    4.10
   7   1   0   42.70    5.00
   7   1   0   44.40    4.90
   7   1   0   30.10    5.20
  -8  -1   0    3.30    2.80
  -8  -1   0    1.00    3.00
   8   1   0    1.40    2.00
   8   1   0   -0.20    1.90
   8   1   0    0.50    1.90
  -9  -1   0   35.80    6.90
   9   1   0   35.30    4.80
   9   1   0   35.70    5.40
   9   1   0   40.20    5.70
   9  -2   0   14.10    4.00
   9  -2   0   10.40    3.00
  -9   2   0   12.10    3.20
  -9   2   0    6.40    3.60
   8  -2   0    1.90    2.10
   8  -2   0    3.40    2.40
  -8   2   0    5.20    3.70
  -8   2   0    3.80    2.20
   7  -2   0   72.19    8.40
   7  -2   0   86.59    6.20
   7  -2   0   76.39    5.10
  -7   2   0   90.19    4.90
   6  -2   0   79.99    5.50
   6  -2   0   81.39    6.40
   6  -2   0   81.19    4.70
   6  -2   0   80.99    6.00
  -6   2   0   71.99    4.10
  -6   2   0   99.59    7.20
   5  -2   0   63.09    5.30
   5  -2   0   61.99    4.80
   5  -2   0   56.59    4.40
   5  -2   0   65.29    3.80
  -5   2   0   65.69    3.50
  -5   2   0   74.89    5.80
   4  -2   0   84.09    3.70
   4  -2   0   80.29    5.40
   4  -2   0   67.39    4.80
  -4   2   0   83.39    3.50
  -4   2   0   88.29    5.70
   3  -2   0  662.53   15.90
   3  -2   0  626.14   15.00
   3  -2   0  658.93   16.30
   3  -2   0  644.84   13.40
  -3   2   0  657.53   16.40
  -3   2   0  651.83   13.10
   2  -2   0  691.43   13.30
   2  -2   0  698.73   15.80
   2  -2   0  729.43   16.10
  -2   2   0  710.33   16.10
  -2   2   0  683.03   13.20
   1  -2   0 3738.73   73.09
   1  -2   0 3745.23   86.49
  -1   2   0 3788.52   87.29
  -1   2   0 3602.94   72.59
   0  -2   0   11.60    1.10
   0  -2   0   12.10    1.20
   0  -2   0   10.70    1.40
   0   2   0    9.30    1.10
   0   2   0   11.60    1.20
  -1  -2   0  532.45   11.30
  -1  -2   0  539.65   11.40
  -1  -2   0  534.35   10.10
   1   2   0  554.44   11.30
   1   2   0  540.45   10.00
   1   2   0  553.34   11.40
  -2  -2   0 2074.59   38.40
  -2  -2   0 2041.80   36.00
   2   2   0 1998.20   35.90
   2   2   0 2072.39   38.20
  -3  -2   0   97.89    4.80
  -3  -2   0   91.89    3.40
  -3  -2   0   92.69    4.20
   3   2   0   87.69    3.20
   3   2   0   93.39    4.30
   3   2   0   86.09    4.50
  -4  -2   0    8.60    2.60
  -4  -2   0    8.00    1.60
   4   2   0   10.80    2.30
   4   2   0   13.20    2.70
   4   2   0   10.50    1.70
  -5  -2   0   73.49    4.50
  -5  -2   0   75.49    4.20
  -5  -2   0   69.89    5.40
   5   2   0   72.99    4.00
   5   2   0   70.29    4.70
   5   2   0   76.69    5.30
  -6  -2   0  230.78    8.60
  -6  -2   0  222.88   10.50
   6   2   0  222.88    9.10
   6   2   0  221.98   10.10
  -7  -2   0   20.00    4.50
  -7  -2   0   32.60    4.40
   7   2   0   30.80    5.10
   7   2   0   21.10    3.20
   7   2   0   25.40    4.20
   7   2   0   31.80    3.60
  -8  -2   0   27.70    5.70
  -8  -2   0   26.90    4.20
   8   2   0   19.00    3.40
   8   2   0   21.50    3.80
   8   2   0   20.90    4.10
  -9  -2   0   60.29    8.40
   9   2   0   62.29    5.50
   9   2   0   62.29    7.40
   9   2   0   63.89    5.30
   9  -3   0    2.70    2.90
   9  -3   0    0.70    2.30
  -9   3   0    1.20    2.20
  -9   3   0    1.30    3.30
   8  -3   0   62.69    4.90
   8  -3   0   65.69    7.60
  -8   3   0   61.09    8.50
  -8   3   0   55.29    4.40
   7  -3   0   42.60    5.80
   7  -3   0   53.49    6.10
   7  -3   0   52.49    4.20
  -7   3   0   52.79    3.80
  -7   3   0   61.29    8.10
   6  -3   0  106.99    6.60
   6  -3   0  104.49    7.50
   6  -3   0  105.99    5.10
   6  -3   0   88.29    6.60
  -6   3   0  107.99    4.80
  -6   3   0  107.49    7.90
   5  -3   0   37.50    4.50
   5  -3   0   35.90    2.80
   5  -3   0   27.50    4.60
   5  -3   0   37.20    4.90
  -5   3   0   37.40    5.10
  -5   3   0   36.90    2.60
   4  -3   0    0.40    1.50
   4  -3   0    2.20    1.10
   4  -3   0   -0.20    1.50
   4  -3   0    1.00    1.20
  -4   3   0   -1.00    1.60
  -4   3   0    0.40    0.90
   3  -3   0  552.14   14.60
   3  -3   0  536.65   14.60
   3  -3   0  528.85   13.60
   3  -3   0  529.15   11.00
  -3   3   0  540.55   14.60
  -3   3   0  513.95   10.90
   2  -3   0  348.57   10.00
   2  -3   0  332.67    7.10
   2  -3   0  338.17    9.20
   2  -3   0  333.77    9.80
  -2   3   0  323.77    7.00
  -2   3   0  329.37    9.90
   1  -3   0 1142.89   22.60
   1  -3   0 1084.09   20.10
   1  -3   0 1122.49   20.50
   1  -3   0 1072.59   21.80
   1  -3   0 1103.49   22.60
  -1   3   0 1096.79   22.50
   0  -3   0  356.16    8.00
   0  -3   0  344.07    8.40
   0  -3   0  349.27    8.80
   0  -3   0  355.76    8.10
   0   3   0  341.67    8.00
   0   3   0  359.26    8.10
  -1  -3   0 1500.85   27.10
  -1  -3   0 1517.85   28.50
  -1  -3   0 1516.15   28.40
   1   3   0 1472.75   27.00
   1   3   0 1527.95   28.50
   1   3   0 1493.25   28.40
  -2  -3   0  812.42   17.40
  -2  -3   0  836.42   17.70
  -2  -3   0  785.72   15.10
   2   3   0  807.12   15.00
   2   3   0  829.72   17.50
   2   3   0  833.42   17.60
  -3  -3   0   13.80    1.40
  -3  -3   0   15.20    2.40
  -3  -3   0   15.90    2.40
   3   3   0   16.00    2.70
   3   3   0   12.10    1.30
   3   3   0   15.10    2.40
  -4  -3   0   21.60    2.90
  -4  -3   0   17.00    3.00
  -4  -3   0   22.90    2.20
   4   3   0   19.50    3.00
   4   3   0   20.40    1.80
  -5  -3   0  100.29    5.50
  -5  -3   0   96.89    6.30
  -5  -3   0  108.49    4.60
   5   3   0  111.69    4.50
   5   3   0   98.89    5.80
   5   3   0  106.39    6.20
  -6  -3   0  229.28   10.60
  -6  -3   0  205.58    8.50
   6   3   0  206.08    9.70
   6   3   0  225.28    9.40
   6   3   0  205.68    7.20
  -7  -3   0   28.30    5.30
   7   3   0   23.60    3.00
   7   3   0   15.90    2.80
   7   3   0   14.90    4.00
   7   3   0   23.10    4.40
  -8  -3   0   33.10    4.80
  -8  -3   0   28.10    5.60
   8   3   0   36.10    5.60
   8   3   0   34.60    3.90
   8   3   0   29.20    3.90
  -9  -3   0   72.79    9.70
   9   3   0   49.20    5.30
   9   3   0   57.29    7.20
   9   3   0   54.79    4.80
   8  -4   0   28.10    4.90
   8  -4   0   29.60    3.70
  -8   4   0   29.60    3.50
  -8   4   0   19.70    5.40
   7  -4   0   82.59    4.80
   7  -4   0   77.29    6.60
  -7   4   0   81.09    8.80
  -7   4   0   86.29    5.70
   6  -4   0  272.27   11.80
   6  -4   0  252.37   12.00
   6  -4   0  274.07    8.10
   6  -4   0  253.37   10.70
  -6   4   0  266.87    7.70
  -6   4   0  255.87   12.30
   5  -4   0    3.00    2.10
   5  -4   0    1.50    1.70
   5  -4   0    0.60    1.80
   5  -4   0    2.70    1.30
  -5   4   0   -0.80    1.90
  -5   4   0    1.60    1.10
   4  -4   0  267.87   10.50
   4  -4   0  265.97    6.70
   4  -4   0  259.47   10.20
   4  -4   0  230.48    9.10
  -4   4   0  250.37    6.50
  -4   4   0  254.07   10.30
   3  -4   0    8.80    2.20
   3  -4   0    7.50    2.00
   3  -4   0    7.20    1.10
   3  -4   0    5.20    2.10
  -3   4   0    3.00    1.80
  -3   4   0    6.50    1.10
   2  -4   0  272.47    8.60
   2  -4   0  285.27    6.50
   2  -4   0  288.17    9.60
   2  -4   0  285.07    9.40
  -2   4   0  284.77    9.40
   1  -4   0  934.21   18.20
   1  -4   0  926.91   19.90
   1  -4   0 1011.10   21.00
   1  -4   0  978.60   20.80
   1  -4   0  934.11   18.50
  -1   4   0  963.10   20.90
   0  -4   0 1761.42   33.70
   0  -4   0 1745.23   32.30
   0  -4   0 1701.43   32.40
   0  -4   0 1721.03   33.00
   0   4   0 1708.63   32.40
   0   4   0 1785.02   32.60
  -1  -4   0   98.89    4.20
  -1  -4   0  103.99    4.30
  -1  -4   0  100.99    3.50
   1   4   0   92.89    4.10
   1   4   0  108.29    4.50
   1   4   0  101.19    3.40
  -2  -4   0  514.15   10.30
  -2  -4   0  512.35   12.70
  -2  -4   0  503.15   12.40
   2   4   0  496.25   10.10
   2   4   0  528.55   12.80
   2   4   0  512.05   12.50
  -3  -4   0    4.90    0.90
  -3  -4   0    3.90    1.70
  -3  -4   0    5.40    1.70
   3   4   0    5.30    0.90
   3   4   0    5.10    1.70
  -4  -4   0  280.27    9.50
  -4  -4   0  306.97    7.10
  -4  -4   0  286.07   10.20
   4   4   0  281.37    6.90
   4   4   0  305.47   10.10
   4   4   0  295.97   10.10
  -5  -4   0  467.65   14.90
  -5  -4   0  458.05   13.50
  -5  -4   0  485.85   10.90
   5   4   0  460.65   14.00
   5   4   0  458.15   14.30
   5   4   0  440.56   10.50
  -6  -4   0   82.19    6.50
  -6  -4   0   91.59    5.90
   6   4   0   84.79    4.10
   6   4   0   91.29   10.00
   6   4   0   87.59    6.10
  -7  -4   0    1.80    2.50
  -7  -4   0    1.30    2.20
   7   4   0   -2.00    1.90
   7   4   0   -1.00    1.20
   7   4   0   -0.30    1.20
  -8  -4   0  102.29    8.60
   8   4   0   83.29    4.90
   8   4   0   88.89    5.00
  -9  -4   0   36.90    6.70
   9   4   0   20.50    3.40
   9   4   0   30.30    5.40
   9   4   0   29.30    3.60
   8  -5   0   48.90    6.50
   8  -5   0   46.80    4.00
  -8   5   0   45.90    7.20
   7  -5   0   11.30    2.20
   7  -5   0    7.90    3.20
  -7   5   0   11.20    4.10
  -7   5   0    7.50    1.90
   6  -5   0   21.00    2.50
   6  -5   0   11.30    3.40
   6  -5   0   20.60    4.40
  -6   5   0   23.50    4.90
  -6   5   0   20.60    2.40
   5  -5   0   78.89    5.80
   5  -5   0   68.49    8.00
   5  -5   0   63.99    7.10
   5  -5   0   79.19    3.60
  -5   5   0   73.19    6.50
  -5   5   0   78.89    3.40
   4  -5   0   21.80    3.80
   4  -5   0   18.00    3.60
   4  -5   0   24.60    4.10
   4  -5   0   23.80    1.90
  -4   5   0   22.40    4.30
  -4   5   0   22.20    2.00
   3  -5   0   51.59    2.40
   3  -5   0   49.30    4.40
   3  -5   0   47.30    3.90
   3  -5   0   56.69    4.60
  -3   5   0   54.29    5.60
   2  -5   0 1204.48   23.30
   2  -5   0 1246.88   27.30
   2  -5   0 1231.28   27.10
   2  -5   0 1192.48   22.80
   1  -5   0   25.10    3.40
   1  -5   0   20.40    2.80
   1  -5   0   21.80    2.90
   1  -5   0   23.80    2.30
  -1   5   0   22.30    3.20
   0  -5   0  397.06   10.10
   0  -5   0  421.56   10.00
   0  -5   0  391.76   10.70
   0  -5   0  403.46   11.20
   0   5   0  411.96   10.10
   0   5   0  415.56   10.30
  -1  -5   0  705.73   14.80
  -1  -5   0  694.23   16.10
  -1  -5   0  732.13   16.00
   1   5   0  717.03   16.10
   1   5   0  679.63   15.90
   1   5   0  687.83   14.60
  -2  -5   0  138.49    5.80
  -2  -5   0  131.39    4.20
  -2  -5   0  134.09    5.80
   2   5   0  146.19    6.10
   2   5   0  135.39    4.00
   2   5   0  137.39    5.60
  -3  -5   0  147.19    4.10
  -3  -5   0  153.78    6.40
   3   5   0  140.29    3.90
   3   5   0  138.29    6.30
   3   5   0  145.99    6.40
  -4  -5   0   64.39    4.90
  -4  -5   0   63.99    2.60
  -4  -5   0   67.59    4.60
   4   5   0   60.79    2.40
   4   5   0   58.79    4.50
   4   5   0   65.19    4.60
  -5  -5   0  200.68    5.50
  -5  -5   0  188.68    8.20
  -5  -5   0  192.38    9.10
   5   5   0  205.48    9.00
   5   5   0  192.88    5.20
   5   5   0  209.78    9.00
  -6  -5   0   70.09    7.40
  -6  -5   0   67.19    9.70
   6   5   0   72.89    3.30
   6   5   0   67.89    5.70
   6   5   0   65.19    5.70
  -7  -5   0   11.60    4.00
  -7  -5   0   12.30    3.30
   7   5   0   18.10    2.30
   7   5   0   15.50    2.00
   7   5   0   10.90    3.40
  -8  -5   0  132.79    9.70
   8   5   0   98.19    7.60
   8   5   0   93.49    4.40
   8   5   0   99.19    4.70
  -9  -5   0    1.60    3.30
   9   5   0    3.80    3.00
   9   5   0    4.50    1.80
   8  -6   0   15.80    4.50
  -8   6   0   24.40    6.30
   7  -6   0   24.50    4.60
  -7   6   0   30.60    6.40
   6  -6   0   85.29   10.10
  -6   6   0  100.79    8.30
   5  -6   0    5.00    2.50
   5  -6   0    5.60    2.40
   5  -6   0    8.70    3.40
  -5   6   0    8.30    3.20
   4  -6   0   24.50    4.20
   4  -6   0   14.60    3.50
   4  -6   0   22.90    2.20
   4  -6   0   18.20    3.70
  -4   6   0   25.90    4.50
   3  -6   0  295.87   10.70
   3  -6   0  315.77    7.60
   3  -6   0  316.07    8.00
   3  -6   0  303.67   11.60
   3  -6   0  317.87   11.80
  -3   6   0  330.17   12.10
   2  -6   0  506.15   15.10
   2  -6   0  529.95   11.80
   2  -6   0  520.55   11.30
   2  -6   0  510.05   14.30
   2  -6   0  526.55   15.20
  -2   6   0  504.05   15.10
   1  -6   0    5.70    1.50
   1  -6   0    7.70    2.10
   1  -6   0    5.20    2.10
   1  -6   0    5.60    1.90
   0  -6   0  443.76   12.10
   0  -6   0  439.96   12.70
   0  -6   0  440.86   11.10
   0  -6   0  425.56   11.40
   0   6   0  460.95   11.60
  -1  -6   0  142.69    5.80
  -1  -6   0  146.49    6.10
  -1  -6   0  144.69    5.20
   1   6   0  145.99    5.10
   1   6   0  165.68    6.40
   1   6   0  148.59    6.20
  -2  -6   0   75.39    4.50
  -2  -6   0   71.39    3.30
   2   6   0   81.89    4.60
   2   6   0   73.09    3.10
  -3  -6   0   35.10    2.10
  -3  -6   0   34.70    4.00
  -3  -6   0   39.00    4.40
   3   6   0   39.40    4.60
   3   6   0   30.90    3.60
   3   6   0   34.50    1.90
  -4  -6   0   45.40    5.10
  -4  -6   0   39.20    4.30
   4   6   0   44.80    5.20
   4   6   0   38.20    4.50
  -5  -6   0   36.30    4.80
  -5  -6   0   32.20    4.60
   5   6   0   23.10    3.80
   5   6   0   34.30    4.60
  -6  -6   0   57.39    6.70
  -6  -6   0   43.50    5.10
   6   6   0   39.30    5.50
   6   6   0   44.90    5.90
  -7  -6   0   61.09    7.40
   7   6   0   61.19   10.90
  -8  -6   0   76.29    9.10
   8   6   0   92.29    7.80
  -9  -6   0   28.40    6.20
   9   6   0   24.30    5.40
   7  -7   0   32.70    5.80
  -7   7   0   35.50    7.10
   6  -7   0   96.09    7.60
  -6   7   0  106.89    8.90
   5  -7   0  121.29    7.80
  -5   7   0  118.69    8.50
   4  -7   0  325.57   12.50
   4  -7   0  346.07   13.50
   4  -7   0  332.47   13.40
  -4   7   0  329.77   13.50
   3  -7   0  246.18    7.00
   3  -7   0  251.77   10.80
   3  -7   0  247.68   10.80
   3  -7   0  228.58    9.70
   3  -7   0  247.08    6.60
  -3   7   0  257.87   11.10
   2  -7   0  446.86   10.60
   2  -7   0  461.75   14.70
   2  -7   0  428.56   13.30
   2  -7   0  457.15   14.60
   2  -7   0  439.96   10.90
  -2   7   0  462.05   14.60
   1  -7   0   38.90    2.90
   1  -7   0   38.70    4.50
   1  -7   0   36.60    4.50
   1  -7   0   35.70    4.00
  -1   7   0   38.30    4.70
   0  -7   0   37.70    4.00
   0  -7   0   37.20    3.00
   0  -7   0   34.80    3.90
   0  -7   0   41.70    4.60
   0   7   0   38.80    3.90
  -1  -7   0   94.29    5.20
  -1  -7   0   83.39    4.70
  -1  -7   0   88.59    4.30
   1   7   0   86.39    5.10
   1   7   0   79.99    4.00
  -2  -7   0    0.60    0.80
  -2  -7   0    0.40    1.40
  -2  -7   0    1.10    1.30
   2   7   0   -0.70    1.30
   2   7   0    0.40    1.20
   2   7   0    0.10    0.80
  -3  -7   0   37.10    4.40
  -3  -7   0   32.10    3.90
  -3  -7   0   31.90    2.30
   3   7   0   34.10    2.10
   3   7   0   28.20    3.70
   3   7   0   30.70    4.10
  -4  -7   0   78.99    5.70
  -4  -7   0   78.99    3.10
  -4  -7   0   74.09    5.30
   4   7   0   83.99    5.50
   4   7   0   80.79    5.90
   4   7   0   77.89    2.80
  -5  -7   0    2.50    2.10
  -5  -7   0   -1.40    1.60
   5   7   0   -1.40    2.10
   5   7   0   -0.40    1.60
  -6  -7   0   57.99    6.40
  -6  -7   0   77.09    6.70
   6   7   0   79.69    6.70
   6   7   0   73.59    6.20
  -7  -7   0  298.27   13.90
   7   7   0  268.37   12.70
  -8  -7   0   15.30    4.70
   8   7   0   12.10    4.20
   7  -8   0   40.40    6.30
  -7   8   0   36.00    6.60
   6  -8   0   61.69    7.50
  -6   8   0   62.59    8.00
   5  -8   0   48.20    6.60
  -5   8   0   67.99    8.20
   4  -8   0    6.30    3.10
   4  -8   0    5.50    2.50
   4  -8   0    3.90    2.80
  -4   8   0    7.20    3.50
   3  -8   0  179.18   14.20
   3  -8   0  171.18    8.60
   3  -8   0  186.28   11.20
   3  -8   0  180.08    5.70
   3  -8   0  181.18    6.10
  -3   8   0  194.08    9.90
   2  -8   0   29.20    2.50
   2  -8   0   25.90    3.80
   2  -8   0   27.70    3.00
   2  -8   0   28.90    4.50
   2  -8   0   20.40    3.80
  -2   8   0   31.80    4.90
   1  -8   0  198.98    7.00
   1  -8   0  196.88    9.00
   1  -8   0  190.68    8.10
   1  -8   0  196.38    8.90
   0  -8   0   61.19    4.10
   0  -8   0   65.19    4.80
   0  -8   0   70.39    4.40
   0  -8   0   67.29    5.20
   0  -8   0   70.69    4.90
   0   8   0   74.89    4.70
  -1  -8   0   66.69    4.10
  -1  -8   0   75.09    5.40
  -1  -8   0   69.99    4.60
  -1  -8   0   76.59    5.10
   1   8   0   85.69    5.30
  -2  -8   0   50.79    4.20
  -2  -8   0   55.19    4.50
  -2  -8   0   55.79    3.40
   2   8   0   55.49    3.30
   2   8   0   49.20    4.40
   2   8   0   57.19    4.40
  -3  -8   0  158.08    5.50
  -3  -8   0  158.18    7.90
  -3  -8   0  158.18    7.60
   3   8   0  166.98    8.20
   3   8   0  156.68    5.20
   3   8   0  160.48    7.60
  -4  -8   0   52.69    2.70
  -4  -8   0   53.19    5.70
  -4  -8   0   55.79    4.90
   4   8   0   54.89    5.80
   4   8   0   52.29    2.50
   4   8   0   53.39    6.30
  -5  -8   0   21.40    4.00
  -5  -8   0   14.10    3.50
   5   8   0   14.70    3.80
   5   8   0   15.40    3.50
  -6  -8   0  230.38   11.70
   6   8   0  264.57   18.80
  -7  -8   0  445.06   17.70
   7   8   0  448.06   17.40
  -8  -8   0    7.80    3.80
   8   8   0   10.00    3.90
   6  -9   0   27.00    5.30
  -6   9   0   22.30    5.70
   5  -9   0   12.80    3.80
  -5   9   0    5.10    3.60
   4  -9   0    5.10    2.70
   3  -9   0   51.99    5.70
   3  -9   0   57.19    3.30
   3  -9   0   56.99    6.80
   3  -9   0   54.39    3.50
   3  -9   0   42.00    5.70
  -3   9   0   61.59    6.90
   2  -9   0   66.69    7.90
   2  -9   0   68.79    4.10
   2  -9   0   74.09    4.00
   2  -9   0   72.19    5.60
  -2   9   0   69.59    6.20
   1  -9   0   44.90    4.80
   1  -9   0   46.90    5.30
   1  -9   0   51.79    5.70
   1  -9   0   45.70    3.60
   1  -9   0   51.49    6.00
   0  -9   0  122.59    7.40
   0  -9   0  130.09    7.10
   0  -9   0  121.49    6.90
   0  -9   0  117.49    6.20
   0  -9   0  110.39    5.80
   0   9   0  129.29    6.50
  -1  -9   0   12.20    2.70
  -1  -9   0    9.60    2.20
  -1  -9   0   11.70    2.90
  -1  -9   0    9.50    2.80
  -1  -9   0   14.80    2.90
   1   9   0   11.70    2.80
  -2  -9   0  248.98    9.60
  -2  -9   0  253.47    8.40
  -2  -9   0  243.78   10.10
   2   9   0  249.58    9.90
   2   9   0  261.67   10.40
  -3  -9   0  370.06   12.70
  -3  -9   0  367.66   10.10
  -3  -9   0  383.06   13.40
   3   9   0  353.16   12.60
   3   9   0  382.76   13.60
  -4  -9   0  180.18    9.00
  -4  -9   0  176.88    5.70
  -4  -9   0  173.08    9.10
   4   9   0  175.98    9.30
   4   9   0  164.98    8.50
  -5  -9   0  162.48    9.30
   5   9   0  168.18    9.60
   5   9   0  148.89    8.60
  -6  -9   0  315.07   13.90
   6   9   0  322.47   14.20
  -7  -9   0   16.00    4.40
   7   9   0   22.00    5.30
  -8  -9   0   14.70    4.80
   8   9   0   20.30    5.40
   6 -10   0    0.30    2.30
  -6  10   0    2.00    3.20
   5 -10   0    0.80    2.50
  -5  10   0    2.70    3.10
   4 -10   0   23.10    4.60
  -4  10   0   38.10    6.30
   3 -10   0    3.60    1.50
   3 -10   0    4.80    1.90
  -3  10   0    5.20    3.20
   2 -10   0  225.48   10.40
   2 -10   0  244.98   11.90
   2 -10   0  245.28   11.60
   2 -10   0  242.98    8.30
   2 -10   0  223.58    8.30
   1 -10   0  115.99    7.00
   1 -10   0  123.09    7.90
   1 -10   0  124.79    7.60
   1 -10   0  118.99    5.90
   1 -10   0  123.89    8.10
   1 -10   0  123.39    5.90
   0 -10   0  201.88    8.20
   0 -10   0  215.88   13.20
   0 -10   0  190.18    9.20
   0 -10   0  197.88    9.30
   0 -10   0  196.18    8.60
   0  10   0  214.28    8.90
  -1 -10   0   91.59    5.70
  -1 -10   0   94.79    6.10
  -1 -10   0   88.09    5.30
  -1 -10   0   75.99    5.90
  -1 -10   0   85.69    6.70
   1  10   0   81.09    6.00
  -2 -10   0   85.89    5.90
  -2 -10   0   87.59    6.30
  -2 -10   0   77.69    5.30
  -2 -10   0   77.09    4.70
   2  10   0   74.39    6.00
  -3 -10   0   13.70    2.80
  -3 -10   0   12.90    2.40
  -3 -10   0   11.80    3.30
  -3 -10   0   14.90    3.50
   3  10   0   16.20    3.50
   3  10   0   23.80    4.40
  -4 -10   0  348.67    9.50
  -4 -10   0  324.17   13.40
  -4 -10   0  322.67   12.80
  -4 -10   0  317.47    9.00
   4  10   0  352.66   14.00
   4  10   0  328.07   12.80
  -5 -10   0   43.00    9.30
   5  10   0   44.70    6.50
  -6 -10   0   26.30    5.10
   6  10   0   18.40    4.60
  -7 -10   0    2.20    2.90
   7  10   0    3.80    3.30
   5 -11   0   25.40    5.30
  -5  11   0   25.70    6.00
   4 -11   0   55.99    7.00
  -4  11   0   48.00    6.80
   3 -11   0   39.10    3.20
   3 -11   0   27.20    5.10
  -3  11   0   44.20    6.80
   2 -11   0   40.50    5.90
   2 -11   0   59.29    8.70
   2 -11   0   55.89    4.40
   2 -11   0   69.79    4.40
   1 -11   0   45.90    5.80
   1 -11   0   43.20    4.50
   1 -11   0   39.70    4.20
   1 -11   0   32.60    5.10
   1 -11   0   44.00    5.70
   1 -11   0   46.60    6.80
   0 -11   0   27.10    4.10
   0 -11   0   25.70    4.50
   0 -11   0   24.10    4.70
   0 -11   0   25.00    3.90
   0 -11   0   24.10    4.30
   0  11   0   31.60    4.30
  -1 -11   0  209.18    9.20
  -1 -11   0  222.58    9.90
  -1 -11   0  211.68   10.90
  -1 -11   0  216.78   10.30
  -1 -11   0  209.28    8.90
   1  11   0  219.78   10.00
  -2 -11   0   21.70    4.70
  -2 -11   0   25.80    4.20
  -2 -11   0   21.80    4.40
  -2 -11   0   28.70    4.20
  -2 -11   0   19.60    3.30
   2  11   0   22.50    4.20
  -3 -11   0   50.79    4.10
  -3 -11   0   52.29    6.40
  -3 -11   0   48.50    4.30
  -3 -11   0   48.70    5.90
   3  11   0   44.90    5.70
   3  11   0   42.50    6.00
  -4 -11   0    1.10    1.20
  -4 -11   0    1.00    1.50
   4  11   0    1.00    2.60
  -5 -11   0   45.70    6.40
   5  11   0   59.29    7.20
  -6 -11   0   50.99    7.20
   6  11   0   46.60    6.80
  -7 -11   0    3.70    3.50
   7  11   0    3.90    3.30
   4 -12   0   38.30    6.40
  -4  12   0   47.30    7.40
   3 -12   0   15.30    3.10
   3 -12   0   13.80    3.80
   3 -12   0   11.70    2.50
   2 -12   0   13.40    2.90
   2 -12   0    9.40    3.40
   2 -12   0   12.50    2.60
   2 -12   0    9.70    3.60
   1 -12   0  122.09    8.50
   1 -12   0  116.59    7.90
   1 -12   0  125.09    6.60
   1 -12   0  115.19    6.50
   0 -12   0   16.10    4.20
   0 -12   0   20.10    4.10
   0 -12   0   18.40    4.20
   0 -12   0   16.00    3.40
  -1 -12   0   41.60    5.40
  -1 -12   0   45.10    5.80
  -1 -12   0   54.89    4.90
   1  12   0   56.09    6.60
  -2 -12   0   10.20    3.30
  -2 -12   0   17.90    4.70
  -2 -12   0   20.70    3.50
  -2 -12   0   17.00    3.60
   2  12   0   12.50    3.90
  -3 -12   0   28.50    3.80
  -3 -12   0   36.20    4.10
  -3 -12   0   37.80    5.70
   3  12   0   32.10    8.30
  -4 -12   0   13.60    3.70
  -4 -12   0   15.40    2.70
  -4 -12   0   17.50    4.30
   4  12   0   13.60    4.20
  -5 -12   0   38.10    6.30
   5  12   0   27.20    5.50
  -6 -12   0    1.10    3.00
   6  12   0    6.80    3.90
   3 -13   0    9.20    3.80
   3 -13   0    7.00    3.40
   3 -13   0    4.60    2.00
   3 -13   0    4.10    2.30
   2 -13   0   39.40    6.00
   2 -13   0   46.10    6.60
   2 -13   0   42.90    4.70
   2 -13   0   37.70    4.10
   1 -13   0   20.30    3.50
   1 -13   0   12.50    3.30
   1 -13   0   19.30    4.10
   1 -13   0   18.40    4.50
   0 -13   0   40.40    5.80
   0 -13   0   47.30    5.60
   0 -13   0   26.00    4.40
  -1 -13   0    1.20    1.70
  -1 -13   0   -0.50    2.50
  -1 -13   0    3.00    2.60
  -1 -13   0    0.00    2.40
   1  13   0    3.30    2.70
  -2 -13   0   64.59    5.30
  -2 -13   0   61.79    7.20
  -2 -13   0   74.79    6.30
  -3 -13   0    0.00    2.50
  -3 -13   0    4.90    2.10
  -3 -13   0    4.90    2.50
   3  13   0    5.90    3.60
  -4 -13   0   29.10    3.50
  -4 -13   0   18.90    3.20
  -4 -13   0   18.40    4.40
   4  13   0   31.30    5.90
  -5 -13   0  148.79   10.40
   5  13   0  139.09   10.40
   2 -14   0   22.30    5.00
   2 -14   0   26.80    5.30
   2 -14   0   31.90    4.10
   2 -14   0   26.70    4.10
   1 -14   0    2.10    2.40
   1 -14   0    1.70    2.70
   1 -14   0   10.80    3.70
   1 -14   0    0.70    2.80
   0 -14   0   20.10    4.80
   0 -14   0   15.00    4.10
   0 -14   0    5.30    2.80
  -1 -14   0  101.29    8.20
  -1 -14   0   95.79    7.10
   1  14   0   89.19   12.60
  -2 -14   0   13.00    4.10
  -2 -14   0    7.70    2.70
  -2 -14   0    9.60    3.70
   2  14   0    8.80    3.70
  -3 -14   0    1.20    1.90
  -3 -14   0    3.80    3.20
  -3 -14   0    3.60    2.70
   3  14   0   -0.90    2.80
  -4 -14   0   90.59    6.00
  -4 -14   0  104.39    5.80
  -4 -14   0   86.09    9.60
   4  14   0  106.29    9.30
   4  14  -1   -2.20    2.70
  -4 -14   1   -0.10    2.80
  -4 -14   1    2.80    2.60
  -4 -14   1    2.40    2.10
   3  14  -1   56.69    7.60
  -3 -14   1   47.80    6.90
  -3 -14   1   51.99    5.70
  -3 -14   1   56.09    7.60
   2  14  -1   31.90    5.80
  -2 -14   1   19.60    4.80
  -2 -14   1   21.80    4.80
  -2 -14   1   27.00    4.50
  -1 -14   1   16.90    4.60
  -1 -14   1    8.50    3.10
   0 -14   1   -2.40    2.40
   0 -14   1    3.50    2.70
   0 -14   1    0.80    2.80
   1 -14   1   60.59    9.20
   1 -14   1   54.09    7.50
   1 -14   1   59.49    7.60
   1 -14   1   63.39    5.30
   5  13  -1   35.30    6.90
  -5 -13   1   28.20    5.90
  -5 -13   1   37.20    6.60
  -5 -13   1   40.80    4.20
   4  13  -1    1.60    2.90
  -4 -13   1    0.00    2.40
  -4 -13   1    4.30    2.10
  -4 -13   1    3.80    2.40
   3  13  -1  153.68    9.90
  -3 -13   1  154.18   10.10
  -3 -13   1  167.48    8.10
  -3 -13   1  165.28    8.60
   2  13  -1   13.40    4.70
  -2 -13   1   17.60    4.70
  -2 -13   1   24.20    4.10
   1  13  -1   -0.40    2.60
  -1 -13   1   -2.10    2.00
  -1 -13   1   -4.20    2.00
  -1 -13   1    0.40    2.10
  -1 -13   1    2.70    2.90
   0  13  -1   79.79    6.50
   0 -13   1   64.29    7.60
   0 -13   1   54.39    6.70
   0 -13   1   56.09    7.60
   1 -13   1    3.70    2.20
   1 -13   1    3.30    2.40
   1 -13   1    4.50    3.10
   1 -13   1    4.60    3.00
   2 -13   1   17.60    3.10
   2 -13   1   23.20    5.20
   2 -13   1   13.90    4.40
   2 -13   1   13.70    3.10
   3 -13   1    8.40    3.70
   3 -13   1    8.00    2.80
   3 -13   1    6.30    3.50
   3 -13   1    7.70    2.70
   6  12  -1    6.40    3.50
  -6 -12   1    5.60    3.40
   5  12  -1   45.10    7.10
  -5 -12   1   34.80    3.60
  -5 -12   1   36.30    6.20
  -5 -12   1   30.20    3.50
   4  12  -1   36.70    5.80
  -4 -12   1   35.20    5.80
   3  12  -1    7.00    3.50
  -3 -12   1   11.00    2.70
  -3 -12   1    2.50    2.60
   2  12  -1   11.10    3.80
  -2 -12   1    9.90    3.40
  -2 -12   1    7.40    2.90
  -2 -12   1    9.90    2.90
  -2 -12   1    3.50    2.60
   1  12  -1   22.40    4.30
  -1 -12   1   25.30    4.50
  -1 -12   1   16.40    3.50
  -1 -12   1   21.40    4.50
   0  12  -1   69.99    5.90
   0 -12   1   55.19    6.80
   0 -12   1   64.19    5.40
   0 -12   1   80.09    6.90
   0 -12   1   65.39    5.80
   1 -12   1   57.89    4.90
   1 -12   1   63.39    4.80
   1 -12   1   61.49    7.20
   1 -12   1   65.49    9.50
   2 -12   1   -0.10    2.10
   2 -12   1   -0.80    1.60
   2 -12   1   -0.20    1.80
   2 -12   1    0.10    2.30
   3 -12   1   15.30    4.20
   3 -12   1    8.00    1.80
   3 -12   1   11.10    2.60
  -4  12  -1   22.30    5.60
   4 -12   1   20.40    4.70
   7  11  -1    3.90    3.50
  -7 -11   1   -2.20    2.70
   6  11  -1   23.80    5.80
  -6 -11   1   18.40    4.70
   5  11  -1   10.70    3.90
  -5 -11   1    7.10    1.80
  -5 -11   1    8.30    3.40
   4  11  -1   84.59    7.40
  -4 -11   1   85.19    7.20
  -4 -11   1   85.79    5.50
   3  11  -1   77.79    6.70
  -3 -11   1   71.69    7.30
  -3 -11   1   73.09    4.90
   2  11  -1    0.90    2.20
  -2 -11   1    2.00    1.80
  -2 -11   1   -3.10    1.70
  -2 -11   1   -0.50    2.30
   1  11  -1   63.89    6.40
  -1 -11   1   58.49    5.00
  -1 -11   1   61.79    7.20
  -1 -11   1   55.99    5.80
  -1 -11   1   76.39    7.80
   0  11  -1    3.70    2.40
   0 -11   1    3.60    3.80
   0 -11   1   -1.70    1.70
   0 -11   1    1.90    1.80
   0 -11   1    0.00    2.00
   1 -11   1    9.40    3.20
   1 -11   1   14.00    4.90
   1 -11   1    7.90    3.10
   1 -11   1   11.60    2.60
   2 -11   1    6.50    3.10
   2 -11   1    7.00    2.20
   2 -11   1   10.80    3.90
   2 -11   1   10.30    3.50
   3 -11   1   53.89    6.60
   3 -11   1   48.50    3.30
   3 -11   1   44.10    3.30
  -4  11  -1    2.20    3.40
   4 -11   1    1.40    2.50
  -5  11  -1    7.40    4.10
   5 -11   1    9.00    3.80
   7  10  -1    9.60    4.00
  -7 -10   1    9.60    4.20
   6  10  -1    7.50    3.60
  -6 -10   1    2.90    3.10
   5  10  -1   27.70    5.20
   5  10  -1   26.90    2.60
  -5 -10   1   29.60    5.40
  -5 -10   1   27.00    2.80
   4  10  -1   50.69    6.30
   4  10  -1   52.19    3.40
  -4 -10   1   53.09    3.80
  -4 -10   1   56.29    6.70
   3  10  -1  148.79    8.60
   3  10  -1  147.69    8.30
   3  10  -1  148.69    6.10
  -3 -10   1  151.48    8.50
  -3 -10   1  128.19    7.60
  -3 -10   1  137.19    8.40
   2  10  -1  124.19    6.00
   2  10  -1  122.99    7.40
  -2 -10   1  125.79    7.10
  -2 -10   1  111.79    7.40
  -2 -10   1  122.59    6.20
   1  10  -1   39.10    5.00
  -1 -10   1   33.30    4.90
  -1 -10   1   35.30    4.30
  -1 -10   1   27.50    3.90
  -1 -10   1   25.30    4.80
   0  10  -1  131.49    6.90
   0 -10   1  122.09    6.90
   0 -10   1  108.59    7.80
   0 -10   1  114.79    6.10
   0 -10   1  121.99    7.50
   1 -10   1   76.89    5.90
   1 -10   1   75.29    6.70
   1 -10   1   84.59    6.50
   1 -10   1   69.09    4.60
   2 -10   1    6.80    2.10
   2 -10   1    7.30    3.20
   2 -10   1    1.70    1.50
   2 -10   1    2.00    2.30
   2 -10   1    3.80    2.40
  -3  10  -1   48.70    7.10
   3 -10   1   46.60    3.20
   3 -10   1   52.99    6.10
   3 -10   1   51.69    3.10
  -4  10  -1    6.30    3.70
   4 -10   1   12.20    3.70
  -5  10  -1   15.80    4.80
   5 -10   1    7.10    3.20
  -6  10  -1   47.50    7.70
   6 -10   1   41.60    6.50
   8   9  -1   38.10    6.40
  -8  -9   1   65.69    9.00
   7   9  -1   34.70    6.00
  -7  -9   1   46.40    7.30
   6   9  -1    0.00    2.40
  -6  -9   1    3.80    2.90
   5   9  -1    9.60    1.70
   5   9  -1    6.10    5.50
  -5  -9   1    1.60    2.30
  -5  -9   1    5.50    1.60
   4   9  -1  325.27    8.80
   4   9  -1  321.87   13.00
   4   9  -1  324.37   12.50
  -4  -9   1  320.57    9.20
  -4  -9   1  315.27   12.20
  -4  -9   1  319.67   13.00
   3   9  -1   37.30    3.10
   3   9  -1   33.80    4.90
  -3  -9   1   37.00    3.70
  -3  -9   1   39.10    5.20
  -3  -9   1   36.10    4.70
   2   9  -1   23.50    3.00
   2   9  -1   32.70    4.60
   2   9  -1   24.60    3.90
  -2  -9   1   31.40    4.20
  -2  -9   1   24.20    4.10
  -2  -9   1   29.40    4.20
   1   9  -1  192.98    8.40
   1   9  -1  190.28    7.50
  -1  -9   1  184.78    7.80
  -1  -9   1  189.98    8.80
  -1  -9   1  198.88    7.90
  -1  -9   1  187.08    9.30
   0   9  -1   -0.80    1.40
   0  -9   1   -1.50    1.20
   0  -9   1   -0.10    1.60
   0  -9   1   -0.90    1.30
   0  -9   1    0.60    1.40
  -1   9  -1    4.30    2.00
   1  -9   1    7.20    2.70
   1  -9   1    5.40    2.20
   1  -9   1    5.60    2.10
   1  -9   1    1.70    2.10
   1  -9   1    4.30    2.50
   2  -9   1  190.38   10.20
   2  -9   1  206.58    9.40
   2  -9   1  202.78    6.60
   2  -9   1  211.88   12.20
   2  -9   1  204.88    6.70
  -3   9  -1   63.09    7.20
   3  -9   1   66.19    7.60
   3  -9   1   69.09    6.00
   3  -9   1   54.29    6.50
  -4   9  -1   10.90    4.10
   4  -9   1   12.40    3.70
  -5   9  -1   51.09    7.00
   5  -9   1   57.99    7.00
  -6   9  -1   23.80    5.90
   6  -9   1   23.20    4.70
   8   8  -1   30.50    6.10
  -8  -8   1   28.60    6.20
   7   8  -1    1.10    2.60
  -7  -8   1   -0.60    2.60
   6   8  -1   -0.10    2.40
  -6  -8   1    1.20    2.30
   5   8  -1  399.56    9.30
   5   8  -1  392.06   14.20
   5   8  -1  406.66   14.80
  -5  -8   1  380.16    9.70
  -5  -8   1  405.66   15.10
  -5  -8   1  355.16   13.50
   4   8  -1  182.08    5.80
   4   8  -1  184.38   13.00
   4   8  -1  178.78    9.00
  -4  -8   1  177.28    6.10
  -4  -8   1  181.98    9.20
   3   8  -1    3.40    2.00
   3   8  -1    2.50    2.10
   3   8  -1    6.30    1.70
  -3  -8   1    7.70    2.50
  -3  -8   1   11.70    3.00
  -3  -8   1    8.30    1.90
   2   8  -1  148.79    7.30
   2   8  -1  142.29    5.90
   2   8  -1  152.08    7.40
  -2  -8   1  155.08    6.20
  -2  -8   1  150.38    7.10
  -2  -8   1  148.09    7.50
   1   8  -1    5.60    2.10
   1   8  -1    4.70    1.60
  -1  -8   1    2.20    1.60
  -1  -8   1    4.60    1.80
  -1  -8   1    6.20    2.40
  -1  -8   1    8.30    2.30
   0   8  -1    1.30    1.30
   0   8  -1    0.40    1.50
   0  -8   1   -1.20    1.70
   0  -8   1   -1.50    1.20
   0  -8   1   -1.40    1.20
   0  -8   1    0.80    1.20
  -1   8  -1   26.10    3.10
   1  -8   1   25.70    4.00
   1  -8   1   33.60    4.80
   1  -8   1   26.90    3.70
   1  -8   1   21.70    2.70
  -2   8  -1    0.20    2.10
   2  -8   1    0.40    1.60
   2  -8   1    2.40    2.10
   2  -8   1    1.70    2.10
   2  -8   1    1.30    1.00
   2  -8   1    0.90    1.20
  -3   8  -1  255.17   11.60
   3  -8   1  268.57   11.80
   3  -8   1  231.88   11.10
   3  -8   1  241.28   10.50
  -4   8  -1   43.00    6.50
   4  -8   1   42.10    5.50
   4  -8   1   23.40    4.80
   4  -8   1   32.10    5.60
  -5   8  -1   74.09    8.30
   5  -8   1   82.89    7.00
  -6   8  -1   -0.90    2.50
   6  -8   1    4.90    2.90
  -7   8  -1    4.20    3.90
   7  -8   1    3.70    3.20
   8   7  -1   34.10    5.70
  -8  -7   1   35.00    6.80
   7   7  -1   25.90    4.80
  -7  -7   1   33.90    6.20
   6   7  -1   19.00    4.00
   6   7  -1   20.70    2.10
  -6  -7   1   21.40    4.70
  -6  -7   1   21.40    2.40
   5   7  -1   59.29    6.50
   5   7  -1   63.79    3.10
   5   7  -1   63.59    6.90
  -5  -7   1   72.49    5.60
  -5  -7   1   66.29    3.40
  -5  -7   1   66.19    7.00
   4   7  -1    0.40    1.60
   4   7  -1   -0.60    1.60
   4   7  -1    0.80    0.90
  -4  -7   1   -0.30    1.50
  -4  -7   1    0.00    1.50
  -4  -7   1    1.60    1.10
   3   7  -1  258.07    7.30
   3   7  -1  268.77    9.90
   3   7  -1  260.37   10.00
  -3  -7   1  254.77   10.10
  -3  -7   1  266.27    7.70
  -3  -7   1  260.67    9.60
   2   7  -1   44.70    4.60
   2   7  -1   42.10    4.40
   2   7  -1   40.20    2.80
  -2  -7   1   42.60    4.50
  -2  -7   1   36.80    2.90
  -2  -7   1   45.00    4.00
   1   7  -1   40.10    3.10
   1   7  -1   42.30    5.00
  -1  -7   1   40.40    3.40
  -1  -7   1   35.00    3.00
  -1  -7   1   42.00    4.40
   0   7  -1  199.18    7.30
   0   7  -1  209.58    7.40
   0  -7   1  227.68    9.20
   0  -7   1  205.28    6.90
   0  -7   1  188.18    7.90
   0  -7   1  208.28    8.80
  -1   7  -1    0.00    1.30
  -1   7  -1    2.60    1.40
   1  -7   1    3.30    1.70
   1  -7   1    0.20    1.40
   1  -7   1    2.20    1.20
  -2   7  -1  256.77   10.60
   2  -7   1  252.87    6.70
   2  -7   1  257.97    7.00
   2  -7   1  248.18    9.60
   2  -7   1  262.97   10.60
   2  -7   1  259.77   10.70
  -3   7  -1   33.20    4.90
   3  -7   1   35.20    4.90
   3  -7   1   37.80    4.50
   3  -7   1   29.90    4.50
  -4   7  -1   85.59    7.20
   4  -7   1  100.09    6.80
   4  -7   1   92.39    7.00
   4  -7   1   82.29    7.00
  -5   7  -1   57.69    7.30
   5  -7   1   50.59    6.10
  -6   7  -1    8.10    4.10
   6  -7   1   12.50    3.70
  -7   7  -1   18.50    5.40
   7  -7   1   20.80    5.00
   9   6  -1   23.50    2.90
   9   6  -1   23.80    3.30
   9   6  -1   17.80    4.90
  -9  -6   1   27.90    6.40
   8   6  -1    0.80    1.30
   8   6  -1   -0.60    2.60
   8   6  -1    0.90    1.30
  -8  -6   1    1.70    3.20
   7   6  -1    1.00    1.10
   7   6  -1   -0.10    2.50
  -7  -6   1    0.20    1.30
  -7  -6   1   -2.50    2.20
   6   6  -1  256.67   11.40
   6   6  -1  250.47    7.20
   6   6  -1  257.77   11.50
  -6  -6   1  255.37   10.80
  -6  -6   1  247.68   11.80
  -6  -6   1  261.37    7.70
   5   6  -1  136.89    7.60
   5   6  -1  138.69    4.70
   5   6  -1  135.49    7.70
  -5  -6   1  133.19    7.20
  -5  -6   1  128.39    4.90
  -5  -6   1  141.19    8.00
   4   6  -1   39.60    2.40
   4   6  -1   42.20    4.90
   4   6  -1   38.10    4.90
  -4  -6   1   27.50    4.00
  -4  -6   1   33.10    4.10
  -4  -6   1   33.30    2.50
   3   6  -1  112.29    5.90
   3   6  -1  127.59    6.50
   3   6  -1  127.89    4.40
  -3  -6   1  123.79    6.50
  -3  -6   1  116.19    4.50
  -3  -6   1  119.79    6.00
   2   6  -1  241.28    7.00
   2   6  -1  247.38    8.80
   2   6  -1  239.18    8.60
  -2  -6   1  247.68    7.30
  -2  -6   1  229.68    8.30
  -2  -6   1  259.37    9.10
   1   6  -1    4.60    1.70
   1   6  -1    7.50    1.60
   1   6  -1    4.80    1.70
  -1  -6   1    4.40    1.70
  -1  -6   1    3.30    1.30
  -1  -6   1    4.90    2.00
   0   6  -1  124.49    5.30
   0   6  -1  115.39    5.00
   0  -6   1  123.49    6.60
   0  -6   1  115.49    6.00
   0  -6   1  126.99    5.40
   0  -6   1  119.59    4.80
  -1   6  -1  530.15   12.30
  -1   6  -1  521.85   13.70
  -1   6  -1  524.75   15.00
   1  -6   1  506.35   11.80
   1  -6   1  515.95   14.90
   1  -6   1  565.44   14.40
  -2   6  -1  793.52   20.70
   2  -6   1  795.22   19.60
   2  -6   1  805.92   16.00
   2  -6   1  794.12   15.70
   2  -6   1  807.12   20.80
  -3   6  -1   96.29    6.50
   3  -6   1   92.89    6.40
   3  -6   1   95.09    6.40
   3  -6   1   96.49    5.90
  -4   6  -1  563.64   18.00
   4  -6   1  546.85   17.60
   4  -6   1  582.84   17.00
   4  -6   1  553.34   17.70
  -5   6  -1   18.40    4.30
   5  -6   1   19.70    4.40
   5  -6   1   23.30    4.60
   5  -6   1   25.20    4.00
  -6   6  -1    3.50    3.40
   6  -6   1   18.80    4.90
  -7   6  -1   11.70    4.20
   7  -6   1   14.60    4.00
  -8   6  -1   39.30    7.40
   8  -6   1   45.00    6.80
   9   5  -1    1.60    2.90
   9   5  -1    2.30    1.80
   9   5  -1    4.20    2.00
  -9  -5   1    4.20    3.70
   8   5  -1    1.10    2.40
   8   5  -1   -0.40    1.20
  -8  -5   1    0.50    3.20
   7   5  -1   -1.40    1.00
   7   5  -1   -0.70    2.20
  -7  -5   1   -0.80    2.20
  -7  -5   1    0.60    1.40
   6   5  -1   95.39    4.30
   6   5  -1   99.39    6.90
   6   5  -1   89.49    6.70
  -6  -5   1  110.69    7.80
  -6  -5   1   94.39    4.60
  -6  -5   1   97.39    6.40
   5   5  -1  104.49    6.70
   5   5  -1  122.39    4.60
   5   5  -1  123.39    7.10
  -5  -5   1  131.29    6.90
  -5  -5   1  127.39    7.50
  -5  -5   1  119.19    4.80
   4   5  -1  302.57   10.70
   4   5  -1  296.97    7.60
   4   5  -1  311.37   10.70
  -4  -5   1  295.47    7.80
  -4  -5   1  283.97   10.70
  -4  -5   1  282.37   10.00
   3   5  -1  449.76   12.90
   3   5  -1  460.15   10.30
   3   5  -1  465.75   13.20
  -3  -5   1  434.86   12.60
  -3  -5   1  454.75   13.30
  -3  -5   1  478.45   10.70
   2   5  -1  840.02   19.50
   2   5  -1  857.61   19.60
   2   5  -1  838.82   17.30
  -2  -5   1  857.71   19.80
  -2  -5   1  856.61   17.60
  -2  -5   1  899.01   21.20
   1   5  -1   43.80    2.70
   1   5  -1   41.10    3.10
   1   5  -1   39.10    3.10
  -1  -5   1   43.20    3.30
  -1  -5   1   40.70    2.70
  -1  -5   1   42.90    3.00
   0   5  -1    8.80    1.70
   0   5  -1   10.60    1.90
   0  -5   1    8.30    1.50
   0  -5   1    8.20    1.80
   0  -5   1    4.30    1.80
   0  -5   1    8.80    1.80
  -1   5  -1  755.32   18.10
  -1   5  -1  714.53   14.90
  -1   5  -1  710.53   17.80
   1  -5   1  712.83   14.70
   1  -5   1  713.63   19.50
   1  -5   1  722.43   16.90
  -2   5  -1  425.46   13.10
   2  -5   1  428.56   12.20
   2  -5   1  437.16   13.10
  -3   5  -1   76.29    5.50
   3  -5   1   78.89    5.00
   3  -5   1   65.19    5.10
   3  -5   1   84.19    5.70
  -4   5  -1  184.88    9.30
   4  -5   1  195.48    9.10
   4  -5   1  199.78    8.60
   4  -5   1  170.98    8.90
  -5   5  -1   49.80    6.30
   5  -5   1   53.49    6.50
   5  -5   1   60.19    5.20
  -6   5  -1   40.40    6.30
   6  -5   1   39.10    5.60
   6  -5   1   51.09    6.10
  -7   5  -1   56.29    7.70
   7  -5   1   60.99    6.90
  -8   5  -1   38.80    7.20
   8  -5   1   24.00    5.00
   9   4  -1   -1.40    2.20
   9   4  -1    1.10    2.00
   9   4  -1    3.10    2.10
  -9  -4   1    2.40    3.40
   8   4  -1    0.90    1.60
   8   4  -1    5.30    3.20
  -8  -4   1    0.60    2.80
   7   4  -1   57.09    4.10
   7   4  -1   52.19    6.10
  -7  -4   1   55.39    5.90
  -7  -4   1   62.99    4.50
  -7  -4   1   61.69   11.50
   6   4  -1  208.48    7.10
   6   4  -1  202.38    9.50
   6   4  -1  206.98    9.90
  -6  -4   1  200.08    7.20
  -6  -4   1  219.68   10.60
  -6  -4   1  203.38    9.00
   5   4  -1    8.90    2.80
   5   4  -1    9.80    2.90
   5   4  -1   10.00    1.80
  -5  -4   1    9.80    2.00
  -5  -4   1    6.70    2.60
  -5  -4   1    9.80    2.60
   4   4  -1   99.99    5.60
   4   4  -1   91.19    3.80
   4   4  -1   96.99    5.60
  -4  -4   1   99.79    5.90
  -4  -4   1  102.49    4.10
  -4  -4   1   93.19    5.20
   3   4  -1   79.59    5.80
   3   4  -1   85.39    4.70
   3   4  -1   80.19    3.30
  -3  -4   1   81.69    4.50
  -3  -4   1   88.49    5.70
  -3  -4   1   81.29    3.40
   2   4  -1   45.20    3.20
   2   4  -1   45.00    2.30
   2   4  -1   40.80    3.20
  -2  -4   1   42.50    3.10
  -2  -4   1   40.40    2.40
  -2  -4   1   41.50    3.30
   1   4  -1    7.10    1.70
   1   4  -1    9.20    1.80
   1   4  -1   10.70    1.50
  -1  -4   1   10.60    1.60
  -1  -4   1   12.80    2.00
  -1  -4   1    8.60    1.90
   0   4  -1   24.90    2.10
   0   4  -1   20.90    2.10
   0  -4   1   22.50    2.50
   0  -4   1   24.40    1.90
   0  -4   1   23.90    3.10
   0  -4   1   26.60    2.70
  -1   4  -1  178.48    6.80
  -1   4  -1  176.68    6.10
  -1   4  -1  180.18    4.90
   1  -4   1  187.08    6.30
   1  -4   1  181.98    4.70
   1  -4   1  184.98    6.90
  -2   4  -1    2.00    1.50
   2  -4   1    0.90    1.10
  -3   4  -1  157.68    7.50
   3  -4   1  164.08    7.50
   3  -4   1  176.08    7.10
   3  -4   1  158.38    7.50
  -4   4  -1   45.30    5.40
   4  -4   1   48.40    4.10
   4  -4   1   38.50    4.70
   4  -4   1   32.50    4.90
  -5   4  -1    5.30    2.50
   5  -4   1    5.10    2.70
   5  -4   1    3.70    1.90
   5  -4   1    8.90    3.10
  -6   4  -1    0.30    2.20
   6  -4   1    1.50    2.40
   6  -4   1   -0.70    2.00
   6  -4   1   -1.80    1.50
  -7   4  -1   30.30    5.60
   7  -4   1   44.30    6.00
   7  -4   1   30.40    3.00
  -8   4  -1   16.60    5.20
  -8   4  -1   18.40    2.50
   8  -4   1   12.10    2.40
   8  -4   1   17.70    4.30
   9   3  -1    8.40    2.80
   9   3  -1    6.20    3.30
   9   3  -1   14.30    3.10
  -9  -3   1    6.40    4.00
   8   3  -1    2.00    1.70
   8   3  -1    6.20    5.40
   8   3  -1   -0.50    1.70
  -8  -3   1   -1.00    2.50
   7   3  -1  143.39    6.60
   7   3  -1  124.69    7.80
  -7  -3   1  141.89    7.70
  -7  -3   1  140.09    9.30
  -7  -3   1  152.18    7.10
   6   3  -1   46.30    5.30
   6   3  -1   38.90    4.00
  -6  -3   1   48.10    6.30
  -6  -3   1   40.00    4.50
  -6  -3   1   42.30    3.60
   5   3  -1   34.50    2.80
   5   3  -1   45.60    5.00
   5   3  -1   37.30    4.60
  -5  -3   1   32.70    4.70
  -5  -3   1   34.50    3.00
  -5  -3   1   35.80    4.00
   4   3  -1  440.56   12.60
   4   3  -1  437.86   10.70
   4   3  -1  453.35   13.20
  -4  -3   1  436.76   10.80
  -4  -3   1  462.45   13.70
  -4  -3   1  432.66   12.30
   3   3  -1   34.50    2.20
   3   3  -1   36.90    3.20
  -3  -3   1   36.90    3.30
  -3  -3   1   35.90    2.30
  -3  -3   1   44.80    4.60
   2   3  -1  211.78    5.50
   2   3  -1  205.28    6.70
   2   3  -1  218.68    6.90
  -2  -3   1  206.98    5.60
  -2  -3   1  208.48    7.00
  -2  -3   1  211.88    6.60
   1   3  -1    5.30    1.40
   1   3  -1    5.00    1.30
   1   3  -1    5.30    1.10
  -1  -3   1    5.50    1.20
  -1  -3   1    5.10    1.30
  -1  -3   1    5.00    1.40
   0   3  -1   51.09    2.60
   0   3  -1   54.39    2.70
   0  -3   1   52.79    2.50
   0  -3   1   52.09    2.70
   0  -3   1   52.89    3.30
   0  -3   1   54.09    2.90
  -1   3  -1  751.22   16.70
  -1   3  -1  744.83   14.00
  -1   3  -1  759.52   15.90
   1  -3   1  738.93   13.90
   1  -3   1  748.33   16.00
  -2   3  -1  685.93   15.40
  -2   3  -1  649.14   16.20
   2  -3   1  679.93   16.40
   2  -3   1  707.63   15.70
  -3   3  -1   85.99    5.40
   3  -3   1   83.89    5.10
   3  -3   1   87.39    4.60
   3  -3   1   75.59    4.80
  -4   3  -1  120.79    3.60
  -4   3  -1  126.19    7.00
   4  -3   1  119.69    6.40
   4  -3   1  130.69    7.00
   4  -3   1  128.39    6.10
  -5   3  -1  152.98    8.50
  -5   3  -1  158.18    4.80
   5  -3   1  155.58    7.90
   5  -3   1  159.88    5.10
   5  -3   1  156.78    8.30
   5  -3   1  161.88    7.50
  -6   3  -1   20.10    2.30
  -6   3  -1   13.70    3.80
   6  -3   1   16.20    2.30
   6  -3   1   28.80    4.50
   6  -3   1   16.60    3.60
   6  -3   1   14.70    3.90
  -7   3  -1    4.10    1.70
  -7   3  -1    5.80    3.60
   7  -3   1    3.40    2.60
   7  -3   1    4.10    2.30
   7  -3   1    5.50    2.00
  -8   3  -1    3.90    3.50
  -8   3  -1    0.60    1.60
   8  -3   1    3.20    2.60
   8  -3   1    2.80    2.00
  -9   3  -1    0.00    3.30
  -9   3  -1    1.70    2.00
   9  -3   1   -0.10    2.50
   9  -3   1    2.30    2.20
   9   2  -1    5.10    2.50
   9   2  -1    3.20    3.00
  -9  -2   1    8.10    3.80
   8   2  -1   16.70    3.50
   8   2  -1   18.50    4.20
   8   2  -1   16.90    3.20
  -8  -2   1   17.40    4.60
  -8  -2   1   13.60    3.50
   7   2  -1   89.69    6.40
   7   2  -1   89.49    5.50
  -7  -2   1   87.89    7.60
  -7  -2   1   87.79    5.70
  -7  -2   1   79.99    6.80
   6   2  -1   28.80    5.30
   6   2  -1   34.90    4.60
   6   2  -1   33.80    3.90
  -6  -2   1   24.90    4.40
  -6  -2   1   27.50    3.90
   5   2  -1   93.29    4.70
   5   2  -1   92.39    5.50
   5   2  -1   93.69    5.90
  -5  -2   1   96.69    5.20
  -5  -2   1   95.99    4.90
  -5  -2   1   86.19    6.10
   4   2  -1    6.80    2.10
   4   2  -1   11.30    1.90
   4   2  -1   10.00    2.90
  -4  -2   1    7.70    2.00
  -4  -2   1    9.70    2.60
  -4  -2   1    6.80    1.70
   3   2  -1  206.98    7.30
   3   2  -1  210.18    7.00
   3   2  -1  198.38    5.80
  -3  -2   1  198.28    7.30
  -3  -2   1  194.58    5.90
  -3  -2   1  208.08    6.80
   2   2  -1 2027.20   36.90
   2   2  -1 2084.39   38.70
  -2  -2   1 2042.70   38.80
  -2  -2   1 2045.00   37.10
   1   2  -1  309.87    6.90
   1   2  -1  306.27    7.60
   1   2  -1  304.87    7.50
  -1  -2   1  305.67    6.90
  -1  -2   1  301.67    7.30
  -1  -2   1  301.57    7.60
   0   2  -1 1583.64   40.50
   0  -2   1 1574.64   43.40
   0  -2   1 1575.14   40.40
  -1   2  -1    5.70    1.20
  -1   2  -1    5.00    1.50
   1  -2   1    4.60    1.10
   1  -2   1    6.20    1.60
  -2   2  -1  380.66    9.60
  -2   2  -1  383.06   10.40
   2  -2   1  390.06   10.50
   2  -2   1  401.36    9.80
  -3   2  -1  760.92   14.40
  -3   2  -1  739.53   18.40
   3  -2   1  781.12   14.60
   3  -2   1  742.23   18.50
   3  -2   1  796.62   17.40
   3  -2   1  771.02   18.10
  -4   2  -1   28.50    1.90
  -4   2  -1   21.70    3.60
   4  -2   1   23.30    3.70
   4  -2   1   30.10    3.80
   4  -2   1   29.00    2.10
  -5   2  -1  139.59    7.90
  -5   2  -1  140.49    4.80
   5  -2   1  137.29    7.10
   5  -2   1  142.69    5.10
   5  -2   1  136.49    6.60
   5  -2   1  137.09    7.60
  -6   2  -1    8.50    3.20
  -6   2  -1   13.90    2.20
   6  -2   1   10.30    3.00
   6  -2   1   13.70    2.30
   6  -2   1   15.10    3.90
   6  -2   1   12.90    2.90
  -7   2  -1   19.20    2.80
  -7   2  -1   13.40    5.30
   7  -2   1   15.30    3.30
  -8   2  -1   89.89    5.10
  -8   2  -1   79.49    8.90
   8  -2   1   88.49    6.80
   8  -2   1   89.89    7.50
   8  -2   1   75.89    5.30
  -9   2  -1   18.70    5.50
  -9   2  -1   17.70    3.30
   9  -2   1   15.60    3.60
   9  -2   1   17.00    3.90
   9   1  -1    1.30    2.40
   9   1  -1    0.90    2.30
   9   1  -1    4.90    2.50
  -9  -1   1    3.30    3.30
   8   1  -1   50.69    5.50
   8   1  -1   47.80    5.90
   8   1  -1   43.00    5.30
  -8  -1   1   50.29    5.60
  -8  -1   1   41.10    6.90
   7   1  -1   21.00    3.90
   7   1  -1   29.10    4.10
  -7  -1   1   22.30    4.70
  -7  -1   1   25.50    3.90
   6   1  -1   31.10    4.00
   6   1  -1   29.90    4.60
   6   1  -1   34.60    4.40
  -6  -1   1   43.50    4.60
  -6  -1   1   39.40    4.40
  -6  -1   1   36.80    5.40
   5   1  -1   23.60    3.40
   5   1  -1   31.30    4.40
  -5  -1   1   29.80    3.50
  -5  -1   1   30.90    3.70
  -5  -1   1   26.10    4.10
   4   1  -1  129.09    5.60
   4   1  -1  123.99    5.20
   4   1  -1  122.09    6.10
  -4  -1   1  129.59    5.50
  -4  -1   1  133.39    6.60
   3   1  -1  210.58    6.40
   3   1  -1  214.08    7.40
   3   1  -1  219.68    6.90
  -3  -1   1  208.78    7.60
  -3  -1   1  214.48    6.50
  -3  -1   1  209.78    6.60
   2   1  -1  490.25   10.70
   2   1  -1  508.65   11.30
   2   1  -1  484.15   11.60
  -2  -1   1  495.75   11.80
  -2  -1   1  504.95   10.80
  -2  -1   1  509.75   11.20
   1   1  -1 1471.05   26.60
   0   1  -1   13.70    1.00
   0   1  -1   14.10    0.90
   0   1  -1   12.20    1.00
   0  -1   1   12.30    1.00
   0  -1   1   13.20    1.00
   0  -1   1   13.20    1.10
  -1   1  -1  344.57    8.10
  -1   1  -1  352.96    7.70
   1  -1   1  362.26    7.80
   1  -1   1  338.37    8.00
  -2   1  -1   35.70    1.50
  -2   1  -1   37.90    2.40
  -2   1  -1   35.00    3.20
   2  -1   1   35.40    1.70
   2  -1   1   35.80    3.40
   2  -1   1   33.00    2.40
  -3   1  -1  181.58    4.80
  -3   1  -1  173.58    6.80
   3  -1   1  188.58    7.00
   3  -1   1  185.28    6.00
   3  -1   1  183.88    4.90
   3  -1   1  180.98    6.40
  -4   1  -1  491.85   14.20
  -4   1  -1  480.15   10.80
   4  -1   1  484.65   12.30
   4  -1   1  470.95   13.90
   4  -1   1  479.55   11.10
   4  -1   1  479.25   13.00
  -5   1  -1   84.39    6.00
  -5   1  -1   79.29    3.80
   5  -1   1   81.99    5.70
   5  -1   1   83.09    5.30
   5  -1   1   76.29    4.60
   5  -1   1   82.69    4.20
  -6   1  -1  152.18    8.80
   6  -1   1  171.38    9.20
   6  -1   1  175.78    7.60
   6  -1   1  168.88    6.70
   6  -1   1  165.08    7.90
  -7   1  -1   41.30    6.20
  -7   1  -1   31.10    3.50
   7  -1   1   32.10    4.30
   7  -1   1   34.80    4.80
   7  -1   1   35.50    4.00
  -8   1  -1    8.70    2.40
  -8   1  -1    8.10    3.70
   8  -1   1    5.70    2.60
   8  -1   1    5.50    2.70
   8  -1   1    4.40    2.30
  -9   1  -1   38.30    7.10
  -9   1  -1   36.90    4.60
   9  -1   1   32.00    4.70
   9   0  -1    5.90    3.20
   9   0  -1    2.50    2.40
  -9   0   1    0.20    2.80
   8   0  -1   28.60    4.30
   8   0  -1   24.80    4.40
   8   0  -1   27.30    4.40
  -8   0   1   28.40    4.30
  -8   0   1   32.30    6.30
   7   0  -1   -1.20    1.90
   7   0  -1    0.70    1.70
  -7   0   1   -0.40    2.00
  -7   0   1    2.30    1.90
   6   0  -1   53.89    6.90
   6   0  -1   55.39    4.60
   6   0  -1   51.19    4.50
  -6   0   1   63.09    6.90
  -6   0   1   55.09    4.10
  -6   0   1   45.80    5.00
   5   0  -1  115.29    6.70
   5   0  -1  123.59    6.00
   5   0  -1  117.69    5.90
  -5   0   1  119.19    5.40
  -5   0   1  124.19    7.20
   4   0  -1   40.60    4.40
   4   0  -1   36.10    3.10
   4   0  -1   38.70    3.20
  -4   0   1   39.50    4.40
  -4   0   1   39.50    2.90
  -4   0   1   38.90    3.30
   3   0  -1   53.29    3.10
   3   0  -1   53.49    3.70
   3   0  -1   52.39    3.20
  -3   0   1   54.69    3.90
  -3   0   1   46.80    3.20
  -3   0   1   50.29    2.90
   2   0  -1 1668.93   31.40
   2   0  -1 1680.43   32.00
   2   0  -1 1693.43   31.10
  -2   0   1 1694.83   32.20
  -2   0   1 1651.53   30.90
  -2   0   1 1684.53   31.40
   1   0  -1   72.09    2.70
   1   0  -1   77.19    2.60
   1   0  -1   75.69    2.70
  -1   0   1   74.09    2.70
  -1   0   1   74.99    2.70
  -1   0   1   76.69    2.50
   0   0   1    6.40    0.40
  -1   0  -1  115.79    3.40
  -1   0  -1  121.59    3.10
  -1   0  -1  115.29    2.80
   1   0   1  116.39    2.90
   1   0   1  123.39    3.10
   1   0   1  115.19    3.40
   2   0   1 2773.12   50.39
  -3   0  -1   93.29    4.80
  -3   0  -1   92.09    3.50
   3   0   1   99.89    4.20
   3   0   1   88.29    4.60
   3   0   1  102.39    3.90
   3   0   1  100.19    3.70
  -4   0  -1    2.00    1.10
   4   0   1    1.00    1.20
   4   0   1   -1.40    1.00
   4   0   1    0.10    1.30
   4   0   1    0.40    1.20
  -5   0  -1   56.59    3.50
  -5   0  -1   59.29    5.10
   5   0   1   64.29    4.00
   5   0   1   65.99    5.10
   5   0   1   67.39    5.00
   5   0   1   68.99    4.00
  -6   0  -1   16.60    3.70
  -6   0  -1   14.00    2.40
   6   0   1   11.80    2.50
   6   0   1   14.50    2.80
   6   0   1   19.60    3.80
   6   0   1   19.30    3.40
  -7   0  -1    2.00    1.80
  -7   0  -1    2.10    2.70
   7   0   1    4.10    2.00
   7   0   1   -1.10    2.00
   7   0   1    1.30    2.00
   7   0   1    1.60    1.80
  -8   0  -1    7.80    2.50
  -8   0  -1    8.00    3.80
   8   0   1   10.10    3.30
   8   0   1    4.70    2.40
   8   0   1    7.90    2.80
  -9   0  -1   11.60    4.20
  -9   0  -1   14.90    3.70
   9   0   1   15.50    3.80
   9   0   1   14.60    3.40
   9   0   1   13.90    3.70
   9  -1  -1   38.40    5.50
   9  -1  -1   43.00    5.90
  -9   1   1   46.80    7.70
  -9   1   1   40.90    5.20
   8  -1  -1   58.49    6.30
   8  -1  -1   55.49    6.10
   8  -1  -1   51.99    6.30
  -8   1   1   57.59    5.00
  -8   1   1   44.90    7.20
   7  -1  -1    3.40    2.20
   7  -1  -1    2.00    2.30
   7  -1  -1    2.00    2.20
  -7   1   1   -0.50    1.70
  -7   1   1    2.60    3.20
   6  -1  -1   86.69    5.30
   6  -1  -1   93.89    6.10
  -6   1   1   82.59    4.90
  -6   1   1   92.39    7.10
   5  -1  -1  252.37    8.40
   5  -1  -1  241.98    9.30
   5  -1  -1  264.07   10.50
  -5   1   1  253.87    9.80
  -5   1   1  271.87   10.90
  -5   1   1  251.17    8.10
   4  -1  -1  372.66    9.90
   4  -1  -1  364.86   11.70
   4  -1  -1  385.46   15.60
  -4   1   1  353.06    9.60
  -4   1   1  364.86   11.20
  -4   1   1  366.06   12.00
   3  -1  -1   49.10    2.90
   3  -1  -1   51.39    3.50
   3  -1  -1   53.49    3.80
  -3   1   1   45.30    3.30
  -3   1   1   47.90    3.70
  -3   1   1   49.20    2.70
   2  -1  -1 6180.68  136.49
   2  -1  -1 6194.68  129.39
  -2   1   1 6144.19  137.29
  -2   1   1 6347.36  129.39
   1  -1  -1    1.20    0.80
   1  -1  -1    1.40    0.90
   1  -1  -1    1.80    0.70
  -1   1   1    0.80    0.80
  -1   1   1    1.20    0.60
  -1   1   1    0.60    0.80
   0  -1  -1   90.99    2.70
   0   1   1   93.19    2.10
   0   1   1   95.39    2.60
  -1  -1  -1  444.76    7.90
  -1  -1  -1  428.56    8.80
  -1  -1  -1  432.86    8.70
   1   1   1  427.36    7.90
   1   1   1  417.26    8.60
  -2  -1  -1   35.20    2.60
  -2  -1  -1   27.50    2.60
   2   1   1   26.30    1.80
   2   1   1   28.50    2.40
   2   1   1   32.60    2.60
   2   1   1   26.70    1.50
  -3  -1  -1  180.88    6.70
  -3  -1  -1  193.78    5.80
   3   1   1  188.38    5.50
   3   1   1  197.48    6.00
   3   1   1  176.08    6.50
   3   1   1  201.08    5.30
  -4  -1  -1  426.06   12.70
  -4  -1  -1  411.76   10.50
   4   1   1  392.66   12.00
   4   1   1  407.06   10.40
   4   1   1  404.96   10.80
   4   1   1  428.66   10.00
  -5  -1  -1  109.39    6.50
  -5  -1  -1  111.39    5.20
   5   1   1  111.19    6.40
   5   1   1  113.29    5.40
   5   1   1  115.69    5.30
   5   1   1  113.69    4.80
  -6  -1  -1   77.89    6.30
  -6  -1  -1   77.79    4.60
   6   1   1   79.69    4.90
   6   1   1   76.69    5.00
   6   1   1   75.59    5.90
   6   1   1   76.89    4.60
  -7  -1  -1   48.10    4.20
  -7  -1  -1   56.09    6.90
   7   1   1   50.79    4.20
   7   1   1   55.79    6.70
   7   1   1   52.39    5.40
   7   1   1   47.40    5.10
  -8  -1  -1    6.60    2.60
  -8  -1  -1    7.60    3.70
   8   1   1   10.30    3.00
   8   1   1    7.60    2.70
   8   1   1    4.40    2.20
  -9  -1  -1   15.00    4.90
  -9  -1  -1    3.30    2.60
   9   1   1   11.00    3.30
   9   1   1   13.00    3.60
   9   1   1    4.40    3.10
   9  -2  -1   84.89    6.70
   9  -2  -1  111.39    8.10
  -9   2   1   69.59    9.50
  -9   2   1   82.89    6.20
   8  -2  -1   29.50    4.50
   8  -2  -1   36.50    5.30
  -8   2   1   30.60    4.10
  -8   2   1   26.60    5.90
   7  -2  -1    2.50    2.40
   7  -2  -1    1.70    2.10
   7  -2  -1    3.30    2.00
  -7   2   1    2.60    1.90
  -7   2   1    0.80    3.00
   6  -2  -1  104.99    5.60
   6  -2  -1  108.79    7.50
   6  -2  -1   91.49    6.50
  -6   2   1  107.79    5.20
  -6   2   1  106.59    7.60
   5  -2  -1  193.38    8.60
   5  -2  -1  192.08    6.90
   5  -2  -1  178.08    8.70
  -5   2   1  180.88    7.60
  -5   2   1  194.18    8.70
  -5   2   1  199.48    9.30
   4  -2  -1 1485.75   31.70
   4  -2  -1 1496.35   29.00
   4  -2  -1 1474.25   32.30
  -4   2   1 1445.36   28.70
  -4   2   1 1485.25   32.50
  -4   2   1 1498.05   32.40
   3  -2  -1  372.06   10.80
   3  -2  -1  353.36   10.80
   3  -2  -1  372.46    8.90
  -3   2   1  377.66   11.10
  -3   2   1  359.46   10.80
  -3   2   1  354.86    8.70
   2  -2  -1   47.80    2.40
   2  -2  -1   52.89    3.40
   2  -2  -1   46.90    3.30
  -2   2   1   45.90    3.30
  -2   2   1   49.00    3.30
  -2   2   1   47.50    2.30
   1  -2  -1   44.80    2.00
   1  -2  -1   46.70    2.70
   1  -2  -1   45.10    2.80
  -1   2   1   45.00    2.00
  -1   2   1   45.20    2.60
  -1   2   1   44.60    2.70
   0  -2  -1   20.60    1.40
   0  -2  -1   21.60    1.50
   0  -2  -1   22.50    1.40
   0  -2  -1   19.70    1.50
   0   2   1   21.70    1.50
   0   2   1   18.40    1.40
  -1  -2  -1 1123.09   19.60
  -1  -2  -1 1112.79   20.80
  -1  -2  -1 1116.49   21.30
   1   2   1 1133.09   19.60
   1   2   1 1129.59   20.80
  -2  -2  -1    6.30    1.60
  -2  -2  -1    7.30    1.70
   2   2   1    4.10    1.50
   2   2   1    5.00    1.40
  -3  -2  -1  140.49    5.70
  -3  -2  -1  130.99    5.00
   3   2   1  132.19    3.80
   3   2   1  129.69    3.60
   3   2   1  134.79    5.40
   3   2   1  133.19    5.10
  -4  -2  -1  193.48    8.00
  -4  -2  -1  206.48    6.90
   4   2   1  200.18    5.90
   4   2   1  199.78    5.50
   4   2   1  186.68    7.50
   4   2   1  195.68    7.10
  -5  -2  -1   95.69    4.90
  -5  -2  -1   92.99    6.10
   5   2   1  100.89    5.90
   5   2   1  102.39    4.50
   5   2   1   90.69    4.00
   5   2   1   94.79    5.30
  -6  -2  -1    7.50    2.30
  -6  -2  -1    4.80    2.50
   6   2   1    2.90    1.90
   6   2   1    9.50    2.10
   6   2   1    6.40    2.50
   6   2   1    5.30    1.90
  -7  -2  -1   80.99    7.00
  -7  -2  -1   74.99    5.20
   7   2   1   92.39    6.10
   7   2   1   87.49    5.20
   7   2   1   82.89    6.60
   7   2   1   77.59    4.90
  -8  -2  -1   88.29    6.30
  -8  -2  -1   86.99    9.20
   8   2   1   94.89    5.80
   8   2   1   88.79    5.50
   8   2   1   92.39    6.70
  -9  -2  -1   10.30    4.30
   9   2   1    4.50    2.70
   9   2   1   14.90    4.00
   9   2   1   10.70    3.10
   8  -3  -1   89.89    7.20
   8  -3  -1   87.79    5.90
  -8   3   1   66.29    8.50
  -8   3   1   80.69    5.40
   7  -3  -1    3.00    2.20
   7  -3  -1    1.40    2.20
   7  -3  -1    4.30    2.10
  -7   3   1   -0.10    2.40
  -7   3   1    3.10    1.90
   6  -3  -1   32.70    4.70
   6  -3  -1   29.60    4.80
   6  -3  -1   30.60    5.10
   6  -3  -1   25.80    3.80
  -6   3   1   25.50    4.80
  -6   3   1   31.80    3.40
   5  -3  -1  122.19    7.10
   5  -3  -1  137.49    7.70
   5  -3  -1  129.79    5.40
  -5   3   1  119.59    5.10
  -5   3   1  136.09    7.90
   4  -3  -1    0.70    1.50
   4  -3  -1    0.90    1.10
   4  -3  -1    1.30    1.70
  -4   3   1    1.10    2.10
  -4   3   1    3.40    2.10
  -4   3   1    3.00    1.20
   3  -3  -1  302.17    7.60
   3  -3  -1  301.87   10.00
   3  -3  -1  301.27   10.00
  -3   3   1  284.27    9.90
  -3   3   1  289.17    7.50
  -3   3   1  316.77   10.30
   2  -3  -1  120.09    5.30
   2  -3  -1  136.29    5.80
   2  -3  -1  125.39    4.00
  -2   3   1  124.29    5.50
  -2   3   1  118.79    3.90
  -2   3   1  127.19    5.70
   1  -3  -1  119.19    3.70
   1  -3  -1  127.49    5.00
   1  -3  -1  115.99    4.60
  -1   3   1  121.39    4.90
  -1   3   1  122.19    4.70
  -1   3   1  119.49    3.70
   0  -3  -1  161.18    4.90
   0  -3  -1  162.18    4.90
   0  -3  -1  161.58    4.90
   0   3   1  153.98    4.90
   0   3   1  156.58    4.90
  -1  -3  -1  544.05   12.20
  -1  -3  -1  564.24   10.60
  -1  -3  -1  564.74   11.80
  -1  -3  -1  557.24   10.80
   1   3   1  548.45   12.40
   1   3   1  555.94   11.70
  -2  -3  -1 1962.80   37.40
  -2  -3  -1 2011.70   37.70
   2   3   1 2027.40   37.40
  -3  -3  -1  188.38    6.90
  -3  -3  -1  193.18    6.60
   3   3   1  187.68    6.70
   3   3   1  192.68    6.80
  -4  -3  -1  220.18    7.70
   4   3   1  215.88    7.80
   4   3   1  219.18    5.30
   4   3   1  217.68    5.60
   4   3   1  227.48    8.30
  -5  -3  -1  134.29    6.20
  -5  -3  -1  130.89    7.10
   5   3   1  123.09    6.20
   5   3   1  125.99    4.30
   5   3   1  126.19    6.70
   5   3   1  127.69    4.60
  -6  -3  -1    1.30    2.10
  -6  -3  -1   -0.60    1.40
   6   3   1    2.00    1.20
   6   3   1    0.10    1.10
   6   3   1   -1.00    1.40
   6   3   1   -2.20    1.30
  -7  -3  -1   45.90    5.00
  -7  -3  -1   41.80    6.00
   7   3   1   59.39    7.10
   7   3   1   48.10    4.30
   7   3   1   46.70    3.40
   7   3   1   54.59    6.30
  -8  -3  -1   30.40    5.90
  -8  -3  -1   29.60    4.60
   8   3   1   29.70    5.00
   8   3   1   36.20    4.30
   8   3   1   30.60    3.70
  -9  -3  -1    4.80    3.40
   9   3   1    6.10    3.30
   9   3   1    1.30    2.10
   9   3   1    6.80    2.30
   8  -4  -1   43.90    6.00
   8  -4  -1   47.90    4.90
  -8   4   1   53.19    4.40
  -8   4   1   51.69    7.90
   7  -4  -1    1.80    3.00
   7  -4  -1    2.50    2.00
  -7   4   1    2.80    1.80
  -7   4   1    2.80    3.00
   6  -4  -1   15.30    4.00
   6  -4  -1   13.50    2.50
   6  -4  -1   15.80    3.50
   6  -4  -1    8.70    3.00
  -6   4   1   10.50    3.60
  -6   4   1   14.30    2.40
   5  -4  -1   62.89    5.00
   5  -4  -1   53.89    3.60
   5  -4  -1   58.19    6.20
   5  -4  -1   68.29    7.00
  -5   4   1   57.29    3.40
  -5   4   1   57.69    6.60
   4  -4  -1  246.58   10.00
   4  -4  -1  261.57    7.30
   4  -4  -1  248.68   10.10
  -4   4   1  259.57   10.40
  -4   4   1  247.38    7.10
   3  -4  -1  198.58    8.20
   3  -4  -1  199.88    5.80
   3  -4  -1  211.98    8.50
  -3   4   1  196.48    8.20
  -3   4   1  191.88    5.70
   2  -4  -1    0.70    1.60
   2  -4  -1    0.50    0.80
   2  -4  -1    0.60    1.40
  -2   4   1   -1.20    1.30
  -2   4   1    0.70    0.80
   1  -4  -1    3.70    1.50
   1  -4  -1    2.80    1.00
   1  -4  -1    2.70    1.20
   1  -4  -1    2.30    1.40
  -1   4   1    2.20    1.30
   0  -4  -1  204.38    6.50
   0  -4  -1  216.18    6.50
   0  -4  -1  216.58    6.00
   0  -4  -1  214.98    6.30
   0   4   1  209.28    6.30
  -1  -4  -1  133.89    5.10
  -1  -4  -1  139.19    4.80
  -1  -4  -1  141.69    4.30
  -1  -4  -1  142.69    3.90
   1   4   1  134.49    4.70
   1   4   1  132.69    5.20
  -2  -4  -1   93.19    4.40
  -2  -4  -1  101.29    4.40
   2   4   1   92.99    4.20
   2   4   1   89.49    4.50
  -3  -4  -1    3.50    1.70
   3   4   1    8.60    2.20
   3   4   1    5.10    1.70
  -4  -4  -1  241.18    8.50
  -4  -4  -1  239.28    9.00
   4   4   1  245.18    8.90
   4   4   1  260.37    9.10
  -5  -4  -1   51.09    5.60
  -5  -4  -1   46.20    4.00
   5   4   1   49.40    2.40
   5   4   1   59.89    4.70
   5   4   1   58.79    4.70
   5   4   1   55.59    2.30
  -6  -4  -1   22.30    4.10
  -6  -4  -1   24.60    3.90
   6   4   1   24.40    4.30
   6   4   1   24.20    4.00
   6   4   1   24.40    2.00
   6   4   1   25.90    2.20
  -7  -4  -1   71.19    7.70
  -7  -4  -1   59.59    6.20
   7   4   1   78.09    3.80
   7   4   1   72.79    3.90
   7   4   1   76.49    6.30
   7   4   1   73.69    6.40
  -8  -4  -1   15.80    4.70
   8   4   1   20.50    2.80
   8   4   1   17.20    4.10
   8   4   1   19.10    3.60
  -9  -4  -1   -1.70    2.60
   9   4   1    6.00    2.30
   9   4   1    2.70    1.90
   9   4   1    9.20    3.60
   8  -5  -1   30.50    3.90
   8  -5  -1   27.60    5.60
  -8   5   1   20.30    5.40
  -8   5   1   30.30    3.70
   7  -5  -1   16.50    3.10
   7  -5  -1   13.10    3.70
  -7   5   1   13.00    2.60
  -7   5   1   13.30    4.60
   6  -5  -1    6.90    3.00
   6  -5  -1    4.30    2.70
   6  -5  -1    8.60    2.10
  -6   5   1    6.80    3.30
   5  -5  -1   44.10    7.80
   5  -5  -1   48.00    5.70
   5  -5  -1   51.59    3.40
  -5   5   1   46.30    3.20
  -5   5   1   35.10    5.30
   4  -5  -1  324.17   11.30
   4  -5  -1  293.97   11.70
   4  -5  -1  314.27   12.00
   4  -5  -1  309.97    8.40
  -4   5   1  311.87   12.10
  -4   5   1  323.37    8.40
   3  -5  -1  238.88    6.80
   3  -5  -1  259.17    9.20
   3  -5  -1  232.08    9.40
   3  -5  -1  254.07    9.90
  -3   5   1  251.67    6.90
  -3   5   1  250.67    9.90
   2  -5  -1   60.79    4.50
   2  -5  -1   60.49    4.60
   2  -5  -1   61.89    3.00
   2  -5  -1   56.19    4.30
  -2   5   1   57.89    4.40
   1  -5  -1   35.30    2.40
   1  -5  -1   31.90    3.60
   1  -5  -1   34.00    2.80
   1  -5  -1   33.90    2.60
   1  -5  -1   28.50    3.20
  -1   5   1   33.00    3.40
   0  -5  -1 1342.07   27.20
   0  -5  -1 1369.96   26.50
   0  -5  -1 1349.77   27.50
   0  -5  -1 1342.77   26.90
   0  -5  -1 1344.67   26.70
   0   5   1 1344.67   26.90
  -1  -5  -1   31.70    2.60
  -1  -5  -1   37.70    2.90
  -1  -5  -1   32.50    2.10
  -1  -5  -1   28.70    2.30
   1   5   1   29.70    3.20
   1   5   1   34.30    2.70
  -2  -5  -1    0.10    1.00
  -2  -5  -1    1.20    0.60
  -2  -5  -1    0.90    1.20
  -2  -5  -1    1.40    0.90
   2   5   1   -0.60    0.90
   2   5   1    2.60    1.70
  -3  -5  -1  230.38    8.20
  -3  -5  -1  232.28    8.20
   3   5   1  247.88    9.80
   3   5   1  230.48    8.00
  -4  -5  -1   86.49    5.20
  -4  -5  -1   94.79    5.60
   4   5   1   92.99    5.30
   4   5   1   93.39    5.60
  -5  -5  -1   -1.00    1.40
  -5  -5  -1    1.70    1.90
   5   5   1    0.90    1.80
   5   5   1    1.30    1.60
  -6  -5  -1  163.98    8.90
  -6  -5  -1  146.29    7.60
   6   5   1  151.28    8.70
   6   5   1  162.18    8.40
  -7  -5  -1   23.50    4.10
  -7  -5  -1   16.90    4.30
   7   5   1   20.20    4.90
   7   5   1   20.00    4.20
  -8  -5  -1    1.70    2.80
   8   5   1    0.80    2.60
   8   5   1    0.50    1.10
   8   5   1    2.90    1.20
  -9  -5  -1    5.90    3.60
   9   5   1    6.00    1.80
   9   5   1    3.60    1.60
   9   5   1    0.10    2.70
   8  -6  -1    1.40    2.10
   8  -6  -1    1.60    2.80
  -8   6   1    4.80    2.20
  -8   6   1    5.40    3.50
   7  -6  -1   87.79    7.50
   7  -6  -1   77.19    5.70
  -7   6   1   66.79    8.50
  -7   6   1   87.89    4.90
   6  -6  -1  166.38    6.30
   6  -6  -1  182.18   10.20
  -6   6   1  162.78   10.40
  -6   6   1  170.38    6.20
   5  -6  -1   52.19    6.50
   5  -6  -1   55.79    6.10
   5  -6  -1   47.20    3.20
   5  -6  -1   44.30    5.80
  -5   6   1   61.29    7.10
  -5   6   1   46.90    3.10
   4  -6  -1  382.56   12.90
   4  -6  -1  382.66    9.60
   4  -6  -1  348.77   13.50
   4  -6  -1  365.16   13.70
  -4   6   1  360.46    9.30
  -4   6   1  364.96   13.70
   3  -6  -1   13.50    1.90
   3  -6  -1   14.20    3.30
   3  -6  -1   11.40    3.00
   3  -6  -1   12.10    2.70
  -3   6   1   13.80    3.20
   2  -6  -1   97.29    5.80
   2  -6  -1  109.89    4.20
   2  -6  -1   94.79    5.30
   2  -6  -1  100.19    5.90
   2  -6  -1   99.89    4.50
  -2   6   1  102.39    6.10
   1  -6  -1  308.37    9.40
   1  -6  -1  303.87   10.10
   1  -6  -1  299.87    8.20
   1  -6  -1  305.57    8.70
   1  -6  -1  284.27    9.80
  -1   6   1  303.47   10.10
   0  -6  -1   77.19    4.30
   0  -6  -1   68.09    4.00
   0  -6  -1   65.09    4.30
   0  -6  -1   70.39    3.80
   0  -6  -1   73.89    3.90
   0   6   1   75.89    4.20
  -1  -6  -1    7.10    1.80
  -1  -6  -1    4.00    1.50
  -1  -6  -1    6.00    1.40
  -1  -6  -1    4.80    1.60
   1   6   1    7.50    2.10
  -2  -6  -1  239.88    8.20
  -2  -6  -1  244.88    6.60
  -2  -6  -1  251.97    6.30
  -2  -6  -1  223.98    8.20
  -3  -6  -1  243.08    8.80
  -3  -6  -1  237.78    8.70
   3   6   1  240.28    9.10
   3   6   1  226.98    8.30
  -4  -6  -1  239.28    9.20
  -4  -6  -1  241.88    9.50
   4   6   1  227.68    9.50
   4   6   1  240.08    9.00
  -5  -6  -1  163.18    8.30
  -5  -6  -1  150.88    7.60
   5   6   1  165.38    8.00
   5   6   1  154.78    8.20
  -6  -6  -1   87.59    6.30
  -6  -6  -1   83.19    6.70
   6   6   1   92.19    6.50
   6   6   1  108.89    7.30
  -7  -6  -1    0.90    3.00
   7   6   1    1.20    2.50
  -8  -6  -1    1.40    3.10
   8   6   1    0.10    2.70
  -9  -6  -1    0.00    2.90
   9   6   1    3.80    3.40
   7  -7  -1   47.70    6.50
   7  -7  -1   45.70    3.70
  -7   7   1   56.29    8.20
   6  -7  -1    5.10    2.80
   6  -7  -1    4.80    1.80
  -6   7   1    4.70    3.50
   5  -7  -1   11.50    2.10
   5  -7  -1    9.00    3.80
   5  -7  -1   13.90    3.40
  -5   7   1   12.00    3.80
   4  -7  -1  217.28   10.90
   4  -7  -1  235.58    7.20
   4  -7  -1  230.78   10.20
   4  -7  -1  251.57    7.80
  -4   7   1  244.78   11.30
   3  -7  -1   82.19    3.80
   3  -7  -1   70.49    5.90
   3  -7  -1   70.29    4.00
   3  -7  -1   81.69    5.60
   3  -7  -1   79.19    6.00
  -3   7   1   75.09    6.00
   2  -7  -1    3.00    1.70
   2  -7  -1    3.90    1.60
   2  -7  -1    8.60    2.70
   2  -7  -1    9.60    1.80
   2  -7  -1    7.50    2.50
  -2   7   1    6.30    2.30
   1  -7  -1  286.27    9.30
   1  -7  -1  261.87    7.90
   1  -7  -1  264.57    8.30
   1  -7  -1  260.67    9.70
   1  -7  -1  253.87    9.70
  -1   7   1  257.87    9.80
   0  -7  -1  105.59    6.30
   0  -7  -1  111.89    5.50
   0  -7  -1  108.89    5.20
   0  -7  -1  100.39    5.70
   0  -7  -1  105.09    5.00
   0   7   1  103.69    5.30
  -1  -7  -1   17.60    2.90
  -1  -7  -1   20.20    2.80
  -1  -7  -1   21.00    2.40
  -1  -7  -1   24.50    3.20
   1   7   1   22.00    4.00
  -2  -7  -1   50.49    3.10
  -2  -7  -1   43.80    3.70
  -2  -7  -1   51.39    2.80
  -2  -7  -1   44.20    3.80
   2   7   1   56.39    4.40
   2   7   1   53.09    3.80
  -3  -7  -1  212.28    5.50
  -3  -7  -1  211.58    8.50
  -3  -7  -1  203.18    8.30
  -3  -7  -1  212.88    5.70
   3   7   1  203.38    8.80
   3   7   1  205.68    8.10
  -4  -7  -1    4.30    1.90
  -4  -7  -1    6.10    2.30
   4   7   1    5.80    2.10
   4   7   1   10.30    3.00
  -5  -7  -1  109.29    6.90
  -5  -7  -1  102.79    7.80
   5   7   1  109.29    6.70
   5   7   1  101.29    6.90
  -6  -7  -1  212.38   10.00
  -6  -7  -1  205.98   10.70
   6   7   1  221.98   10.80
   6   7   1  214.78   10.10
  -7  -7  -1    2.20    3.10
   7   7   1    4.10    3.10
  -8  -7  -1    4.50    3.30
   8   7   1    3.90    3.10
  -9  -7  -1   32.20    6.70
   9   7   1   42.00    7.10
   7  -8  -1   16.50    4.40
  -7   8   1   20.50    5.60
   6  -8  -1    8.10    3.30
  -6   8   1    0.30    2.90
   5  -8  -1   13.20    3.50
   5  -8  -1   18.20    2.40
   5  -8  -1   23.20    3.00
  -5   8   1   20.10    4.80
   4  -8  -1   14.10    2.30
   4  -8  -1   11.80    2.00
   4  -8  -1   12.70    3.90
   4  -8  -1   16.40    3.80
   4  -8  -1    7.70    3.10
  -4   8   1   15.40    4.10
   3  -8  -1   20.70    2.90
   3  -8  -1   15.90    2.30
   3  -8  -1   16.90    3.20
   3  -8  -1   15.80    3.80
  -3   8   1    8.20    3.10
   2  -8  -1    6.90    1.80
   2  -8  -1    7.10    2.40
   2  -8  -1    2.00    2.10
   2  -8  -1    4.10    2.40
   2  -8  -1    3.40    1.60
  -2   8   1    2.10    2.10
   1  -8  -1  263.57    8.30
   1  -8  -1  256.57    9.50
   1  -8  -1  260.17   10.40
   1  -8  -1  257.47   10.20
   0  -8  -1   28.70    3.70
   0  -8  -1   28.80    4.20
   0  -8  -1   36.70    4.00
   0  -8  -1   31.10    4.10
   0  -8  -1   30.10    3.60
  -1  -8  -1   66.59    4.60
  -1  -8  -1   61.59    4.80
  -1  -8  -1   65.79    4.40
  -1  -8  -1   64.59    4.50
  -1  -8  -1   64.29    3.80
   1   8   1   64.79    4.80
  -2  -8  -1  358.96   11.80
  -2  -8  -1  372.46   10.30
  -2  -8  -1  375.46    9.70
  -2  -8  -1  363.26   11.70
   2   8   1  363.86   11.60
   2   8   1  381.86   12.40
  -3  -8  -1   42.60    2.50
  -3  -8  -1   42.00    2.70
  -3  -8  -1   51.39    5.30
  -3  -8  -1   41.90    4.80
   3   8   1   46.60    5.20
   3   8   1   39.80    4.50
  -4  -8  -1    4.30    2.00
  -4  -8  -1   -0.50    1.40
   4   8   1    1.00    2.10
   4   8   1    0.00    1.60
  -5  -8  -1  189.78    9.50
  -5  -8  -1  169.18    8.70
   5   8   1  165.88    9.10
  -6  -8  -1   77.29    8.10
   6   8   1   70.69    8.00
   6   8   1   55.09    6.60
  -7  -8  -1    0.10    2.50
   7   8   1   -3.30    2.00
  -8  -8  -1   43.70    7.40
   8   8   1   54.69    7.70
   6  -9  -1   11.00    3.50
  -6   9   1    6.00    4.30
   5  -9  -1   18.00    2.50
   5  -9  -1   16.00    2.60
   5  -9  -1   14.90    3.80
  -5   9   1   14.10    4.70
   4  -9  -1   10.50    3.40
   4  -9  -1   19.40    2.70
   4  -9  -1   12.70    2.10
  -4   9   1   11.90    3.80
   3  -9  -1   42.00    5.90
   3  -9  -1   47.10    3.40
   3  -9  -1   36.00    5.30
   3  -9  -1   35.50    4.70
   3  -9  -1   43.80    3.70
  -3   9   1   43.50    5.80
   2  -9  -1   93.19    6.70
   2  -9  -1   86.19    6.60
   2  -9  -1   83.49    5.90
   2  -9  -1   83.79    4.50
   2  -9  -1   94.89    5.10
  -2   9   1   81.59    6.60
   1  -9  -1  107.19    6.90
   1  -9  -1  100.49    6.60
   1  -9  -1  100.89    5.20
   1  -9  -1  111.59    6.20
   1  -9  -1  100.29    5.40
   0  -9  -1   31.00    4.50
   0  -9  -1   21.10    3.50
   0  -9  -1   24.10    3.20
   0  -9  -1   20.50    3.50
   0  -9  -1   22.90    3.40
   0   9   1   20.70    3.50
  -1  -9  -1   80.49    5.20
  -1  -9  -1   87.59    6.10
  -1  -9  -1   94.09    5.80
  -1  -9  -1   82.59    5.20
  -1  -9  -1   92.59    5.00
   1   9   1   92.69    5.90
  -2  -9  -1  109.39    5.40
  -2  -9  -1  102.59    6.10
  -2  -9  -1  104.09    4.80
  -2  -9  -1  106.59    6.40
   2   9   1  111.59    6.80
  -3  -9  -1   27.80    4.40
  -3  -9  -1   30.60    2.50
  -3  -9  -1   33.40    3.20
  -3  -9  -1   29.60    4.60
   3   9   1   25.10    4.30
   3   9   1   24.50    3.70
  -4  -9  -1  412.06   14.10
  -4  -9  -1  416.56   14.50
   4   9   1  410.26   14.90
   4   9   1  407.26   13.70
  -5  -9  -1  294.87   12.60
  -5  -9  -1  287.87   12.60
   5   9   1  314.47   12.30
   5   9   1  294.17   12.90
  -6  -9  -1    1.30    4.40
   6   9   1    2.60    2.60
  -7  -9  -1   11.80    4.00
   7   9   1   18.90    5.00
  -8  -9  -1   23.60    5.90
   8   9   1   18.00    5.00
   6 -10  -1    7.40    3.60
  -6  10   1    6.90    4.10
   5 -10  -1   31.00    5.20
  -5  10   1   42.60    6.80
   4 -10  -1    8.80    2.00
   4 -10  -1   13.40    2.60
   4 -10  -1    6.80    3.10
  -4  10   1    9.70    3.90
   3 -10  -1    1.50    1.60
   3 -10  -1    4.10    3.70
   3 -10  -1    0.70    1.60
  -3  10   1    1.10    2.60
   2 -10  -1  583.94   17.80
   2 -10  -1  560.14   14.90
   2 -10  -1  554.64   18.70
   2 -10  -1  554.64   18.60
   2 -10  -1  582.64   14.60
  -2  10   1  569.84   18.80
   1 -10  -1   14.10    3.60
   1 -10  -1   14.20    4.70
   1 -10  -1   20.90    3.10
   1 -10  -1   22.60    3.40
   1 -10  -1   20.20    3.90
   1 -10  -1   22.20    3.90
   0 -10  -1   57.09    6.10
   0 -10  -1   64.89    6.90
   0 -10  -1   46.30    4.20
   0 -10  -1   51.19    5.50
   0 -10  -1   54.09    5.30
  -1 -10  -1  168.88    8.00
  -1 -10  -1  179.78    9.10
  -1 -10  -1  183.38    7.60
  -1 -10  -1  187.18    8.70
  -1 -10  -1  176.78    8.10
   1  10   1  173.58    8.60
  -2 -10  -1  389.76   13.50
  -2 -10  -1  381.96   13.10
  -2 -10  -1  377.36   11.70
   2  10   1  388.16   13.80
  -3 -10  -1  173.28    6.60
  -3 -10  -1  158.88    8.40
  -3 -10  -1  170.58    8.90
  -3 -10  -1  169.78    6.20
   3  10   1  170.08    8.90
   3  10   1  174.98    9.30
  -4 -10  -1   90.79    6.70
  -4 -10  -1  101.29    7.30
  -4 -10  -1   83.09    3.80
  -4 -10  -1   87.69    3.70
   4  10   1   76.19    6.80
   4  10   1   80.19    6.20
  -5 -10  -1   14.20    4.00
   5  10   1    6.80    3.40
   5  10   1   11.60    4.30
  -6 -10  -1   27.50    5.20
   6  10   1   23.40    5.40
  -7 -10  -1    8.00    3.90
   7  10   1    7.10    3.60
  -8 -10  -1   46.50    7.60
   8  10   1   37.70    7.10
   5 -11  -1   17.10    4.50
  -5  11   1   15.70    5.30
   4 -11  -1    1.50    1.60
   4 -11  -1    2.80    2.90
   4 -11  -1    1.40    2.70
  -4  11   1    1.80    3.30
   3 -11  -1   40.10    4.10
   3 -11  -1   32.90    3.40
   3 -11  -1   20.70    4.20
  -3  11   1   25.50    5.30
   2 -11  -1   99.99    5.70
   2 -11  -1  103.59    7.20
   2 -11  -1  100.49    5.50
   1 -11  -1   69.09    5.00
   1 -11  -1   70.79    5.20
   1 -11  -1   73.99    5.90
   1 -11  -1   80.19    6.70
   1 -11  -1   77.39    6.90
   1 -11  -1   69.69    6.00
   0 -11  -1    2.10    2.20
   0 -11  -1    0.50    2.20
   0 -11  -1    2.30    1.90
   0 -11  -1   -0.30    1.60
   0 -11  -1    0.40    1.90
  -1 -11  -1    6.30    2.20
  -1 -11  -1    9.70    2.90
  -1 -11  -1    4.70    2.40
  -1 -11  -1    8.00    3.30
  -1 -11  -1    8.40    2.90
   1  11   1    8.20    3.00
  -2 -11  -1  124.09    6.10
  -2 -11  -1  134.09    6.90
  -2 -11  -1  118.09    7.50
  -2 -11  -1  135.99    7.70
  -2 -11  -1  139.79    8.60
   2  11   1  122.39    7.90
  -3 -11  -1  223.98   11.70
  -3 -11  -1  220.48   10.20
  -3 -11  -1  226.48    7.80
  -3 -11  -1  198.78   10.10
   3  11   1  218.78   10.10
   3  11   1  212.88   10.80
  -4 -11  -1    3.20    1.50
  -4 -11  -1    6.70    3.10
  -4 -11  -1    2.90    1.20
   4  11   1    1.50    2.60
   4  11   1    2.30    2.80
  -5 -11  -1    2.10    2.50
   5  11   1    3.00    3.10
  -6 -11  -1   -1.60    2.10
   6  11   1   -1.30    2.20
  -7 -11  -1   -3.00    2.60
   7  11   1   -0.30    2.60
   4 -12  -1    2.10    2.50
   4 -12  -1    5.00    2.20
  -4  12   1   -0.70    3.00
   3 -12  -1    7.70    2.20
   3 -12  -1   11.90    2.80
   3 -12  -1    7.10    3.20
   2 -12  -1   11.00    3.70
   2 -12  -1    9.90    2.60
   2 -12  -1   12.10    3.00
   2 -12  -1   13.40    3.70
   1 -12  -1  146.99    7.60
   1 -12  -1  138.09   10.90
   1 -12  -1  146.19    7.30
   1 -12  -1  153.08    8.60
   1 -12  -1  158.78   10.10
   0 -12  -1   78.89    6.80
   0 -12  -1   96.09    6.50
   0 -12  -1   91.69    6.40
   0 -12  -1  101.49    7.30
  -1 -12  -1  140.89    7.50
  -1 -12  -1  148.99    8.10
  -1 -12  -1  146.09    8.30
  -1 -12  -1  146.19   10.90
  -1 -12  -1  159.38    8.90
   1  12   1  152.78    8.70
  -2 -12  -1   50.79    4.20
  -2 -12  -1   51.39    5.50
  -2 -12  -1   64.99   11.70
  -2 -12  -1   40.70    5.50
  -2 -12  -1   50.29    6.00
   2  12   1   37.70    5.70
  -3 -12  -1   27.00    7.80
  -3 -12  -1   28.80    3.60
  -3 -12  -1   28.80    3.80
  -4 -12  -1   39.40    3.40
  -4 -12  -1   37.50    5.60
  -4 -12  -1   38.30    3.10
   4  12   1   48.20    7.10
  -5 -12  -1    0.60    2.60
   5  12   1    1.10    2.90
  -6 -12  -1   -1.80    2.40
   6  12   1    3.00    3.30
   3 -13  -1   83.69    5.70
   3 -13  -1   86.49    5.20
   3 -13  -1   60.59    7.50
   2 -13  -1   18.50    3.70
   2 -13  -1   36.50    5.90
   2 -13  -1   27.60    3.70
   2 -13  -1   31.20    5.30
   1 -13  -1   15.80    3.50
   1 -13  -1   14.30    4.10
   1 -13  -1   12.10    3.30
   1 -13  -1   12.20    3.00
   0 -13  -1  146.89    9.20
   0 -13  -1  158.98    8.30
   0 -13  -1  144.29    9.50
   0 -13  -1  150.28    8.50
   0 -13  -1  155.48    8.40
  -1 -13  -1    4.40    2.10
  -1 -13  -1    7.60    3.30
  -1 -13  -1    4.20    2.70
  -1 -13  -1    7.40    3.30
   1  13   1    6.70    3.20
  -2 -13  -1   10.70    3.70
  -2 -13  -1    9.20    3.10
  -2 -13  -1   13.20    2.90
  -3 -13  -1   34.70    4.00
  -3 -13  -1   31.60    4.40
  -3 -13  -1   30.80    5.40
   3  13   1   33.50    5.80
  -4 -13  -1    1.60    3.40
  -4 -13  -1   -2.20    2.80
  -4 -13  -1    3.20    1.70
   4  13   1    3.20    2.70
  -5 -13  -1    2.60    2.90
   5  13   1    0.90    3.00
  -6 -13  -1    1.40    3.10
   6  13   1    5.40    3.50
   2 -14  -1    5.20    3.20
   2 -14  -1    6.90    3.20
   2 -14  -1    5.30    2.40
   2 -14  -1    3.80    2.70
   1 -14  -1    5.80    2.70
   1 -14  -1    6.70    3.40
   1 -14  -1    3.10    3.20
   1 -14  -1    8.60    3.60
   0 -14  -1   56.79    6.30
   0 -14  -1   69.89    7.90
   0 -14  -1   59.09    6.60
   0 -14  -1   72.39    6.20
  -1 -14  -1    1.40    2.10
  -1 -14  -1    0.60    2.50
  -1 -14  -1    1.00    2.80
  -2 -14  -1   50.69    6.90
  -2 -14  -1   74.99    5.80
   2  14   1   64.69    7.90
  -3 -14  -1   75.39    6.00
  -3 -14  -1   80.19    5.50
  -3 -14  -1   63.59    7.70
   3  14   1   81.59    9.10
  -4 -14  -1    1.00    1.50
  -4 -14  -1   -0.10    2.50
  -4 -14  -1   -1.20    1.90
   4  14   1    3.40    3.30
   0 -15  -1    6.60    2.90
  -1 -15  -1   12.40    4.20
  -1 -15  -1    6.40    2.90
  -2 -15  -1   19.20    4.60
  -2 -15  -1   16.20    3.60
  -2 -15  -1   10.80    4.00
   2  15   1   17.90    4.90
   3  14  -2   69.89    8.10
  -3 -14   2   84.69    6.30
  -3 -14   2   72.39    8.70
  -3 -14   2   63.89    7.10
   2  14  -2    4.90    3.70
  -2 -14   2    2.60    3.10
  -2 -14   2    0.90    2.30
   1  14  -2   43.00    6.90
  -1 -14   2   37.00    6.10
  -1 -14   2   36.30    5.60
   0  14  -2   36.10    5.30
   0 -14   2   35.00    5.00
   0 -14   2   48.00    7.10
   0 -14   2   39.70    5.90
   1 -14   2   -0.70    2.70
   1 -14   2    0.20    2.00
   1 -14   2   -1.60    2.00
   1 -14   2   -3.20    2.30
   5  13  -2    3.80    3.40
  -5 -13   2   12.70    4.80
  -5 -13   2    2.90    2.00
   4  13  -2   34.10    5.90
  -4 -13   2   36.60    6.40
  -4 -13   2   36.10    4.40
   3  13  -2    6.80    3.70
  -3 -13   2    1.20    1.90
  -3 -13   2    9.20    3.90
   2  13  -2    3.20    2.90
  -2 -13   2    6.00    2.60
  -2 -13   2    5.90    3.30
   1  13  -2  109.79    7.90
  -1 -13   2   95.99    7.20
  -1 -13   2  102.09    7.10
  -1 -13   2   93.19    8.10
   0  13  -2    1.70    2.50
   0 -13   2   -1.60    2.40
   0 -13   2    1.10    2.30
   0 -13   2   -0.30    2.40
   1 -13   2    2.90    2.40
   1 -13   2   -2.30    2.30
   1 -13   2    0.40    2.20
   2 -13   2   28.70    5.40
   2 -13   2   21.90    3.30
   2 -13   2   28.20    5.50
   2 -13   2   36.60    3.70
   3 -13   2    7.30    3.50
   3 -13   2    6.30    3.70
   6  12  -2    0.40    2.90
  -6 -12   2   -2.40    1.30
  -6 -12   2    0.50    2.80
   5  12  -2   38.50    6.30
  -5 -12   2   30.80    5.70
  -5 -12   2   30.90    3.80
   4  12  -2   14.00    4.40
   4  12  -2    8.20    2.40
  -4 -12   2    9.30    3.70
  -4 -12   2   13.90    3.00
   3  12  -2   33.10    5.70
   3  12  -2   35.10    4.20
  -3 -12   2   46.40    6.60
  -3 -12   2   35.20    4.50
   2  12  -2  112.29    6.80
   2  12  -2  109.99    7.90
  -2 -12   2  107.99    7.50
  -2 -12   2  122.19    7.20
  -2 -12   2  114.59    8.50
   1  12  -2   25.30    4.70
  -1 -12   2   31.70    5.50
  -1 -12   2   27.70    4.80
  -1 -12   2   26.70    4.30
   0  12  -2   35.80    5.10
   0 -12   2   33.80    4.40
   0 -12   2   33.00    5.60
   0 -12   2   38.60    5.40
   1 -12   2   24.20    4.80
   1 -12   2   23.90    4.70
   1 -12   2   23.40    3.60
   2 -12   2   36.10    6.10
   2 -12   2   34.40    5.60
   2 -12   2   27.00    3.40
   2 -12   2   35.60    3.70
   3 -12   2   23.80    5.30
   3 -12   2   26.50    5.30
   4 -12   2   15.80    5.00
   6  11  -2   13.70    2.20
   6  11  -2   16.40    4.90
  -6 -11   2   18.00    2.60
  -6 -11   2    8.70    3.60
   5  11  -2   -2.40    2.20
   5  11  -2    3.30    1.80
  -5 -11   2    0.00    2.30
   4  11  -2  134.49    9.00
   4  11  -2  133.19    6.10
  -4 -11   2  121.39    6.30
  -4 -11   2  123.79    8.80
   3  11  -2   -1.90    2.20
   3  11  -2    3.40    2.00
  -3 -11   2    3.50    2.70
  -3 -11   2    2.00    1.70
   2  11  -2   48.50    6.10
   2  11  -2   46.60    4.90
  -2 -11   2   41.20    5.20
  -2 -11   2   36.40    6.00
  -2 -11   2   47.30    5.20
   1  11  -2  123.49    6.90
   1  11  -2  122.49    7.50
  -1 -11   2  120.39    6.90
  -1 -11   2  123.19    7.30
   0  11  -2   37.20    4.70
   0 -11   2   44.70    5.70
   0 -11   2   51.29    5.00
   0 -11   2   41.00    8.60
  -1  11  -2   47.10    5.00
   1 -11   2   31.50    3.80
   1 -11   2   37.40    5.60
   1 -11   2   40.40    5.70
   2 -11   2   78.79    6.80
   2 -11   2   87.79    7.30
   2 -11   2   81.89    5.20
   2 -11   2   82.39    4.50
   3 -11   2    1.30    2.20
  -4  11  -2    9.50    3.90
   4 -11   2   10.20    3.90
  -5  11  -2   18.00    5.10
   5 -11   2   13.20    4.40
   7  10  -2    7.20    3.80
  -7 -10   2    1.40    2.70
   6  10  -2   -1.40    2.30
   6  10  -2    1.60    1.40
  -6 -10   2    2.10    2.90
  -6 -10   2   -1.00    1.20
   5  10  -2   36.10    6.10
  -5 -10   2   33.70    3.60
  -5 -10   2   35.70    5.90
   4  10  -2    2.70    1.60
   4  10  -2    6.60    3.80
  -4 -10   2    1.80    2.50
  -4 -10   2    2.40    1.60
   3  10  -2   24.80    4.90
   3  10  -2   22.40    6.30
   3  10  -2   25.90    3.30
  -3 -10   2   25.00    4.40
  -3 -10   2   22.80    3.50
  -3 -10   2   25.70    4.20
   2  10  -2  155.68    8.40
   2  10  -2  142.69    6.70
  -2 -10   2  146.69    7.70
  -2 -10   2  151.88    7.30
  -2 -10   2  144.69    8.60
   1  10  -2    0.90    2.10
   1  10  -2    1.30    1.80
  -1 -10   2   -0.70    2.30
  -1 -10   2   -2.20    1.60
  -1 -10   2    2.90    2.10
  -1 -10   2    6.20    2.30
   0  10  -2    0.60    1.90
   0  10  -2   -0.30    2.00
   0 -10   2    1.70    1.70
   0 -10   2   -1.10    1.80
   0 -10   2   -0.30    1.70
   0 -10   2   -1.00    2.10
  -1  10  -2   86.69    5.70
   1 -10   2   97.19    5.20
   1 -10   2   97.79    7.10
   1 -10   2   98.89    6.80
   1 -10   2   87.19    7.50
   2 -10   2   29.90    5.20
   2 -10   2   41.80    5.40
   2 -10   2   24.50    5.30
   2 -10   2   36.40    3.00
   2 -10   2   31.00    3.20
  -3  10  -2    1.30    2.70
   3 -10   2   -1.00    1.70
  -4  10  -2    7.50    3.70
   4 -10   2   16.10    4.10
  -5  10  -2    8.50    3.90
   5 -10   2   12.00    3.70
  -6  10  -2    9.10    4.60
   6 -10   2    3.50    3.10
   7   9  -2    2.10    2.80
  -7  -9   2    0.90    2.80
   6   9  -2    5.00    1.50
   6   9  -2    9.40    3.80
  -6  -9   2    2.40    1.60
  -6  -9   2    0.70    2.00
   5   9  -2   49.30    6.30
   5   9  -2   63.09    3.70
  -5  -9   2   56.49    7.00
  -5  -9   2   58.69    4.00
   4   9  -2    6.00    2.10
   4   9  -2   12.40    3.80
   4   9  -2    0.90    1.90
  -4  -9   2    6.10    2.50
  -4  -9   2    4.60    3.00
  -4  -9   2    6.20    2.00
   3   9  -2  196.28    9.40
   3   9  -2  200.78    7.30
   3   9  -2  191.68    9.40
  -3  -9   2  189.38    7.70
  -3  -9   2  208.28   10.10
   2   9  -2   53.99    5.70
   2   9  -2   55.59    4.10
  -2  -9   2   53.89    4.60
  -2  -9   2   49.40    5.90
  -2  -9   2   55.19    4.30
   1   9  -2   36.80    4.50
   1   9  -2   34.50    4.10
  -1  -9   2   29.90    3.80
  -1  -9   2   40.90    4.70
  -1  -9   2   35.90    4.70
  -1  -9   2   34.60    5.30
   0   9  -2    7.70    2.30
   0   9  -2   11.80    2.80
   0  -9   2   13.10    2.70
   0  -9   2   14.10    4.10
   0  -9   2   13.40    2.90
   0  -9   2    7.40    2.60
  -1   9  -2   61.29    4.30
  -1   9  -2   49.10    5.10
   1  -9   2   64.49    7.00
   1  -9   2   64.39    5.60
   1  -9   2   66.39    5.30
   2  -9   2   14.80    2.20
   2  -9   2   16.50    2.20
   2  -9   2   19.90    4.30
   2  -9   2   21.80    3.90
  -3   9  -2    1.70    2.50
   3  -9   2    0.40    2.00
   3  -9   2    0.70    2.40
  -4   9  -2   44.20    6.50
   4  -9   2   34.00    5.20
  -5   9  -2    0.80    3.00
   5  -9   2   -0.60    2.30
  -6   9  -2   -1.40    3.10
   6  -9   2    2.40    2.90
   8   8  -2   12.40    4.60
  -8  -8   2   14.90    4.80
   7   8  -2   14.00    4.60
   7   8  -2   17.30    2.30
  -7  -8   2   15.10    4.90
  -7  -8   2   16.70    2.50
   6   8  -2  117.59    4.80
   6   8  -2  126.59    8.60
  -6  -8   2  117.99    5.30
  -6  -8   2  130.19    9.60
   5   8  -2   12.20    5.30
   5   8  -2   20.40    2.60
   5   8  -2   20.50    4.20
  -5  -8   2   21.70    4.60
  -5  -8   2   18.40    2.60
   4   8  -2   67.29    5.80
   4   8  -2   70.29    3.90
   4   8  -2   65.69    5.60
  -4  -8   2   59.49    5.20
  -4  -8   2   64.29    6.80
  -4  -8   2   67.79    4.20
   3   8  -2  484.25   15.30
   3   8  -2  499.45   15.30
  -3  -8   2  474.25   14.60
  -3  -8   2  480.65   13.00
  -3  -8   2  491.85   15.90
   2   8  -2   21.90    3.70
   2   8  -2   17.20    3.40
   2   8  -2   26.10    3.20
  -2  -8   2   21.90    4.00
  -2  -8   2   19.30    3.50
   1   8  -2    3.00    1.50
   1   8  -2    3.50    2.00
  -1  -8   2    4.90    2.30
  -1  -8   2    6.50    2.40
  -1  -8   2    2.50    1.60
  -1  -8   2    3.60    1.70
   0   8  -2  153.78    6.70
   0   8  -2  155.48    6.90
   0  -8   2  172.98    8.10
   0  -8   2  156.48    8.30
   0  -8   2  162.78    7.30
   0  -8   2  152.08    6.20
  -1   8  -2   37.40    3.60
  -1   8  -2   45.20    5.00
   1  -8   2   34.60    4.90
   1  -8   2   32.00    4.20
   1  -8   2   38.50    3.00
   1  -8   2   43.90    5.00
  -2   8  -2   -0.30    2.20
   2  -8   2    0.70    1.00
   2  -8   2    0.20    1.00
   2  -8   2   -0.90    1.90
   2  -8   2    1.10    1.80
  -3   8  -2  159.28    9.30
   3  -8   2  140.99    8.80
   3  -8   2  149.49    8.90
   3  -8   2  166.38    8.70
  -4   8  -2    9.20    3.80
   4  -8   2   10.90    3.20
  -5   8  -2   24.10    5.10
   5  -8   2   31.20    5.40
  -6   8  -2   44.60    7.60
   6  -8   2   48.70    6.90
  -7   8  -2   15.40    4.90
   7  -8   2   27.20    5.30
   8   7  -2    2.60    2.80
   8   7  -2    2.50    1.50
  -8  -7   2    3.40    1.90
  -8  -7   2   -1.30    2.60
   7   7  -2   89.49    4.40
   7   7  -2   91.39    7.80
  -7  -7   2   97.19    5.00
  -7  -7   2   92.39    8.20
   6   7  -2   61.29    3.60
   6   7  -2   49.00    7.30
  -6  -7   2   61.29    8.50
  -6  -7   2   62.09    4.00
   5   7  -2   40.10    5.30
   5   7  -2   41.00    3.00
   5   7  -2   48.90    5.90
  -5  -7   2   43.40    3.30
  -5  -7   2   46.70    6.00
  -5  -7   2   31.00    4.60
   4   7  -2  259.67   10.50
   4   7  -2  266.57   10.90
   4   7  -2  255.97    7.80
  -4  -7   2  273.27   10.40
  -4  -7   2  267.87    8.30
  -4  -7   2  250.67   10.90
   3   7  -2   25.90    3.90
   3   7  -2   30.20    3.10
   3   7  -2   25.40    3.90
  -3  -7   2   30.50    4.40
  -3  -7   2   30.50    3.40
  -3  -7   2   24.90    3.70
   2   7  -2   23.80    3.60
   2   7  -2   21.70    3.50
   2   7  -2   21.40    2.70
  -2  -7   2   24.40    3.50
  -2  -7   2   21.60    2.90
  -2  -7   2   20.50    3.40
   1   7  -2    4.50    1.60
   1   7  -2    4.40    2.10
  -1  -7   2    5.90    1.90
  -1  -7   2    4.00    1.70
  -1  -7   2    0.60    1.60
   0   7  -2  119.09    5.40
   0   7  -2  111.79    5.50
   0  -7   2  108.59    6.50
   0  -7   2  115.49    5.80
   0  -7   2  117.99    5.10
   0  -7   2  117.79    6.30
  -1   7  -2  253.77    9.10
  -1   7  -2  262.17    7.80
   1  -7   2  267.17    9.90
   1  -7   2  253.97   10.40
   1  -7   2  246.18    7.30
   1  -7   2  253.67    9.50
  -2   7  -2  109.79    6.10
  -2   7  -2  111.49    7.20
   2  -7   2  105.19    6.90
   2  -7   2  114.79    6.50
   2  -7   2  112.79    3.90
  -3   7  -2   99.69    7.10
   3  -7   2  105.19    7.20
   3  -7   2   91.59    6.20
  -4   7  -2   12.80    3.80
   4  -7   2   12.10    3.40
   4  -7   2   10.10    3.30
   4  -7   2   16.70    3.90
   5  -7   2    8.40    4.80
  -6   7  -2   95.29    8.50
   6  -7   2   87.89    7.50
  -7   7  -2   28.90    6.20
   7  -7   2   37.20    5.70
   8   6  -2   -0.20    2.40
   8   6  -2   -0.10    1.40
  -8  -6   2    2.60    3.10
   7   6  -2    7.80    3.30
  -7  -6   2    4.50    3.00
  -7  -6   2    6.10    2.10
   6   6  -2  164.08    6.20
   6   6  -2  170.98    9.40
  -6  -6   2  152.38    9.50
  -6  -6   2  165.28    6.50
  -6  -6   2  177.68   10.00
   5   6  -2   18.40    4.20
   5   6  -2   15.10    3.30
   5   6  -2   14.40    2.40
  -5  -6   2   18.10    3.80
  -5  -6   2   12.90    2.30
  -5  -6   2   18.80    3.90
   4   6  -2   95.49    4.30
   4   6  -2   93.09    6.00
   4   6  -2  100.69    6.40
  -4  -6   2   87.49    5.60
  -4  -6   2   93.89    4.50
  -4  -6   2   93.29    6.30
   3   6  -2   39.40    4.70
   3   6  -2   32.10    2.60
   3   6  -2   42.40    4.70
  -3  -6   2   39.00    4.30
  -3  -6   2   35.20    4.40
  -3  -6   2   35.70    2.90
   2   6  -2   26.50    2.40
   2   6  -2   23.30    3.40
   2   6  -2   24.50    3.40
  -2  -6   2   21.10    3.30
  -2  -6   2   26.50    2.90
  -2  -6   2   22.60    3.10
   1   6  -2   11.90    2.00
   1   6  -2   13.90    2.50
   1   6  -2   13.20    2.60
  -1  -6   2   10.00    2.60
  -1  -6   2   11.10    2.10
   0   6  -2  117.29    5.10
   0   6  -2  124.79    5.40
   0  -6   2  120.99    5.90
   0  -6   2  119.19    5.50
   0  -6   2  111.09    6.20
   0  -6   2  114.49    4.80
  -1   6  -2  117.99    5.60
  -1   6  -2  111.59    4.40
   1  -6   2   98.89    5.50
   1  -6   2  111.19    4.20
   1  -6   2  120.29    6.50
  -2   6  -2  365.06   11.50
  -2   6  -2  364.86   12.60
   2  -6   2  356.36   12.60
   2  -6   2  384.06   12.00
  -3   6  -2  262.07   11.10
   3  -6   2  269.07   10.20
   3  -6   2  269.07   11.00
  -4   6  -2  111.79    7.60
   4  -6   2   99.09    7.30
   4  -6   2   99.99    6.60
   4  -6   2  100.29    8.40
  -5   6  -2   -1.70    2.00
   5  -6   2    2.70    2.30
   5  -6   2   -1.80    1.50
   5  -6   2   -1.10    2.00
  -6   6  -2   69.79    8.00
   6  -6   2  104.99    7.70
  -7   6  -2    7.10    3.60
   7  -6   2    7.70    3.60
  -8   6  -2   -0.80    2.90
   8  -6   2    5.70    3.60
   9   5  -2    2.40    1.90
   9   5  -2   -0.30    2.60
  -9  -5   2    0.90    2.90
   8   5  -2   27.60    5.30
   8   5  -2   18.40    3.10
  -8  -5   2   29.40    6.20
  -8  -5   2   31.50    4.00
   7   5  -2   30.20    3.60
   7   5  -2   18.30    4.30
  -7  -5   2   35.00    6.20
   6   5  -2    0.10    1.70
   6   5  -2    2.50    1.50
   6   5  -2    1.30    2.30
  -6  -5   2    3.80    2.00
  -6  -5   2    0.20    1.60
  -6  -5   2   -0.20    2.10
   5   5  -2   69.79    5.50
   5   5  -2   57.49    5.10
   5   5  -2   65.79    3.80
  -5  -5   2   68.69    5.80
  -5  -5   2   68.69    5.20
  -5  -5   2   73.39    4.20
   4   5  -2  350.26    9.20
   4   5  -2  332.37   11.60
   4   5  -2  315.47   11.30
  -4  -5   2  344.37    9.40
  -4  -5   2  337.67   12.00
  -4  -5   2  325.57   11.10
   3   5  -2    4.80    1.90
   3   5  -2    9.40    1.80
   3   5  -2    7.30    2.20
  -3  -5   2    8.70    2.40
  -3  -5   2    8.80    1.80
  -3  -5   2    5.30    1.80
   2   5  -2  101.69    5.30
   2   5  -2  109.99    5.50
   2   5  -2   94.59    4.20
  -2  -5   2  100.29    5.00
  -2  -5   2   98.89    4.40
  -2  -5   2  105.49    5.50
   1   5  -2 1418.86   28.40
   1   5  -2 1393.86   27.80
   1   5  -2 1384.66   29.00
  -1  -5   2 1405.96   28.20
  -1  -5   2 1436.16   29.30
  -1  -5   2 1372.66   28.00
   0   5  -2 1188.98   24.80
   0   5  -2 1202.38   24.00
   0  -5   2 1228.08   25.20
   0  -5   2 1182.38   26.40
   0  -5   2 1184.98   23.70
   0  -5   2 1226.78   25.70
  -1   5  -2  118.89    5.40
  -1   5  -2  141.39    7.70
  -1   5  -2  131.29    4.40
   1  -5   2  128.99    6.30
   1  -5   2  127.79    5.80
   1  -5   2  128.89    4.10
  -2   5  -2  114.99    6.30
  -2   5  -2  104.19    5.30
   2  -5   2  119.39    5.80
   2  -5   2  113.19    6.30
  -3   5  -2  192.88    8.80
   3  -5   2  176.28    7.80
   3  -5   2  193.08    8.80
  -4   5  -2   10.60    3.30
   4  -5   2    9.20    2.50
   4  -5   2    7.30    2.60
   4  -5   2    7.70    2.90
  -5   5  -2    4.60    2.80
   5  -5   2    6.60    2.40
   5  -5   2    3.90    2.70
   5  -5   2    0.80    2.20
   6  -5   2   80.39    6.90
   6  -5   2   79.99    6.60
  -7   5  -2   -3.10    2.40
   7  -5   2    1.00    2.20
  -8   5  -2    2.70    3.40
   8  -5   2    6.90    3.50
   9   4  -2    1.90    2.90
   9   4  -2    3.50    2.20
  -9  -4   2    2.50    3.50
   8   4  -2   48.70    5.10
   8   4  -2   33.60    5.40
  -8  -4   2   40.30    6.50
  -8  -4   2   43.80    5.00
   7   4  -2  102.39    5.60
   7   4  -2  104.29    7.50
  -7  -4   2  110.79    6.00
  -7  -4   2   89.29    7.70
   6   4  -2   -3.00    1.50
   6   4  -2   -0.30    1.90
   6   4  -2    1.10    1.40
  -6  -4   2   -0.40    2.10
  -6  -4   2    2.20    1.90
  -6  -4   2    1.20    1.60
   5   4  -2  383.06   13.40
   5   4  -2  390.76   13.00
   5   4  -2  393.66   10.80
  -5  -4   2  399.76   11.00
  -5  -4   2  380.56   12.50
  -5  -4   2  409.86   14.20
   4   4  -2  120.39    4.90
   4   4  -2  115.29    6.30
   4   4  -2  117.89    6.30
  -4  -4   2  120.39    6.10
  -4  -4   2  120.89    6.60
  -4  -4   2  114.29    4.90
   3   4  -2    2.00    1.50
   3   4  -2    2.00    1.50
   3   4  -2    1.30    1.00
  -3  -4   2    3.80    1.30
  -3  -4   2    0.40    1.30
  -3  -4   2    1.50    1.50
   2   4  -2    6.30    1.80
   2   4  -2    4.80    1.40
  -2  -4   2    6.70    1.60
  -2  -4   2    6.60    1.90
  -2  -4   2    5.70    2.00
   1   4  -2 1180.18   23.80
   1   4  -2 1176.28   24.40
   1   4  -2 1174.18   23.40
  -1  -4   2 1137.79   23.50
  -1  -4   2 1184.98   23.70
  -1  -4   2 1183.28   24.50
   0   4  -2   25.40    2.10
   0   4  -2   27.90    2.90
   0  -4   2   26.00    3.20
   0  -4   2   22.70    2.80
   0  -4   2   27.30    3.10
   0  -4   2   22.70    1.90
  -1   4  -2    0.50    1.30
  -1   4  -2    1.20    0.80
  -1   4  -2    2.30    1.10
   1  -4   2    0.60    1.20
   1  -4   2   -0.90    1.30
   1  -4   2    0.20    0.70
  -2   4  -2  848.52   19.60
   2  -4   2  894.31   21.00
   2  -4   2  905.31   20.10
  -3   4  -2   81.39    4.70
  -3   4  -2   82.89    5.50
   3  -4   2   78.39    4.80
   3  -4   2   80.09    5.40
  -4   4  -2   24.40    4.10
   4  -4   2   24.90    3.40
   4  -4   2   22.90    3.80
   4  -4   2   25.30    3.80
  -5   4  -2  238.18   11.00
   5  -4   2  211.98   10.20
   5  -4   2  215.18   10.00
   5  -4   2  220.68    9.40
  -6   4  -2   12.00    3.80
   6  -4   2   10.40    3.40
   6  -4   2   12.10    3.50
   6  -4   2   12.70    3.10
  -7   4  -2   -3.60    2.20
   7  -4   2   -0.40    2.20
  -8   4  -2   25.90    6.00
   8  -4   2   22.40    4.80
   9   3  -2    6.10    3.30
   9   3  -2    3.50    2.40
   9   3  -2    9.10    2.90
  -9  -3   2    7.40    4.40
   8   3  -2   25.70    3.90
   8   3  -2   25.60    5.00
  -8  -3   2   23.60    3.90
  -8  -3   2   22.70    5.30
   7   3  -2  103.99    5.90
   7   3  -2   87.39    6.80
  -7  -3   2   80.89    6.20
  -7  -3   2  109.19   15.90
  -7  -3   2  102.79    6.10
   6   3  -2   -0.40    1.70
   6   3  -2   -0.50    1.20
   6   3  -2    0.70    1.90
  -6  -3   2    1.80    2.40
  -6  -3   2    0.00    1.60
   5   3  -2  219.38    7.70
   5   3  -2  228.78    9.30
   5   3  -2  221.98    9.50
  -5  -3   2  207.08    8.50
  -5  -3   2  228.38    7.90
  -5  -3   2  220.58    9.90
   4   3  -2   52.79    4.20
   4   3  -2   45.40    4.10
   4   3  -2   55.39    3.40
  -4  -3   2   59.79    4.70
  -4  -3   2   64.59    4.20
  -4  -3   2   50.49    3.40
   3   3  -2   59.99    4.00
   3   3  -2   68.29    4.30
   3   3  -2   60.29    3.30
  -3  -3   2   67.19    4.40
  -3  -3   2   62.49    3.90
  -3  -3   2   62.79    3.40
   2   3  -2   86.99    4.40
   2   3  -2   90.09    3.80
   2   3  -2   89.99    4.40
  -2  -3   2   97.09    4.70
  -2  -3   2   86.79    3.80
  -2  -3   2   94.09    4.30
   1   3  -2  157.48    5.10
   1   3  -2  154.88    5.30
   1   3  -2  149.59    5.40
  -1  -3   2  156.18    5.20
  -1  -3   2  154.88    5.60
  -1  -3   2  152.18    5.10
   0   3  -2  363.86    9.10
   0   3  -2  353.86    8.30
   0  -3   2  352.26    9.20
   0  -3   2  353.66    8.20
   0  -3   2  364.26    9.20
  -1   3  -2   15.40    1.30
  -1   3  -2   15.90    2.40
  -1   3  -2    9.80    1.70
   1  -3   2   11.80    2.20
   1  -3   2   11.90    2.00
   1  -3   2   13.70    1.20
  -2   3  -2   19.20    3.00
  -2   3  -2   13.80    2.00
   2  -3   2   14.30    2.60
   2  -3   2   18.90    2.50
  -3   3  -2  218.08    7.60
   3  -3   2  214.18    8.50
   3  -3   2  240.28    9.30
  -4   3  -2   28.10    4.00
   4  -3   2   27.40    3.30
   4  -3   2   33.10    4.40
   4  -3   2   30.40    4.50
  -5   3  -2  102.09    6.90
   5  -3   2  102.29    6.80
   5  -3   2  101.49    6.00
   5  -3   2  104.99    6.60
  -6   3  -2   35.10    5.40
   6  -3   2   27.70    4.50
   6  -3   2   18.00    3.60
   6  -3   2   24.20    4.50
  -7   3  -2    9.70    3.90
  -7   3  -2    6.30    1.50
   7  -3   2    3.50    2.50
   7  -3   2   10.70    3.20
   7  -3   2    6.90    1.80
  -8   3  -2   34.10    3.10
  -8   3  -2   21.90    5.50
   8  -3   2   35.00    5.50
   8  -3   2   35.80    3.70
  -9   3  -2   33.80    7.00
   9  -3   2   27.60    5.20
   9  -3   2   23.40    4.70
   9   2  -2   13.00    4.00
   9   2  -2   11.70    3.20
   9   2  -2    7.70    3.30
  -9  -2   2   17.80    5.30
   8   2  -2   19.80    3.80
  -8  -2   2   17.30    3.80
  -8  -2   2   20.40    5.20
   7   2  -2    0.70    2.30
   7   2  -2    3.00    1.90
  -7  -2   2    5.20    2.30
  -7  -2   2    6.30    2.50
  -7  -2   2    4.50    5.00
   6   2  -2   63.89    4.70
   6   2  -2   80.69    6.20
   6   2  -2   76.09    5.70
  -6  -2   2   75.39    5.30
  -6  -2   2   79.49    5.30
  -6  -2   2   72.19    6.40
   5   2  -2    6.40    2.40
   5   2  -2   10.90    2.60
  -5  -2   2    5.50    1.90
  -5  -2   2    5.90    2.60
  -5  -2   2    2.00    1.60
   4   2  -2   -0.60    1.00
   4   2  -2    2.20    1.60
   4   2  -2    4.00    1.80
  -4  -2   2    3.20    1.50
  -4  -2   2    2.00    1.70
  -4  -2   2    0.60    1.30
   3   2  -2   -0.50    1.00
   3   2  -2    0.20    0.90
  -3  -2   2    2.10    1.40
  -3  -2   2    1.30    1.30
  -3  -2   2    2.40    1.30
   2   2  -2  127.49    4.60
   2   2  -2  132.99    5.00
   2   2  -2  124.09    5.10
  -2  -2   2  128.99    4.90
  -2  -2   2  127.29    5.20
  -2  -2   2  127.29    4.60
   1   2  -2  607.94   13.20
   1   2  -2  603.74   13.40
   1   2  -2  606.74   13.00
  -1  -2   2  619.84   13.10
  -1  -2   2  615.74   13.50
  -1  -2   2  640.24   13.30
   0   2  -2  490.45   10.40
   0   2  -2  515.35   11.30
   0  -2   2  490.95   10.40
   0  -2   2  512.65   11.30
   0  -2   2  513.85   11.10
  -1   2  -2    1.60    1.30
  -1   2  -2    4.20    0.70
  -1   2  -2    2.20    1.20
   1  -2   2    2.00    0.60
   1  -2   2    3.30    1.40
   1  -2   2    2.00    1.10
  -2   2  -2  218.08    6.80
  -2   2  -2  229.98    7.50
   2  -2   2  223.68    6.90
   2  -2   2  213.18    7.30
  -3   2  -2  176.98    6.40
  -3   2  -2  181.18    7.30
   3  -2   2  182.38    6.60
  -4   2  -2    9.70    2.50
   4  -2   2    6.30    2.30
   4  -2   2    5.10    1.90
   4  -2   2   11.40    2.60
  -5   2  -2  128.69    7.50
  -5   2  -2  119.09    4.00
   5  -2   2  118.69    7.10
   5  -2   2  117.29    6.10
   5  -2   2  123.89    6.70
   5  -2   2  124.49    4.50
  -6   2  -2    2.10    2.20
  -6   2  -2    2.50    1.30
   6  -2   2    6.40    1.70
   6  -2   2    1.20    2.30
   6  -2   2    4.60    2.60
   6  -2   2    3.30    2.00
  -7   2  -2   -1.50    2.80
  -7   2  -2    4.10    1.60
   7  -2   2    3.30    2.30
   7  -2   2    0.80    1.60
  -8   2  -2  104.79    9.00
  -8   2  -2   94.59    4.90
   8  -2   2  120.39    7.70
   8  -2   2   94.79    7.70
   8  -2   2   88.99    5.80
  -9   2  -2    8.60    2.50
  -9   2  -2   -0.30    3.30
   9  -2   2    7.90    3.10
   9  -2   2    4.40    2.40
   9   1  -2   12.90    3.40
   9   1  -2   10.70    3.50
   9   1  -2    6.70    3.20
  -9  -1   2   20.80    5.90
   8   1  -2   13.70    4.00
  -8  -1   2   10.20    4.00
  -8  -1   2   14.40    3.70
   7   1  -2   11.50    2.80
   7   1  -2   21.20    4.20
  -7  -1   2   12.60    4.10
  -7  -1   2   16.50    3.60
   6   1  -2  157.18    7.40
   6   1  -2  168.48    7.90
   6   1  -2  147.79    9.70
  -6  -1   2  168.68    7.60
  -6  -1   2  158.48    9.20
  -6  -1   2  163.98    7.70
   5   1  -2   79.99    5.10
   5   1  -2   79.49    4.80
   5   1  -2   78.19    5.60
  -5  -1   2   81.99    6.00
  -5  -1   2   74.09    4.70
   4   1  -2   87.79    5.30
   4   1  -2   79.39    5.90
   4   1  -2   83.29    4.50
  -4  -1   2   74.49    4.40
  -4  -1   2   89.29    4.60
  -4  -1   2   87.09    5.40
   3   1  -2   68.79    3.70
   3   1  -2   70.79    4.20
   3   1  -2   75.69    4.00
  -3  -1   2   66.59    4.30
  -3  -1   2   68.59    3.70
  -3  -1   2   64.69    3.70
   2   1  -2  222.48    6.60
   2   1  -2  215.98    6.30
   2   1  -2  203.18    6.60
  -2  -1   2  218.88    6.40
  -2  -1   2  215.88    6.90
  -2  -1   2  208.18    6.40
   1   1  -2  504.45   10.90
   1   1  -2  485.45   10.80
   1   1  -2  508.95   10.90
  -1  -1   2  495.15   10.90
  -1  -1   2  495.25   10.80
  -1  -1   2  493.85   10.90
   0   1  -2  168.48    4.40
   0   1  -2  165.08    4.70
   0   1  -2  165.28    4.20
   0  -1   2  161.38    4.20
   0  -1   2  157.68    4.70
   0  -1   2  161.08    4.40
  -1   1  -2  816.52   16.70
  -1   1  -2  833.62   15.00
  -1   1  -2  839.42   16.60
   1  -1   2  837.52   16.70
   1  -1   2  829.82   16.70
   1  -1   2  819.02   15.00
  -2   1  -2  368.76    9.70
  -2   1  -2  362.56    9.00
   2  -1   2  363.76    9.60
   2  -1   2  383.36    9.20
  -3   1  -2  299.07    6.60
  -3   1  -2  296.07    9.50
  -3   1  -2  303.97    8.40
   3  -1   2  295.27    9.30
   3  -1   2  311.07    6.90
   3  -1   2  303.17    8.50
  -4   1  -2  695.33   14.50
  -4   1  -2  696.23   18.40
   4  -1   2  728.83   18.70
   4  -1   2  721.93   18.40
   4  -1   2  720.33   14.90
   4  -1   2  748.73   16.90
  -5   1  -2   15.40    2.00
  -5   1  -2   14.60    3.30
   5  -1   2   11.10    2.90
   5  -1   2   16.50    3.00
   5  -1   2   12.50    2.70
   5  -1   2   18.00    2.40
  -6   1  -2   11.50    3.30
  -6   1  -2    8.50    1.80
   6  -1   2    8.70    2.10
   6  -1   2    8.70    2.40
   6  -1   2   10.40    3.00
   6  -1   2    6.30    2.60
  -7   1  -2   30.10    3.20
  -7   1  -2   24.60    5.10
   7  -1   2   27.60    6.60
   7  -1   2   26.00    3.80
   7  -1   2   29.40    4.70
  -8   1  -2   68.79    8.30
  -8   1  -2   62.09    4.40
   8  -1   2   46.50    5.90
   8  -1   2   72.29    5.80
   8  -1   2   61.29    5.00
  -9   1  -2    2.60    2.10
  -9   1  -2    5.90    4.20
   9  -1   2    3.70    3.30
   9  -1   2    7.40    2.80
   9   0  -2    8.80    3.50
   9   0  -2    4.60    4.60
  -9   0   2   13.60    5.00
   8   0  -2    4.40    2.80
   8   0  -2    1.40    2.10
  -8   0   2    8.60    2.90
  -8   0   2    7.20    3.70
   7   0  -2   12.80    3.30
   7   0  -2    7.70    2.70
  -7   0   2   12.60    3.60
  -7   0   2   12.00    2.90
  -7   0   2   13.00    5.00
   6   0  -2  123.39    6.60
   6   0  -2  121.79    8.50
   6   0  -2  124.59    6.80
  -6   0   2  121.69    6.20
  -6   0   2  116.39    7.90
  -6   0   2  117.89    6.90
   5   0  -2   76.69    5.00
   5   0  -2   72.79    5.40
   5   0  -2   79.59    4.90
  -5   0   2   70.09    5.00
  -5   0   2   74.19    4.50
  -5   0   2   75.89    5.70
   4   0  -2  122.19    5.50
   4   0  -2  129.29    6.70
   4   0  -2  127.39    6.40
  -4   0   2  130.79    6.00
  -4   0   2  118.69    6.50
  -4   0   2  115.89    5.20
   3   0  -2  998.50   20.50
   3   0  -2  951.40   20.60
   3   0  -2  969.30   21.30
  -3   0   2  945.21   20.10
  -3   0   2  936.61   20.70
  -3   0   2  961.10   21.60
   2   0  -2  268.47    7.60
   2   0  -2  281.17    7.80
   2   0  -2  280.37    7.50
  -2   0   2  265.37    7.60
  -2   0   2  279.47    8.00
  -2   0   2  267.27    7.30
   1   0  -2  702.83   14.00
   1   0  -2  710.83   14.20
   1   0  -2  694.13   14.40
  -1   0   2  702.63   14.50
  -1   0   2  689.33   14.10
  -1   0   2  700.83   14.10
   0   0  -2  341.57    7.80
   0   0  -2  346.77    6.90
   0   0  -2  347.37    7.40
   0   0   2  343.37    7.80
   0   0   2  351.06    6.90
   0   0   2  352.56    7.40
  -1   0  -2  206.38    5.20
  -1   0  -2  209.88    4.70
  -1   0  -2  204.08    5.30
   1   0   2  211.68    5.40
   1   0   2  208.48    5.20
   1   0   2  214.58    4.80
  -2   0  -2   42.40    2.90
  -2   0  -2   46.10    2.40
  -2   0  -2   40.70    2.20
   2   0   2   43.30    3.00
   2   0   2   45.90    2.50
   2   0   2   43.30    2.20
  -3   0  -2  157.48    5.10
  -3   0  -2  157.58    6.30
  -3   0  -2  156.88    4.70
   3   0   2  165.48    5.00
   3   0   2  159.48    6.20
   3   0   2  170.28    5.40
  -4   0  -2  763.02   15.80
  -4   0  -2  739.83   20.90
   4   0   2  748.13   16.70
   4   0   2  747.23   17.30
   4   0   2  759.62   16.20
   4   0   2  762.92   18.70
  -5   0  -2   36.50    2.80
  -5   0  -2   41.70    5.00
   5   0   2   27.20    4.00
   5   0   2   37.00    3.10
   5   0   2   35.60    3.10
   5   0   2   30.40    3.50
  -6   0  -2    2.20    2.10
  -6   0  -2    4.80    1.70
   6   0   2    3.30    1.80
   6   0   2    4.80    2.40
   6   0   2    5.50    2.10
   6   0   2    2.30    1.60
  -7   0  -2   84.39    7.20
  -7   0  -2   88.99    4.90
   7   0   2   78.69    6.80
   7   0   2   85.69    5.90
   7   0   2   82.99    5.40
   7   0   2   98.09    5.80
  -8   0  -2   19.40    4.80
  -8   0  -2   34.40    4.10
   8   0   2   35.50    4.50
   8   0   2   43.90    5.30
   8   0   2   28.30    4.70
  -9   0  -2   37.40    4.60
  -9   0  -2   45.20    7.60
   9   0   2   45.60    5.60
   9   0   2   24.80    4.50
   9   0   2   41.60    5.20
   9  -1  -2   10.90    3.60
   9  -1  -2   17.90    6.90
  -9   1   2   11.00    4.30
   8  -1  -2    4.80    2.50
   8  -1  -2    2.10    2.60
   8  -1  -2    5.60    2.90
  -8   1   2    6.70    3.60
  -8   1   2    3.10    2.40
   7  -1  -2   60.39    6.20
  -7   1   2   43.30    5.40
  -7   1   2   51.49    4.60
   6  -1  -2  198.58    8.30
   6  -1  -2  183.38    9.60
   6  -1  -2  189.58    8.80
  -6   1   2  199.58    7.90
  -6   1   2  186.28   10.00
  -6   1   2  193.88    9.20
   5  -1  -2   14.70    3.00
   5  -1  -2   19.00    2.90
   5  -1  -2    8.10    2.70
  -5   1   2   20.80    2.90
  -5   1   2   20.50    3.60
  -5   1   2   14.80    3.30
   4  -1  -2  172.38    7.60
   4  -1  -2  176.08    7.30
   4  -1  -2  172.78    6.50
  -4   1   2  176.38    7.90
  -4   1   2  188.58    8.70
   3  -1  -2  469.75   12.60
   3  -1  -2  466.45   12.40
   3  -1  -2  470.05   11.50
  -3   1   2  453.65   11.20
  -3   1   2  475.65   12.80
  -3   1   2  453.95   12.30
   2  -1  -2   18.00    2.40
   2  -1  -2   17.80    2.40
   2  -1  -2   18.30    2.10
  -2   1   2   17.40    2.40
  -2   1   2   19.20    2.00
  -2   1   2   19.40    2.60
   1  -1  -2  175.48    5.00
   1  -1  -2  181.68    5.00
   1  -1  -2  173.58    5.40
  -1   1   2  176.58    4.90
  -1   1   2  178.68    5.50
  -1   1   2  180.28    5.00
   0  -1  -2 3663.53   80.49
   0   1   2 3681.73   80.69
  -1  -1  -2 1463.25   26.10
   1   1   2 1473.25   26.10
  -2  -1  -2  590.14   12.50
  -2  -1  -2  577.64   12.80
  -2  -1  -2  594.54   11.80
   2   1   2  606.14   11.90
   2   1   2  588.64   12.70
   2   1   2  599.34   12.60
  -3  -1  -2  305.87    7.90
  -3  -1  -2  307.77    7.30
  -3  -1  -2  303.67    9.00
   3   1   2  306.07    7.40
   3   1   2  299.27    8.00
   3   1   2  292.47    8.80
  -4  -1  -2  235.38    8.70
  -4  -1  -2  235.08    7.10
   4   1   2  228.68    7.10
   4   1   2  243.78    6.90
   4   1   2  228.18    8.40
   4   1   2  236.28    7.40
  -5  -1  -2   36.20    4.80
  -5  -1  -2   29.90    3.10
   5   1   2   28.00    3.10
   5   1   2   30.00    3.30
   5   1   2   33.30    4.20
   5   1   2   32.10    3.70
  -6  -1  -2    6.10    2.70
  -6  -1  -2    8.90    2.10
   6   1   2   10.80    2.20
   6   1   2   16.70    2.80
   6   1   2    7.20    2.40
   6   1   2   11.80    2.90
  -7  -1  -2  178.98    7.30
  -7  -1  -2  173.48   10.00
   7   1   2  177.18    9.70
   7   1   2  162.08    7.80
   7   1   2  163.48    7.60
   7   1   2  184.18    7.50
  -8  -1  -2    5.10    2.20
  -8  -1  -2   -1.00    2.30
   8   1   2    2.10    2.30
   8   1   2    2.80    1.90
   8   1   2    4.00    2.30
  -9  -1  -2   39.80    6.80
  -9  -1  -2   30.00    4.40
   9   1   2   28.00    4.80
   9   1   2   42.40    5.10
   9  -2  -2   12.70    3.70
   9  -2  -2   12.40    4.10
  -9   2   2   12.40    5.00
  -9   2   2    6.70    3.70
   8  -2  -2    1.90    2.30
  -8   2   2   -2.30    2.90
  -8   2   2   -2.90    2.10
   7  -2  -2   96.79    7.10
   7  -2  -2   98.59    6.30
  -7   2   2  110.59    8.50
  -7   2   2   88.59    5.60
   6  -2  -2  139.59    8.40
   6  -2  -2  135.09    7.80
   6  -2  -2  140.09    6.80
  -6   2   2  135.49    6.30
  -6   2   2  142.99    8.80
  -6   2   2  131.19    8.00
   5  -2  -2   62.19    5.30
   5  -2  -2   62.69    5.00
   5  -2  -2   66.39    4.30
  -5   2   2   60.69    5.20
  -5   2   2   73.09    5.90
  -5   2   2   71.19    4.10
   4  -2  -2  687.93   17.90
   4  -2  -2  667.73   17.90
   4  -2  -2  708.93   16.00
  -4   2   2  654.23   15.60
  -4   2   2  688.53   17.90
  -4   2   2  699.23   18.60
   3  -2  -2   68.69    3.50
   3  -2  -2   71.99    4.50
   3  -2  -2   71.09    5.00
  -3   2   2   65.39    3.40
  -3   2   2   67.49    4.40
  -3   2   2   62.39    4.40
   2  -2  -2 1269.87   24.30
   2  -2  -2 1237.38   25.40
   2  -2  -2 1255.77   25.80
  -2   2   2 1257.17   24.10
  -2   2   2 1232.38   25.40
   1  -2  -2    4.70    1.30
   1  -2  -2    2.00    1.10
   1  -2  -2    1.40    0.90
  -1   2   2    3.20    1.00
  -1   2   2    3.90    1.30
  -1   2   2    4.10    1.40
   0  -2  -2  757.62   15.20
   0  -2  -2  770.52   14.30
   0  -2  -2  755.62   15.30
   0   2   2  777.62   15.20
   0   2   2  782.22   14.30
   0   2   2  780.62   15.40
  -1  -2  -2 1480.05   26.50
  -1  -2  -2 1462.35   26.60
   1   2   2 1486.15   26.40
   1   2   2 1503.05   26.60
  -2  -2  -2  329.87    8.20
  -2  -2  -2  325.47    8.40
  -2  -2  -2  332.87    6.60
   2   2   2  323.17    8.00
   2   2   2  327.47    8.50
   2   2   2  327.67    6.70
  -3  -2  -2  171.08    6.20
  -3  -2  -2  163.68    5.70
   3   2   2  159.38    5.90
   3   2   2  161.08    4.30
   3   2   2  167.58    5.90
  -4  -2  -2   23.90    2.80
  -4  -2  -2   34.20    4.00
   4   2   2   24.10    2.40
   4   2   2   26.90    3.40
   4   2   2   33.90    3.70
   4   2   2   24.60    1.90
  -5  -2  -2   39.00    4.70
  -5  -2  -2   40.80    3.90
   5   2   2   46.90    6.90
   5   2   2   42.70    3.00
   5   2   2   37.50    4.50
   5   2   2   41.70    2.70
  -6  -2  -2   39.50    5.30
  -6  -2  -2   35.70    4.00
   6   2   2   35.70    2.90
   6   2   2   39.50    4.70
   6   2   2   34.50    3.60
   6   2   2   29.70    4.40
  -7  -2  -2  113.39    8.00
  -7  -2  -2   97.79    5.80
   7   2   2  106.89    7.40
   7   2   2  105.89    5.60
   7   2   2  103.29    6.50
  -8  -2  -2   47.90    7.10
  -8  -2  -2   44.70    5.20
   8   2   2   55.89    6.20
   8   2   2   48.90    4.20
   8   2   2   49.10    5.20
  -9  -2  -2   24.50    4.40
  -9  -2  -2   28.60    5.90
   9   2   2   26.50    5.00
   9   2   2   30.50    4.00
   9   2   2   23.90    4.20
   8  -3  -2   -1.10    2.00
   8  -3  -2    0.00    2.60
  -8   3   2    0.30    2.70
  -8   3   2    0.50    2.10
   7  -3  -2   90.59    5.90
   7  -3  -2   80.99    7.00
  -7   3   2   85.09    5.40
  -7   3   2   66.89    7.90
   6  -3  -2   95.39    5.50
   6  -3  -2   84.69    6.90
  -6   3   2   94.19    7.50
  -6   3   2   92.09    7.00
  -6   3   2   94.49    5.20
   5  -3  -2  143.19    7.90
   5  -3  -2  144.99    7.80
  -5   3   2  139.19    7.90
  -5   3   2  139.09    8.10
  -5   3   2  140.49    5.90
   4  -3  -2   59.79    4.90
   4  -3  -2   63.49    5.00
   4  -3  -2   59.69    3.70
  -4   3   2   67.29    5.10
  -4   3   2   59.79    5.00
  -4   3   2   63.89    3.60
   3  -3  -2   62.29    3.40
   3  -3  -2   62.69    4.30
   3  -3  -2   64.09    4.50
  -3   3   2   65.49    4.60
  -3   3   2   66.69    3.40
   2  -3  -2  905.51   20.30
   2  -3  -2  884.21   19.60
   2  -3  -2  880.21   18.20
  -2   3   2  893.21   20.20
  -2   3   2  907.21   19.80
  -2   3   2  892.81   18.10
   1  -3  -2   61.39    3.60
   1  -3  -2   60.09    2.80
   1  -3  -2   59.39    3.10
  -1   3   2   51.39    3.30
  -1   3   2   52.89    3.10
  -1   3   2   53.79    2.70
   0  -3  -2  710.13   14.70
   0  -3  -2  727.93   15.00
   0  -3  -2  703.43   14.30
   0   3   2  719.93   14.30
   0   3   2  725.23   15.00
  -1  -3  -2  109.49    4.50
  -1  -3  -2  113.89    3.40
  -1  -3  -2  109.69    3.50
   1   3   2  115.79    3.50
   1   3   2  115.29    3.50
   1   3   2  110.59    4.60
  -2  -3  -2    8.10    1.90
  -2  -3  -2    5.70    1.40
   2   3   2    5.70    1.50
   2   3   2    3.90    1.30
  -3  -3  -2  146.89    5.70
  -3  -3  -2  143.69    5.80
   3   3   2  146.29    5.90
   3   3   2  145.09    5.60
  -4  -3  -2  148.79    6.60
  -4  -3  -2  139.99    6.00
   4   3   2  139.99    6.30
   4   3   2  137.39    6.20
   4   3   2  145.49    3.90
   4   3   2  145.29    4.10
  -5  -3  -2   62.19    4.30
  -5  -3  -2   54.99    4.70
   5   3   2   47.50    4.30
   5   3   2   47.70    4.10
   5   3   2   57.09    2.70
   5   3   2   48.90    2.70
  -6  -3  -2  429.76   14.80
  -6  -3  -2  428.76   12.70
   6   3   2  421.86   10.30
   6   3   2  423.06   13.40
   6   3   2  416.06   10.70
   6   3   2  397.66   14.00
  -7  -3  -2   31.30    5.20
  -7  -3  -2   44.80    5.00
   7   3   2   38.20    3.40
   7   3   2   38.90    5.10
   7   3   2   34.50    2.90
   7   3   2   34.70    5.20
  -8  -3  -2   90.49    6.40
  -8  -3  -2   79.79    8.80
   8   3   2  101.09    7.10
   8   3   2   85.99    5.20
  -9  -3  -2   23.40    5.40
   9   3   2   27.50    6.20
   9   3   2   17.70    3.10
   9   3   2   12.40    3.00
   8  -4  -2   26.10    4.90
   8  -4  -2   26.10    4.10
  -8   4   2   17.60    5.10
  -8   4   2   18.70    3.40
   7  -4  -2   93.69    5.90
   7  -4  -2   92.89    8.10
  -7   4   2   95.49    8.40
  -7   4   2   85.29    5.30
   6  -4  -2   41.10    5.70
   6  -4  -2   43.90    6.00
   6  -4  -2   51.19    4.20
  -6   4   2   44.40    6.10
  -6   4   2   43.40    3.70
   5  -4  -2   91.49    6.60
   5  -4  -2   90.69    6.60
   5  -4  -2   85.79    4.80
  -5   4   2  105.19    7.20
  -5   4   2   96.89    6.80
  -5   4   2   88.59    4.60
   4  -4  -2  119.09    6.80
   4  -4  -2  129.99    5.20
   4  -4  -2  118.89    7.00
  -4   4   2  118.99    7.00
  -4   4   2  117.49    7.00
  -4   4   2  126.69    5.10
   3  -4  -2   38.70    4.60
   3  -4  -2   41.40    4.40
   3  -4  -2   38.10    2.70
  -3   4   2   35.00    2.60
  -3   4   2   34.20    4.10
  -3   4   2   45.50    4.60
   2  -4  -2    3.10    1.10
   2  -4  -2    2.70    1.60
   2  -4  -2    4.90    2.10
  -2   4   2    1.40    1.50
  -2   4   2    0.30    0.90
  -2   4   2    4.30    1.80
   1  -4  -2   67.19    4.00
   1  -4  -2   67.59    3.20
   1  -4  -2   63.89    3.60
  -1   4   2   64.99    3.10
  -1   4   2   68.59    4.00
  -1   4   2   64.39    3.70
   0  -4  -2  345.77    8.60
   0  -4  -2  335.47    8.90
   0  -4  -2  338.77    9.10
   0  -4  -2  332.37    8.60
   0   4   2  345.47    8.90
  -1  -4  -2  444.86   11.20
  -1  -4  -2  454.95    9.90
  -1  -4  -2  449.26   10.10
   1   4   2  450.45    9.80
   1   4   2  443.76   10.00
   1   4   2  440.76   11.30
  -2  -4  -2 2089.59   40.00
  -2  -4  -2 2094.29   39.00
   2   4   2 2092.99   38.80
   2   4   2 2056.69   40.20
  -3  -4  -2  253.87    8.10
   3   4   2  271.47    8.80
   3   4   2  243.18    7.90
  -4  -4  -2   42.10    4.10
   4   4   2   43.00    3.80
   4   4   2   40.10    3.50
  -5  -4  -2   59.29    4.90
  -5  -4  -2   69.69    4.70
   5   4   2   59.69    4.60
   5   4   2   66.89    4.90
  -6  -4  -2  363.86   11.90
  -6  -4  -2  344.97   13.20
   6   4   2  346.77   12.40
   6   4   2  378.56   13.10
   6   4   2  335.57    8.50
   6   4   2  351.86    8.30
  -7  -4  -2    4.60    2.90
  -7  -4  -2    6.70    3.30
   7   4   2   10.80    3.30
   7   4   2    6.30    1.60
   7   4   2    6.00    2.70
   7   4   2    8.30    1.60
  -8  -4  -2   21.60    4.20
  -8  -4  -2   17.40    4.80
   8   4   2   17.20    2.40
   8   4   2   14.70    2.40
   8   4   2   13.70    3.90
  -9  -4  -2   10.80    4.40
   9   4   2    9.50    2.40
   9   4   2    9.50    3.90
   9   4   2    8.90    2.10
   8  -5  -2   42.60    6.10
   8  -5  -2   52.49    5.20
  -8   5   2   39.30    6.90
  -8   5   2   46.10    4.60
   7  -5  -2   69.79    5.10
   7  -5  -2   75.09    6.80
  -7   5   2   58.39    4.60
  -7   5   2   58.99    8.20
   6  -5  -2  104.39    5.50
   6  -5  -2   98.09    7.00
   6  -5  -2   98.49   13.70
  -6   5   2   90.39    7.80
  -6   5   2   87.59    4.90
   5  -5  -2   72.79    4.30
   5  -5  -2   65.69    6.00
  -5   5   2   75.39    6.50
  -5   5   2   76.29    4.20
   4  -5  -2   35.00    4.70
   4  -5  -2   29.30    4.50
   4  -5  -2   34.20    2.90
  -4   5   2   32.60    3.10
  -4   5   2   37.90    4.80
  -4   5   2   28.50    4.40
   3  -5  -2   62.29    4.90
   3  -5  -2   68.59    3.50
   3  -5  -2   54.79    4.70
  -3   5   2   65.09    5.00
  -3   5   2   64.49    3.50
  -3   5   2   74.09    5.40
   2  -5  -2   72.49    3.50
   2  -5  -2   70.59    5.30
   2  -5  -2   63.29    4.60
  -2   5   2   67.89    3.40
  -2   5   2   65.09    4.80
  -2   5   2   65.89    4.50
   1  -5  -2  184.28    6.00
   1  -5  -2  193.68    7.40
   1  -5  -2  201.38    6.70
   1  -5  -2  188.68    6.90
  -1   5   2  192.48    7.00
  -1   5   2  188.28    7.30
   0  -5  -2  931.41   19.20
   0  -5  -2  915.71   19.70
   0  -5  -2  912.31   19.60
   0  -5  -2  913.51   19.70
   0   5   2  897.21   19.70
  -1  -5  -2  133.29    5.50
  -1  -5  -2  128.39    4.80
  -1  -5  -2  123.99    4.50
   1   5   2  131.59    5.60
   1   5   2  126.89    4.70
  -2  -5  -2  232.38    8.10
  -2  -5  -2  242.78    5.60
  -2  -5  -2  237.58    7.40
  -2  -5  -2  239.88    5.40
   2   5   2  233.28    7.10
   2   5   2  224.18    8.10
  -3  -5  -2  206.08    7.70
  -3  -5  -2  203.38    7.40
   3   5   2  203.98    7.20
   3   5   2  208.58    9.20
  -4  -5  -2   21.70    3.30
  -4  -5  -2   25.10    3.70
   4   5   2   24.70    3.90
   4   5   2   27.10    3.50
  -5  -5  -2  137.79    7.30
  -5  -5  -2  123.89    6.60
   5   5   2  132.39    6.90
   5   5   2  124.59    6.90
  -6  -5  -2  106.69    6.50
  -6  -5  -2   93.79    6.80
   6   5   2   97.49    6.60
   6   5   2  113.69    6.90
  -7  -5  -2   18.10    4.30
  -7  -5  -2   10.60    3.20
   7   5   2   16.00    3.80
   7   5   2   25.50    5.00
  -8  -5  -2    9.30    4.00
   8   5   2    7.80    5.60
  -9  -5  -2   10.00    4.40
   9   5   2    9.90    3.90
   8  -6  -2   67.69    7.60
   8  -6  -2   67.39    5.30
  -8   6   2   47.80    7.80
  -8   6   2   63.89    5.10
   7  -6  -2    5.80    2.30
   7  -6  -2    0.50    2.40
  -7   6   2    2.70    3.40
  -7   6   2    3.10    2.00
   6  -6  -2   11.40    2.60
   6  -6  -2    5.60    2.80
  -6   6   2   15.10    2.70
  -6   6   2   11.50    3.90
   5  -6  -2   55.59    3.80
   5  -6  -2   44.30    5.90
   5  -6  -2   52.29    5.70
   5  -6  -2   56.99    6.50
  -5   6   2   50.89    6.40
  -5   6   2   52.29    3.70
   4  -6  -2    0.80    1.90
   4  -6  -2    2.60    1.40
   4  -6  -2    0.90    2.00
  -4   6   2    1.90    1.40
  -4   6   2    0.60    2.00
   3  -6  -2   37.60    2.90
   3  -6  -2   31.80    4.40
   3  -6  -2   35.20    4.50
  -3   6   2   38.10    4.90
  -3   6   2   38.90    2.90
   2  -6  -2    9.50    2.40
   2  -6  -2    8.30    1.80
   2  -6  -2   11.40    2.70
  -2   6   2    8.90    2.50
   1  -6  -2   29.30    2.90
   1  -6  -2   19.10    3.20
   1  -6  -2   28.90    3.20
   1  -6  -2   28.40    4.20
  -1   6   2   24.80    3.30
   0  -6  -2   13.80    2.20
   0  -6  -2   14.40    2.40
   0  -6  -2   12.60    2.30
   0  -6  -2    9.50    1.90
   0  -6  -2   11.00    2.40
  -1  -6  -2  276.97    8.40
  -1  -6  -2  296.57    8.30
  -1  -6  -2  293.17    7.70
   1   6   2  294.97    9.50
  -2  -6  -2   43.80    2.40
  -2  -6  -2   43.20    2.20
  -2  -6  -2   45.70    3.30
  -2  -6  -2   40.30    3.50
   2   6   2   45.00    3.20
  -3  -6  -2   56.99    4.10
  -3  -6  -2   68.69    4.60
   3   6   2   67.39    4.80
   3   6   2   63.59    4.00
  -4  -6  -2    6.80    2.30
  -4  -6  -2    5.70    2.10
   4   6   2   10.90    2.40
   4   6   2    6.80    2.30
  -5  -6  -2   33.10    4.90
  -5  -6  -2   33.60    5.00
   5   6   2   29.50    4.10
   5   6   2   39.10    5.20
  -6  -6  -2    1.20    2.30
  -6  -6  -2    0.90    2.10
   6   6   2   -0.20    1.70
   6   6   2   -0.60    1.80
  -7  -6  -2   32.70    4.80
  -7  -6  -2   31.40    5.30
   7   6   2   30.00    5.10
   7   6   2   40.20    5.60
  -8  -6  -2   -2.20    2.50
   8   6   2    6.40    3.00
  -9  -6  -2   -4.00    2.60
   9   6   2   -2.10    2.50
   7  -7  -2    5.00    2.40
   7  -7  -2    7.20    3.30
  -7   7   2   14.10    4.90
  -7   7   2   10.50    2.60
   6  -7  -2  129.49    6.00
   6  -7  -2  121.79    8.50
  -6   7   2  119.49    5.70
  -6   7   2  131.49    9.70
   5  -7  -2    1.60    1.40
   5  -7  -2    1.80    2.10
   5  -7  -2    0.20    2.50
  -5   7   2   -2.70    2.30
  -5   7   2   -0.60    1.40
   4  -7  -2   -2.30    1.40
   4  -7  -2    2.90    2.40
   4  -7  -2   -0.50    1.70
   4  -7  -2    0.00    1.10
  -4   7   2   -1.10    1.80
   3  -7  -2   87.39    4.40
   3  -7  -2   76.69    6.00
   3  -7  -2   91.49    6.30
   3  -7  -2   86.29    5.80
  -3   7   2   95.99    6.60
   2  -7  -2   19.50    3.60
   2  -7  -2   22.90    3.80
   2  -7  -2   24.80    3.30
   2  -7  -2   27.40    3.30
   2  -7  -2   27.70    3.00
  -2   7   2   30.30    4.30
   1  -7  -2  415.26   12.00
   1  -7  -2  424.06   12.80
   1  -7  -2  404.96   10.90
   1  -7  -2  411.26   12.90
   1  -7  -2  414.86   11.60
  -1   7   2  391.86   12.50
   0  -7  -2  114.09    5.90
   0  -7  -2  122.49    5.60
   0  -7  -2  120.19    5.70
   0  -7  -2  117.09    5.30
  -1  -7  -2  157.48    6.40
  -1  -7  -2  159.58    5.70
  -1  -7  -2  162.38    6.30
  -1  -7  -2  166.98    8.10
  -1  -7  -2  156.08    6.70
   1   7   2  158.08    8.10
  -2  -7  -2   56.39    4.10
  -2  -7  -2   49.70    3.00
  -2  -7  -2   54.69    3.80
  -2  -7  -2   51.19    2.70
   2   7   2   53.99    3.70
   2   7   2   56.39    4.50
  -3  -7  -2  280.27    9.70
  -3  -7  -2  267.67    9.80
   3   7   2  273.07    9.20
   3   7   2  262.07   10.20
  -4  -7  -2   98.69    6.00
  -4  -7  -2   97.49    6.00
   4   7   2   89.99    6.20
   4   7   2  100.59    5.70
  -5  -7  -2   12.40    3.20
  -5  -7  -2   16.90    3.70
   5   7   2   12.20    3.00
   5   7   2   15.90    3.80
  -6  -7  -2   11.90    3.40
  -6  -7  -2   23.60    4.60
   6   7   2   13.60    3.60
   6   7   2   15.60    4.10
  -7  -7  -2   33.40    5.90
   7   7   2   37.00    7.30
  -8  -7  -2   18.50    5.00
   8   7   2   21.60    4.70
  -9  -7  -2   -1.30    3.30
   9   7   2   -1.80    2.70
   7  -8  -2   17.30    4.90
   7  -8  -2   22.90    3.30
  -7   8   2   17.40    5.00
   6  -8  -2   47.90    4.80
   6  -8  -2   44.80    6.10
  -6   8   2   46.40    7.40
   5  -8  -2   29.00    5.00
   5  -8  -2   25.10    4.60
  -5   8   2   33.40    6.90
   4  -8  -2   68.79    6.00
   4  -8  -2   67.19    4.60
   4  -8  -2   64.99    7.00
   4  -8  -2   59.89    6.70
   4  -8  -2   66.79    4.10
  -4   8   2   67.09    7.40
   3  -8  -2   41.40    5.10
   3  -8  -2   63.29   11.00
   3  -8  -2   59.09    6.40
   3  -8  -2   49.70    5.00
   3  -8  -2   47.90    3.50
  -3   8   2   55.79    6.20
   2  -8  -2  192.58    8.40
   2  -8  -2  199.58    9.50
   2  -8  -2  176.98    6.70
   2  -8  -2  181.78    7.30
   2  -8  -2  183.18    8.70
  -2   8   2  189.08    9.00
   1  -8  -2   56.39    4.30
   1  -8  -2   58.09    4.90
   1  -8  -2   55.39    4.10
   1  -8  -2   62.19    5.00
  -1   8   2   52.39    4.70
   0  -8  -2  180.78    7.40
   0  -8  -2  198.58    7.30
   0  -8  -2  177.78    8.00
   0  -8  -2  178.28    7.80
   0  -8  -2  185.98    7.50
  -1  -8  -2  459.95   13.70
  -1  -8  -2  471.75   13.20
  -1  -8  -2  457.55   12.70
  -1  -8  -2  466.45   12.00
  -1  -8  -2  457.75   13.40
   1   8   2  447.56   13.70
  -2  -8  -2   35.50    4.10
  -2  -8  -2   31.80    2.80
  -2  -8  -2   28.00    2.40
  -2  -8  -2   31.80    3.90
   2   8   2   32.60    4.50
   2   8   2   24.30    3.30
  -3  -8  -2  223.18    6.00
  -3  -8  -2  230.68    9.40
  -3  -8  -2  226.28    6.20
  -3  -8  -2  235.08    9.20
   3   8   2  236.48   10.00
   3   8   2  215.78    8.60
  -4  -8  -2  204.48    8.90
  -4  -8  -2  170.68    8.40
   4   8   2  181.48    8.10
   4   8   2  193.78    9.40
  -5  -8  -2    0.30    1.90
  -5  -8  -2    1.00    2.10
   5   8   2   -3.20    1.60
   5   8   2    0.20    1.50
  -6  -8  -2   54.69    6.80
   6   8   2   51.79    6.10
   6   8   2   41.80    5.70
  -7  -8  -2   91.29    7.80
   7   8   2   95.99    7.90
  -8  -8  -2    9.90    4.40
   8   8   2    3.60    3.40
   6  -9  -2   17.70    4.40
   6  -9  -2   20.50    3.30
  -6   9   2   17.30    5.50
   5  -9  -2    4.80    2.80
   5  -9  -2    2.60    2.10
  -5   9   2    0.60    2.90
   4  -9  -2    3.30    4.40
   4  -9  -2    4.90    1.90
   4  -9  -2    4.30    2.50
  -4   9   2    4.00    3.20
   3  -9  -2   57.49    6.60
   3  -9  -2   75.09    4.90
   3  -9  -2   70.49    5.80
   3  -9  -2   68.39    4.70
   3  -9  -2   67.89    7.10
  -3   9   2   55.79    6.40
   2  -9  -2   36.80    5.20
   2  -9  -2   36.10    4.10
   2  -9  -2   34.00    3.70
   2  -9  -2   42.90    5.00
   2  -9  -2   42.80    5.50
  -2   9   2   33.90    5.00
   1  -9  -2   11.80    2.40
   1  -9  -2    6.20    2.10
   1  -9  -2   10.00    2.80
   1  -9  -2    7.50    2.20
   1  -9  -2   10.90    2.90
   0  -9  -2  256.47    9.60
   0  -9  -2  272.67   10.30
   0  -9  -2  275.97    9.40
   0  -9  -2  258.57   10.40
   0  -9  -2  280.67    9.60
   0  -9  -2  270.67    9.90
  -1  -9  -2   58.29    4.60
  -1  -9  -2   50.19    4.10
  -1  -9  -2   51.19    4.60
  -1  -9  -2   56.19    4.50
   1   9   2   51.09    5.30
  -2  -9  -2   44.50    4.90
  -2  -9  -2   39.70    3.00
  -2  -9  -2   46.40    4.90
  -2  -9  -2   38.90    3.40
   2   9   2   44.10    5.30
  -3  -9  -2  309.17   11.70
  -3  -9  -2  320.07   11.60
  -3  -9  -2  333.67    8.40
  -3  -9  -2  320.87    8.60
   3   9   2  326.67   11.20
   3   9   2  335.97   12.60
  -4  -9  -2   16.60    3.70
  -4  -9  -2   11.40    3.00
   4   9   2   20.20    4.40
   4   9   2   13.10    3.00
  -5  -9  -2   58.09    6.50
  -5  -9  -2   44.00    5.70
   5   9   2   47.60    5.50
   5   9   2   43.70    5.80
  -6  -9  -2  107.69    8.00
   6   9   2  103.49    7.60
   6   9   2  112.99    8.70
  -7  -9  -2  121.19    9.10
   7   9   2  105.59    8.70
  -8  -9  -2   25.30    5.60
   8   9   2   21.70    5.10
   6 -10  -2    0.20    2.30
   6 -10  -2   -0.60    2.00
  -6  10   2   -3.50    2.60
   5 -10  -2    0.90    2.00
   5 -10  -2   -0.80    1.60
   5 -10  -2    1.50    2.80
  -5  10   2    1.50    3.00
   4 -10  -2   33.40    4.00
   4 -10  -2   31.90    3.50
   4 -10  -2   25.00    4.40
  -4  10   2   36.40    6.30
   3 -10  -2   -1.10    2.00
   3 -10  -2    0.20    1.50
   3 -10  -2    0.10    2.80
   3 -10  -2    0.90    1.80
  -3  10   2    2.60    2.70
   2 -10  -2  108.09    7.60
   2 -10  -2  102.49    6.00
   2 -10  -2  114.59    7.20
   2 -10  -2  108.49    5.80
   2 -10  -2   94.39    7.40
  -2  10   2  113.29    7.80
   1 -10  -2   16.40    3.10
   1 -10  -2   16.60    3.40
   1 -10  -2   14.90    2.90
   1 -10  -2   22.40    4.20
   1 -10  -2   14.80    3.50
   1 -10  -2   13.20    2.60
   0 -10  -2  175.58    7.60
   0 -10  -2  173.48    8.00
   0 -10  -2  169.48    7.70
   0 -10  -2  178.28    9.00
   0 -10  -2  174.08    8.20
   0 -10  -2  178.68    8.60
  -1 -10  -2   86.29    5.80
  -1 -10  -2   88.29    5.70
  -1 -10  -2   84.19    6.20
  -1 -10  -2   97.19    5.30
  -1 -10  -2   83.59    5.70
   1  10   2   99.69    6.60
  -2 -10  -2  275.27    9.50
  -2 -10  -2  269.67    8.70
  -2 -10  -2  258.67   10.50
  -2 -10  -2  278.87   11.30
  -2 -10  -2  256.77   10.40
   2  10   2  263.77   11.30
  -3 -10  -2  137.09    5.20
  -3 -10  -2  128.59    7.60
  -3 -10  -2  116.39    7.40
  -3 -10  -2  127.09    5.40
   3  10   2  129.89    8.10
   3  10   2  120.29    7.10
  -4 -10  -2   62.39    7.00
  -4 -10  -2   70.39    5.90
   4  10   2   61.39    6.90
  -5 -10  -2   86.19    6.90
   5  10   2   79.99    6.20
   5  10   2   61.69    7.10
  -6 -10  -2    4.20    2.90
   6  10   2    3.80    3.20
  -7 -10  -2   17.90    4.90
   7  10   2    7.10    3.90
  -8 -10  -2   28.90    6.10
   8  10   2   21.30    5.60
   5 -11  -2    5.80    2.30
   5 -11  -2    8.90    3.50
   5 -11  -2    9.40    2.30
  -5  11   2    8.20    4.10
   4 -11  -2   29.90    5.60
   4 -11  -2   29.80    3.50
   4 -11  -2   24.10    3.60
  -4  11   2   27.20    5.70
   3 -11  -2    2.60    1.90
   3 -11  -2    0.90    1.90
   3 -11  -2    3.10    3.10
  -3  11   2    7.00    3.30
   2 -11  -2    0.70    1.80
   2 -11  -2    3.10    2.30
   2 -11  -2    4.80    2.50
   2 -11  -2    5.50    2.90
   1 -11  -2   84.59    6.10
   1 -11  -2   72.99    6.60
   1 -11  -2   67.99    7.40
   1 -11  -2   67.69    5.80
   1 -11  -2   82.69    5.70
   1 -11  -2   84.99    5.40
   0 -11  -2  351.96   12.20
   0 -11  -2  354.46   13.30
   0 -11  -2  364.66   13.10
   0 -11  -2  363.36   12.30
   0 -11  -2  310.37   19.60
   0 -11  -2  363.06   12.10
  -1 -11  -2   41.60    5.80
  -1 -11  -2   28.60    4.40
  -1 -11  -2   26.00    4.20
  -1 -11  -2   37.00    4.40
  -1 -11  -2   36.30    4.80
   1  11   2   46.90    6.10
  -2 -11  -2   48.00    9.10
  -2 -11  -2   58.59    4.70
  -2 -11  -2   60.69    4.30
  -2 -11  -2   59.39    6.20
  -2 -11  -2   55.49    6.00
   2  11   2   55.79    6.40
  -3 -11  -2   27.10    4.90
  -3 -11  -2   24.00    2.90
  -3 -11  -2   17.90    2.80
  -3 -11  -2   18.70    3.80
   3  11   2   16.80    3.80
  -4 -11  -2   73.59    6.40
   4  11   2   78.79    6.20
  -5 -11  -2   17.00    4.80
   5  11   2   16.50    4.40
  -6 -11  -2    0.20    2.50
   6  11   2    0.60    2.80
  -7 -11  -2   14.70    4.70
   7  11   2    9.00    3.80
   4 -12  -2   29.70    5.20
   4 -12  -2   30.80    3.60
   4 -12  -2   31.90    4.30
  -4  12   2   37.30    6.90
   3 -12  -2   17.70    3.00
   3 -12  -2   14.40    3.30
   3 -12  -2   16.20    4.30
  -3  12   2   16.80    4.80
   2 -12  -2   32.20    4.00
   2 -12  -2   20.20    4.30
   2 -12  -2   33.50    5.20
   2 -12  -2   28.00    4.10
   1 -12  -2   78.49    5.70
   1 -12  -2   80.19    6.60
   1 -12  -2   70.79    5.60
   1 -12  -2   66.49    7.50
   1 -12  -2   87.69    6.60
   0 -12  -2   16.40    3.80
   0 -12  -2   11.20    3.60
   0 -12  -2   16.90    3.50
   0 -12  -2   20.40    3.60
   0 -12  -2   11.80    3.80
   0 -12  -2   12.20    3.50
  -1 -12  -2  229.38   11.50
  -1 -12  -2  243.58    9.60
  -1 -12  -2  235.28   10.50
  -1 -12  -2  230.48   10.40
  -1 -12  -2  221.38   10.60
  -2 -12  -2    1.70    2.40
  -2 -12  -2    1.70    2.70
  -2 -12  -2   -1.50    2.30
  -2 -12  -2    0.70    1.40
  -2 -12  -2    0.20    1.80
   2  12   2   -2.60    1.70
  -3 -12  -2   21.80    3.40
  -3 -12  -2   18.10    4.10
  -4 -12  -2    8.20    1.90
  -4 -12  -2    9.20    1.90
   4  12   2   15.30    4.40
  -5 -12  -2   -2.00    2.10
   5  12   2   -1.90    2.50
  -6 -12  -2   59.29    7.40
   6  12   2   53.79    7.50
  -7 -12  -2   -0.20    2.90
   7  12   2    0.60    3.00
   3 -13  -2    2.30    2.20
   3 -13  -2   -3.00    1.80
   3 -13  -2    2.20    2.40
   2 -13  -2    1.40    2.20
   2 -13  -2    0.80    2.30
   2 -13  -2    5.00    2.50
   2 -13  -2    1.10    3.00
   1 -13  -2  271.87   10.70
   1 -13  -2  259.27   12.20
   1 -13  -2  262.47   15.40
   1 -13  -2  250.97   11.70
   0 -13  -2    3.90    2.60
   0 -13  -2   -1.30    2.00
   0 -13  -2    4.50    2.30
   0 -13  -2    5.90    2.90
   0 -13  -2    1.70    2.50
  -1 -13  -2    9.90    3.30
  -1 -13  -2   13.70    4.10
  -1 -13  -2   16.10    3.50
  -2 -13  -2   28.90    5.20
  -2 -13  -2   35.80    4.90
  -2 -13  -2   39.30    4.50
   2  13   2   38.20    6.60
  -3 -13  -2    6.40    1.90
  -3 -13  -2    0.90    2.30
  -3 -13  -2    1.00    2.10
   3  13   2    6.60    3.30
  -4 -13  -2   -1.30    2.50
  -4 -13  -2    2.20    1.60
  -4 -13  -2    2.90    1.40
   4  13   2    4.50    3.10
  -5 -13  -2   48.30    6.80
   5  13   2   42.50    7.00
  -6 -13  -2    5.00    3.50
   6  13   2    5.80    4.30
   2 -14  -2   91.09    6.20
   2 -14  -2   68.69    7.80
   2 -14  -2   71.49    6.30
   2 -14  -2   75.49    8.40
   1 -14  -2    8.20    3.10
   1 -14  -2   15.00    4.20
   1 -14  -2   14.70    4.00
   1 -14  -2   11.00    3.10
   0 -14  -2   13.10    4.00
   0 -14  -2   22.00    4.20
   0 -14  -2   14.40    3.80
  -1 -14  -2   30.70    5.30
  -1 -14  -2   29.00    4.80
  -1 -14  -2   30.90    4.70
  -1 -14  -2   23.40    4.70
  -2 -14  -2    4.90    2.30
  -2 -14  -2    3.60    2.80
  -2 -14  -2    3.80    2.60
   2  14   2    4.00    3.50
  -3 -14  -2    0.00    2.30
  -3 -14  -2   -0.50    2.10
  -3 -14  -2    2.00    1.80
   3  14   2    4.60    3.30
  -4 -14  -2    8.20    3.30
  -4 -14  -2   12.40    4.50
  -4 -14  -2   10.50    2.50
   4  14   2    2.20    3.40
  -5 -14  -2   34.50    6.10
   5  14   2   34.70    6.40
   0 -15  -2   26.60    4.60
   0 -15  -2   25.90    4.80
   0 -15  -2   20.90    4.90
  -1 -15  -2   34.40    5.00
  -1 -15  -2   39.00    5.50
  -1 -15  -2   46.40    6.70
  -2 -15  -2    2.40    2.70
  -2 -15  -2    0.80    1.80
  -2 -15  -2    1.30    2.90
  -3 -15  -2   -3.10    2.40
  -3 -15  -2   -2.40    2.20
  -3 -15  -2   -0.40    1.50
   3  15   2    2.00    2.90
  -2 -14   3   53.29    6.70
   1  14  -3   23.90    5.00
  -1 -14   3   27.60    5.00
  -1 -14   3   29.30    6.20
   0 -14   3    0.00    2.20
   4  13  -3    3.30    3.50
   4  13  -3    2.30    2.30
  -4 -13   3    4.20    3.40
  -4 -13   3    5.80    2.60
   3  13  -3    4.20    2.70
   3  13  -3    2.40    3.40
  -3 -13   3    0.60    1.80
  -3 -13   3   10.10    3.80
   2  13  -3   30.80    5.40
   2  13  -3   28.80    5.30
  -2 -13   3   27.60    5.50
  -2 -13   3   33.60    5.10
   1  13  -3    5.00    3.30
  -1 -13   3    1.20    2.50
  -1 -13   3    5.30    2.90
  -1 -13   3    1.90    3.10
   0  13  -3   17.90    4.00
   0 -13   3   18.00    4.20
   0 -13   3   29.10    5.50
   0 -13   3   23.30    4.10
   1 -13   3   33.40    4.20
   1 -13   3   36.90    5.70
   1 -13   3   50.09    7.30
   2 -13   3    0.50    1.90
   2 -13   3    3.60    2.00
   2 -13   3    4.30    3.10
   2 -13   3    3.50    2.70
   5  12  -3    1.00    1.80
   5  12  -3    5.40    4.20
  -5 -12   3    1.00    1.80
  -5 -12   3   -2.30    2.40
   4  12  -3    2.90    3.10
   4  12  -3    6.00    2.40
  -4 -12   3    6.10    2.50
  -4 -12   3    0.60    2.90
   3  12  -3   52.09    5.70
   3  12  -3   38.10    5.90
  -3 -12   3   41.30    5.00
  -3 -12   3   43.50    6.40
   2  12  -3   51.19    6.40
   2  12  -3   46.60    5.20
  -2 -12   3   43.60    5.40
  -2 -12   3   36.90    6.00
   1  12  -3    0.00    1.80
   1  12  -3    1.80    2.60
  -1 -12   3   -1.30    2.10
  -1 -12   3    1.20    2.10
  -1 -12   3   -1.80    2.20
   0  12  -3  126.69    7.60
   0 -12   3  115.39    6.80
   0 -12   3  117.09    9.40
   0 -12   3  115.19    8.60
  -1  12  -3   65.39    5.30
   1 -12   3   54.29    7.00
   1 -12   3   56.79    7.00
   1 -12   3   60.19    4.80
   2 -12   3   10.70    4.00
   2 -12   3    8.40    3.10
   2 -12   3   17.80    2.80
   3 -12   3    8.20    3.50
   3 -12   3    9.60    3.40
   6  11  -3    8.60    4.30
   6  11  -3    5.80    1.90
  -6 -11   3    5.80    3.50
  -6 -11   3    4.60    2.10
   5  11  -3    8.90    3.80
   5  11  -3    6.40    2.30
  -5 -11   3    5.90    3.10
  -5 -11   3    4.10    2.10
   4  11  -3    4.40    3.10
   4  11  -3    8.50    2.50
  -4 -11   3    1.70    1.80
  -4 -11   3    7.10    3.50
   3  11  -3   64.49    5.00
  -3 -11   3   60.09    7.40
  -3 -11   3   55.49    5.00
   2  11  -3   95.99    7.10
   2  11  -3   96.79    6.10
  -2 -11   3   95.89    6.60
  -2 -11   3   93.19    6.40
  -2 -11   3   88.79    7.50
   1  11  -3   38.60    5.20
   1  11  -3   27.70    4.20
  -1 -11   3   24.20    4.10
  -1 -11   3   29.90    4.60
  -1 -11   3   26.90    4.60
   0  11  -3   66.59    5.60
   0  11  -3   64.79    5.60
   0 -11   3   57.39    6.60
   0 -11   3   71.59    6.10
   0 -11   3   52.99    4.60
  -1  11  -3   78.59    5.40
   1 -11   3   66.29    4.70
   1 -11   3   83.69    7.10
   2 -11   3    9.80    3.40
   2 -11   3    7.90    3.10
   2 -11   3    6.90    1.90
   3 -11   3    8.40    3.70
   3 -11   3    2.20    2.60
   4 -11   3   47.30    6.60
   7  10  -3   18.10    4.90
  -7 -10   3    8.70    2.30
  -7 -10   3   13.80    4.70
   6  10  -3   12.20    2.40
   6  10  -3    8.50    3.80
  -6 -10   3   15.10    4.50
  -6 -10   3   13.50    2.90
   5  10  -3    1.50    1.40
   5  10  -3   -1.10    2.40
  -5 -10   3   -0.40    1.40
  -5 -10   3    2.80    2.60
   4  10  -3   29.80    5.10
   4  10  -3   35.80    3.90
  -4 -10   3   37.10    5.90
  -4 -10   3   42.50    4.60
   3  10  -3  183.38    7.80
   3  10  -3  188.88    9.80
  -3 -10   3  178.08   11.00
  -3 -10   3  198.78    8.50
  -3 -10   3  201.28    9.50
   2  10  -3    8.90    2.50
   2  10  -3   12.40    3.40
  -2 -10   3   15.60    3.30
  -2 -10   3    4.30    2.70
   1  10  -3   34.00    4.70
   1  10  -3   33.10    4.30
  -1 -10   3   38.20    5.50
  -1 -10   3   27.00    5.50
  -1 -10   3   31.20    4.40
  -1 -10   3   32.40    4.20
   0  10  -3  173.08   10.00
   0  10  -3  184.98    8.30
   0 -10   3  182.58    9.10
   0 -10   3  202.78   12.80
   0 -10   3  202.48   10.00
   0 -10   3  193.28    7.90
  -1  10  -3    1.20    2.20
  -1  10  -3    4.50    2.00
   1 -10   3    1.00    2.10
   1 -10   3    1.20    2.60
   1 -10   3    0.20    1.50
   2 -10   3    0.80    1.40
   2 -10   3    0.30    2.00
   2 -10   3   -1.10    1.90
   3 -10   3   57.09    6.80
  -4  10  -3   17.80    4.70
   4 -10   3   11.80    4.00
  -5  10  -3    5.40    3.80
   5 -10   3    4.80    3.40
   7   9  -3   37.60    6.40
   7   9  -3   49.90    4.50
  -7  -9   3   40.90    5.00
  -7  -9   3   35.50    6.30
   6   9  -3   -1.40    2.20
   6   9  -3    0.80    1.40
  -6  -9   3   -1.00    2.60
  -6  -9   3    0.30    2.50
   5   9  -3    3.10    2.60
   5   9  -3    0.40    1.50
  -5  -9   3    0.60    2.20
  -5  -9   3    0.60    1.50
   4   9  -3  136.29    8.50
   4   9  -3  132.59    6.00
  -4  -9   3  169.08   14.50
  -4  -9   3  135.89    6.60
   3   9  -3   48.20    3.90
   3   9  -3   61.29    6.50
   3   9  -3   42.10    5.30
  -3  -9   3   53.59    5.70
  -3  -9   3   53.39    4.40
  -3  -9   3   50.89    6.20
   2   9  -3    1.40    2.10
   2   9  -3   -1.00    1.50
   2   9  -3    1.10    1.60
  -2  -9   3    0.80    1.70
  -2  -9   3    0.10    1.70
  -2  -9   3   -2.80    1.40
   1   9  -3  145.19    7.10
   1   9  -3  165.78    7.80
  -1  -9   3  146.19    7.00
  -1  -9   3  166.08    7.90
  -1  -9   3  137.69    8.60
  -1  -9   3  159.38    8.50
   0   9  -3   29.20    4.20
   0   9  -3   26.20    3.70
   0  -9   3   24.70    3.30
   0  -9   3   24.00    3.90
   0  -9   3   23.00    4.50
   0  -9   3   30.50    4.60
  -1   9  -3   21.20    3.10
   1  -9   3   19.60    3.60
   1  -9   3   18.60    4.30
   1  -9   3   20.00    3.90
   1  -9   3   22.10    3.70
  -2   9  -3    8.60    2.90
   2  -9   3   15.70    3.60
   2  -9   3   11.30    1.90
   2  -9   3   18.40    3.90
   2  -9   3    6.80    3.00
   3  -9   3   38.90    7.30
  -4   9  -3   18.30    4.80
   4  -9   3   22.20    4.40
  -5   9  -3   23.30    5.40
   5  -9   3   26.50    5.20
  -6   9  -3   27.10    5.80
   6  -9   3   24.90    5.50
   8   8  -3   44.30    7.20
   8   8  -3   49.00    3.80
  -8  -8   3   47.30    7.90
   7   8  -3   43.30    3.60
   7   8  -3   35.10    5.90
  -7  -8   3   42.90    7.10
   6   8  -3    1.90    2.50
   6   8  -3    4.20    1.70
  -6  -8   3    2.30    2.40
   5   8  -3   22.20    2.90
  -5  -8   3   13.80    4.80
   4   8  -3   82.09    4.60
   4   8  -3   79.09    6.30
   4   8  -3   73.49    6.00
  -4  -8   3   73.99    5.80
  -4  -8   3   85.29    5.20
  -4  -8   3   81.29    6.60
   3   8  -3   23.30    4.10
   3   8  -3   21.20    4.10
   3   8  -3   16.60    2.80
  -3  -8   3   16.60    3.20
  -3  -8   3   17.00    2.90
  -3  -8   3   19.20    4.00
   2   8  -3   15.60    3.20
   2   8  -3   10.30    2.30
   2   8  -3    8.00    2.50
  -2  -8   3    7.30    2.70
  -2  -8   3    9.90    2.40
  -2  -8   3   12.00    2.60
   1   8  -3   49.50    4.20
   1   8  -3   47.10    3.90
  -1  -8   3   51.09    4.30
  -1  -8   3   53.29    4.10
  -1  -8   3   57.59    6.30
  -1  -8   3   56.79    5.00
   0   8  -3   -1.30    1.20
   0  -8   3    0.30    1.30
   0  -8   3    2.60    1.80
   0  -8   3    0.90    2.10
   0  -8   3   -0.20    1.50
  -1   8  -3   16.00    2.90
  -1   8  -3   18.20    2.70
   1  -8   3   22.00    2.60
   1  -8   3   15.60    3.90
   1  -8   3   21.30    3.60
   1  -8   3   14.80    3.20
   2  -8   3   95.19    3.80
   2  -8   3   96.49    7.20
   2  -8   3   95.59    6.50
  -3   8  -3   34.80    5.60
   3  -8   3   36.80    5.10
   3  -8   3   28.00    4.80
  -5   8  -3   56.99    7.40
   5  -8   3   58.89    7.00
  -6   8  -3   14.10    4.60
   6  -8   3    7.80    3.60
  -7   8  -3    3.70    4.20
   7  -8   3    1.00    2.90
   8   7  -3   33.20    6.30
   8   7  -3   25.40    3.50
  -8  -7   3   31.30    6.60
  -8  -7   3   28.40    3.80
   7   7  -3    8.60    2.20
   7   7  -3   12.70    4.50
  -7  -7   3    8.50    4.10
  -7  -7   3   11.20    2.60
   6   7  -3    7.50    3.40
   6   7  -3    7.10    2.00
  -6  -7   3    8.20    3.30
   5   7  -3   37.80    3.30
   5   7  -3   40.70    5.50
   5   7  -3   48.50    6.00
  -5  -7   3   53.09    6.70
  -5  -7   3   40.80    3.70
  -5  -7   3   46.00    5.40
   4   7  -3    8.30    2.80
   4   7  -3    4.50    2.00
   4   7  -3   13.50    2.30
  -4  -7   3    7.00    2.60
  -4  -7   3   15.90    2.60
  -4  -7   3   13.60    3.40
   3   7  -3    2.40    2.00
   3   7  -3   -1.10    0.90
   3   7  -3    0.00    1.20
  -3  -7   3    0.20    1.30
  -3  -7   3    1.10    1.60
  -3  -7   3    1.20    2.00
   2   7  -3  484.95   14.30
   2   7  -3  483.05   14.60
   2   7  -3  485.05   13.00
  -2  -7   3  487.25   15.00
  -2  -7   3  493.75   13.70
  -2  -7   3  459.85   13.60
   1   7  -3   82.89    4.70
   1   7  -3   76.49    4.80
  -1  -7   3   79.69    5.00
  -1  -7   3   75.89    4.50
  -1  -7   3   78.89    5.40
   0   7  -3   15.20    2.60
   0   7  -3    9.80    2.10
   0  -7   3   14.30    3.10
   0  -7   3   10.90    2.60
   0  -7   3   11.10    2.70
   0  -7   3    9.70    2.50
  -1   7  -3  326.67    9.20
  -1   7  -3  333.07   11.10
   1  -7   3  330.57   11.50
   1  -7   3  362.06   12.10
   1  -7   3  327.07   12.40
   1  -7   3  336.17    8.90
  -2   7  -3   40.60    5.20
  -2   7  -3   33.90    2.40
  -2   7  -3   31.20    4.20
   2  -7   3   37.40    2.20
   2  -7   3   39.80    4.70
   2  -7   3   36.00    4.90
  -3   7  -3  128.09    8.10
   3  -7   3  132.59    7.60
  -4   7  -3  131.99    8.70
   4  -7   3  119.09    7.70
   4  -7   3  106.19    7.90
   4  -7   3  107.09    7.80
  -5   7  -3   15.40    4.20
   5  -7   3   13.30    3.60
  -6   7  -3   11.00    4.40
   6  -7   3   10.50    3.70
  -7   7  -3   11.60    4.60
   7  -7   3    9.40    4.10
   8   6  -3   33.50    6.10
   8   6  -3   39.10    4.30
  -8  -6   3   33.10    6.70
  -8  -6   3   40.00    4.60
   7   6  -3   -1.30    2.10
   7   6  -3    0.40    1.50
  -7  -6   3   -1.10    1.50
  -7  -6   3    1.40    2.80
   6   6  -3    7.10    2.10
  -6  -6   3    5.80    2.60
   5   6  -3    2.90    2.20
   5   6  -3    4.40    2.60
   5   6  -3    7.10    1.90
  -5  -6   3    6.70    2.80
  -5  -6   3   10.50    2.30
  -5  -6   3    6.40    2.50
   4   6  -3   72.69    5.60
   4   6  -3   74.89    5.60
  -4  -6   3   66.39    5.10
  -4  -6   3   82.29    4.60
  -4  -6   3   72.99    5.80
   3   6  -3   81.89    5.50
   3   6  -3   83.19    5.40
   3   6  -3   77.29    4.90
  -3  -6   3   72.69    5.40
  -3  -6   3   81.99    4.60
  -3  -6   3   75.29    5.00
   2   6  -3  263.07    9.60
   2   6  -3  255.47    9.20
   2   6  -3  255.57    9.40
  -2  -6   3  257.37    8.70
  -2  -6   3  267.27    9.10
  -2  -6   3  252.27    9.70
   1   6  -3  684.83   17.50
   1   6  -3  675.33   16.80
   1   6  -3  663.93   16.30
  -1  -6   3  674.03   16.20
  -1  -6   3  680.63   18.40
  -1  -6   3  695.33   17.70
   0   6  -3  769.32   17.10
   0   6  -3  735.53   18.00
   0  -6   3  748.33   19.80
   0  -6   3  769.32   18.70
   0  -6   3  752.62   16.80
   0  -6   3  773.42   19.10
  -1   6  -3   49.20    3.90
  -1   6  -3   49.90    3.00
   1  -6   3   47.20    2.80
   1  -6   3   57.79    4.80
   1  -6   3   50.39    4.20
   1  -6   3   52.99    4.20
  -2   6  -3  284.07   11.20
  -2   6  -3  286.47   10.10
   2  -6   3  313.27   10.80
   2  -6   3  280.27   11.10
  -3   6  -3   15.20    3.50
  -3   6  -3   10.20    2.80
   3  -6   3   14.30    3.30
   3  -6   3    9.40    2.70
  -4   6  -3  117.49    8.00
   4  -6   3  112.79    7.10
   4  -6   3  114.29    7.90
  -5   6  -3  108.59    8.10
   5  -6   3   92.49    7.90
   5  -6   3   98.99    7.60
   5  -6   3   95.69    7.00
  -6   6  -3    8.60    3.90
   6  -6   3   10.00    3.50
  -7   6  -3   11.20    4.20
   7  -6   3   14.20    4.00
  -8   6  -3   17.20    5.60
   8  -6   3   10.60    4.20
   8   5  -3   11.40    3.70
   8   5  -3    8.40    2.50
  -8  -5   3    5.60    3.60
  -8  -5   3   10.40    2.80
   7   5  -3   33.30    5.50
   7   5  -3   31.80    4.00
  -7  -5   3   31.90    4.20
  -7  -5   3   29.40    5.90
   6   5  -3   33.60    4.90
   6   5  -3   46.50    3.90
  -6  -5   3   60.69    7.30
  -6  -5   3   42.10    5.70
  -6  -5   3   45.90    4.70
   5   5  -3  141.09    7.80
   5   5  -3  124.89    5.80
   5   5  -3  125.69    8.20
  -5  -5   3  125.39    7.80
  -5  -5   3  130.89    8.20
  -5  -5   3  132.49    6.20
   4   5  -3   15.80    3.40
   4   5  -3   18.10    2.70
   4   5  -3   15.80    3.10
  -4  -5   3   20.20    3.60
  -4  -5   3   22.10    3.00
  -4  -5   3   21.80    3.30
   3   5  -3   52.09    4.30
   3   5  -3   44.10    3.20
   3   5  -3   51.69    4.20
  -3  -5   3   43.40    3.40
  -3  -5   3   45.20    3.90
  -3  -5   3   52.09    5.20
   2   5  -3 1597.04   33.50
   2   5  -3 1582.34   32.00
   2   5  -3 1645.54   33.30
  -2  -5   3 1646.94   34.10
  -2  -5   3 1570.04   32.80
  -2  -5   3 1632.54   32.50
   1   5  -3   15.00    2.40
   1   5  -3   13.60    2.40
   1   5  -3    9.20    2.00
  -1  -5   3   15.20    2.70
  -1  -5   3   15.80    2.40
  -1  -5   3   12.20    2.20
   0   5  -3    2.60    1.40
   0   5  -3    1.70    1.20
   0  -5   3    5.00    1.40
   0  -5   3    3.30    1.50
   0  -5   3    2.20    1.80
   0  -5   3    5.00    2.00
  -1   5  -3  706.53   17.30
  -1   5  -3  733.93   15.10
   1  -5   3  717.43   14.80
   1  -5   3  717.23   18.70
   1  -5   3  740.33   17.90
  -2   5  -3  324.87   11.40
  -2   5  -3  336.77   10.60
   2  -5   3  327.27   11.50
   2  -5   3  339.47   11.00
  -3   5  -3    7.30    2.50
  -3   5  -3    2.10    1.60
   3  -5   3    8.40    2.60
   3  -5   3   11.90    3.10
  -4   5  -3   71.59    6.00
   4  -5   3   74.59    5.50
   4  -5   3   72.69    6.00
  -5   5  -3   52.29    6.30
   5  -5   3   48.20    6.40
   5  -5   3   43.20    5.60
   5  -5   3   58.69    6.00
  -6   5  -3   -2.10    1.90
   6  -5   3    0.50    2.20
  -7   5  -3   20.10    4.80
   7  -5   3   26.20    5.10
  -8   5  -3   18.00    5.40
   8  -5   3    9.40    3.60
   8   4  -3    7.60    3.70
   8   4  -3    7.40    2.60
  -8  -4   3    4.30    2.50
  -8  -4   3    5.80    3.70
   7   4  -3   24.40    3.60
   7   4  -3   25.30    4.90
  -7  -4   3   32.70    4.30
  -7  -4   3   31.80    5.80
   6   4  -3   57.89    6.80
   6   4  -3   56.09    4.30
   6   4  -3   49.60    6.10
  -6  -4   3   56.39    4.50
  -6  -4   3   53.79    6.60
  -6  -4   3   53.59    6.00
   5   4  -3   87.99    4.90
   5   4  -3   95.39    6.30
   5   4  -3   83.59    6.00
  -5  -4   3   95.39    5.20
  -5  -4   3   97.29    6.70
  -5  -4   3   80.19    5.60
   4   4  -3   49.80    3.50
   4   4  -3   51.09    4.40
   4   4  -3   42.30    4.60
  -4  -4   3   52.89    5.60
  -4  -4   3   46.90    4.10
  -4  -4   3   52.89    3.70
   3   4  -3 1117.49   25.10
   3   4  -3 1115.19   23.20
   3   4  -3 1106.09   24.90
  -3  -4   3 1057.09   24.20
  -3  -4   3 1106.69   25.40
  -3  -4   3 1081.39   23.30
   2   4  -3  880.41   20.50
   2   4  -3  905.61   19.60
   2   4  -3  906.61   20.40
  -2  -4   3  894.21   20.10
  -2  -4   3  939.41   20.00
   1   4  -3   29.10    3.20
   1   4  -3   33.20    4.00
   1   4  -3   25.40    2.90
  -1  -4   3   28.90    3.30
  -1  -4   3   28.00    3.20
  -1  -4   3   29.10    2.90
   0   4  -3   15.00    2.40
   0   4  -3   20.30    2.40
   0  -4   3   13.30    2.60
   0  -4   3   12.70    2.20
   0  -4   3   16.30    2.00
   0  -4   3   19.00    2.70
  -1   4  -3   32.20    2.10
  -1   4  -3   33.50    4.10
   1  -4   3   38.60    4.10
   1  -4   3   26.90    1.80
  -2   4  -3  184.68    8.90
  -2   4  -3  183.88    7.10
   2  -4   3  182.78    7.80
   2  -4   3  186.78    7.40
  -3   4  -3   19.90    3.10
  -3   4  -3   25.50    4.00
   3  -4   3   22.10    3.30
   3  -4   3   23.20    3.70
  -4   4  -3  151.18    8.10
  -4   4  -3  146.89    7.00
   4  -4   3  155.88    8.00
   4  -4   3  149.29    7.30
  -5   4  -3   27.80    4.70
   5  -4   3   22.00    3.80
   5  -4   3   24.90    4.30
   5  -4   3   22.50    4.80
  -6   4  -3   18.40    4.60
   6  -4   3   14.30    3.60
   6  -4   3   15.50    3.40
   6  -4   3   16.30    4.30
  -7   4  -3   58.79    7.70
   7  -4   3   60.29   10.00
  -8   4  -3   36.70    6.60
   8  -4   3   39.40    6.30
   9   3  -3   29.60    5.00
   9   3  -3   34.70    6.20
  -9  -3   3   34.60    6.70
  -9  -3   3   31.10    5.10
   8   3  -3   21.70    4.10
   8   3  -3   16.40    4.20
  -8  -3   3   12.90    3.30
  -8  -3   3   12.90    4.20
   7   3  -3   61.79    6.60
   7   3  -3   67.39    5.20
  -7  -3   3   74.79    5.60
  -7  -3   3   66.29    7.80
   6   3  -3   49.00    6.20
   6   3  -3   40.40    5.30
   6   3  -3   41.20    4.60
  -6  -3   3   48.80    5.70
  -6  -3   3   44.80    6.00
  -6  -3   3   47.90    5.00
   5   3  -3  301.67    9.90
   5   3  -3  300.87   11.60
   5   3  -3  306.17   11.30
  -5  -3   3  295.77   10.70
  -5  -3   3  307.27   12.10
   4   3  -3  109.99    6.10
   4   3  -3  125.09    5.50
   4   3  -3  116.69    6.40
  -4  -3   3  111.59    5.40
  -4  -3   3  121.29    6.70
  -4  -3   3   99.49    5.70
   3   3  -3  434.26   12.30
   3   3  -3  420.76   11.30
   3   3  -3  408.26   12.20
  -3  -3   3  438.16   11.60
  -3  -3   3  443.76   12.80
  -3  -3   3  409.56   11.90
   2   3  -3   41.50    2.90
   2   3  -3   42.00    3.30
   2   3  -3   44.70    3.30
  -2  -3   3   48.60    3.20
  -2  -3   3   44.70    3.70
  -2  -3   3   46.30    3.50
   1   3  -3    0.60    1.00
   1   3  -3    0.90    1.00
   1   3  -3    3.20    1.30
  -1  -3   3    0.80    1.10
  -1  -3   3   -0.10    1.00
  -1  -3   3   -0.20    1.00
   0   3  -3  124.79    4.30
   0   3  -3  114.09    4.80
   0  -3   3  121.29    4.20
   0  -3   3  123.49    5.10
   0  -3   3  121.49    4.90
  -1   3  -3    8.50    1.80
  -1   3  -3    5.30    1.70
  -1   3  -3    8.60    1.20
   1  -3   3    7.60    1.90
   1  -3   3    7.40    1.10
   1  -3   3    6.10    1.80
  -2   3  -3  132.89    6.20
   2  -3   3  136.79    5.90
   2  -3   3  152.48    6.50
  -3   3  -3  387.76   12.30
  -3   3  -3  415.56   11.50
   3  -3   3  400.76   11.80
   3  -3   3  394.16   12.40
  -4   3  -3   99.49    6.40
  -4   3  -3   95.19    5.30
   4  -3   3   93.29    6.10
   4  -3   3   92.69    5.50
  -5   3  -3   43.10    5.70
   5  -3   3   42.50    4.60
   5  -3   3   43.30    5.20
   5  -3   3   44.40    5.10
  -6   3  -3   33.10    5.40
   6  -3   3   42.10    5.90
   6  -3   3   41.90    5.20
   6  -3   3   40.00    5.80
  -7   3  -3   41.90    6.40
   7  -3   3   43.70    5.60
   7  -3   3   29.10    5.00
  -8   3  -3   11.50    4.00
   8  -3   3   19.80    4.20
   9   2  -3   22.40    4.80
   9   2  -3   26.10    4.70
  -9  -2   3   26.90    6.60
   8   2  -3    4.20    2.80
  -8  -2   3    8.20    3.00
  -8  -2   3    4.90    3.30
   7   2  -3    3.90    2.60
   7   2  -3    2.70    2.10
  -7  -2   3    5.50    3.10
  -7  -2   3    2.50    2.30
  -7  -2   3    3.70    2.20
   6   2  -3   -1.10    1.70
   6   2  -3    1.20    1.60
   6   2  -3    1.00    1.90
  -6  -2   3    3.20    2.20
  -6  -2   3    3.10    2.50
  -6  -2   3    2.90    2.20
   5   2  -3  174.38    7.30
   5   2  -3  177.98    8.50
   5   2  -3  180.08    8.10
  -5  -2   3  171.58    8.80
  -5  -2   3  166.88    7.60
  -5  -2   3  186.88    7.70
   4   2  -3  247.48    9.00
   4   2  -3  239.68    9.30
   4   2  -3  257.07    9.60
  -4  -2   3  250.77    8.80
  -4  -2   3  248.68    8.60
  -4  -2   3  244.98    9.70
   3   2  -3   91.19    4.50
   3   2  -3   97.59    5.10
  -3  -2   3   87.99    4.60
  -3  -2   3   81.19    4.90
  -3  -2   3   90.89    4.60
   2   2  -3    3.40    1.30
   2   2  -3    1.50    1.30
   2   2  -3    1.30    1.10
  -2  -2   3    0.50    1.20
  -2  -2   3    3.20    1.40
  -2  -2   3    1.10    1.00
   1   2  -3  482.55   11.40
   1   2  -3  482.65   11.40
   1   2  -3  485.95   11.60
  -1  -2   3  494.95   11.40
  -1  -2   3  473.25   11.50
  -1  -2   3  485.15   11.70
   0   2  -3  156.68    4.70
   0   2  -3  150.08    5.30
   0   2  -3  149.79    5.00
   0  -2   3  153.88    4.70
   0  -2   3  145.99    5.40
   0  -2   3  151.28    5.10
  -1   2  -3  245.98    7.50
  -1   2  -3  254.77    7.40
  -1   2  -3  246.18    5.70
   1  -2   3  255.47    7.60
   1  -2   3  250.77    5.80
   1  -2   3  235.68    7.40
  -2   2  -3   24.80    2.60
  -2   2  -3   32.10    3.50
   2  -2   3   37.90    3.80
   2  -2   3   34.40    3.60
  -3   2  -3  415.76   12.40
   3  -2   3  422.96   11.60
   3  -2   3  418.76   12.40
  -4   2  -3   70.79    4.30
  -4   2  -3   73.59    5.20
   4  -2   3   67.79    4.40
   4  -2   3   64.59    4.90
  -5   2  -3   -1.50    1.70
   5  -2   3    0.20    1.50
   5  -2   3    3.40    2.20
   5  -2   3    0.70    1.30
  -6   2  -3   54.19    6.60
  -6   2  -3   53.49    2.80
   6  -2   3   57.19    5.20
   6  -2   3   52.79    4.60
   6  -2   3   61.09    7.00
   6  -2   3   59.19    3.20
  -7   2  -3   16.80    2.10
   7  -2   3   13.40    3.90
   7  -2   3   15.70    2.40
   7  -2   3   18.90    3.60
  -8   2  -3   14.90    2.50
  -8   2  -3   18.10    4.80
   8  -2   3   15.10    2.70
   8  -2   3   12.70    3.30
   8  -2   3   11.70    5.00
  -9   2  -3   11.20    4.50
  -9   2  -3   16.00    2.60
   9  -2   3   14.80    4.10
   9   1  -3    1.10    3.00
  -9  -1   3   -0.80    3.10
   8   1  -3   25.80    4.50
   8   1  -3   25.70    4.90
  -8  -1   3   39.10    7.00
  -8  -1   3   29.80    4.90
   7   1  -3    7.50    3.00
   7   1  -3   12.20    3.40
  -7  -1   3   17.90    3.50
  -7  -1   3   11.80    3.30
  -7  -1   3   12.20    3.90
   6   1  -3  184.18    9.40
   6   1  -3  198.08    8.80
   6   1  -3  182.08    8.40
  -6  -1   3  180.18    8.50
  -6  -1   3  168.98    9.50
  -6  -1   3  162.68    7.90
   5   1  -3    2.80    1.80
   5   1  -3    5.20    1.90
   5   1  -3    3.50    2.00
  -5  -1   3    2.60    1.80
  -5  -1   3    6.90    2.00
  -5  -1   3    3.10    2.20
   4   1  -3  309.47   10.00
   4   1  -3  303.37   10.60
   4   1  -3  309.77    9.90
  -4  -1   3  312.17   11.10
  -4  -1   3  297.37    9.70
  -4  -1   3  318.87   10.10
   3   1  -3  128.09    5.50
   3   1  -3  119.59    5.30
  -3  -1   3  122.69    5.90
  -3  -1   3  119.99    5.40
  -3  -1   3  111.19    5.10
   2   1  -3  706.93   16.00
   2   1  -3  717.63   15.90
   2   1  -3  706.33   15.90
  -2  -1   3  725.93   15.90
  -2  -1   3  702.93   16.10
  -2  -1   3  708.33   16.10
   1   1  -3  535.45   12.40
   1   1  -3  533.65   12.10
   1   1  -3  545.15   11.90
  -1  -1   3  530.65   12.00
  -1  -1   3  542.65   12.50
  -1  -1   3  529.55   12.00
   0   1  -3  598.04   12.30
   0   1  -3  590.94   13.20
   0   1  -3  583.44   12.30
   0  -1   3  594.44   13.20
   0  -1   3  585.44   12.30
   0  -1   3  603.74   12.40
  -1   1  -3   24.20    2.40
  -1   1  -3   20.10    2.10
  -1   1  -3   20.10    1.40
   1  -1   3   19.70    1.40
   1  -1   3   23.30    2.40
   1  -1   3   23.50    2.30
  -2   1  -3   25.10    2.80
  -2   1  -3   23.20    2.40
  -2   1  -3   20.80    1.30
  -2   1  -3   23.70    1.50
   2  -1   3   21.50    2.40
   2  -1   3   24.20    2.80
  -3   1  -3  366.96    9.80
  -3   1  -3  352.36    7.80
  -3   1  -3  353.36   10.70
   3  -1   3  364.06   10.70
   3  -1   3  379.56   10.20
  -4   1  -3  338.47   11.30
  -4   1  -3  333.77    9.80
  -4   1  -3  320.47    7.60
   4  -1   3  325.47    9.90
   4  -1   3  333.27    8.00
   4  -1   3  321.07   10.90
  -5   1  -3   -1.20    1.70
  -5   1  -3    0.50    0.90
   5  -1   3    1.00    1.50
   5  -1   3    0.90    1.80
   5  -1   3    0.60    1.10
   5  -1   3   -0.90    1.00
  -6   1  -3  130.59    4.90
  -6   1  -3  128.69    8.20
   6  -1   3  130.19    7.90
   6  -1   3  127.69    6.50
   6  -1   3  128.09    5.40
   6  -1   3  118.49    6.90
  -7   1  -3   14.10    4.00
   7  -1   3   12.70    3.40
   7  -1   3   12.90    4.90
   7  -1   3   14.70    3.10
   7  -1   3   12.70    2.60
  -8   1  -3    4.20    3.10
  -8   1  -3    1.00    1.60
   8  -1   3   -0.40    1.70
   8  -1   3    0.40    1.90
   8  -1   3   -0.20    2.20
  -9   1  -3   46.00    4.40
  -9   1  -3   43.30    7.50
   9  -1   3   40.10    7.00
   9  -1   3   40.30    4.80
   9   0  -3   12.40    4.10
  -9   0   3   10.30    4.20
   8   0  -3    2.80    2.30
   8   0  -3    1.50    2.70
  -8   0   3    4.10    3.50
  -8   0   3    2.10    2.60
   7   0  -3   -1.70    1.80
   7   0  -3    0.70    2.10
  -7   0   3    1.10    2.60
  -7   0   3    2.40    2.50
  -7   0   3    0.30    1.70
   6   0  -3   12.10    3.00
   6   0  -3   13.40    3.20
   6   0  -3    6.50    2.70
  -6   0   3    9.20    3.00
  -6   0   3   19.20    4.40
  -6   0   3   13.90    3.10
   5   0  -3   79.99    5.20
   5   0  -3   71.99    5.40
   5   0  -3   84.79    5.40
  -5   0   3   77.99    4.90
  -5   0   3   91.19    5.80
  -5   0   3   87.39    6.30
   4   0  -3  765.82   19.00
   4   0  -3  785.82   18.70
   4   0  -3  790.02   19.70
  -4   0   3  792.22   20.20
  -4   0   3  789.12   18.50
   3   0  -3   39.10    3.30
   3   0  -3   41.20    3.20
   3   0  -3   38.20    3.30
  -3   0   3   46.50    3.50
  -3   0   3   54.19    5.50
  -3   0   3   41.60    3.60
   2   0  -3  327.47    9.20
   2   0  -3  322.27    8.80
   2   0  -3  328.07    8.90
  -2   0   3  311.47    9.00
  -2   0   3  336.47    9.20
  -2   0   3  321.77    8.80
   1   0  -3 1030.70   20.30
   1   0  -3  999.70   20.70
   1   0  -3 1022.10   19.80
  -1   0   3 1015.90   20.20
  -1   0   3  994.50   20.70
  -1   0   3 1033.60   19.90
   0   0  -3   44.30    2.70
   0   0  -3   47.10    2.40
   0   0  -3   44.70    1.90
   0   0   3   46.20    2.70
   0   0   3   47.50    2.00
   0   0   3   44.00    2.30
  -1   0  -3  121.29    3.80
  -1   0  -3  119.09    3.70
  -1   0  -3  120.99    4.30
   1   0   3  119.89    3.80
   1   0   3  124.89    4.30
   1   0   3  120.19    3.70
  -2   0  -3  175.28    4.60
  -2   0  -3  164.38    5.50
  -2   0  -3  173.68    4.80
  -2   0  -3  167.08    5.30
   2   0   3  169.58    5.60
   2   0   3  168.28    5.40
  -3   0  -3    0.90    1.00
  -3   0  -3   -0.10    1.30
  -3   0  -3    2.70    1.00
   3   0   3    3.80    1.20
   3   0   3    1.50    1.00
   3   0   3    2.50    1.40
  -4   0  -3    7.90    1.60
  -4   0  -3   11.00    2.10
  -4   0  -3    5.90    2.50
   4   0   3   10.00    1.80
   4   0   3    7.30    2.10
   4   0   3    9.00    1.90
  -5   0  -3   54.09    3.20
  -5   0  -3   55.09    4.80
   5   0   3   58.59    3.60
   5   0   3   56.19    4.80
   5   0   3   59.49    3.90
   5   0   3   60.29    4.30
  -6   0  -3   66.89    5.80
  -6   0  -3   57.99    3.70
   6   0   3   48.70    4.30
   6   0   3   60.39    6.60
   6   0   3   55.39    4.00
   6   0   3   66.39    4.50
  -7   0  -3   11.10    2.40
  -7   0  -3    9.80    3.50
   7   0   3   10.00    3.30
   7   0   3    9.20    2.70
   7   0   3   11.10    2.60
   7   0   3    8.10    2.30
  -8   0  -3   12.10    2.70
  -8   0  -3   19.40    4.70
   8   0   3   16.00    3.60
   8   0   3    9.80    2.80
   8   0   3   13.20    3.00
  -9   0  -3   38.90    4.50
  -9   0  -3   33.00    6.50
   9   0   3   28.30    4.40
   9   0   3   36.90    5.80
   9   0   3   38.80    4.90
   9  -1  -3   13.30    4.00
   9  -1  -3   15.80    4.00
  -9   1   3   15.00    5.00
   8  -1  -3    2.80    2.70
  -8   1   3    4.30    5.20
  -8   1   3    2.50    2.40
  -8   1   3   -0.30    2.50
   7  -1  -3   40.60    5.10
   7  -1  -3   37.50    5.20
  -7   1   3   52.59    7.00
  -7   1   3   50.19    6.60
   6  -1  -3    5.40    2.40
   6  -1  -3    7.60    2.90
   6  -1  -3    1.90    1.90
  -6   1   3    5.10    2.10
  -6   1   3    7.00    3.00
  -6   1   3    6.30    2.70
   5  -1  -3  657.13   18.60
   5  -1  -3  624.44   17.80
   5  -1  -3  655.93   17.00
  -5   1   3  657.03   18.30
  -5   1   3  669.13   19.30
  -5   1   3  663.33   16.70
   4  -1  -3  113.99    6.20
   4  -1  -3  114.19    6.00
   4  -1  -3  112.79    5.40
  -4   1   3  106.29    5.20
  -4   1   3  104.19    6.10
  -4   1   3  103.59    5.80
   3  -1  -3   41.20    3.40
   3  -1  -3   45.90    3.20
   3  -1  -3   43.60    4.70
  -3   1   3   40.50    4.20
  -3   1   3   40.00    3.50
  -3   1   3   43.30    3.10
   2  -1  -3  861.91   18.10
   2  -1  -3  858.41   18.90
   2  -1  -3  842.32   18.20
  -2   1   3  821.12   18.70
  -2   1   3  868.91   18.00
  -2   1   3  834.22   18.30
   1  -1  -3  183.98    5.10
   1  -1  -3  186.28    5.60
   1  -1  -3  180.68    6.00
  -1   1   3  177.98    5.50
  -1   1   3  176.48    6.00
  -1   1   3  180.18    5.20
   0  -1  -3   29.60    2.50
   0  -1  -3   25.00    2.40
   0   1   3   20.50    1.90
   0   1   3   23.40    2.30
  -1  -1  -3   16.30    1.30
  -1  -1  -3   19.70    2.00
  -1  -1  -3   28.70    2.40
   1   1   3   20.50    2.00
   1   1   3   15.70    1.30
   1   1   3   24.10    2.10
  -2  -1  -3  191.38    5.30
  -2  -1  -3  189.28    5.60
  -2  -1  -3  187.88    5.60
   2   1   3  185.98    5.50
   2   1   3  186.38    5.40
  -3  -1  -3    6.40    1.50
  -3  -1  -3    5.10    1.80
  -3  -1  -3    9.70    1.60
   3   1   3    4.00    1.20
   3   1   3    8.20    1.80
   3   1   3    8.00    1.80
  -4  -1  -3   48.90    4.70
  -4  -1  -3   44.80    2.70
  -4  -1  -3   40.80    2.90
   4   1   3   44.40    2.90
   4   1   3   42.80    3.10
   4   1   3   42.30    3.60
  -5  -1  -3  408.86   13.30
  -5  -1  -3  388.46   10.60
   5   1   3  410.26   10.90
   5   1   3  399.86   11.20
   5   1   3  395.56   12.80
   5   1   3  396.66   11.10
  -6  -1  -3   -0.20    1.30
  -6  -1  -3    0.40    1.90
   6   1   3    3.30    1.80
   6   1   3    0.80    1.70
   6   1   3    1.50    1.70
  -7  -1  -3    4.30    2.80
  -7  -1  -3    9.20    2.40
   7   1   3    8.60    2.70
   7   1   3   10.30    3.20
   7   1   3   10.80    2.70
   7   1   3    8.10    2.60
  -8  -1  -3   32.90    5.80
  -8  -1  -3   27.50    3.80
   8   1   3   32.40    4.20
   8   1   3   32.00    4.50
   8   1   3   28.10    4.40
  -9  -1  -3   23.20    4.20
  -9  -1  -3   19.20    5.10
   9   1   3   28.20    4.20
   9   1   3   22.80    4.30
   9   1   3   25.10    5.30
   8  -2  -3   33.20    4.80
  -8   2   3   31.90    6.10
  -8   2   3   28.10    4.40
   7  -2  -3   70.29    6.30
   7  -2  -3   78.59    6.00
  -7   2   3   77.49    6.90
  -7   2   3   71.09    8.10
  -7   2   3   68.79    5.30
   6  -2  -3   30.30    4.80
   6  -2  -3   37.10    4.40
   6  -2  -3   35.60    5.20
  -6   2   3   38.90    5.20
  -6   2   3   35.00    5.50
  -6   2   3   40.20    4.40
   5  -2  -3  438.86   14.40
   5  -2  -3  466.45   13.10
   5  -2  -3  447.46   14.90
  -5   2   3  459.85   12.80
  -5   2   3  454.25   14.70
  -5   2   3  449.36   15.20
   4  -2  -3  555.64   15.60
   4  -2  -3  541.05   15.50
  -4   2   3  534.05   13.80
  -4   2   3  560.14   16.00
  -4   2   3  529.85   15.60
   3  -2  -3   38.00    4.20
   3  -2  -3   35.20    2.90
  -3   2   3   35.90    2.90
  -3   2   3   43.60    4.40
  -3   2   3   41.30    4.40
   2  -2  -3  487.45   12.60
   2  -2  -3  472.85   11.40
   2  -2  -3  476.95   11.80
  -2   2   3  455.75   11.80
  -2   2   3  468.05   11.30
  -2   2   3  477.75   12.60
   1  -2  -3   78.69    3.60
   1  -2  -3   89.19    4.20
   1  -2  -3   78.99    3.30
  -1   2   3   82.09    3.60
  -1   2   3   87.99    4.10
  -1   2   3   86.29    3.40
   0  -2  -3  179.18    5.40
   0  -2  -3  191.78    5.80
   0   2   3  188.28    5.70
   0   2   3  167.38    5.30
  -1  -2  -3  200.08    5.70
  -1  -2  -3  194.38    5.30
   1   2   3  191.78    5.40
  -2  -2  -3  327.27    8.00
  -2  -2  -3  333.37    8.80
  -2  -2  -3  342.17    7.60
   2   2   3  332.17    7.90
   2   2   3  334.87    8.90
   2   2   3  340.57    7.70
  -3  -2  -3  106.39    4.70
  -3  -2  -3  103.09    3.40
  -3  -2  -3  102.69    4.40
   3   2   3   99.49    4.60
   3   2   3   99.69    4.50
   3   2   3  105.99    3.60
  -4  -2  -3  305.87   10.00
  -4  -2  -3  318.87    9.20
   4   2   3  304.57    9.40
   4   2   3  324.97    8.00
  -5  -2  -3  753.22   19.60
  -5  -2  -3  734.33   17.40
   5   2   3  755.52   18.00
   5   2   3  738.13   16.50
   5   2   3  703.43   18.90
   5   2   3  748.13   16.20
  -6  -2  -3   59.69    6.40
  -6  -2  -3   63.49    4.40
   6   2   3   60.39    4.60
   6   2   3   66.89    3.90
   6   2   3   63.39    5.30
   6   2   3   63.39    4.10
  -7  -2  -3   29.70    5.20
  -7  -2  -3   18.70    3.20
   7   2   3   23.00    4.50
   7   2   3   22.10    3.30
   7   2   3   20.50    3.70
  -8  -2  -3   66.99    8.00
  -8  -2  -3   65.49    5.20
   8   2   3   67.59    6.00
   8   2   3   68.09    5.20
   8   2   3   62.99    4.60
  -9  -2  -3    8.90    3.70
  -9  -2  -3   12.30    3.30
   9   2   3   10.60    3.40
   9   2   3   12.00    3.30
   9   2   3    9.00    2.60
   8  -3  -3   29.40    4.60
  -8   3   3   20.50    5.20
  -8   3   3   21.30    3.90
   7  -3  -3   26.40    4.00
  -7   3   3   22.10    3.60
  -7   3   3   28.00    5.80
  -7   3   3   25.10    5.50
   6  -3  -3   65.49    4.90
   6  -3  -3   33.10    5.00
   6  -3  -3   37.00    5.20
  -6   3   3   43.50    4.50
  -6   3   3   52.59    6.60
  -6   3   3   46.40    6.00
   5  -3  -3  115.29    5.80
   5  -3  -3  107.89    7.00
   5  -3  -3  112.09    7.00
  -5   3   3  101.69    6.80
  -5   3   3  110.79    5.60
  -5   3   3  110.59    7.20
   4  -3  -3   93.79    5.90
   4  -3  -3  103.59    6.20
  -4   3   3  105.99    6.30
  -4   3   3   96.09    6.10
  -4   3   3  101.59    4.90
   3  -3  -3    5.20    1.80
   3  -3  -3    2.20    1.30
   3  -3  -3    3.50    1.60
  -3   3   3    2.30    1.30
  -3   3   3    4.50    1.90
  -3   3   3    2.80    1.70
   2  -3  -3   34.50    3.70
   2  -3  -3   36.40    3.50
   2  -3  -3   28.60    2.80
  -2   3   3   30.30    2.50
  -2   3   3   34.80    3.40
  -2   3   3   31.00    3.50
   1  -3  -3   42.20    2.60
   1  -3  -3   43.00    2.60
   1  -3  -3   43.70    3.20
  -1   3   3   41.40    2.70
  -1   3   3   43.40    2.70
  -1   3   3   43.70    3.20
   0  -3  -3  152.18    5.10
   0  -3  -3  143.69    5.10
   0  -3  -3  148.09    4.00
   0   3   3  147.59    4.00
   0   3   3  144.49    4.90
   0   3   3  136.49    5.00
  -1  -3  -3  110.89    4.30
  -1  -3  -3  110.99    4.70
  -1  -3  -3  113.39    3.10
  -1  -3  -3  104.89    3.70
   1   3   3  108.19    3.00
   1   3   3  107.39    3.80
  -2  -3  -3  466.45   11.90
  -2  -3  -3  489.65   10.80
  -2  -3  -3  483.05    9.80
   2   3   3  491.15   10.70
   2   3   3  485.15   12.10
   2   3   3  477.25    9.90
  -3  -3  -3   34.60    2.90
  -3  -3  -3   30.30    1.50
  -3  -3  -3   40.50    3.90
   3   3   3   34.50    2.70
   3   3   3   32.40    1.70
   3   3   3   49.50    4.70
  -4  -3  -3  379.16   11.00
  -4  -3  -3  375.66   11.40
   4   3   3  375.46    8.60
   4   3   3  379.46    8.40
   4   3   3  400.36   11.50
  -5  -3  -3  411.96   12.10
  -5  -3  -3  445.26   13.80
   5   3   3  453.75   13.10
   5   3   3  444.76   10.10
   5   3   3  424.66   13.10
   5   3   3  423.56   10.20
  -6  -3  -3   28.70    3.80
  -6  -3  -3   29.30    4.80
   6   3   3   27.50    2.70
   6   3   3   31.20    4.60
   6   3   3   30.00    4.20
   6   3   3   30.40    2.80
  -7  -3  -3    2.00    2.40
  -7  -3  -3    3.00    2.10
   7   3   3    5.00    1.80
   7   3   3    2.90    2.60
   7   3   3    3.20    2.30
   7   3   3    4.90    1.60
  -8  -3  -3  153.58   10.00
  -8  -3  -3  134.99    8.20
   8   3   3  145.19    6.60
   8   3   3  157.08    8.70
  -9  -3  -3    7.60    3.80
  -9  -3  -3    3.20    3.60
   9   3   3    7.60    2.40
   9   3   3    8.70    2.30
   9   3   3    8.00    3.30
   8  -4  -3   34.40    5.50
   8  -4  -3   38.70    5.10
  -8   4   3   33.50    4.50
  -8   4   3   27.40    6.00
   7  -4  -3    1.50    2.10
  -7   4   3    3.30    2.00
  -7   4   3    2.60    3.00
   6  -4  -3   -0.60    2.30
   6  -4  -3    1.80    2.20
   6  -4  -3   -1.80    1.70
  -6   4   3    0.90    1.80
  -6   4   3    1.30    2.70
  -6   4   3   -2.90    1.80
   5  -4  -3   46.60    5.70
   5  -4  -3   51.59    4.10
   5  -4  -3   51.89    6.40
  -5   4   3   49.10    6.00
  -5   4   3   56.69    4.00
  -5   4   3   41.30    5.50
   4  -4  -3  149.69    7.90
   4  -4  -3  170.28    8.10
  -4   4   3  159.08    8.10
  -4   4   3  160.38    8.20
  -4   4   3  153.28    6.20
   3  -4  -3   53.59    4.30
   3  -4  -3   55.39    4.50
   3  -4  -3   58.19    3.60
  -3   4   3   61.89    6.50
  -3   4   3   52.09    4.40
  -3   4   3   49.60    3.30
   2  -4  -3    2.90    1.70
   2  -4  -3    5.00    1.50
   2  -4  -3    7.00    1.90
  -2   4   3    4.20    1.40
  -2   4   3    5.40    1.90
  -2   4   3    3.00    1.60
   1  -4  -3  150.48    5.30
   1  -4  -3  142.89    6.00
   1  -4  -3  140.19    5.20
  -1   4   3  144.89    5.30
  -1   4   3  131.59    5.00
  -1   4   3  144.19    6.10
   0  -4  -3    1.10    0.90
   0  -4  -3    0.20    0.90
   0  -4  -3    0.80    0.90
   0   4   3    1.20    1.00
   0   4   3    0.50    1.00
  -1  -4  -3  486.25   12.30
  -1  -4  -3  488.35   10.90
  -1  -4  -3  483.25   10.30
   1   4   3  480.05   10.20
   1   4   3  483.95   10.90
  -2  -4  -3   53.69    2.90
  -2  -4  -3   59.89    2.30
  -2  -4  -3   54.09    3.60
   2   4   3   57.09    2.30
   2   4   3   54.89    2.90
   2   4   3   53.79    3.80
  -3  -4  -3   48.10    6.10
  -3  -4  -3   36.30    2.90
   3   4   3   35.50    2.80
   3   4   3   44.80    4.40
  -4  -4  -3 1436.36   30.70
  -4  -4  -3 1504.65   31.10
   4   4   3 1479.45   31.50
   4   4   3 1472.45   30.70
  -5  -4  -3   36.80    4.50
  -5  -4  -3   37.50    4.30
   5   4   3   34.70    4.50
   5   4   3   37.70    4.40
  -6  -4  -3   22.70    3.80
  -6  -4  -3   26.80    4.40
   6   4   3   22.60    2.20
   6   4   3   20.80    2.00
   6   4   3   19.40    3.80
   6   4   3   16.80    3.30
  -7  -4  -3    5.70    2.90
  -7  -4  -3    6.20    2.60
   7   4   3   10.80    1.80
   7   4   3    8.00    2.90
   7   4   3    4.70    1.50
   7   4   3   10.70    3.50
  -8  -4  -3    4.70    2.80
  -8  -4  -3    1.80    2.70
   8   4   3    5.10    1.50
   8   4   3    4.10    2.80
   8   4   3    3.40    1.60
  -9  -4  -3    5.80    4.00
   9   4   3    3.00    2.70
   9   4   3    5.00    1.70
   9   4   3    5.80    3.10
   8  -5  -3    1.80    3.10
   8  -5  -3    1.70    2.40
  -8   5   3    3.30    3.60
   7  -5  -3   11.10    3.90
   7  -5  -3   12.90    3.10
  -7   5   3    6.10    3.70
  -7   5   3   10.80    2.80
   6  -5  -3  128.09    6.60
  -6   5   3  121.49    8.80
  -6   5   3  135.19    6.50
   5  -5  -3    6.10    2.50
   5  -5  -3    5.70    2.00
  -5   5   3    5.50    1.90
  -5   5   3    4.80    2.80
  -5   5   3    5.10    2.60
   4  -5  -3  105.09    6.90
   4  -5  -3  100.09    6.50
  -4   5   3  100.59    6.70
  -4   5   3  102.19    5.00
  -4   5   3   92.09    6.60
   3  -5  -3  331.07   12.00
   3  -5  -3  331.27   11.20
   3  -5  -3  337.27    9.60
  -3   5   3  337.47   11.40
  -3   5   3  324.57   11.80
   2  -5  -3   90.99    5.60
   2  -5  -3   99.09    4.50
   2  -5  -3   89.79    5.80
  -2   5   3   89.19    4.20
  -2   5   3   90.39    5.50
  -2   5   3   94.39    5.20
   1  -5  -3  147.89    5.50
   1  -5  -3  140.29    9.40
   1  -5  -3  141.59    5.70
  -1   5   3  142.59    6.30
  -1   5   3  155.48    6.00
  -1   5   3  140.59    5.40
   0  -5  -3  190.98    6.90
   0  -5  -3  185.58    6.00
   0  -5  -3  186.08    6.40
   0  -5  -3  185.58    6.60
   0   5   3  176.68    6.50
  -1  -5  -3  320.57    8.10
  -1  -5  -3  324.07    9.70
  -1  -5  -3  313.67    8.40
   1   5   3  316.07    8.40
  -2  -5  -3 1030.90   21.30
  -2  -5  -3 1065.79   24.70
  -2  -5  -3 1061.49   19.90
   2   5   3 1017.80   19.80
   2   5   3 1055.29   21.10
   2   5   3 1022.40   23.30
  -3  -5  -3   49.30    3.50
  -3  -5  -3   48.60    3.80
   3   5   3   45.70    4.00
   3   5   3   54.19    3.50
  -4  -5  -3  225.08    9.60
  -4  -5  -3  218.28    8.40
   4   5   3  218.98    8.80
   4   5   3  212.38    7.90
  -5  -5  -3   24.50    3.80
  -5  -5  -3   24.30    3.90
   5   5   3   23.10    3.80
   5   5   3   28.60    4.00
  -6  -5  -3   -1.50    1.50
  -6  -5  -3    2.60    2.20
   6   5   3    2.40    2.40
   6   5   3    1.50    1.90
  -7  -5  -3   24.20    4.40
  -7  -5  -3   28.10    5.40
   7   5   3   30.10    4.90
   7   5   3   27.10    4.70
  -8  -5  -3   12.00    4.10
   8   5   3    7.30    3.50
  -9  -5  -3    6.00    3.90
   9   5   3    2.10    2.90
   7  -6  -3   39.60    4.70
   7  -6  -3   52.49    6.80
  -7   6   3   48.20    7.10
  -7   6   3   48.80    4.90
   6  -6  -3   67.69    4.80
  -6   6   3   63.19    4.60
  -6   6   3   75.89    8.50
   5  -6  -3   15.40    2.80
   5  -6  -3   13.30    3.80
   5  -6  -3    4.60    2.80
  -5   6   3   12.70    2.60
  -5   6   3   15.10    3.90
   4  -6  -3  174.38    6.90
   4  -6  -3  174.78    8.90
   4  -6  -3  171.78   11.00
  -4   6   3  172.18    6.70
  -4   6   3  175.58    9.40
  -4   6   3  171.68    9.00
   3  -6  -3  237.98    7.90
   3  -6  -3  227.28   10.00
   3  -6  -3  228.28    9.50
  -3   6   3  230.28    7.60
  -3   6   3  219.88    9.90
  -3   6   3  230.08    9.60
   2  -6  -3  104.99    6.20
   2  -6  -3  102.19    5.70
   2  -6  -3  100.99    4.70
  -2   6   3  102.79    6.20
   1  -6  -3    4.60    1.50
   1  -6  -3    3.20    1.50
   1  -6  -3    0.80    1.40
   1  -6  -3    2.40    1.50
  -1   6   3    2.30    1.50
   0  -6  -3   80.69    4.60
   0  -6  -3   70.59    4.00
   0  -6  -3   74.49    4.10
   0   6   3   73.09    4.40
  -1  -6  -3  222.38    7.00
  -1  -6  -3  223.78    8.20
  -1  -6  -3  238.68    7.30
  -1  -6  -3  228.58    7.40
   1   6   3  238.18    7.30
  -2  -6  -3   16.60    2.40
  -2  -6  -3   13.70    1.70
  -2  -6  -3   22.20    3.30
   2   6   3   16.40    2.30
   2   6   3   14.80    3.00
  -3  -6  -3  428.26   11.90
  -3  -6  -3  441.46   12.90
   3   6   3  429.16   11.60
   3   6   3  433.96   13.30
  -4  -6  -3    1.00    1.60
  -4  -6  -3    2.40    1.60
   4   6   3    0.00    1.50
   4   6   3    1.80    1.40
  -5  -6  -3   57.09    4.80
  -5  -6  -3   63.09    5.10
   5   6   3   58.19    4.60
   5   6   3   62.49    6.50
  -6  -6  -3   44.80    5.70
   6   6   3   48.40    6.10
   6   6   3   44.40    5.40
  -7  -6  -3   50.59    6.00
  -7  -6  -3   61.69    7.30
   7   6   3   59.79    6.70
   7   6   3   59.59    7.40
  -8  -6  -3    5.10    3.30
   8   6   3    4.40    3.20
  -9  -6  -3    9.20    4.10
   9   6   3    6.00    3.40
   7  -7  -3   55.79    7.00
   7  -7  -3   89.29    5.80
  -7   7   3   74.29    9.00
  -7   7   3   69.29    5.40
   6  -7  -3   52.09    6.70
   6  -7  -3   66.59    4.80
  -6   7   3   44.60    6.70
  -6   7   3   67.19    4.70
   5  -7  -3   -1.30    2.10
   5  -7  -3    0.10    1.50
  -5   7   3    1.50    1.80
  -5   7   3   -0.40    2.30
   4  -7  -3   20.80    4.10
   4  -7  -3   15.50    3.70
   4  -7  -3   15.00    2.60
  -4   7   3   19.10    4.20
  -4   7   3   19.90    3.00
   3  -7  -3   71.59    5.60
   3  -7  -3   74.39    6.00
   3  -7  -3   62.59    5.10
  -3   7   3   69.69    4.20
  -3   7   3   63.69    5.70
  -3   7   3   71.29    5.70
   2  -7  -3    5.60    2.00
   2  -7  -3    7.60    2.60
   2  -7  -3    6.00    2.20
  -2   7   3    4.30    2.50
  -2   7   3    6.90    2.40
   1  -7  -3    1.90    1.50
   1  -7  -3    1.30    1.50
   1  -7  -3    2.90    1.70
   1  -7  -3    0.10    1.40
  -1   7   3    2.80    1.60
  -1   7   3    2.80    1.70
   0  -7  -3   19.50    3.20
   0  -7  -3   19.50    2.90
   0  -7  -3   17.10    2.80
   0  -7  -3   23.80    3.50
   0  -7  -3   22.10    2.80
   0   7   3   22.80    3.30
  -1  -7  -3  261.47    8.40
  -1  -7  -3  260.97    8.70
  -1  -7  -3  252.17    9.20
  -1  -7  -3  261.57    8.20
  -2  -7  -3  250.17    9.40
  -2  -7  -3  279.27    8.80
  -2  -7  -3  271.47    7.00
  -2  -7  -3  261.67    7.40
   2   7   3  258.37    8.40
   2   7   3  259.97    9.90
  -3  -7  -3  306.87   10.70
   3   7   3  306.87    9.60
   3   7   3  312.27   11.30
  -4  -7  -3   -0.10    1.70
  -4  -7  -3    0.40    1.50
   4   7   3    1.30    1.80
   4   7   3   -0.10    1.20
  -5  -7  -3  121.29    7.00
  -5  -7  -3  120.09    7.00
   5   7   3  126.89    7.70
   5   7   3  122.89    6.70
  -6  -7  -3   12.60    3.50
  -6  -7  -3   14.30    3.80
   6   7   3   10.40    3.40
   6   7   3   12.80    3.70
  -7  -7  -3   83.99    8.60
   7   7   3   58.19    7.10
  -8  -7  -3    2.20    3.00
   8   7   3    8.30    3.50
  -9  -7  -3   18.80    5.30
   9   7   3   11.90    4.00
   7  -8  -3   16.00    3.30
   7  -8  -3   32.00    5.90
  -7   8   3   19.10    3.40
  -7   8   3   20.30    5.60
   6  -8  -3    2.60    2.90
   6  -8  -3    2.10    1.80
  -6   8   3    3.90    2.20
  -6   8   3    4.80    3.50
   5  -8  -3    7.10    2.10
   5  -8  -3   10.10    3.50
  -5   8   3    2.60    1.90
   4  -8  -3   40.60    5.40
   4  -8  -3   34.00    5.30
   4  -8  -3   27.00    6.30
   4  -8  -3   28.30    3.40
  -4   8   3   37.60    5.60
   3  -8  -3   54.69    4.00
   3  -8  -3   54.09    6.00
   3  -8  -3   56.79    4.50
   3  -8  -3   51.49    6.00
   3  -8  -3   56.79    6.40
  -3   8   3   50.59    6.00
   2  -8  -3  105.89    5.80
   2  -8  -3  110.69    6.70
   2  -8  -3  111.99    5.40
   2  -8  -3   88.49    6.50
  -2   8   3  118.29    6.90
   1  -8  -3    0.20    1.40
   1  -8  -3    1.80    1.50
   1  -8  -3   -0.80    1.30
   1  -8  -3    3.50    2.10
  -1   8   3    0.50    1.50
   0  -8  -3  254.17    8.60
   0  -8  -3  239.38    9.10
   0  -8  -3  239.28    9.20
   0  -8  -3  229.48    8.50
   0  -8  -3  254.17    8.70
   0  -8  -3  257.57    9.40
  -1  -8  -3   78.79    4.90
  -1  -8  -3   81.69    4.70
  -1  -8  -3   76.99    5.10
  -1  -8  -3   78.19    4.20
  -2  -8  -3   80.09    5.50
  -2  -8  -3   88.99    3.90
  -2  -8  -3   86.69    4.30
  -2  -8  -3   86.89    5.00
   2   8   3   88.39    4.90
   2   8   3   86.99    5.90
  -3  -8  -3  329.47   11.60
  -3  -8  -3  326.67   10.90
  -3  -8  -3  328.47    7.60
  -3  -8  -3  331.47    7.90
   3   8   3  321.27   12.00
   3   8   3  337.77   10.60
  -4  -8  -3   81.79    5.90
  -4  -8  -3   79.39    5.50
   4   8   3   74.09    6.00
   4   8   3   78.39    5.20
  -5  -8  -3    2.70    2.10
  -5  -8  -3    3.30    2.30
   5   8   3    4.50    2.80
   5   8   3    4.30    2.30
  -6  -8  -3  135.19    8.50
   6   8   3  130.19    8.70
   6   8   3  140.29    8.00
  -7  -8  -3    7.20    4.70
   7   8   3    8.60    3.30
  -8  -8  -3    5.40    3.50
   8   8   3    1.30    3.30
   6  -9  -3    2.00    2.20
   6  -9  -3   -0.20    2.20
  -6   9   3    3.00    3.50
   5  -9  -3    9.60    3.20
   5  -9  -3   12.60    3.10
   5  -9  -3    7.20    2.30
  -5   9   3    7.00    3.80
   4  -9  -3   49.10    6.00
   4  -9  -3   34.80    5.50
   4  -9  -3   45.20    4.90
   4  -9  -3   39.90    4.10
  -4   9   3   45.90    6.40
   3  -9  -3   16.20    6.20
   3  -9  -3   15.80    3.30
   3  -9  -3   21.20    3.10
   3  -9  -3   14.50    3.10
   3  -9  -3    6.50    2.90
  -3   9   3   19.50    4.30
   2  -9  -3   63.69    7.50
   2  -9  -3   61.89    5.10
   2  -9  -3   56.69    4.60
   2  -9  -3   55.39    6.00
   2  -9  -3   50.69    4.10
  -2   9   3   60.39    5.40
   1  -9  -3  168.88    8.30
   1  -9  -3  157.18    8.30
   1  -9  -3  156.78    6.90
   1  -9  -3  163.98    7.70
   1  -9  -3  165.88    7.60
   0  -9  -3   41.20    4.70
   0  -9  -3   52.29    4.50
   0  -9  -3   44.60    5.00
   0  -9  -3   38.90    4.20
   0  -9  -3   44.10    4.60
   0  -9  -3   50.39    4.00
  -1  -9  -3   85.79    5.20
  -1  -9  -3   86.59    5.60
  -1  -9  -3   81.09    5.10
  -1  -9  -3   84.79    5.60
  -2  -9  -3  765.82   19.30
  -2  -9  -3  734.83   19.90
  -2  -9  -3  749.13   16.80
  -2  -9  -3  762.32   17.70
   2   9   3  767.72   20.80
  -3  -9  -3    7.10    2.60
  -3  -9  -3    9.40    1.50
  -3  -9  -3    5.60    2.20
  -3  -9  -3    5.50    1.40
   3   9   3    5.10    2.10
   3   9   3    8.10    2.80
  -4  -9  -3    9.20    3.00
  -4  -9  -3   12.20    3.10
   4   9   3    5.80    2.60
   4   9   3    7.70    2.30
  -5  -9  -3   47.90    5.80
  -5  -9  -3   48.20    5.90
   5   9   3   50.09    6.60
   5   9   3   50.79    5.80
  -6  -9  -3   18.60    4.40
   6   9   3   21.50    4.20
   6   9   3   15.80    4.50
  -7  -9  -3    8.10    3.70
   7   9   3    5.80    3.40
  -8  -9  -3   35.60    6.60
   8   9   3   30.30    5.80
   6 -10  -3    7.80    2.90
   6 -10  -3   10.50    3.80
   6 -10  -3    9.90    2.60
  -6  10   3    7.10    4.50
   5 -10  -3   40.90    4.80
   5 -10  -3   49.20    4.20
   5 -10  -3   32.70    5.80
  -5  10   3   34.50    6.20
   4 -10  -3   14.40    3.70
   4 -10  -3   23.90    3.50
   4 -10  -3   25.90    3.90
  -4  10   3   22.40    5.00
   3 -10  -3   26.30    3.50
   3 -10  -3   25.20    5.00
   3 -10  -3   18.30    3.30
  -3  10   3   23.90    4.60
   2 -10  -3   94.39   12.20
   2 -10  -3   85.09    6.30
   2 -10  -3   75.29    5.00
   2 -10  -3   74.89    6.70
   2 -10  -3   78.19    5.60
  -2  10   3   73.79    6.40
   1 -10  -3  128.39    7.10
   1 -10  -3  124.79    7.00
   1 -10  -3  110.89    7.40
   1 -10  -3  119.29    6.70
   1 -10  -3  124.99    7.70
   1 -10  -3  121.09    6.30
   0 -10  -3   54.59    4.60
   0 -10  -3   64.79    4.80
   0 -10  -3   54.99    5.80
   0 -10  -3   60.39    4.90
   0 -10  -3   55.39    5.70
   0 -10  -3   58.39    5.20
  -1 -10  -3  175.08    8.60
  -1 -10  -3  189.78    8.20
  -1 -10  -3  185.88    7.50
  -1 -10  -3  188.18    8.80
  -1 -10  -3  177.58    8.00
  -2 -10  -3   85.19    6.10
  -2 -10  -3   79.49    6.00
  -2 -10  -3   89.79    4.70
  -2 -10  -3   79.99    5.80
  -2 -10  -3   95.59    6.00
   2  10   3   81.29    6.50
  -3 -10  -3   69.49    7.20
  -3 -10  -3   51.79    3.10
  -3 -10  -3   53.49    5.60
  -3 -10  -3   56.19    3.50
   3  10   3   48.90    5.90
   3  10   3   51.29    4.50
  -4 -10  -3  103.09    6.90
  -4 -10  -3  106.99    7.30
   4  10   3  112.89    6.70
   4  10   3  111.29    7.90
  -5 -10  -3   39.00    5.50
   5  10   3   39.70    5.30
   5  10   3   33.40    5.60
  -6 -10  -3   88.19    7.40
   6  10   3  100.49    8.30
  -7 -10  -3    4.00    3.50
   7  10   3    5.10    3.30
  -8 -10  -3    2.20    3.70
   8  10   3    3.90    3.90
   5 -11  -3   44.50    4.50
   5 -11  -3   39.40    6.30
   5 -11  -3   38.00    4.60
  -5  11   3   43.70    7.20
   4 -11  -3   14.40    3.30
   4 -11  -3   16.60    3.10
   4 -11  -3   17.70    4.50
  -4  11   3   15.70    4.30
   3 -11  -3    8.80    3.40
   3 -11  -3   12.20    3.20
   3 -11  -3   11.20    2.80
   2 -11  -3   56.29    4.60
   2 -11  -3   64.29    5.30
   2 -11  -3   50.19    6.40
   2 -11  -3   56.89    6.00
   1 -11  -3  197.58    9.10
   1 -11  -3  206.68    8.70
   1 -11  -3  194.78   10.80
   1 -11  -3  197.68    9.30
   1 -11  -3  196.58   10.20
   1 -11  -3  199.28    9.50
   0 -11  -3   -0.20    2.00
   0 -11  -3   -0.70    1.90
   0 -11  -3   -1.90    1.90
   0 -11  -3    1.80    1.80
   0 -11  -3    1.80    2.10
   0 -11  -3   -1.70    2.00
  -1 -11  -3   31.80    4.40
  -1 -11  -3   38.00    4.90
  -1 -11  -3   40.50    6.30
  -1 -11  -3   44.20    5.80
  -1 -11  -3   35.00    4.00
  -2 -11  -3  171.58    6.90
  -2 -11  -3  170.78    7.60
  -2 -11  -3  174.98    8.90
  -2 -11  -3  168.28    8.50
  -2 -11  -3  156.18    8.70
   2  11   3  178.38    9.60
  -3 -11  -3    7.80    2.80
  -3 -11  -3   13.50    2.20
  -3 -11  -3   14.80    2.50
  -3 -11  -3   13.20    3.60
   3  11   3   12.00    3.90
  -4 -11  -3   20.10    4.20
   4  11   3   18.50    5.20
   4  11   3   12.40    3.40
  -5 -11  -3   14.00    3.70
   5  11   3   23.30    5.20
   5  11   3   20.00    4.20
  -6 -11  -3   25.20    5.20
   6  11   3   21.30    4.80
  -7 -11  -3   37.20    6.50
   7  11   3   19.30    5.00
   4 -12  -3    6.30    2.50
   4 -12  -3   12.90    4.20
   4 -12  -3    7.90    2.90
  -4  12   3    1.90    2.80
   3 -12  -3    3.80    2.70
   3 -12  -3    4.90    2.30
   3 -12  -3    1.50    2.30
  -3  12   3    1.10    2.90
   2 -12  -3   37.10    4.50
   2 -12  -3   34.20    4.90
   2 -12  -3   29.70    4.70
   1 -12  -3   34.40    5.80
   1 -12  -3   52.69    6.20
   1 -12  -3   56.29    5.60
   1 -12  -3   52.19    6.00
   1 -12  -3   39.50    6.20
   1 -12  -3   54.09    6.20
   0 -12  -3    0.80    1.70
   0 -12  -3   -1.50    2.00
   0 -12  -3   -2.40    1.80
   0 -12  -3    0.00    1.90
   0 -12  -3   -0.40    1.80
   0 -12  -3    2.80    2.30
  -1 -12  -3    4.60    2.30
  -1 -12  -3    5.20    2.90
  -1 -12  -3    3.20    2.50
  -1 -12  -3    4.70    2.10
  -1 -12  -3    3.20    2.50
  -1 -12  -3    1.70    2.60
  -2 -12  -3    4.20    2.70
  -2 -12  -3    2.00    2.20
  -2 -12  -3    3.20    2.60
  -2 -12  -3    5.50    2.50
  -2 -12  -3    3.20    1.90
   2  12   3    3.40    2.70
  -3 -12  -3   74.79    5.00
  -3 -12  -3   86.19    4.70
  -3 -12  -3   79.09    6.60
  -3 -12  -3   70.99    7.60
   3  12   3  100.39    8.80
  -4 -12  -3    3.20    1.30
  -4 -12  -3    6.30    1.70
  -4 -12  -3    0.60    2.40
   4  12   3    3.20    3.50
   4  12   3    1.90    2.30
  -5 -12  -3   79.79    7.00
   5  12   3   67.89    8.10
  -6 -12  -3   10.70    3.90
   6  12   3    5.00    3.70
  -7 -12  -3    2.30    3.30
   7  12   3   10.90    4.70
   3 -13  -3    2.40    2.30
   3 -13  -3    2.60    2.70
   3 -13  -3   -0.50    2.40
   2 -13  -3   -1.00    2.20
   2 -13  -3   -1.00    1.90
   2 -13  -3    0.60    2.40
   2 -13  -3   -1.60    2.40
   1 -13  -3   50.89    6.60
   1 -13  -3   53.19    5.70
   1 -13  -3   46.00    5.70
   1 -13  -3   51.19    6.30
   0 -13  -3    2.90    2.80
   0 -13  -3    2.50    2.50
   0 -13  -3    5.80    3.10
   0 -13  -3    2.00    1.80
  -1 -13  -3   83.59    6.60
  -1 -13  -3   85.49    6.50
  -1 -13  -3   84.19    5.90
  -1 -13  -3   64.59    7.80
  -2 -13  -3   25.00    3.70
  -2 -13  -3   40.00    5.20
  -2 -13  -3   31.10    4.70
  -3 -13  -3    0.10    1.30
  -3 -13  -3   -0.50    1.70
   3  13   3    2.80    3.10
  -4 -13  -3   87.19    7.40
  -4 -13  -3   83.99    4.40
  -4 -13  -3   93.29    4.20
   4  13   3   80.29    9.10
  -5 -13  -3   -1.80    2.20
   5  13   3   -2.40    2.10
  -6 -13  -3   37.00    6.40
   6  13   3   23.20    5.30
   2 -14  -3    5.60    3.10
   2 -14  -3    3.90    2.80
   2 -14  -3    2.90    2.90
   2 -14  -3    3.60    2.70
   1 -14  -3    1.30    2.70
   1 -14  -3    3.20    2.50
   1 -14  -3    0.80    3.10
   1 -14  -3    0.50    2.30
   0 -14  -3  112.09    8.20
   0 -14  -3  108.49    7.50
   0 -14  -3  107.49    8.80
  -1 -14  -3    0.60    2.00
  -1 -14  -3    1.40    2.60
  -1 -14  -3    2.30    2.50
  -1 -14  -3    0.30    2.30
  -2 -14  -3    1.70    2.60
  -2 -14  -3    1.90    1.90
  -2 -14  -3    3.50    2.80
  -3 -14  -3   86.89    7.40
  -3 -14  -3   77.89    5.10
  -3 -14  -3   73.89    5.60
   3  14   3   69.29    8.70
  -4 -14  -3   31.60    3.70
  -4 -14  -3   34.90    5.90
  -4 -14  -3   36.50    3.10
   4  14   3   19.60    5.00
  -5 -14  -3    3.80    3.40
   5  14   3    6.10    3.40
   0 -15  -3   26.60    4.70
   0 -15  -3   32.40    5.30
   0 -15  -3   43.40    6.30
  -1 -15  -3   30.80    5.50
  -1 -15  -3   30.40    5.10
  -2 -15  -3   10.00    3.80
  -2 -15  -3   15.40    4.20
  -2 -15  -3   14.00    3.30
  -2 -15  -3   15.50    4.20
  -3 -15  -3    9.20    3.20
  -3 -15  -3    8.20    2.40
  -3 -15  -3   11.60    4.10
   3  15   3   14.30    5.00
   3  13  -4   16.00    4.50
  -3 -13   4   32.30    6.20
  -3 -13   4   32.70    5.10
   2  13  -4   -2.80    2.40
  -2 -13   4    0.30    2.20
  -2 -13   4    1.90    2.90
   1  13  -4   40.50    5.80
  -1 -13   4   33.90    5.80
  -1 -13   4   32.60    6.00
   0  13  -4   40.40    5.50
   0 -13   4   40.40    5.80
   0 -13   4   41.30    6.50
   0 -13   4   30.50    4.30
  -1  13  -4   -1.10    2.20
   1 -13   4   -1.60    2.50
   1 -13   4    2.40    2.30
   1 -13   4    0.70    2.30
   5  12  -4   13.80    3.10
   4  12  -4   30.60    6.00
  -4 -12   4   17.00    4.80
  -4 -12   4   20.00    3.90
   3  12  -4    9.40    3.70
   3  12  -4   21.90    4.10
  -3 -12   4   14.40    4.60
  -3 -12   4   12.70    3.40
   2  12  -4   11.40    3.10
  -2 -12   4   14.30    4.40
  -2 -12   4   12.80    3.70
   1  12  -4  102.09    7.30
  -1 -12   4   89.79    6.60
  -1 -12   4   97.79    8.10
   0  12  -4   24.80    4.50
   0 -12   4   16.90    3.50
   0 -12   4   12.60    3.70
   0 -12   4   24.20    5.10
  -1  12  -4   12.50    3.40
   1 -12   4   11.70    2.80
   1 -12   4   12.10    3.90
   1 -12   4    8.50    3.60
   2 -12   4   17.60    2.80
   2 -12   4   23.90    5.10
   2 -12   4   28.30    5.40
   3 -12   4   28.90    5.50
   3 -12   4   64.89    8.00
   5  11  -4   65.49    5.00
   5  11  -4   67.29    8.00
  -5 -11   4   49.70    7.40
  -5 -11   4   54.99    5.00
   4  11  -4   31.70    4.10
   4  11  -4   33.00    5.60
  -4 -11   4   40.00    5.00
  -4 -11   4   33.80    6.20
   3  11  -4   23.90    5.00
   3  11  -4   21.10    3.90
  -3 -11   4   23.00    4.90
  -3 -11   4   19.60    3.80
   2  11  -4   90.09    6.30
   2  11  -4   76.29    6.60
  -2 -11   4   72.49    6.10
  -2 -11   4   84.29    6.40
  -2 -11   4   81.19    7.30
   1  11  -4   77.39    6.30
   1  11  -4   76.59    6.10
  -1 -11   4   81.59    7.10
  -1 -11   4   82.09    6.60
   0  11  -4   50.09    5.50
   0 -11   4   57.29    7.00
   0 -11   4   43.40    4.70
   0 -11   4   46.90    6.20
  -1  11  -4    3.70    2.20
   1 -11   4    5.40    3.10
   1 -11   4    7.80    2.50
   1 -11   4   10.70    3.90
   2 -11   4    0.90    2.20
   2 -11   4    1.60    2.30
   2 -11   4    2.40    2.30
   3 -11   4   27.20    5.20
   3 -11   4   34.20    5.90
   4 -11   4    1.40    3.00
   6  10  -4   27.40    3.70
   6  10  -4   23.10    5.30
  -6 -10   4   28.50    5.90
  -6 -10   4   26.00    4.00
   5  10  -4   42.60    4.50
   5  10  -4   27.20    4.90
  -5 -10   4   43.10    6.60
  -5 -10   4   39.00    4.60
   4  10  -4  137.59    8.80
   4  10  -4  132.99    6.70
  -4 -10   4  129.89    7.20
  -4 -10   4  114.69    8.70
   3  10  -4    1.00    1.80
   3  10  -4   -3.80    1.70
  -3 -10   4   -3.20    1.50
  -3 -10   4   -2.20    2.10
   2  10  -4    7.90    3.10
   2  10  -4    9.50    2.80
  -2 -10   4    8.70    2.80
  -2 -10   4    9.70    3.40
  -2 -10   4    6.20    2.60
   1  10  -4   56.59    5.90
   1  10  -4   55.29    7.00
  -1 -10   4   46.40    4.90
  -1 -10   4   54.79    6.10
   0  10  -4    9.50    2.70
   0  10  -4    2.20    2.40
   0 -10   4    4.30    2.50
   0 -10   4    6.60    2.50
  -1  10  -4    1.20    1.90
   1 -10   4    3.80    2.20
   1 -10   4    6.50    3.20
   1 -10   4   -0.20    1.70
   2 -10   4  128.29    8.50
   2 -10   4  134.29    8.90
   2 -10   4  138.69    5.30
   3 -10   4    0.40    2.10
   3 -10   4    1.80    2.00
  -4  10  -4    0.70    2.90
   4 -10   4   -0.50    2.20
  -5  10  -4   51.29    7.70
   5 -10   4   41.70    6.50
   7   9  -4   -0.70    2.70
   7   9  -4    4.40    2.10
  -7  -9   4    3.70    2.30
  -7  -9   4   -0.40    2.70
   6   9  -4   21.50    5.00
   6   9  -4   23.50    3.60
  -6  -9   4   23.80    3.70
  -6  -9   4   25.80    5.30
   5   9  -4   34.90    4.10
   5   9  -4   41.10    6.30
  -5  -9   4   32.50    5.60
  -5  -9   4   41.60    4.80
   4   9  -4   10.20    2.60
  -4  -9   4   14.70    3.20
  -4  -9   4   13.00    3.80
   3   9  -4   -0.50    2.20
   3   9  -4    3.00    1.90
  -3  -9   4    2.50    2.50
  -3  -9   4    2.10    2.40
  -3  -9   4    1.50    1.70
   2   9  -4  105.19    6.10
   2   9  -4   99.19    6.60
  -2  -9   4  101.49    6.40
  -2  -9   4  108.49    6.60
  -2  -9   4  110.19    7.50
   1   9  -4   -0.10    1.90
   1   9  -4    2.30    1.90
  -1  -9   4    1.50    2.40
  -1  -9   4    1.30    2.20
  -1  -9   4    2.50    1.90
  -1  -9   4    3.90    2.10
   0   9  -4    5.30    2.20
   0   9  -4    1.40    2.30
   0  -9   4    5.00    2.70
   0  -9   4    3.20    2.50
   0  -9   4    5.30    2.00
   0  -9   4    1.20    1.90
  -1   9  -4  211.98    7.80
  -1   9  -4  194.38    9.20
   1  -9   4  199.08   10.70
   1  -9   4  202.28    7.20
   1  -9   4  206.28   10.20
   1  -9   4  197.38    9.80
  -2   9  -4   15.60    3.80
  -2   9  -4   20.90    2.60
   2  -9   4   15.50    3.50
   2  -9   4   13.90    2.10
   2  -9   4   19.60    4.20
   3  -9   4   27.80    4.50
  -4   9  -4   74.89    8.70
   4  -9   4  117.29    8.30
  -5   9  -4   45.40    7.00
   5  -9   4   57.29    7.30
  -6   9  -4   -4.80    2.40
   6  -9   4   -1.40    2.20
   7   8  -4    1.40    2.60
   7   8  -4    3.70    2.00
  -7  -8   4    5.00    2.20
  -7  -8   4    3.90    3.40
   6   8  -4   70.79    7.70
   6   8  -4   90.89    5.40
  -6  -8   4   92.99    8.10
  -6  -8   4   88.29    5.70
   5   8  -4    0.10    2.30
   5   8  -4    0.50    1.30
  -5  -8   4   -1.50    1.40
  -5  -8   4    1.90    2.50
   4   8  -4   18.20    4.20
   4   8  -4   24.10    3.40
  -4  -8   4   15.80    3.10
  -4  -8   4   13.50    3.50
  -4  -8   4   21.80    4.40
   3   8  -4  101.29    6.80
   3   8  -4   96.09    5.60
   3   8  -4  109.69    7.00
  -3  -8   4  108.09    7.40
  -3  -8   4  116.19    6.30
  -3  -8   4  100.29    7.10
   2   8  -4    3.00    1.80
   2   8  -4    0.20    1.50
   2   8  -4    0.40    1.80
  -2  -8   4    0.40    1.60
  -2  -8   4    1.20    1.80
  -2  -8   4    3.60    2.60
   1   8  -4  128.29    6.60
   1   8  -4  120.09    6.40
  -1  -8   4  126.29    6.90
  -1  -8   4  114.29    6.00
  -1  -8   4  124.09    7.30
  -1  -8   4  120.49   14.10
   0   8  -4  103.39    6.00
   0   8  -4   96.39    5.30
   0  -8   4   93.69    8.10
   0  -8   4  105.99    6.70
   0  -8   4  103.39    6.40
   0  -8   4   93.89    5.00
  -1   8  -4   53.39    3.80
  -1   8  -4   58.89    5.00
   1  -8   4   59.69    5.20
   1  -8   4   61.99    5.20
   1  -8   4   52.09    6.50
   1  -8   4   48.90    3.40
  -2   8  -4   76.49    5.80
  -2   8  -4   77.59    3.80
   2  -8   4   79.49    6.80
   2  -8   4   77.39    3.50
   2  -8   4   80.39    6.30
   2  -8   4   80.79    6.10
  -3   8  -4    8.90    3.40
  -3   8  -4    7.10    2.80
   3  -8   4    8.40    3.40
   3  -8   4   12.10    3.40
  -4   8  -4   44.50    6.50
   4  -8   4   44.10    5.90
  -5   8  -4   25.50    5.50
   5  -8   4   23.00    4.70
  -6   8  -4    4.10    3.80
   6  -8   4    4.30    3.10
   8   7  -4    0.20    1.70
   8   7  -4   -0.90    2.80
  -8  -7   4   -0.10    2.80
  -8  -7   4   -1.00    1.90
   7   7  -4   29.40    4.00
   7   7  -4   28.80    5.70
  -7  -7   4   27.20    5.80
  -7  -7   4   29.20    4.10
   6   7  -4   38.20    5.90
   6   7  -4   45.20    4.00
  -6  -7   4   39.00    4.60
  -6  -7   4   35.00    6.00
   5   7  -4    2.70    1.70
   5   7  -4    2.90    4.00
  -5  -7   4    2.00    3.70
  -5  -7   4    2.10    1.60
   4   7  -4   24.20    4.30
   4   7  -4   22.60    3.30
   4   7  -4   19.70    3.90
  -4  -7   4   22.10    3.60
  -4  -7   4   20.20    3.30
  -4  -7   4   28.40    4.80
   3   7  -4   26.10    6.50
   3   7  -4   17.70    3.50
   3   7  -4   25.70    3.40
  -3  -7   4   29.60    4.80
  -3  -7   4   21.00    3.40
  -3  -7   4   24.20    3.80
   2   7  -4  208.48    8.70
   2   7  -4  208.08    8.00
   2   7  -4  203.98    9.00
  -2  -7   4  202.58    8.40
  -2  -7   4  205.28    8.30
  -2  -7   4  198.78    9.20
   1   7  -4   18.90    3.00
   1   7  -4   19.20    3.20
  -1  -7   4   21.00    3.50
  -1  -7   4   18.50    2.90
  -1  -7   4   21.40    3.60
   0   7  -4  306.97    9.60
   0   7  -4  307.77   10.60
   0  -7   4  300.67    9.20
   0  -7   4  313.77   12.10
   0  -7   4  307.57   11.30
   0  -7   4  312.57   11.20
  -1   7  -4   61.69    4.70
  -1   7  -4   65.99    3.80
   1  -7   4   67.69    5.20
   1  -7   4   68.19    5.80
   1  -7   4   59.09    4.90
   1  -7   4   65.39    3.50
  -2   7  -4   88.69    5.80
  -2   7  -4   90.69    3.80
   2  -7   4  102.09    6.50
   2  -7   4   94.49    3.60
   2  -7   4   93.39    6.80
  -3   7  -4   55.89    6.50
  -3   7  -4   51.49    5.50
   3  -7   4   41.30    5.70
   3  -7   4   49.10    5.30
  -4   7  -4   48.20    6.40
  -4   7  -4   38.10    5.70
   4  -7   4   55.49    6.30
   4  -7   4   47.50    6.50
  -5   7  -4    0.80    2.60
   5  -7   4    2.90    2.30
  -6   7  -4   12.70    4.50
   6  -7   4   17.70    4.20
  -7   7  -4   12.60    5.00
   7  -7   4   14.20    4.00
   8   6  -4   -0.30    1.80
   8   6  -4    1.70    2.70
  -8  -6   4    0.20    2.90
  -8  -6   4    1.30    2.10
   7   6  -4   56.79    7.20
   7   6  -4   73.29    5.20
  -7  -6   4   82.09    5.70
  -7  -6   4   91.59   10.30
   6   6  -4   12.50    4.00
   6   6  -4   16.90    3.00
  -6  -6   4   19.00    4.70
  -6  -6   4   21.20    3.60
   5   6  -4    4.70    2.30
   5   6  -4   -0.50    1.30
   5   6  -4    0.60    1.90
  -5  -6   4   -1.80    1.40
  -5  -6   4   -0.90    1.60
  -5  -6   4    1.90    1.60
   4   6  -4   90.09    5.10
   4   6  -4   92.69    8.20
   4   6  -4   99.59    6.60
  -4  -6   4  106.19    7.00
  -4  -6   4   94.39    5.50
   3   6  -4  160.98    7.90
   3   6  -4  164.88    7.00
   3   6  -4  193.98    8.50
  -3  -6   4  172.08    7.70
  -3  -6   4  162.48    8.30
  -3  -6   4  172.88    7.40
   2   6  -4  177.58    7.10
   2   6  -4  180.78    8.00
   2   6  -4  178.28    7.70
  -2  -6   4  168.48    7.20
  -2  -6   4  180.48    7.50
  -2  -6   4  174.58    8.10
   1   6  -4  135.29    6.30
   1   6  -4  139.69    6.80
   1   6  -4  145.69    6.40
  -1  -6   4  135.49    6.60
  -1  -6   4  139.09    7.00
  -1  -6   4  152.28    6.20
   0   6  -4   65.39    4.40
   0   6  -4   63.99    4.00
   0  -6   4   69.09    5.30
   0  -6   4   62.19    4.60
   0  -6   4   63.99    3.80
   0  -6   4   71.69    4.90
  -1   6  -4  222.68    8.70
  -1   6  -4  229.28    6.90
   1  -6   4  219.18    6.60
   1  -6   4  247.78    9.50
   1  -6   4  230.58    9.20
   1  -6   4  215.98    9.70
  -2   6  -4  143.99    7.10
  -2   6  -4  142.49    7.90
   2  -6   4  150.08    7.50
   2  -6   4  137.99    7.80
  -3   6  -4   17.80    3.80
  -3   6  -4    9.60    2.50
   3  -6   4    9.40    3.10
   3  -6   4   15.20    3.20
  -4   6  -4  132.09    7.50
  -4   6  -4  127.79    8.40
   4  -6   4  127.19    7.80
   4  -6   4  131.49    8.50
  -5   6  -4   24.80    5.30
   5  -6   4   24.60    4.60
  -6   6  -4   60.39    8.20
   6  -6   4   61.89    7.60
  -7   6  -4   33.30    6.50
   7  -6   4   36.80    5.80
   8   5  -4   12.40    3.20
   8   5  -4    5.70    3.50
  -8  -5   4   11.70    3.30
  -8  -5   4    9.50    4.30
   7   5  -4   62.79    4.90
   7   5  -4   40.70    5.90
  -7  -5   4   57.09    7.70
  -7  -5   4   61.59    5.20
   6   5  -4   28.30    3.70
  -6  -5   4   28.20    4.00
   5   5  -4    8.30    3.00
   5   5  -4   12.60    2.60
   5   5  -4   10.30    2.90
  -5  -5   4   10.70    2.80
  -5  -5   4   13.30    3.00
  -5  -5   4   13.00    3.30
   4   5  -4   23.50    3.90
   4   5  -4   21.80    4.00
   4   5  -4   17.80    3.00
  -4  -5   4   24.40    4.20
  -4  -5   4   16.70    3.10
  -4  -5   4   15.40    3.20
   3   5  -4  522.05   13.90
   3   5  -4  500.65   14.90
   3   5  -4  532.05   15.20
  -3  -5   4  508.85   14.70
  -3  -5   4  527.25   15.70
   2   5  -4   55.19    3.90
   2   5  -4   57.29    4.30
   2   5  -4   63.79    4.50
  -2  -5   4   57.19    4.50
  -2  -5   4   55.09    4.10
  -2  -5   4   67.39    8.10
   1   5  -4   29.20    3.40
   1   5  -4   25.60    3.10
   1   5  -4   26.80    3.50
  -1  -5   4   30.50    4.20
  -1  -5   4   26.80    3.60
  -1  -5   4   27.80    3.30
   0   5  -4  314.57    8.80
   0   5  -4  286.57    9.60
   0  -5   4  286.37    9.80
   0  -5   4  313.87   10.30
   0  -5   4  306.97   10.80
   0  -5   4  290.37    8.40
  -1   5  -4   29.70    2.40
  -1   5  -4   31.70    3.80
   1  -5   4   36.50    4.10
   1  -5   4   36.10    4.40
   1  -5   4   42.90    5.00
   1  -5   4   33.70    2.30
  -2   5  -4   19.80    3.20
  -2   5  -4   18.40    3.50
   2  -5   4   14.30    3.00
   2  -5   4   24.50    3.90
  -3   5  -4  469.85   14.30
  -3   5  -4  517.55   15.90
   3  -5   4  503.65   15.10
   3  -5   4  469.85   15.40
  -4   5  -4   11.50    3.50
  -4   5  -4   12.10    3.00
   4  -5   4    7.90    2.80
   4  -5   4   13.10    3.20
  -5   5  -4   32.60    5.30
   5  -5   4   36.00    4.90
   5  -5   4   27.60    5.00
  -6   5  -4   50.59    6.70
   6  -5   4   55.39    8.30
  -7   5  -4   18.90    5.10
   7  -5   4   28.70    5.50
  -8   5  -4   16.20    5.20
   8  -5   4    5.40    3.10
   8   4  -4   28.20    5.00
   8   4  -4   34.90    4.90
  -8  -4   4   43.10    5.60
  -8  -4   4   26.90    6.10
   7   4  -4   99.39    6.30
   7   4  -4   88.49    7.40
  -7  -4   4  108.49    6.70
  -7  -4   4  104.19    8.40
   6   4  -4    1.10    2.30
   6   4  -4   -0.50    1.40
  -6  -4   4    1.70    1.70
  -6  -4   4    4.90    3.00
  -6  -4   4    2.00    2.60
   5   4  -4    9.30    2.80
   5   4  -4   10.00    3.20
   5   4  -4   10.20    2.60
  -5  -4   4    4.30    2.10
  -5  -4   4   12.00    2.70
  -5  -4   4    6.80    2.90
   4   4  -4  508.55   15.40
   4   4  -4  512.55   15.30
   4   4  -4  511.15   13.90
  -4  -4   4  511.95   14.90
  -4  -4   4  508.65   16.00
  -4  -4   4  501.55   14.20
   3   4  -4    2.10    1.60
   3   4  -4    2.80    1.40
   3   4  -4    0.20    1.10
  -3  -4   4    1.60    1.40
  -3  -4   4    0.60    1.30
  -3  -4   4   -1.30    1.20
   2   4  -4   45.50    3.70
   2   4  -4   45.00    3.80
  -2  -4   4   45.40    4.60
  -2  -4   4   42.20    3.50
  -2  -4   4   42.30    3.40
   1   4  -4  987.00   21.60
   1   4  -4 1012.00   22.30
   1   4  -4 1008.90   23.70
  -1  -4   4  989.70   22.30
  -1  -4   4 1007.40   23.10
  -1  -4   4 1001.20   23.00
   0   4  -4  499.45   13.20
   0   4  -4  492.75   11.90
   0  -4   4  498.65   11.90
   0  -4   4  487.15   13.80
   0  -4   4  507.95   13.60
   0  -4   4  503.45   13.20
  -1   4  -4   21.30    3.00
  -1   4  -4   22.00    2.10
   1  -4   4   22.10    3.10
   1  -4   4   27.00    3.60
   1  -4   4   23.60    3.60
   1  -4   4   18.80    1.90
  -2   4  -4  216.18    8.80
   2  -4   4  219.48    8.90
   2  -4   4  248.68    9.00
  -3   4  -4  278.07    9.90
  -3   4  -4  276.57   10.80
   3  -4   4  283.47   10.20
   3  -4   4  294.97   10.80
  -4   4  -4   34.40    4.80
  -4   4  -4   34.50    4.00
   4  -4   4   41.20    5.00
   4  -4   4   39.00    4.90
  -5   4  -4   68.79    6.10
   5  -4   4   62.19    8.00
   5  -4   4   57.89    5.20
  -6   4  -4   97.89    7.90
   6  -4   4   98.79    6.90
   6  -4   4  104.29    7.60
  -7   4  -4    5.60    3.50
   7  -4   4    1.50    2.30
  -8   4  -4    4.90    3.90
   8  -4   4   -0.30    2.40
   8   3  -4   61.89    6.60
   8   3  -4   79.69    8.70
  -8  -3   4   69.69    9.10
  -8  -3   4   66.19    6.00
   7   3  -4   13.70    3.70
   7   3  -4   13.20    3.30
  -7  -3   4    9.70    3.70
  -7  -3   4   18.10    4.00
   6   3  -4   22.90    3.70
   6   3  -4   17.80    3.80
   6   3  -4   29.80    5.20
  -6  -3   4   21.90    3.90
  -6  -3   4   21.80    3.80
  -6  -3   4   29.30    5.30
   5   3  -4   77.79    5.00
   5   3  -4   84.09    6.10
   5   3  -4   79.49    5.80
  -5  -3   4   73.29    5.40
  -5  -3   4   78.69    6.30
  -5  -3   4   78.29    5.20
   4   3  -4  151.98    7.50
   4   3  -4  145.39    6.60
   4   3  -4  148.49    7.40
  -4  -3   4  156.88    7.30
  -4  -3   4  156.28    7.90
  -4  -3   4  146.59    7.10
   3   3  -4  284.87   10.20
   3   3  -4  277.37    9.60
   3   3  -4  272.77    9.50
  -3  -3   4  263.57    9.20
  -3  -3   4  257.77    9.70
  -3  -3   4  280.97    9.30
   2   3  -4   12.60    2.40
   2   3  -4   10.40    2.30
  -2  -3   4    9.20    2.10
  -2  -3   4    9.30    2.30
  -2  -3   4   10.90    2.40
   1   3  -4  256.67    7.80
   1   3  -4  242.08    8.00
   1   3  -4  238.48    7.90
  -1  -3   4  243.78    8.00
  -1  -3   4  247.38    8.20
  -1  -3   4  245.18    7.60
   0   3  -4   95.89    4.10
   0   3  -4  111.09    5.00
   0  -3   4   96.09    4.10
   0  -3   4   98.19    4.60
   0  -3   4  100.29    5.00
  -1   3  -4    2.70    1.60
  -1   3  -4    3.80    1.00
   1  -3   4    4.80    1.80
   1  -3   4    5.90    1.30
   1  -3   4    7.70    2.10
  -2   3  -4  757.12   18.20
  -2   3  -4  757.62   18.80
   2  -3   4  811.52   20.70
   2  -3   4  783.32   19.20
  -3   3  -4  183.58    8.10
  -3   3  -4  187.78    7.40
   3  -3   4  208.88    8.10
   3  -3   4  178.08    8.00
  -4   3  -4    3.00    2.20
  -4   3  -4    2.70    1.70
   4  -3   4    5.40    2.10
   4  -3   4    1.20    1.80
  -5   3  -4   92.39    6.80
  -5   3  -4   87.09    5.60
   5  -3   4   87.09    6.60
   5  -3   4   92.29    6.10
  -6   3  -4  155.98    9.50
   6  -3   4  145.39    8.90
   6  -3   4  153.58    8.20
   6  -3   4  142.29   10.00
  -7   3  -4    3.30    2.90
   7  -3   4    7.30    3.20
   7  -3   4    2.70    2.20
  -8   3  -4    4.10    3.50
   8  -3   4    5.10    3.00
   8   2  -4    4.70    3.20
   8   2  -4    6.90    2.90
  -8  -2   4    7.70    3.10
  -8  -2   4   20.10    5.60
   7   2  -4    5.00    2.50
  -7  -2   4   12.20    3.40
  -7  -2   4    6.70    3.40
   6   2  -4    8.60    2.70
   6   2  -4    8.40    2.90
   6   2  -4    8.00    3.00
  -6  -2   4   15.70    3.40
  -6  -2   4    8.30    2.50
  -6  -2   4    4.00    2.70
   5   2  -4   38.20    4.60
   5   2  -4   37.30    4.90
   5   2  -4   45.30    5.10
  -5  -2   4   36.10    5.20
  -5  -2   4   32.50    4.20
  -5  -2   4   35.60    4.50
   4   2  -4    3.80    1.90
   4   2  -4    7.30    2.10
   4   2  -4   12.00    2.60
  -4  -2   4    4.90    2.10
  -4  -2   4    8.10    2.30
  -4  -2   4    6.80    2.40
   3   2  -4    3.60    1.80
   3   2  -4    2.90    1.70
  -3  -2   4    3.10    1.70
  -3  -2   4    4.70    1.70
  -3  -2   4    5.90    1.90
   2   2  -4  342.87   10.00
   2   2  -4  356.36   10.20
   2   2  -4  355.36   10.20
  -2  -2   4  344.77   10.20
  -2  -2   4  343.47   10.00
  -2  -2   4  343.17   10.20
   1   2  -4  218.38    7.30
   1   2  -4  217.98    6.90
   1   2  -4  205.18    6.80
  -1  -2   4  213.58    6.90
  -1  -2   4  221.38    7.40
  -1  -2   4  217.98    7.00
   0   2  -4   42.30    2.60
   0   2  -4   45.20    3.20
   0  -2   4   43.60    3.20
   0  -2   4   43.20    2.80
   0  -2   4   45.30    2.70
  -1   2  -4  267.57    6.70
  -1   2  -4  257.07    8.10
   1  -2   4  260.07    8.20
   1  -2   4  272.17    8.50
   1  -2   4  277.77    6.80
  -2   2  -4   18.10    3.00
  -2   2  -4   19.10    2.80
  -2   2  -4   19.60    1.40
   2  -2   4   19.10    2.80
   2  -2   4   20.40    2.80
   2  -2   4   20.60    1.40
  -3   2  -4  392.06   12.00
  -3   2  -4  400.66   11.30
   3  -2   4  397.26   12.00
  -4   2  -4   10.00    2.40
  -4   2  -4    3.20    2.20
   4  -2   4    9.80    2.80
   4  -2   4    8.70    2.20
  -5   2  -4   32.00    3.80
  -5   2  -4   33.60    4.80
   5  -2   4   35.00    4.50
   5  -2   4   34.00    4.80
  -6   2  -4   10.30    3.40
   6  -2   4    4.50    2.30
   6  -2   4    8.40    2.50
   6  -2   4   11.90    3.50
   7  -2   4    4.40    2.70
   7  -2   4    6.70    2.70
  -8   2  -4   10.10    4.20
   8  -2   4    5.70    2.70
  -9   2  -4   24.20    5.60
   9  -2   4   22.90    4.50
   8   1  -4    6.10    3.30
   8   1  -4    7.10    3.00
  -8  -1   4    5.00    3.70
  -8  -1   4    5.50    3.20
   7   1  -4    1.60    2.30
  -7  -1   4    0.80    2.30
  -7  -1   4    0.20    2.10
   6   1  -4   42.00    5.10
   6   1  -4   37.00    4.80
   6   1  -4   45.80    6.00
  -6  -1   4   37.10    4.70
  -6  -1   4   34.70    5.30
  -6  -1   4   47.50    5.50
   5   1  -4   81.69    5.40
   5   1  -4   77.29    5.70
   5   1  -4   79.69    5.50
  -5  -1   4   84.19    6.30
  -5  -1   4   78.29    5.20
  -5  -1   4   73.29    5.30
   4   1  -4  125.29    6.20
   4   1  -4  128.49    6.40
   4   1  -4  120.79    6.40
  -4  -1   4  121.09    6.10
  -4  -1   4  125.89    6.30
  -4  -1   4  128.09    6.90
   3   1  -4  185.18    7.30
   3   1  -4  196.28    7.40
   3   1  -4  178.28    7.20
  -3  -1   4  193.98    7.80
  -3  -1   4  185.28    7.10
  -3  -1   4  186.28    7.30
   2   1  -4  301.87    8.80
   2   1  -4  280.97    8.90
   2   1  -4  291.77    8.90
  -2  -1   4  301.77    9.00
  -2  -1   4  294.87    9.30
   1   1  -4  242.88    7.40
   1   1  -4  259.57    7.20
   1   1  -4  256.97    8.00
  -1  -1   4  246.38    8.00
  -1  -1   4  251.47    7.30
  -1  -1   4  253.77    7.50
   0   1  -4   44.30    3.00
   0   1  -4   40.60    2.40
   0   1  -4   42.80    2.60
   0  -1   4   41.80    2.60
   0  -1   4   45.40    2.50
   0  -1   4   44.30    3.10
  -1   1  -4   15.50    2.10
  -1   1  -4   12.30    1.50
  -1   1  -4    8.60    1.80
   1  -1   4   13.20    2.00
   1  -1   4   15.80    1.70
   1  -1   4    9.80    1.90
  -2   1  -4  113.39    3.50
  -2   1  -4  107.99    4.70
  -2   1  -4  107.19    4.80
   2  -1   4  110.89    5.00
   2  -1   4  108.79    4.80
   2  -1   4  105.49    3.50
  -3   1  -4   67.39    2.60
  -3   1  -4   71.59    4.00
  -3   1  -4   66.39    4.40
  -3   1  -4   69.59    2.80
   3  -1   4   67.39    4.10
   3  -1   4   70.49    4.40
  -4   1  -4   43.40    4.70
  -4   1  -4   39.00    2.20
  -4   1  -4   40.30    3.30
  -4   1  -4   42.10    2.30
   4  -1   4   51.59    5.20
  -5   1  -4   86.59    4.90
  -5   1  -4   87.69    3.50
  -5   1  -4   83.19    6.00
   5  -1   4   79.19    5.80
   5  -1   4   97.39    5.40
  -6   1  -4   13.10    1.90
  -6   1  -4   14.70    3.60
   6  -1   4   11.80    3.20
   6  -1   4   15.60    2.30
   6  -1   4   13.00    3.10
   6  -1   4   11.50    2.90
  -7   1  -4   27.00    2.70
  -7   1  -4   33.10    5.50
   7  -1   4   30.10    4.50
   7  -1   4   26.20    6.60
   7  -1   4   30.50    4.40
   7  -1   4   27.90    3.30
  -8   1  -4   21.00    2.80
  -8   1  -4   14.60    4.60
   8  -1   4   14.30    3.30
   8  -1   4   18.70    4.10
   8  -1   4   11.70    3.50
  -9   1  -4   12.20    2.60
  -9   1  -4    7.30    4.60
   9  -1   4    8.90    5.40
   9  -1   4   11.00    2.80
   8   0  -4   18.40    4.20
  -8   0   4   30.60    8.10
  -8   0   4   11.80    4.40
   7   0  -4   14.20    3.60
   7   0  -4    9.20    3.10
  -7   0   4    6.80    3.50
  -7   0   4    9.50    3.20
  -7   0   4   12.30    3.50
   6   0  -4  153.58    8.80
   6   0  -4  141.79    7.90
   6   0  -4  166.68    8.30
  -6   0   4  152.88    8.40
  -6   0   4  150.88    8.40
  -6   0   4  155.88    9.20
   5   0  -4  218.08    9.40
   5   0  -4  225.78    9.80
   5   0  -4  232.88    9.30
  -5   0   4  219.98    8.90
  -5   0   4  246.28   10.60
  -5   0   4  241.28    9.80
   4   0  -4    0.30    1.40
   4   0  -4    0.00    1.30
   4   0  -4    2.00    1.60
  -4   0   4    2.20    1.50
  -4   0   4    2.30    1.60
  -4   0   4   -0.50    1.40
   3   0  -4   47.80    3.70
   3   0  -4   45.80    3.60
   3   0  -4   47.70    3.70
  -3   0   4   47.90    4.00
  -3   0   4   48.00    3.50
  -3   0   4   58.89    4.10
   2   0  -4  883.21   19.50
   2   0  -4  882.91   19.90
   2   0  -4  892.61   19.10
  -2   0   4  889.61   19.30
  -2   0   4  875.21   19.30
  -2   0   4  880.91   20.00
   1   0  -4   30.60    2.70
   1   0  -4   31.00    2.20
   1   0  -4   27.90    2.50
  -1   0   4   27.30    2.40
  -1   0   4   27.90    2.20
  -1   0   4   32.90    3.30
   0   0  -4  235.68    5.70
   0   0  -4  221.08    6.40
   0   0  -4  218.88    7.00
   0   0   4  229.48    7.10
   0   0   4  229.98    5.70
   0   0   4  228.78    6.50
  -1   0  -4  371.26    8.80
  -1   0  -4  375.66    9.70
  -1   0  -4  369.06    8.60
   1   0   4  374.56    8.70
   1   0   4  374.56    8.60
   1   0   4  375.26    9.80
  -2   0  -4  172.68    5.70
  -2   0  -4  175.88    5.90
  -2   0  -4  172.68    5.00
   2   0   4  173.58    5.70
   2   0   4  170.98    6.00
  -3   0  -4   35.90    3.60
  -3   0  -4   26.40    2.00
  -3   0  -4   26.70    2.20
  -3   0  -4   30.90    2.50
   3   0   4   31.20    2.70
   3   0   4   33.30    3.50
  -4   0  -4  511.65   12.60
  -4   0  -4  480.45   11.30
  -4   0  -4  479.35   15.60
   4   0   4  494.35   12.80
   4   0   4  492.85   13.90
  -5   0  -4   72.19    5.50
  -5   0  -4   78.99    4.40
  -5   0  -4   76.29    3.80
   5   0   4   71.69    5.30
   5   0   4   72.09    4.00
   5   0   4   75.49    5.30
  -6   0  -4   -2.10    1.50
  -6   0  -4   -0.10    1.20
   6   0   4   -1.10    1.10
   6   0   4   -0.90    1.60
   6   0   4   -0.80    1.20
   6   0   4    0.10    1.60
  -7   0  -4   73.09    8.00
  -7   0  -4   63.59    4.10
   7   0   4   65.29    7.40
   7   0   4   67.69    5.50
   7   0   4   65.19    5.00
  -8   0  -4   36.30    6.10
  -8   0  -4   39.20    3.90
   8   0   4   39.50    5.50
   8   0   4   37.90    4.40
   8   0   4   40.20    4.90
  -9   0  -4    7.30    4.00
  -9   0  -4   11.00    2.80
   9   0   4    9.80    3.00
   9   0   4   20.60    3.70
   9   0   4    8.70    3.50
   8  -1  -4    0.20    2.50
  -8   1   4   -0.40    3.30
  -8   1   4    7.00    3.50
   7  -1  -4   14.30    3.50
   7  -1  -4    6.40    3.00
  -7   1   4   19.20    4.70
  -7   1   4   13.90    3.30
  -7   1   4   19.10    4.60
   6  -1  -4   88.49    6.10
   6  -1  -4   92.09    6.60
   6  -1  -4   77.39    6.40
  -6   1   4   77.59    6.80
  -6   1   4   86.79    5.70
  -6   1   4   91.19    6.80
   5  -1  -4   78.29    5.80
   5  -1  -4   74.59    5.60
   5  -1  -4   77.69    5.20
  -5   1   4   79.09    5.00
  -5   1   4   89.59    6.40
  -5   1   4   79.69    5.90
   4  -1  -4    0.30    1.40
   4  -1  -4    0.40    1.40
   4  -1  -4    0.40    1.30
  -4   1   4    2.80    1.70
  -4   1   4    0.90    1.50
  -4   1   4    1.70    1.70
   3  -1  -4  385.56   12.00
   3  -1  -4  429.76   13.30
  -3   1   4  455.95   17.80
  -3   1   4  411.06   12.10
  -3   1   4  404.86   11.40
   2  -1  -4   23.70    2.90
   2  -1  -4   18.50    2.80
   2  -1  -4   22.90    2.70
  -2   1   4   21.30    2.90
  -2   1   4   17.90    2.70
  -2   1   4   18.70    2.60
   1  -1  -4    2.10    1.20
   1  -1  -4    3.00    1.20
   1  -1  -4    1.50    0.90
  -1   1   4    1.60    1.10
  -1   1   4    3.70    1.30
  -1   1   4    2.80    1.00
   0  -1  -4  511.05    9.90
   0  -1  -4  506.85   11.70
   0  -1  -4  496.85   12.10
   0   1   4  514.95   10.00
   0   1   4  512.25   12.30
   0   1   4  512.85   11.70
  -1  -1  -4  248.78    5.60
  -1  -1  -4  249.18    6.80
  -1  -1  -4  242.18    7.10
   1   1   4  247.88    6.80
   1   1   4  244.68    7.10
   1   1   4  252.27    5.60
  -2  -1  -4  139.99    4.60
  -2  -1  -4  137.39    4.60
  -2  -1  -4  134.19    4.80
  -2  -1  -4  138.09    5.00
   2   1   4  136.89    4.60
   2   1   4  139.59    5.00
  -3  -1  -4  235.08    7.00
  -3  -1  -4  236.18    6.90
  -3  -1  -4  233.58    7.60
   3   1   4  236.38    7.10
   3   1   4  253.67    7.70
  -4  -1  -4   33.90    2.60
  -4  -1  -4   38.40    4.20
  -4  -1  -4   34.30    2.70
   4   1   4   36.40    4.40
   4   1   4   37.40    3.00
   4   1   4   35.00    2.80
  -5  -1  -4  240.68    9.70
  -5  -1  -4  252.97    7.90
   5   1   4  255.37    9.70
   5   1   4  251.17    8.20
   5   1   4  252.77    8.30
  -6  -1  -4  118.19    5.50
  -6  -1  -4  113.89    7.20
   6   1   4  115.39    5.80
   6   1   4  121.89    6.90
   6   1   4  107.29    5.90
   6   1   4  112.79    7.10
  -7  -1  -4   20.00    4.50
  -7  -1  -4   22.80    3.20
   7   1   4   24.60    3.60
   7   1   4   20.00    3.50
   7   1   4   17.00    4.00
   7   1   4   20.10    3.50
  -8  -1  -4   32.80    5.90
  -8  -1  -4   30.40    4.00
   8   1   4   33.30    4.70
   8   1   4   29.90    4.00
   8   1   4   35.30    4.80
  -9  -1  -4    3.00    2.50
  -9  -1  -4    1.10    3.30
   9   1   4    7.30    2.80
   9   1   4    8.00    2.80
  -8   2   4   -2.70    2.50
  -8   2   4   -1.20    2.50
   7  -2  -4   51.79    5.80
  -7   2   4   39.80    5.90
  -7   2   4   35.30    6.10
  -7   2   4   40.20    5.10
   6  -2  -4   65.09    5.90
   6  -2  -4   71.19    5.50
   6  -2  -4   70.19    6.10
  -6   2   4   62.99    4.90
  -6   2   4   73.39    8.00
  -6   2   4   61.89    7.00
   5  -2  -4   31.70    3.90
   5  -2  -4   37.00    5.00
   5  -2  -4   32.30    4.50
  -5   2   4   38.80    4.40
  -5   2   4   32.30    4.80
  -5   2   4   33.10    4.90
   4  -2  -4    6.20    2.20
   4  -2  -4    9.20    2.60
   4  -2  -4    4.90    1.80
  -4   2   4    8.80    2.60
  -4   2   4    5.80    2.40
  -4   2   4    8.50    2.10
   3  -2  -4  230.58    8.80
   3  -2  -4  233.18    8.50
  -3   2   4  222.88    8.40
  -3   2   4  220.88    8.70
  -3   2   4  231.38    7.80
   2  -2  -4   75.09    4.00
   2  -2  -4   75.89    4.10
  -2   2   4   74.29    4.00
  -2   2   4   81.29    4.20
  -2   2   4   83.69    4.80
   1  -2  -4  207.28    7.30
   1  -2  -4  221.48    6.00
   1  -2  -4  211.88    6.80
  -1   2   4  213.58    6.80
  -1   2   4  221.18    7.50
  -1   2   4  215.68    6.00
   0  -2  -4   45.70    2.80
   0  -2  -4   48.10    3.10
   0   2   4   43.40    2.80
   0   2   4   42.90    3.00
  -1  -2  -4  222.98    6.60
  -1  -2  -4  228.38    6.70
   1   2   4  220.38    6.60
   1   2   4  233.88    6.80
  -2  -2  -4   27.00    2.40
  -2  -2  -4   32.10    2.30
  -2  -2  -4   38.00    3.50
  -2  -2  -4   26.50    2.00
   2   2   4   33.90    2.30
   2   2   4   28.80    1.90
  -3  -2  -4  322.87    9.00
  -3  -2  -4  324.97    8.10
  -3  -2  -4  313.77    9.00
   3   2   4  311.17    8.20
   3   2   4  311.27    9.30
   3   2   4  332.37    8.90
  -4  -2  -4  276.47    9.30
  -4  -2  -4  280.27    7.50
  -4  -2  -4  268.67    8.30
   4   2   4  270.37    9.10
   4   2   4  268.67    8.80
   4   2   4  272.97    7.70
  -5  -2  -4    0.10    1.60
  -5  -2  -4    2.30    1.60
   5   2   4   -1.20    1.40
   5   2   4    0.70    1.00
   5   2   4    2.10    1.80
  -6  -2  -4   24.10    4.20
  -6  -2  -4   33.40    3.80
   6   2   4   26.40    3.60
   6   2   4   33.10    3.50
   6   2   4   22.50    3.90
   6   2   4   27.70    3.80
  -7  -2  -4   57.69    7.00
  -7  -2  -4   56.39    4.50
   7   2   4   62.19    5.00
   7   2   4   49.90    4.00
   7   2   4   53.49    6.30
   7   2   4   57.29    4.50
  -8  -2  -4    5.80    3.40
  -8  -2  -4    4.30    2.30
   8   2   4    5.30    2.50
   8   2   4    3.00    2.20
   8   2   4    4.60    2.10
  -9  -2  -4   15.00    4.50
  -9  -2  -4    4.50    2.80
   9   2   4    6.60    2.70
   9   2   4    0.20    2.20
   9   2   4    6.70    2.30
   8  -3  -4    6.80    3.30
  -8   3   4    2.20    3.00
  -8   3   4    3.90    3.60
   7  -3  -4    5.80    2.60
  -7   3   4   12.70    4.40
  -7   3   4   10.30    2.90
  -7   3   4   11.50    4.30
   6  -3  -4   47.90    6.20
   6  -3  -4   76.39    7.80
   6  -3  -4   55.69    5.50
  -6   3   4   55.79    4.60
  -6   3   4   48.90    6.40
  -6   3   4   61.09    6.80
   5  -3  -4    1.50    1.80
   5  -3  -4    4.60    2.40
   5  -3  -4    8.50    2.60
  -5   3   4    3.30    2.20
  -5   3   4    1.70    1.70
  -5   3   4    0.60    1.80
   4  -3  -4  269.17   10.60
   4  -3  -4  281.67    9.40
   4  -3  -4  255.27   10.00
  -4   3   4  287.87   10.70
  -4   3   4  257.97   10.60
  -4   3   4  268.27    9.00
   3  -3  -4  150.58    7.20
   3  -3  -4  152.28    6.60
  -3   3   4  148.49    6.10
  -3   3   4  152.48    7.30
  -3   3   4  137.49    6.60
   2  -3  -4    0.60    1.10
   2  -3  -4   -0.40    1.10
   2  -3  -4    0.40    1.00
  -2   3   4    0.00    0.90
  -2   3   4   -1.80    1.00
  -2   3   4   -0.20    1.20
   1  -3  -4  245.78    6.80
   1  -3  -4  256.77    7.70
   1  -3  -4  256.17    8.40
  -1   3   4  248.38    8.30
  -1   3   4  252.77    6.90
  -1   3   4  248.38    7.50
   0  -3  -4 1312.17   26.40
   0  -3  -4 1370.56   26.90
   0   3   4 1292.37   26.20
   0   3   4 1339.07   26.80
  -1  -3  -4  452.65   11.10
  -1  -3  -4  436.16   10.60
   1   3   4  447.36   10.70
  -2  -3  -4   45.20    2.30
  -2  -3  -4   39.50    3.20
  -2  -3  -4   41.20    2.90
  -2  -3  -4   42.80    2.40
   2   3   4   40.80    2.10
   2   3   4   44.10    2.50
  -3  -3  -4  349.96    8.10
  -3  -3  -4  362.66    9.50
  -3  -3  -4  325.77    9.80
   3   3   4  349.37   10.30
   3   3   4  335.07    9.10
   3   3   4  339.47    8.20
  -4  -3  -4  165.78    6.80
  -4  -3  -4  152.58    4.70
  -4  -3  -4  157.28    6.40
   4   3   4  143.49    6.50
   4   3   4  159.18    6.40
   4   3   4  161.78    5.00
  -5  -3  -4   44.90    4.40
  -5  -3  -4   53.49    5.40
   5   3   4   42.30    2.70
   5   3   4   41.20    2.80
   5   3   4   55.49    4.30
   5   3   4   46.60    4.80
  -6  -3  -4   97.79    5.80
  -6  -3  -4  129.49    7.50
   6   3   4  120.79    6.60
   6   3   4  113.19    5.00
   6   3   4  115.59    4.80
   6   3   4  116.09    6.90
  -7  -3  -4   15.30    3.10
  -7  -3  -4   16.80    4.20
   7   3   4   12.90    2.50
   7   3   4   14.40    2.40
   7   3   4    4.60    2.70
   7   3   4   10.10    3.20
  -8  -3  -4    2.20    2.80
   8   3   4   -0.60    2.10
   8   3   4   -0.10    1.60
  -9  -3  -4   12.90    4.50
  -9  -3  -4   19.70    4.10
   9   3   4   23.20    4.70
   9   3   4   17.90    3.10
   9   3   4   12.60    2.90
   8  -4  -4    2.80    2.70
  -8   4   4    3.20    3.90
  -8   4   4   -1.90    2.30
   7  -4  -4    2.30    2.30
  -7   4   4    5.40    3.10
  -7   4   4    8.40    3.90
  -7   4   4    4.60    2.50
   6  -4  -4   13.80    3.20
   6  -4  -4    8.60    3.30
  -6   4   4   16.20    4.40
  -6   4   4   14.60    4.10
  -6   4   4   16.50    3.20
   5  -4  -4   17.50    3.90
   5  -4  -4    5.00    2.70
   5  -4  -4   10.00    2.60
  -5   4   4   12.90    2.70
  -5   4   4   13.10    3.50
  -5   4   4   16.20    3.70
   4  -4  -4  151.48    6.70
   4  -4  -4  156.68    8.20
   4  -4  -4  145.99    7.60
  -4   4   4  155.48    7.90
  -4   4   4  153.48    6.50
  -4   4   4  170.88    8.60
   3  -4  -4  194.78    7.90
   3  -4  -4  186.98    7.40
   3  -4  -4  187.18    8.40
  -3   4   4  175.08    6.80
  -3   4   4  187.78    9.00
  -3   4   4  182.78    8.50
   2  -4  -4  134.89    6.60
   2  -4  -4  146.79    6.00
   2  -4  -4  137.09    5.80
  -2   4   4  152.28    6.20
  -2   4   4  138.79    6.50
  -2   4   4  145.59    6.80
   1  -4  -4  190.98    7.40
   1  -4  -4  189.98    6.10
   1  -4  -4  190.98    6.60
  -1   4   4  177.38    7.10
  -1   4   4  188.38    6.10
  -1   4   4  186.28    6.50
   0  -4  -4  385.56   10.10
   0  -4  -4  369.56   10.20
   0  -4  -4  365.36    8.40
   0   4   4  368.16   10.20
   0   4   4  350.26    9.80
   0   4   4  378.26    8.50
  -1  -4  -4  133.19    5.40
  -1  -4  -4  133.39    4.90
  -1  -4  -4  135.29    3.90
  -1  -4  -4  130.49    5.70
  -1  -4  -4  129.89    3.70
   1   4   4  136.89    5.00
  -2  -4  -4  282.47    9.20
  -2  -4  -4  288.97    7.40
  -2  -4  -4  290.17    7.30
   2   4   4  298.47    7.20
   2   4   4  298.07    7.50
  -3  -4  -4  466.25    9.80
  -3  -4  -4  458.75   11.60
  -3  -4  -4  462.35   12.80
   3   4   4  463.05   11.40
   3   4   4  487.25   13.30
   3   4   4  464.45   10.00
  -4  -4  -4   49.70    4.90
  -4  -4  -4   38.60    4.00
  -4  -4  -4   33.10    1.70
   4   4   4   34.00    4.20
   4   4   4   30.50    1.80
   4   4   4   33.00    3.50
  -5  -4  -4   54.39    4.30
  -5  -4  -4   55.59    4.70
   5   4   4   58.09    2.70
   5   4   4   59.79    4.80
   5   4   4   57.79    4.40
   5   4   4   57.79    2.60
  -6  -4  -4  277.57   10.20
  -6  -4  -4  283.27   11.30
   6   4   4  277.67    7.30
   6   4   4  277.17    7.40
   6   4   4  269.97   10.70
   6   4   4  283.17   10.90
  -7  -4  -4   35.20    5.40
  -7  -4  -4   30.20    4.30
   7   4   4   34.80    5.10
   7   4   4   28.50    2.50
   7   4   4   25.40    4.50
   7   4   4   30.00    2.70
  -8  -4  -4    0.50    2.20
  -8  -4  -4   -2.80    2.30
   8   4   4   -1.10    1.20
   8   4   4    1.10    2.40
   8   4   4    0.30    1.10
  -9  -4  -4   29.50    6.10
   9   4   4   25.40    3.10
   9   4   4   15.10    5.20
   9   4   4   31.40    5.10
   8  -5  -4    5.40    3.10
   8  -5  -4    4.70    3.40
  -8   5   4    5.30    3.80
  -8   5   4    3.90    2.80
   7  -5  -4   16.40    3.70
  -7   5   4   26.60    6.10
  -7   5   4   11.10    4.10
   6  -5  -4   -0.30    1.90
  -6   5   4    0.10    2.60
  -6   5   4    0.30    2.50
  -6   5   4    1.40    2.00
   5  -5  -4   85.29    5.40
   5  -5  -4   83.39   10.10
   5  -5  -4   76.99    6.60
  -5   5   4   80.29    5.20
  -5   5   4   82.19    6.90
  -5   5   4   88.19    6.90
   4  -5  -4  226.58    9.80
   4  -5  -4  232.48   10.50
   4  -5  -4  243.38    8.70
  -4   5   4  245.48   10.30
  -4   5   4  235.68    8.40
  -4   5   4  228.18   10.50
   3  -5  -4   18.30    3.30
   3  -5  -4   19.60    2.90
   3  -5  -4   18.30    3.30
  -3   5   4   19.50    3.90
  -3   5   4   16.90    2.70
  -3   5   4   22.50    3.60
   2  -5  -4   90.39    5.60
   2  -5  -4  102.19    5.00
   2  -5  -4   89.99    5.00
  -2   5   4  108.79    5.50
  -2   5   4   95.89    5.90
  -2   5   4   92.39    4.70
   1  -5  -4  312.37   10.40
   1  -5  -4  315.37    9.40
   1  -5  -4  325.77    9.20
  -1   5   4  330.47    9.30
  -1   5   4  331.87   10.70
  -1   5   4  325.07   10.60
   0  -5  -4   51.19    2.90
   0  -5  -4   44.10    3.30
   0  -5  -4   49.30    3.50
   0   5   4   46.20    3.50
  -1  -5  -4   55.99    3.70
  -1  -5  -4   58.09    2.90
  -1  -5  -4   54.69    3.30
  -1  -5  -4   56.59    2.70
  -1  -5  -4   54.99    4.30
   1   5   4   64.79    3.60
  -2  -5  -4  990.20   22.50
  -2  -5  -4  980.60   19.80
  -2  -5  -4  986.60   19.50
   2   5   4  963.90   19.50
   2   5   4  993.50   19.60
  -3  -5  -4    8.20    1.90
  -3  -5  -4    8.30    1.10
  -3  -5  -4    7.80    2.00
   3   5   4   11.70    2.00
   3   5   4    9.60    1.20
   3   5   4   11.20    2.70
  -4  -5  -4  325.67   10.10
  -4  -5  -4  281.87   10.00
   4   5   4  297.67   10.70
   4   5   4  299.27   10.50
  -5  -5  -4  178.38    8.10
  -5  -5  -4  193.68    8.30
   5   5   4  187.68    7.90
   5   5   4  189.38    8.70
  -6  -5  -4    4.70    2.60
  -6  -5  -4    6.90    2.70
   6   5   4    7.20    3.00
   6   5   4    6.60    2.40
  -7  -5  -4   66.09    7.40
  -7  -5  -4   59.49    6.20
   7   5   4   54.39    6.30
   7   5   4   72.19    6.00
  -8  -5  -4    2.90    2.90
   8   5   4   -0.40    2.10
  -9  -5  -4   36.90    6.60
   9   5   4   24.00    4.90
   7  -6  -4   19.70    3.80
  -7   6   4   27.40    6.00
   6  -6  -4   -3.00    1.60
  -6   6   4    1.20    2.40
  -6   6   4    1.90    2.90
  -6   6   4    0.40    1.80
   5  -6  -4   88.99    7.10
   5  -6  -4  113.59    6.20
  -5   6   4  110.29    8.20
  -5   6   4   97.69    7.40
  -5   6   4  108.39    5.90
   4  -6  -4   58.69    6.20
   4  -6  -4   47.90    4.10
   4  -6  -4   46.70    6.20
  -4   6   4   48.80    5.80
  -4   6   4   55.49    6.20
  -4   6   4   47.30    4.00
   3  -6  -4    4.90    2.20
   3  -6  -4    3.20    2.10
   3  -6  -4    1.60    1.60
  -3   6   4    2.60    2.10
  -3   6   4   -1.10    1.40
  -3   6   4    1.40    2.10
   2  -6  -4  132.09    5.80
   2  -6  -4  114.99    6.10
   2  -6  -4  120.99    6.80
  -2   6   4  132.59    6.50
  -2   6   4  110.19    5.40
  -2   6   4  116.59    6.70
   1  -6  -4    6.00    2.00
   1  -6  -4    6.50    1.90
  -1   6   4    7.00    2.10
  -1   6   4    3.90    1.70
  -1   6   4    7.90    2.10
   0  -6  -4  857.01   21.10
   0  -6  -4  785.22   19.50
   0  -6  -4  842.52   18.20
   0   6   4  799.12   19.20
  -1  -6  -4  221.68    8.40
  -1  -6  -4  219.48    6.50
  -1  -6  -4  227.18    7.30
  -1  -6  -4  219.58    7.90
  -1  -6  -4  212.58    6.80
   1   6   4  218.18    7.30
  -2  -6  -4    3.30    1.30
  -2  -6  -4    5.00    2.10
  -2  -6  -4    5.70    1.40
   2   6   4    5.60    2.40
   2   6   4    3.70    1.20
   2   6   4    5.30    1.30
  -3  -6  -4   22.10    2.80
  -3  -6  -4   19.50    1.50
  -3  -6  -4   25.10    3.90
   3   6   4   19.90    1.50
   3   6   4   28.00    3.00
   3   6   4   22.20    3.60
  -4  -6  -4   28.60    4.00
   4   6   4   27.30    3.30
   4   6   4   30.30    4.30
  -5  -6  -4   36.30    4.60
  -5  -6  -4   44.30    5.00
   5   6   4   35.90    4.30
   5   6   4   43.80    5.80
  -6  -6  -4   53.29    6.10
   6   6   4   47.50    5.30
   6   6   4   56.69    6.80
  -7  -6  -4    8.40    3.40
  -7  -6  -4   13.90    4.10
   7   6   4   11.70    3.70
   7   6   4   14.40    3.80
  -8  -6  -4   16.50    4.40
   8   6   4   25.80    5.50
  -9  -6  -4   20.40    5.30
   9   6   4   26.90    5.30
   7  -7  -4   10.60    3.70
   7  -7  -4   16.50    3.60
  -7   7   4   17.10    4.90
  -7   7   4    9.10    4.30
   6  -7  -4   14.90    3.10
  -6   7   4   13.90    3.20
  -6   7   4   12.20    4.30
   5  -7  -4   66.99    7.40
   5  -7  -4   77.09    5.30
  -5   7   4   62.09    7.10
  -5   7   4   60.69    7.30
  -5   7   4   69.29    5.10
   4  -7  -4   16.30    2.90
   4  -7  -4   16.20    3.80
   4  -7  -4   14.60    3.60
  -4   7   4   24.10    4.30
  -4   7   4   18.60    3.10
  -4   7   4   20.90    4.40
   3  -7  -4    9.20    2.30
   3  -7  -4    6.40    2.50
   3  -7  -4    5.30    2.40
  -3   7   4    7.00    2.30
  -3   7   4   10.40    3.10
  -3   7   4    7.90    2.80
   2  -7  -4    0.00    1.70
   2  -7  -4    1.10    1.60
   2  -7  -4    1.50    1.80
  -2   7   4    0.30    1.70
  -2   7   4   -1.00    1.30
  -2   7   4    3.40    2.10
   1  -7  -4  103.49    6.00
   1  -7  -4   96.39    6.20
   1  -7  -4   95.39    5.10
   1  -7  -4   97.39    5.60
  -1   7   4   86.29    5.60
  -1   7   4   90.09    5.20
   0  -7  -4  298.27    9.30
   0  -7  -4  301.07   10.40
   0  -7  -4  301.97    9.70
   0  -7  -4  291.27   10.00
   0  -7  -4  297.37    8.70
  -1  -7  -4  341.57   10.00
  -1  -7  -4  352.46   10.90
  -1  -7  -4  356.56   10.30
  -1  -7  -4  332.97   11.30
  -1  -7  -4  348.97    9.60
   1   7   4  346.47   10.20
  -2  -7  -4   37.90    2.80
  -2  -7  -4   39.30    4.70
  -2  -7  -4   36.50    3.00
   2   7   4   34.30    2.80
   2   7   4   33.60    2.70
   2   7   4   37.80    4.50
  -3  -7  -4   -0.50    1.40
  -3  -7  -4    1.30    0.80
  -3  -7  -4    1.70    1.40
   3   7   4    2.30    1.80
  -4  -7  -4  109.79    6.40
  -4  -7  -4  110.09    5.90
   4   7   4  103.69    5.50
   4   7   4  104.09    6.70
  -5  -7  -4   55.89    4.90
  -5  -7  -4   62.19    6.80
   5   7   4   50.49    6.20
   5   7   4   48.40    4.40
  -6  -7  -4    7.40    2.70
  -6  -7  -4   10.00    3.40
   6   7   4    3.80    2.20
   6   7   4    9.00    3.40
  -7  -7  -4    0.10    2.30
   7   7   4    0.70    2.00
   7   7   4   -0.20    2.60
  -8  -7  -4   29.00    5.70
   8   7   4   17.10    4.40
  -9  -7  -4    5.40    3.80
   9   7   4    6.40    3.60
   7  -8  -4   -2.10    2.20
   6  -8  -4    8.00    2.70
   6  -8  -4    2.50    2.80
  -6   8   4    5.00    2.60
  -6   8   4    5.30    3.50
   5  -8  -4   35.40    4.20
  -5   8   4   38.90    8.70
  -5   8   4   32.90    4.10
   4  -8  -4    6.30    2.30
   4  -8  -4    5.00    2.60
  -4   8   4    7.50    3.00
  -4   8   4   12.00    2.80
   3  -8  -4   46.80    5.70
   3  -8  -4   20.80    4.00
   3  -8  -4   32.90    3.90
  -3   8   4   34.20    5.10
  -3   8   4   40.60    6.00
   2  -8  -4  109.29    7.30
   2  -8  -4  115.79    6.70
   2  -8  -4  109.09    5.70
   2  -8  -4  108.69    6.30
  -2   8   4  121.59    6.90
  -2   8   4  125.99    7.60
   1  -8  -4   77.49    4.70
   1  -8  -4   62.19    4.80
   1  -8  -4   63.89    4.90
   1  -8  -4   64.89    5.20
  -1   8   4   73.19    5.50
  -1   8   4   73.29    5.20
   0  -8  -4  150.28    7.30
   0  -8  -4  158.38    7.30
   0  -8  -4  142.59    6.60
   0  -8  -4  148.99    6.70
   0  -8  -4  152.98    6.30
   0   8   4  148.49    7.20
  -1  -8  -4  396.16   12.20
  -1  -8  -4  401.46   11.20
  -1  -8  -4  399.56   13.00
   1   8   4  398.06   11.70
  -2  -8  -4   35.90    2.90
  -2  -8  -4   33.10    4.70
  -2  -8  -4   34.70    3.70
   2   8   4   34.30    4.60
  -3  -8  -4   28.80    4.10
  -3  -8  -4   28.70    2.10
  -3  -8  -4   30.40    3.70
  -3  -8  -4   28.20    1.90
   3   8   4   32.50    4.90
   3   8   4   28.30    3.50
  -4  -8  -4   44.30    4.60
  -4  -8  -4   34.80    5.00
   4   8   4   48.60    6.20
   4   8   4   45.00    3.90
  -5  -8  -4   21.10    3.90
  -5  -8  -4   26.90    4.80
   5   8   4   23.30    3.70
   5   8   4   22.10    4.70
  -6  -8  -4   -1.60    1.80
   6   8   4   -1.50    1.80
  -7  -8  -4   35.00    5.80
   7   8   4   41.80    6.70
   7   8   4   38.10    6.40
  -8  -8  -4   35.90    6.50
   8   8   4   33.40    5.90
   6  -9  -4   46.30    4.90
   6  -9  -4   40.50    6.10
  -6   9   4   53.19    7.70
   5  -9  -4    7.20    3.20
   5  -9  -4   11.70    2.90
  -5   9   4    7.60    3.60
   4  -9  -4   10.20    2.60
   4  -9  -4    2.70    3.00
   4  -9  -4    7.80    2.90
  -4   9   4   11.00    3.70
   3  -9  -4   27.90    4.80
   3  -9  -4   41.40    4.40
   3  -9  -4   36.00    4.60
   3  -9  -4   36.90    5.80
  -3   9   4   36.50    5.50
   2  -9  -4  314.47   10.60
   2  -9  -4  315.37   12.00
   2  -9  -4  281.57   14.50
   2  -9  -4  298.07   11.20
  -2   9   4  308.07   11.90
   1  -9  -4    6.40    2.70
   1  -9  -4    5.30    2.00
   1  -9  -4    1.80    1.80
   1  -9  -4    2.90    2.20
   0  -9  -4   52.49    4.70
   0  -9  -4   74.09    5.10
   0  -9  -4   60.49    4.30
   0  -9  -4   63.79    4.70
   0  -9  -4   61.09    4.90
  -1  -9  -4  257.57    9.60
  -1  -9  -4  258.87    9.10
  -1  -9  -4  241.68   10.10
  -1  -9  -4  289.37   10.20
  -1  -9  -4  260.07    8.60
  -1  -9  -4  253.47    9.30
  -2  -9  -4    1.00    1.80
  -2  -9  -4    3.10    1.50
  -2  -9  -4    4.00    2.00
  -2  -9  -4    1.70    1.60
  -2  -9  -4    1.90    1.30
  -3  -9  -4    1.90    1.70
  -3  -9  -4    1.50    2.00
  -3  -9  -4    2.00    1.10
  -3  -9  -4    1.60    1.00
   3   9   4    0.50    1.40
   3   9   4    0.40    1.80
  -4  -9  -4  201.88    8.80
  -4  -9  -4  197.48    9.50
   4   9   4  206.78   10.30
   4   9   4  195.88    8.30
  -5  -9  -4    0.40    1.90
  -5  -9  -4    1.10    1.90
   5   9   4    0.60    1.70
   5   9   4    0.40    2.00
  -6  -9  -4    3.10    2.90
   6   9   4    2.70    2.30
   6   9   4    3.20    2.90
   7   9   4   69.79    8.50
  -8  -9  -4   39.90    6.60
   8   9   4   35.60    6.20
   5 -10  -4    0.90    1.90
   5 -10  -4    0.60    2.40
   5 -10  -4    1.70    2.50
  -5  10   4    0.30    3.10
   4 -10  -4    4.70    2.70
   4 -10  -4    5.00    2.60
   4 -10  -4   -0.20    1.70
   3 -10  -4  102.89    7.70
   3 -10  -4  118.09    7.10
   3 -10  -4  104.19    7.50
   3 -10  -4  123.89    6.60
  -3  10   4  106.79    7.80
   2 -10  -4   29.90    5.20
   2 -10  -4   35.00    4.40
   2 -10  -4   32.60    5.20
   2 -10  -4   33.70    4.70
   2 -10  -4   30.20    4.80
  -2  10   4   43.30    5.70
   1 -10  -4   -1.60    1.80
   1 -10  -4   -1.00    1.70
   1 -10  -4   -2.90    1.10
   1 -10  -4    2.20    2.00
   1 -10  -4   -0.10    1.60
   0 -10  -4  227.48    9.10
   0 -10  -4  243.88    9.40
   0 -10  -4  233.48    9.90
   0 -10  -4  237.08   10.20
   0 -10  -4  235.68   10.00
   0 -10  -4  254.57    9.70
  -1 -10  -4    1.70    1.70
  -1 -10  -4    0.10    1.40
  -1 -10  -4   -1.30    1.50
  -1 -10  -4   -0.10    1.50
  -1 -10  -4    0.80    1.50
  -1 -10  -4    0.90    2.10
  -2 -10  -4    1.70    1.60
  -2 -10  -4    0.70    1.80
  -2 -10  -4    1.30    1.50
  -2 -10  -4    4.10    2.00
  -3 -10  -4   67.29    7.00
  -3 -10  -4   72.69    3.60
  -3 -10  -4   64.79    3.80
  -3 -10  -4   65.59    5.10
   3  10   4   57.79    6.60
   3  10   4   69.49    5.00
  -4 -10  -4   24.90    4.50
  -4 -10  -4   27.80    4.30
   4  10   4   26.30    4.50
   4  10   4   31.40    4.30
  -5 -10  -4   45.90    5.70
   5  10   4   33.00    5.40
  -6 -10  -4   15.20    4.10
   6  10   4   17.20    4.20
   6  10   4   13.60    4.60
  -7 -10  -4   96.59    8.30
   7  10   4   75.69    8.50
  -8 -10  -4   19.70    5.30
   8  10   4    9.50    3.80
   5 -11  -4    1.10    2.50
   5 -11  -4    1.80    2.90
   5 -11  -4   -1.60    1.90
  -5  11   4    1.90    3.30
   4 -11  -4    8.50    3.30
   4 -11  -4   12.20    4.00
   4 -11  -4   10.60    2.90
  -4  11   4   13.80    4.30
   3 -11  -4   57.19    6.60
   3 -11  -4   70.29    6.00
   3 -11  -4   68.19    5.30
  -3  11   4   66.79    7.50
   2 -11  -4   27.10    5.30
   2 -11  -4   17.30    3.80
   2 -11  -4   26.20    4.10
   2 -11  -4   16.70    4.20
   1 -11  -4   54.49    6.40
   1 -11  -4   63.19    5.50
   1 -11  -4   62.39    5.10
   1 -11  -4   50.59    6.40
   1 -11  -4   66.89    5.40
   1 -11  -4   65.69    6.70
   0 -11  -4   21.40    4.40
   0 -11  -4   22.20    4.10
   0 -11  -4   20.80    4.20
   0 -11  -4   25.80    4.10
   0 -11  -4   25.60    3.90
   0 -11  -4   29.60    4.00
  -1 -11  -4   32.10    5.00
  -1 -11  -4   40.90    4.40
  -1 -11  -4   40.00    5.60
  -1 -11  -4   40.00    4.90
  -1 -11  -4   44.50    5.00
  -1 -11  -4   41.60    5.20
  -2 -11  -4   11.40    3.20
  -2 -11  -4   18.00    3.50
  -2 -11  -4   15.20    3.20
  -2 -11  -4   14.20    2.60
  -2 -11  -4    7.70    3.00
  -3 -11  -4   32.80    2.90
  -3 -11  -4   33.10    5.50
  -3 -11  -4   31.40    3.40
  -3 -11  -4   37.10    4.80
   3  11   4   36.90    5.70
  -4 -11  -4   46.30    5.60
   4  11   4   49.00    6.30
   4  11   4   46.70    6.60
  -5 -11  -4    3.60    2.80
   5  11   4    4.80    2.60
   5  11   4    2.90    2.90
   6  11   4   15.50    4.30
  -7 -11  -4   58.29    7.70
   7  11   4   48.00    7.40
   4 -12  -4    4.60    3.90
   4 -12  -4   10.90    3.10
   4 -12  -4    6.00    3.40
  -4  12   4   17.60    4.80
   3 -12  -4   26.10    3.90
   3 -12  -4   26.10    5.20
  -3  12   4   30.40    5.60
   2 -12  -4    3.10    2.20
   2 -12  -4    2.10    2.20
   2 -12  -4    1.90    3.90
   1 -12  -4    7.10    2.90
   1 -12  -4    3.80    3.20
   1 -12  -4    6.00    2.90
   1 -12  -4    8.00    2.80
   1 -12  -4   10.30    3.30
   1 -12  -4    6.80    3.10
   0 -12  -4   57.39    6.70
   0 -12  -4   68.19    6.10
   0 -12  -4   65.89    5.40
   0 -12  -4   71.49    5.70
   0 -12  -4   61.79    5.50
   0 -12  -4   63.49    7.10
  -1 -12  -4   -2.50    1.70
  -1 -12  -4    2.50    2.20
  -1 -12  -4   -1.40    1.30
  -1 -12  -4   -0.40    2.30
  -1 -12  -4   -1.10    1.70
  -2 -12  -4    1.60    1.60
  -2 -12  -4    1.00    2.00
  -2 -12  -4    1.70    2.80
  -2 -12  -4    2.60    2.20
  -3 -12  -4   53.69    5.60
  -3 -12  -4   60.39    6.90
  -3 -12  -4   54.39    6.10
  -3 -12  -4   59.19    3.90
   3  12   4   62.39    7.80
  -4 -12  -4   31.40    5.00
   4  12   4   39.60    5.20
   4  12   4   25.60    5.10
  -5 -12  -4    1.30    2.90
   5  12   4    2.70    3.10
  -6 -12  -4   41.60    6.20
   6  12   4   22.60    5.00
  -7 -12  -4   16.80    5.00
   7  12   4   15.90    5.30
   3 -13  -4   -0.80    2.00
   3 -13  -4   -0.30    2.50
   3 -13  -4   -0.30    2.50
   2 -13  -4    9.00    3.00
   2 -13  -4    5.80    3.00
   2 -13  -4   11.60    3.60
   2 -13  -4    6.30    2.80
   1 -13  -4    8.10    3.20
   1 -13  -4    7.90    3.30
   1 -13  -4    5.40    2.80
   1 -13  -4    3.60    3.20
   0 -13  -4    1.50    2.40
   0 -13  -4    2.00    2.00
   0 -13  -4   -0.80    2.20
   0 -13  -4    6.90    3.50
   0 -13  -4    2.70    2.00
  -1 -13  -4    5.10    3.00
  -1 -13  -4    3.00    4.10
  -1 -13  -4    5.70    3.30
  -1 -13  -4    3.20    1.90
  -1 -13  -4    3.00    2.20
  -2 -13  -4   25.30    4.20
  -2 -13  -4   19.20    4.40
  -2 -13  -4   29.40    4.90
  -2 -13  -4   26.00    3.80
  -2 -13  -4   17.20    3.70
  -3 -13  -4   92.69    5.10
  -3 -13  -4  100.39    7.30
  -3 -13  -4   87.49    8.60
  -3 -13  -4   71.59    5.10
   3  13   4   90.99   10.00
  -4 -13  -4    7.00    5.20
  -4 -13  -4    1.70    1.40
  -4 -13  -4    1.00    1.10
   4  13   4    3.80    3.40
  -5 -13  -4   -2.30    2.00
   5  13   4    4.20    3.30
  -6 -13  -4   50.19    7.10
   6  13   4   48.00    7.80
   2 -14  -4    7.30    3.30
   2 -14  -4   12.40    4.00
   2 -14  -4   13.40    3.50
   1 -14  -4   42.80    6.30
   1 -14  -4   55.09    6.70
   1 -14  -4   47.00    6.20
   0 -14  -4   -1.10    2.10
   0 -14  -4    3.40    2.60
   0 -14  -4    1.00    1.90
  -1 -14  -4    7.50    3.10
  -1 -14  -4   -1.00    2.10
  -1 -14  -4    0.00    2.30
  -1 -14  -4    1.50    2.00
  -2 -14  -4   48.80    6.20
  -2 -14  -4   44.50    5.90
  -2 -14  -4   48.80    5.30
  -2 -14  -4   45.40    5.70
  -3 -14  -4    1.40    2.70
  -3 -14  -4    0.30    2.00
  -3 -14  -4    2.60    1.70
  -4 -14  -4    4.10    1.80
  -4 -14  -4    2.30    1.40
  -4 -14  -4    1.30    2.50
   4  14   4    6.00    4.00
  -5 -14  -4   19.60    4.70
   5  14   4   17.00    5.10
   0 -15  -4    5.80    3.10
   0 -15  -4    5.90    2.90
   0 -15  -4    6.00    3.10
  -1 -15  -4   28.00    5.00
  -1 -15  -4   21.30    4.70
  -2 -15  -4   20.20    4.50
  -2 -15  -4   34.60    4.70
  -2 -15  -4   18.20    4.40
  -2 -15  -4   17.10    4.10
  -3 -15  -4    5.90    3.20
  -3 -15  -4    2.80    1.80
  -3 -15  -4    1.80    2.40
   2  13  -5   90.49    7.90
  -2 -13   5   73.99    8.80
  -2 -13   5  101.09    7.90
   1  13  -5   -0.20    2.80
  -1 -13   5   -2.00    2.40
  -1 -13   5    2.30    2.60
   0  13  -5    2.00    2.60
   0 -13   5   -0.10    2.40
   0 -13   5    0.20    2.40
   0 -13   5   -4.00    2.10
   4  12  -5    5.50    2.70
   4  12  -5    8.00    3.90
  -4 -12   5   -0.50    2.20
  -4 -12   5    4.10    2.80
   3  12  -5   54.29    7.10
  -3 -12   5   52.49    7.70
  -3 -12   5   53.29    6.50
   2  12  -5   43.40    6.20
  -2 -12   5   44.40    6.20
  -2 -12   5   37.00    6.20
   1  12  -5   -0.30    2.50
  -1 -12   5   -1.70    2.10
  -1 -12   5    0.20    2.70
  -1 -12   5   -0.60    2.00
   0  12  -5   25.30    4.40
   0 -12   5   31.50    6.80
   0 -12   5   23.00    4.80
   0 -12   5   21.20    5.20
  -1  12  -5   64.69    5.40
   1 -12   5   52.99    7.40
   1 -12   5   56.29    4.70
   1 -12   5   60.69    7.60
   2 -12   5   12.60    3.80
   2 -12   5   15.60    2.90
   2 -12   5   24.90    5.50
   5  11  -5   53.59    7.60
   5  11  -5   35.80    6.20
  -5 -11   5   48.30    5.60
  -5 -11   5   35.20    6.40
   4  11  -5   21.50    4.00
   4  11  -5   16.00    4.10
  -4 -11   5   13.10    4.30
  -4 -11   5   18.00    3.80
   3  11  -5   66.29    7.20
   3  11  -5   84.59    6.20
  -3 -11   5   73.19    8.20
  -3 -11   5   82.89    6.60
   2  11  -5   25.10    4.70
   2  11  -5   17.80    3.70
  -2 -11   5   26.70    4.60
  -2 -11   5   22.90    4.90
   1  11  -5    5.80    2.70
  -1 -11   5    8.20    3.50
  -1 -11   5    3.90    2.40
  -1 -11   5    1.00    2.60
   0  11  -5    5.80    2.50
   0 -11   5   11.80    3.60
   0 -11   5    6.50    2.50
   0 -11   5    4.00    2.90
  -1  11  -5  223.28    9.00
   1 -11   5  212.58   11.40
   1 -11   5  207.18   11.40
   1 -11   5  213.68    8.30
   2 -11   5    0.40    2.10
   2 -11   5    5.40    3.30
   2 -11   5    2.40    2.40
   3 -11   5    5.90    3.20
   3 -11   5    5.60    2.90
   4 -11   5   12.10    4.10
   4 -11   5    8.60    3.20
   6  10  -5   53.99    4.90
   6  10  -5   51.39    7.80
  -6 -10   5   52.29    7.80
  -6 -10   5   59.69    5.40
   5  10  -5   14.50    3.20
   5  10  -5    3.20    3.20
  -5 -10   5    4.90    2.50
  -5 -10   5    5.40    3.20
   4  10  -5   57.19    5.20
   4  10  -5   67.99    7.70
  -4 -10   5   48.50    6.90
  -4 -10   5   70.29    5.70
   3  10  -5   92.19   10.20
  -3 -10   5   88.89    6.50
  -3 -10   5   83.29    8.80
   2  10  -5   26.10    4.20
   2  10  -5   30.90    4.90
  -2 -10   5   20.10    3.90
  -2 -10   5   27.60    4.90
  -2 -10   5   22.10    3.90
   1  10  -5   15.70    3.60
   1  10  -5   15.00    3.50
  -1 -10   5   21.50    4.30
  -1 -10   5   20.90    4.00
  -1 -10   5   19.10    3.60
   0  10  -5   22.70    3.70
   0 -10   5   19.50    3.30
   0 -10   5   14.80    3.80
   0 -10   5   17.30    4.10
  -1  10  -5   65.29    4.80
   1 -10   5   67.79    4.50
   1 -10   5   58.89    6.60
   1 -10   5   61.69    7.20
  -2  10  -5    5.50    1.90
   2 -10   5    3.30    1.50
   2 -10   5    1.10    2.30
   2 -10   5    2.30    2.30
   3 -10   5    4.80    2.90
   3 -10   5    4.20    2.70
  -5  10  -5   -0.80    2.80
   5 -10   5    4.10    2.80
   6   9  -5   58.09    7.30
   6   9  -5   61.49    5.10
  -6  -9   5   70.09    8.70
  -6  -9   5   79.49    5.90
   5   9  -5    1.70    2.00
   5   9  -5    4.20    2.90
  -5  -9   5    2.70    2.00
  -5  -9   5    6.10    3.10
   4   9  -5   56.99    5.70
   4   9  -5   42.90    5.70
  -4  -9   5   50.09    5.70
  -4  -9   5   45.50    6.40
   3   9  -5   12.80    3.60
   3   9  -5   19.00    3.60
  -3  -9   5   13.50    3.40
  -3  -9   5   15.30    3.90
  -3  -9   5    9.80    3.00
   2   9  -5    7.90    2.40
   2   9  -5   17.70    3.60
  -2  -9   5   14.10    3.30
   1   9  -5    2.90    2.00
   1   9  -5    4.60    2.70
  -1  -9   5    9.00    2.70
  -1  -9   5    4.60    2.60
  -1  -9   5    9.50    2.90
   0   9  -5  301.47   11.80
   0   9  -5  312.67   10.80
   0  -9   5  318.97   13.00
   0  -9   5  310.97   10.30
   0  -9   5  330.57   12.90
  -1   9  -5    6.10    2.50
   1  -9   5   16.60    3.90
   1  -9   5   10.80    3.40
   1  -9   5   13.40    2.50
  -2   9  -5    1.80    1.60
   2  -9   5    2.90    1.40
   2  -9   5    0.30    2.60
   2  -9   5    0.50    2.20
   3  -9   5   75.89    6.80
  -4   9  -5   11.10    4.10
   4  -9   5    7.80    3.00
  -5   9  -5    1.50    3.00
   5  -9   5    0.40    2.10
   7   8  -5   25.00    3.90
   7   8  -5   22.10    5.10
  -7  -8   5   23.90    4.20
  -7  -8   5   28.50    6.40
   6   8  -5    4.40    2.20
   6   8  -5   14.10    4.90
  -6  -8   5    8.30    2.70
  -6  -8   5    4.20    3.20
   5   8  -5   87.69    7.30
   5   8  -5   61.59    5.00
  -5  -8   5   86.39    7.60
  -5  -8   5   73.99    5.70
   4   8  -5   80.59    5.50
   4   8  -5   86.79   12.00
  -4  -8   5   92.09    7.30
  -4  -8   5   84.99    6.00
   3   8  -5   14.20    3.40
   3   8  -5   11.00    3.10
   3   8  -5   15.20    2.90
  -3  -8   5   19.50    3.90
  -3  -8   5   20.60    4.20
  -3  -8   5   22.50    3.90
   2   8  -5   84.99    6.20
   2   8  -5   80.99    5.50
   2   8  -5   80.89    6.00
  -2  -8   5   88.49    5.90
  -2  -8   5   93.59    6.20
  -2  -8   5   73.69    6.10
   1   8  -5  137.59    7.30
   1   8  -5  162.98    7.70
  -1  -8   5  149.88    8.40
  -1  -8   5  157.18    7.30
  -1  -8   5  162.88    9.30
  -1  -8   5  153.28    8.00
   0   8  -5    7.20    2.30
   0   8  -5    7.30    2.40
   0  -8   5    9.40    2.90
   0  -8   5   11.80    3.70
   0  -8   5   13.40    2.70
   0  -8   5   10.60    2.90
  -1   8  -5   32.40    3.60
  -1   8  -5   32.50    4.80
   1  -8   5   32.90    5.20
   1  -8   5   29.10    3.90
   1  -8   5   36.50    5.90
   1  -8   5   40.30    5.60
  -2   8  -5  131.09    5.10
  -2   8  -5  131.29    7.80
   2  -8   5  135.29    4.90
   2  -8   5  134.89    8.20
   2  -8   5  125.99    8.60
  -4   8  -5   26.00    5.50
   4  -8   5   27.20    4.90
  -5   8  -5   16.90    4.40
   5  -8   5   14.10    4.10
  -6   8  -5   23.10    5.60
   6  -8   5   19.70    4.60
   7   7  -5   26.80    5.30
   7   7  -5   38.90    4.80
  -7  -7   5   39.50    5.10
  -7  -7   5   42.00    7.30
   6   7  -5   19.50    4.40
   6   7  -5   23.10    3.80
  -6  -7   5   20.30    3.80
  -6  -7   5   27.50    5.80
   5   7  -5  108.79    7.80
   5   7  -5  108.89    6.30
  -5  -7   5  106.99    6.60
  -5  -7   5   99.99    7.90
   4   7  -5   -1.40    1.40
   4   7  -5    1.30    1.60
   4   7  -5    6.60    2.90
  -4  -7   5    0.90    1.80
  -4  -7   5    2.80    2.30
  -4  -7   5    2.80    1.80
   3   7  -5  113.49    7.00
   3   7  -5  104.79    6.80
   3   7  -5   97.69    5.80
  -3  -7   5  117.29    6.60
  -3  -7   5   98.29    8.10
  -3  -7   5   98.49    7.00
   2   7  -5   58.19    7.00
   2   7  -5   53.39    4.40
   2   7  -5   71.79    5.30
  -2  -7   5   58.79    5.30
  -2  -7   5   60.49    4.80
  -2  -7   5   65.79    5.10
   1   7  -5   18.50    3.20
   1   7  -5   10.70    2.60
  -1  -7   5   13.80    3.10
  -1  -7   5   17.10    2.90
  -1  -7   5    8.40    2.70
   0   7  -5  173.28    7.00
   0   7  -5  154.88    7.50
   0  -7   5  158.78    6.50
   0  -7   5  167.68    8.30
   0  -7   5  166.18    8.80
   0  -7   5  173.78    8.40
  -1   7  -5   83.59    4.40
  -1   7  -5   79.69    5.60
   1  -7   5   93.49    6.80
   1  -7   5   84.59    6.00
   1  -7   5   81.69    6.00
   1  -7   5   89.99    4.30
  -2   7  -5   33.90    4.80
   2  -7   5   24.40    5.00
   2  -7   5   30.10    4.40
   2  -7   5   43.10    2.60
   2  -7   5   29.50    4.10
  -3   7  -5   53.59    6.50
  -3   7  -5   55.39    5.90
   3  -7   5   46.10    5.70
   3  -7   5   57.39    7.00
  -4   7  -5    9.90    3.70
  -5   7  -5   44.40    6.50
   5  -7   5   46.10    6.50
  -6   7  -5   24.80    5.40
   6  -7   5   14.20    4.30
  -7   7  -5   -1.50    2.70
   7  -7   5    0.30    2.40
   7   6  -5   62.69    5.20
   7   6  -5   49.70    7.00
  -7  -6   5   54.19    7.70
  -7  -6   5   62.29    5.60
   6   6  -5   72.89    8.50
   6   6  -5   52.49    4.70
  -6  -6   5   63.19    5.30
  -6  -6   5   59.69    7.50
   5   6  -5    5.30    2.30
  -5  -6   5    9.10    2.70
  -5  -6   5   12.80    3.40
   4   6  -5   95.39    6.70
   4   6  -5   96.69    6.60
   4   6  -5   95.99    5.70
  -4  -6   5   86.59    6.20
  -4  -6   5   95.99    6.90
  -4  -6   5   98.79    6.00
   3   6  -5    4.40    1.70
   3   6  -5    8.50    2.50
   3   6  -5   10.10    2.70
  -3  -6   5    9.60    2.70
  -3  -6   5    6.70    2.50
  -3  -6   5    6.90    2.40
   2   6  -5  140.69    6.90
   2   6  -5  119.19    6.70
   2   6  -5  118.39    6.20
  -2  -6   5  120.79    6.70
  -2  -6   5  133.19    6.60
  -2  -6   5  133.89    7.20
   1   6  -5  123.99    6.20
   1   6  -5  137.99    7.00
   1   6  -5  132.19    6.50
  -1  -6   5  124.29    6.70
  -1  -6   5  142.09    7.20
  -1  -6   5  139.39    6.30
   0   6  -5   22.30    3.10
   0   6  -5   16.60    3.00
   0  -6   5   17.10    2.60
   0  -6   5   13.00    3.10
   0  -6   5   17.90    3.30
   0  -6   5   15.00    3.00
  -1   6  -5  142.99    7.10
  -1   6  -5  155.38    5.70
   1  -6   5  152.88    5.50
   1  -6   5  137.99    7.90
   1  -6   5  140.59    7.20
   1  -6   5  147.49    7.60
  -2   6  -5  191.68    5.60
  -2   6  -5  187.88    8.50
   2  -6   5  193.88    5.50
   2  -6   5  175.18    8.70
   2  -6   5  185.88    9.30
  -3   6  -5  133.59    8.20
  -3   6  -5  121.69    7.10
   3  -6   5  126.79    7.50
   3  -6   5  120.79    8.20
  -4   6  -5   43.90    5.90
  -4   6  -5   28.10    4.30
   4  -6   5   35.50    5.20
   4  -6   5   35.90    5.20
  -5   6  -5   22.70    7.60
   5  -6   5   22.40    5.40
  -6   6  -5   25.10    5.40
   6  -6   5   29.40    5.40
  -7   6  -5   -2.10    2.50
   7  -6   5    0.20    2.20
   8   5  -5   41.90    5.40
   8   5  -5   36.90    6.70
  -8  -5   5   38.60    6.80
  -8  -5   5   48.90    6.00
   7   5  -5    6.90    2.60
   7   5  -5   12.40    4.20
  -7  -5   5   20.70    5.00
  -7  -5   5    9.30    3.00
   6   5  -5   59.19    6.90
   6   5  -5   75.09    5.50
  -6  -5   5   87.19    6.00
  -6  -5   5   87.69    7.60
   5   5  -5   67.09    5.00
   5   5  -5   81.69    6.50
   5   5  -5   74.19    6.20
  -5  -5   5   73.99    6.40
  -5  -5   5   71.09    5.90
  -5  -5   5   71.79    5.40
   4   5  -5   42.60    5.60
   4   5  -5   45.40    4.10
  -4  -5   5   39.40    4.90
  -4  -5   5   36.20    5.20
  -4  -5   5   44.10    4.90
   3   5  -5   87.69    5.80
   3   5  -5   90.69    5.90
   3   5  -5   89.99    5.30
  -3  -5   5  107.59    6.00
  -3  -5   5   92.79    6.20
  -3  -5   5   92.59    5.70
   2   5  -5   45.30    4.90
   2   5  -5   43.00    3.80
   2   5  -5   49.40    4.20
  -2  -5   5   40.60    4.20
  -2  -5   5   46.00    5.00
  -2  -5   5   48.50    5.00
   1   5  -5  521.95   14.60
   1   5  -5  542.05   14.20
   1   5  -5  506.45   14.70
  -1  -5   5  536.65   15.10
  -1  -5   5  523.95   13.90
  -1  -5   5  551.04   15.20
   0   5  -5   97.29    4.70
   0   5  -5   93.99    5.30
   0  -5   5  102.39    5.90
   0  -5   5   89.79    5.80
   0  -5   5   92.09    5.40
   0  -5   5   82.89    5.00
  -1   5  -5   45.30    3.90
  -1   5  -5   47.10    3.10
   1  -5   5   56.19    4.80
   1  -5   5   51.49    4.20
   1  -5   5   49.80    4.40
   1  -5   5   48.90    3.00
  -2   5  -5  341.07   11.70
  -2   5  -5  357.56    8.40
   2  -5   5  376.56   12.60
   2  -5   5  349.47   12.60
   2  -5   5  364.46    8.40
  -4   5  -5   30.80    4.50
  -4   5  -5   30.30    4.50
   4  -5   5   28.50    4.70
  -5   5  -5  140.29    9.10
  -5   5  -5  131.69    7.70
   5  -5   5  118.19    8.30
   5  -5   5  111.39    7.50
  -6   5  -5    9.40    3.40
   6  -5   5    1.40    2.20
  -7   5  -5   -0.40    2.60
   7  -5   5   -0.20    2.10
  -8   5  -5   29.00    5.90
   8  -5   5   33.70    5.80
   8   4  -5   21.80    4.30
   8   4  -5   20.70    5.30
  -8  -4   5   11.80    4.50
  -8  -4   5   12.90    3.70
   7   4  -5    0.90    2.40
   7   4  -5    4.90    2.30
  -7  -4   5    7.90    3.40
  -7  -4   5    6.80    2.70
   6   4  -5   54.39    7.00
   6   4  -5   54.19    5.70
  -6  -4   5   47.10    5.60
  -6  -4   5   62.69    9.80
   5   4  -5   97.99    6.70
   5   4  -5   86.39    6.50
   5   4  -5   88.79    5.70
  -5  -4   5   93.39    7.00
  -5  -4   5   88.09    5.90
  -5  -4   5   90.29    6.30
   4   4  -5    1.10    1.50
   4   4  -5    1.20    1.50
   4   4  -5    6.20    2.30
  -4  -4   5    6.50    2.50
  -4  -4   5    3.40    1.70
  -4  -4   5    1.90    1.60
   3   4  -5   25.70    3.80
   3   4  -5   33.30    4.40
   3   4  -5   24.00    3.50
  -3  -4   5   27.10    3.80
  -3  -4   5   27.10    3.80
  -3  -4   5   27.50    3.90
   2   4  -5  519.05   14.50
   2   4  -5  504.15   14.30
   2   4  -5  559.64   14.80
  -2  -4   5  542.15   14.80
  -2  -4   5  547.65   15.10
  -2  -4   5  514.05   14.30
   1   4  -5   40.00   16.90
  -1  -4   5   62.79   18.60
  -1  -4   5   56.19   19.80
   0   4  -5   20.70    3.20
   0   4  -5   20.80    2.50
   0  -4   5   19.20    3.10
   0  -4   5   24.90    2.70
   0  -4   5   15.90    2.80
   0  -4   5   17.90    2.80
  -1   4  -5  772.92   16.10
  -1   4  -5  717.03   18.40
   1  -4   5  757.02   19.30
   1  -4   5  764.72   18.40
   1  -4   5  737.13   19.10
   1  -4   5  756.72   16.00
  -2   4  -5   49.90    4.40
  -2   4  -5   50.99    2.50
  -2   4  -5   54.89    4.10
   2  -4   5   50.39    2.40
   2  -4   5   51.59    4.30
   2  -4   5   43.60    4.80
  -4   4  -5  143.19    8.10
  -4   4  -5  114.69    6.60
   4  -4   5  125.99    7.60
   4  -4   5  116.69    6.90
  -5   4  -5   12.60    3.50
  -5   4  -5    7.40    2.70
   5  -4   5    9.80    3.00
   5  -4   5   10.20    3.20
  -6   4  -5    8.30    3.40
   6  -4   5    5.40    2.50
  -7   4  -5   49.80    7.10
   7  -4   5   51.39    6.50
  -8   4  -5   54.29    8.20
   8  -4   5   54.89    7.00
   8   3  -5   22.70    4.60
   8   3  -5   21.60    5.10
  -8  -3   5   20.90    4.50
  -8  -3   5   17.00    4.90
   7   3  -5    3.70    2.70
  -7  -3   5    6.60    3.00
  -7  -3   5    3.40    2.70
   6   3  -5  145.19    8.60
   6   3  -5  124.19    7.10
  -6  -3   5  123.89    8.70
  -6  -3   5  125.19    7.40
   5   3  -5   17.70    3.50
   5   3  -5   15.50    3.50
   5   3  -5   14.70    3.50
  -5  -3   5   17.90    4.10
  -5  -3   5   25.30    3.80
  -5  -3   5   11.10    2.80
   4   3  -5   63.89    4.80
   4   3  -5   76.09    5.50
   4   3  -5   78.09    5.40
  -4  -3   5   77.79    5.30
  -4  -3   5   68.29    5.00
  -4  -3   5   77.39    5.70
   3   3  -5  251.97    9.40
   3   3  -5  264.07    9.70
   3   3  -5  257.77    9.30
  -3  -3   5  261.97    9.60
  -3  -3   5  256.57    9.80
  -3  -3   5  267.87    9.50
   2   3  -5  295.97    9.80
   2   3  -5  307.07    9.90
   2   3  -5  292.47    9.60
  -2  -3   5  305.17   10.10
  -2  -3   5  288.57   10.00
  -2  -3   5  295.27    9.60
   1   3  -5  599.54   14.80
   1   3  -5  587.24   14.90
   1   3  -5  607.24   15.50
  -1  -3   5  579.74   14.60
  -1  -3   5  622.64   15.20
   0   3  -5  527.15   12.20
   0   3  -5  443.86   13.10
   0  -3   5  522.85   12.20
   0  -3   5  456.45   12.50
  -1   3  -5   73.39    4.50
  -1   3  -5   81.59    3.50
   1  -3   5   70.69    4.20
   1  -3   5   78.99    4.90
   1  -3   5   79.49    3.50
  -2   3  -5   77.29    4.70
  -2   3  -5   86.39    3.20
   2  -3   5   75.19    4.90
   2  -3   5   71.69    4.90
   2  -3   5   82.99    3.20
  -3   3  -5  114.19    6.00
  -3   3  -5  144.89    7.10
   3  -3   5  118.69    6.50
   3  -3   5  123.09    6.50
  -4   3  -5  282.67   11.10
  -4   3  -5  269.07   10.00
   4  -3   5  270.07   10.30
   4  -3   5  268.37   10.70
  -5   3  -5   26.90    3.70
  -5   3  -5   29.30    4.80
   5  -3   5   21.80    4.20
   5  -3   5   23.00    3.60
  -6   3  -5    2.30    2.30
   6  -3   5    1.30    2.50
   6  -3   5   -0.50    1.50
  -7   3  -5   99.49    8.50
   7  -3   5  128.99    8.10
  -8   3  -5   84.19    9.60
   8  -3   5   86.39    7.20
   8   2  -5    5.40    3.00
  -8  -2   5    7.80    3.40
  -8  -2   5    2.30    3.20
   7   2  -5   47.50    6.30
   7   2  -5   40.20    5.60
  -7  -2   5   47.30    6.90
  -7  -2   5   49.99    6.00
   6   2  -5   19.20    3.60
   6   2  -5   26.30    4.80
   6   2  -5   22.70    4.60
  -6  -2   5   21.70    4.10
  -6  -2   5   25.30    4.80
  -6  -2   5   15.90    3.70
   5   2  -5  129.39    7.40
   5   2  -5  131.09    7.70
   5   2  -5  133.59    7.10
  -5  -2   5  119.29    8.00
  -5  -2   5  142.29    8.30
  -5  -2   5  134.99    7.30
   3   2  -5   48.50    4.00
   3   2  -5   55.59    4.20
   3   2  -5   67.79    4.60
  -3  -2   5   63.89    4.60
  -3  -2   5   74.69    4.70
  -3  -2   5   56.29    4.40
   2   2  -5  172.08    6.70
   2   2  -5  173.88    6.90
   2   2  -5  171.38    7.00
  -2  -2   5  165.58    6.70
  -2  -2   5  169.18    6.90
   1   2  -5   10.00   11.10
  -1  -2   5   14.90   11.10
   0   2  -5  529.95   12.00
   0   2  -5  460.05   13.60
   0  -2   5  456.85   12.90
   0  -2   5  455.65   11.80
   0  -2   5  493.35   11.70
  -1   2  -5  289.77    7.60
  -1   2  -5  279.77    9.10
   1  -2   5  296.17    9.50
   1  -2   5  282.87    8.30
   1  -2   5  283.87    8.90
   1  -2   5  282.27    7.60
  -2   2  -5    7.60    2.00
   2  -2   5    3.00    1.90
  -3   2  -5  290.67    6.60
  -3   2  -5  297.27    7.00
  -3   2  -5  256.07    9.10
   3  -2   5  270.97    9.70
   3  -2   5  280.37    9.90
  -4   2  -5  241.08    8.90
  -4   2  -5  230.58    9.60
   4  -2   5  268.27   10.10
   4  -2   5  237.48    9.30
  -5   2  -5  138.19    6.80
  -5   2  -5  129.79    7.80
   5  -2   5  144.79    7.30
   5  -2   5  135.19    7.70
  -6   2  -5    3.30    2.40
   6  -2   5    4.20    2.70
   6  -2   5    4.40    2.00
  -7   2  -5  148.89   11.20
   7  -2   5  159.18    8.50
   7  -2   5  136.09    8.60
  -8   2  -5   -2.20    2.70
   8   1  -5    5.90    3.20
  -8  -1   5    5.60    3.90
  -8  -1   5    7.90    3.60
   7   1  -5   30.40    5.30
   7   1  -5   36.90    5.40
  -7  -1   5   35.80    5.50
  -7  -1   5   37.20    6.40
   6   1  -5   11.20    3.10
   6   1  -5    2.90    2.20
   6   1  -5    6.50    2.50
  -6  -1   5    6.20    2.40
  -6  -1   5    7.20    2.90
  -6  -1   5    5.10    2.80
   5   1  -5    4.30    2.00
   5   1  -5    2.30    1.80
   5   1  -5    4.10    2.20
  -5  -1   5    4.90    2.10
  -5  -1   5    2.10    1.60
  -5  -1   5    7.00    2.70
   4   1  -5   78.09    5.30
   4   1  -5   85.99    5.50
   4   1  -5   92.39    5.70
  -4  -1   5   90.29    5.70
  -4  -1   5   82.19    5.80
  -4  -1   5   84.09    5.30
   3   1  -5   57.19    4.20
   3   1  -5   60.69    4.20
   3   1  -5   62.29    4.40
  -3  -1   5   72.69    4.80
  -3  -1   5   63.39    4.60
  -3  -1   5   62.79    4.30
   2   1  -5  237.48    8.50
   2   1  -5  250.27    8.40
   2   1  -5  241.78    7.90
  -2  -1   5  252.27    9.00
  -2  -1   5  229.48    8.10
  -2  -1   5  250.87    8.30
   1   1  -5  512.35   12.10
  -1  -1   5  495.15   13.50
  -1  -1   5  519.35   12.50
   0   1  -5    9.50    1.70
   0   1  -5    9.90    2.00
   0  -1   5    9.30    2.10
   0  -1   5    8.90    1.60
  -1   1  -5  360.36    9.00
  -1   1  -5  367.56   10.40
   1  -1   5  360.26    9.00
   1  -1   5  348.67    9.50
   1  -1   5  354.66   10.50
   1  -1   5  367.86    9.10
  -2   1  -5   12.50    8.60
  -2   1  -5   19.70   12.10
   2  -1   5    2.30    9.50
   2  -1   5   -9.70   12.70
  -3   1  -5   80.19    4.70
  -3   1  -5   83.19    3.20
  -3   1  -5   76.69    3.40
  -3   1  -5   71.59    4.20
   3  -1   5   77.99    4.70
   3  -1   5   64.39    7.30
  -4   1  -5   58.39    2.70
  -4   1  -5   47.40    3.70
  -4   1  -5   51.69    4.50
  -4   1  -5   53.99    2.70
   4  -1   5   53.29    4.10
   4  -1   5   52.89    4.40
  -6   1  -5   41.90    2.80
  -6   1  -5   38.30    5.30
  -6   1  -5   54.19    3.00
   6  -1   5   39.70    6.00
   6  -1   5   35.90    4.50
  -7   1  -5   49.00    3.10
  -7   1  -5   45.00    6.30
   7  -1   5   59.59    5.10
   7  -1   5   41.90    5.70
  -8   1  -5    4.10    1.80
  -8   1  -5    1.60    3.20
   8  -1   5   -2.40    2.00
   8  -1   5    1.20    2.00
  -9   1  -5   14.90    5.00
   9  -1   5   10.90    3.30
   8   0  -5   25.80    5.20
  -8   0   5   24.90    5.00
  -8   0   5   22.10    5.20
   7   0  -5   34.70    8.20
   7   0  -5   45.20    6.00
  -7   0   5   45.40    6.80
  -7   0   5   47.70    6.30
   6   0  -5   44.40    5.50
   6   0  -5   31.90    5.00
  -6   0   5   43.00    5.50
  -6   0   5   36.90    4.80
  -6   0   5   38.60    5.70
   5   0  -5   36.20    4.80
   5   0  -5   42.80    5.00
   5   0  -5   39.70    4.70
  -5   0   5   40.70    4.60
  -5   0   5   44.00    5.20
  -5   0   5   39.80    5.20
   4   0  -5   71.89    5.10
   4   0  -5   75.09    5.10
   4   0  -5   86.89    5.40
  -4   0   5   76.09    5.60
  -4   0   5   85.59    5.60
  -4   0   5   77.39    5.00
   3   0  -5  244.38    9.20
   3   0  -5  255.97    8.90
   3   0  -5  271.97    9.20
  -3   0   5  255.57    9.40
  -3   0   5  255.07    8.90
   2   0  -5   12.50   15.00
   2   0  -5    4.90   12.10
  -2   0   5    9.10   11.50
  -2   0   5    2.40   14.80
   1   0  -5   15.60    2.00
   1   0  -5   13.40    2.30
   1   0  -5   11.50    2.20
  -1   0   5   11.90    2.20
  -1   0   5   14.30    2.60
  -1   0   5   12.80    1.90
   0   0  -5  392.06    9.80
   0   0  -5  367.36    8.50
   0   0  -5  346.37   10.30
   0   0   5  354.86   10.40
   0   0   5  377.06    9.70
   0   0   5  362.46    8.50
  -1   0  -5   39.80    2.60
  -1   0  -5   28.60    3.20
   1   0   5   22.60    1.80
   1   0   5   30.50    2.20
   1   0   5   26.40    2.20
   1   0   5   24.90    3.10
  -2   0  -5  143.49    5.80
  -2   0  -5  166.78    5.20
   2   0   5  143.39    6.00
   2   0   5  153.18    5.00
   2   0   5  158.58    5.60
  -3   0  -5   97.79    4.80
  -3   0  -5   95.89    3.80
  -3   0  -5  101.79    5.10
  -3   0  -5  102.29    4.20
   3   0   5   98.19    5.00
   3   0   5  110.29    5.10
  -4   0  -5  102.29    5.00
  -4   0  -5  113.79    4.60
  -4   0  -5  122.59    4.40
   4   0   5  112.29    5.90
   4   0   5  128.09    6.00
  -6   0  -5  131.99    8.00
  -6   0  -5  121.59    5.10
   6   0   5  112.09    6.20
   6   0   5  115.89    7.40
  -7   0  -5    3.70    1.80
  -7   0  -5    5.60    3.40
   7   0   5    5.70    3.10
   7   0   5    9.20    2.90
   7   0   5    8.10    2.60
  -8   0  -5    4.40    3.40
  -8   0  -5    5.20    2.00
   8   0   5    9.20    2.50
   8   0   5    7.00    2.60
  -9   0  -5   16.30    3.00
  -9   0  -5   16.30    5.00
   9   0   5   11.80    3.10
   9   0   5   11.90    3.90
   8  -1  -5   20.60    4.50
  -8   1   5   36.00    5.70
  -8   1   5   32.50    6.50
   7  -1  -5   48.10    6.30
  -7   1   5   42.70    6.70
  -7   1   5   58.89    7.40
   6  -1  -5   11.80    3.70
   6  -1  -5    7.90    2.90
   6  -1  -5    7.30    2.90
  -6   1   5   10.10    3.30
  -6   1   5    7.40    2.60
  -6   1   5    8.70    3.30
   5  -1  -5   14.80    3.20
   5  -1  -5   13.10    2.80
   5  -1  -5   16.50    3.30
  -5   1   5   10.80    3.00
  -5   1   5   11.10    3.00
   4  -1  -5  187.78    8.20
   4  -1  -5  192.18    8.10
   4  -1  -5  179.28    8.40
  -4   1   5  194.68    8.70
  -4   1   5  179.28    7.70
  -4   1   5  203.18    8.90
   3  -1  -5   18.50    2.90
   3  -1  -5   20.00    3.20
   3  -1  -5   22.50    3.10
  -3   1   5   18.30    3.00
  -3   1   5   22.60    3.20
  -3   1   5   21.20    3.20
   2  -1  -5  210.38    7.00
   2  -1  -5  216.08    8.20
  -2   1   5  215.88    7.30
  -2   1   5  239.28    7.90
   1  -1  -5  848.62   19.50
   1  -1  -5  837.82   18.60
   1  -1  -5  834.42   17.10
  -1   1   5  843.52   18.60
  -1   1   5  843.72   19.60
  -1   1   5  830.82   17.30
   0  -1  -5  248.88    7.90
   0  -1  -5  233.98    7.30
   0  -1  -5  237.28    5.60
   0   1   5  243.18    8.00
   0   1   5  229.68    7.20
   0   1   5  239.28    5.70
  -1  -1  -5   23.20    2.80
   1   1   5   24.60    2.90
   1   1   5   18.90    1.30
  -2  -1  -5  336.67   10.00
  -2  -1  -5  400.36    9.30
  -2  -1  -5  453.05   10.10
   2   1   5  358.86   10.20
   2   1   5  409.06    9.40
   2   1   5  380.26    9.70
  -3  -1  -5  253.07    7.90
  -3  -1  -5  288.97    7.80
  -3  -1  -5  278.67    8.30
  -3  -1  -5  266.97    8.00
   3   1   5  257.67    8.20
   3   1   5  268.67    8.10
  -4  -1  -5   15.60    2.20
  -4  -1  -5   20.20    3.10
  -4  -1  -5   13.80    2.30
  -4  -1  -5   20.90    2.60
   4   1   5    9.10    2.60
   4   1   5   14.70    2.40
  -5  -1  -5  102.99    4.90
  -5  -1  -5  105.29    6.30
  -5  -1  -5   96.29    4.80
   5   1   5  100.19    6.00
   5   1   5   95.29    5.10
  -6  -1  -5   91.59    6.50
  -6  -1  -5   83.39    4.70
   6   1   5   86.29    5.20
   6   1   5   86.29    6.30
   6   1   5   77.59    5.60
  -7  -1  -5   -0.10    1.60
  -7  -1  -5   -2.80    2.00
   7   1   5   -0.50    1.60
   7   1   5    1.50    1.50
   7   1   5    2.60    1.90
   7   1   5    6.70    2.90
  -8  -1  -5    9.90    2.60
  -8  -1  -5   23.40    4.90
   8   1   5   13.10    3.30
   8   1   5   20.90    3.70
   8   1   5   23.90    3.90
  -9  -1  -5   15.70    4.80
  -9  -1  -5    7.00    2.70
   9   1   5   12.40    3.10
   9   1   5    7.20    3.10
   9   1   5   10.40    3.00
   8  -2  -5   34.00    5.50
  -8   2   5   30.10    6.40
  -8   2   5   23.90    4.90
   7  -2  -5    4.70    2.50
  -7   2   5    1.20    2.50
  -7   2   5    1.30    2.50
   6  -2  -5    0.70    1.90
   6  -2  -5    3.40    2.50
   6  -2  -5   -1.40    1.70
  -6   2   5    0.50    2.20
  -6   2   5    2.80    2.00
  -6   2   5    3.90    3.00
   5  -2  -5  162.68    7.80
   5  -2  -5  151.58    8.40
   5  -2  -5  168.28    8.60
  -5   2   5  162.78    8.80
  -5   2   5  164.38    7.70
  -5   2   5  174.98    9.10
   4  -2  -5  135.49    6.90
   4  -2  -5  133.89    6.60
   4  -2  -5  144.59    7.50
  -4   2   5  127.49    7.30
  -4   2   5  134.49    7.20
  -4   2   5  134.79    6.50
   3  -2  -5   88.09    5.10
   3  -2  -5   83.79    4.90
   3  -2  -5   82.89    5.40
  -3   2   5   86.49    4.80
  -3   2   5   87.79    5.60
  -3   2   5   89.99    5.20
   2  -2  -5   56.09    4.30
   2  -2  -5   61.99    3.60
  -2   2   5   63.59    3.80
  -2   2   5   56.29    4.30
  -2   2   5   64.19    3.90
   1  -2  -5  318.87    9.30
   1  -2  -5  299.67    7.70
   1  -2  -5  325.77   11.30
  -1   2   5  305.47    9.80
  -1   2   5  312.37    7.90
  -1   2   5  307.37   12.90
   0  -2  -5  114.99    4.90
   0  -2  -5  115.89    5.10
   0   2   5  113.59    4.80
   0   2   5  105.59    5.10
  -1  -2  -5  273.77    8.40
  -1  -2  -5  296.27    8.30
   1   2   5  296.77    8.30
   1   2   5  283.87    8.50
  -2  -2  -5    1.60    1.10
  -2  -2  -5    1.30    1.30
  -2  -2  -5    1.70    1.10
  -2  -2  -5    1.70    0.80
   2   2   5    2.10    0.90
   2   2   5    0.00    0.90
  -3  -2  -5  305.17    8.70
  -3  -2  -5  317.37    8.90
  -3  -2  -5  314.57    9.30
  -3  -2  -5  309.57    8.50
   3   2   5  313.97    8.80
   3   2   5  311.47    8.60
  -4  -2  -5  368.16   10.80
  -4  -2  -5  330.87    9.20
  -4  -2  -5  356.36   10.50
   4   2   5  353.46   10.50
   4   2   5  355.36    9.80
  -5  -2  -5  158.28    5.80
  -5  -2  -5  162.98    7.60
  -5  -2  -5  151.18    6.40
   5   2   5  149.09    7.10
   5   2   5  151.88    6.10
   5   2   5  155.38    7.80
  -6  -2  -5  124.09    6.00
  -6  -2  -5  122.89    7.40
   6   2   5  127.29    5.80
   6   2   5  120.79    6.40
   6   2   5  112.59    5.80
   6   2   5  113.19    6.90
  -7  -2  -5   55.19    4.40
  -7  -2  -5   46.80    6.10
   7   2   5   58.89    4.30
   7   2   5   49.70    4.30
   7   2   5   46.40    5.90
   7   2   5   49.30    5.40
  -8  -2  -5   15.50    4.10
  -8  -2  -5   13.70    3.30
   8   2   5   11.50    2.80
   8   2   5   12.00    2.90
   8   2   5   13.40    3.20
  -9  -2  -5   32.70    7.50
  -9  -2  -5   21.20    5.50
   9   2   5   24.00    3.50
   9   2   5   23.40    4.00
   9   2   5   27.20    4.70
   8  -3  -5   58.89    6.60
  -8   3   5   53.19    7.70
  -8   3   5   67.79    9.10
   7  -3  -5    1.50    2.40
  -7   3   5    0.30    2.80
  -7   3   5    2.60    2.30
  -7   3   5    0.50    2.70
   6  -3  -5    2.90    2.30
   6  -3  -5    1.40    2.00
   6  -3  -5    2.60    2.30
  -6   3   5    2.60    2.60
  -6   3   5    4.20    2.50
  -6   3   5    2.70    1.90
   5  -3  -5   86.39    6.80
   5  -3  -5   87.79    6.50
   5  -3  -5   92.39    5.90
  -5   3   5   83.29    6.60
  -5   3   5   92.09    5.70
  -5   3   5   98.39    7.10
   4  -3  -5  209.68    8.90
   4  -3  -5  207.48    8.40
   4  -3  -5  205.28    9.40
  -4   3   5  215.68    8.30
  -4   3   5  226.28    9.50
  -4   3   5  187.08    9.20
   3  -3  -5    6.20    1.90
   3  -3  -5    5.70    1.90
   3  -3  -5    4.90    1.90
  -3   3   5    6.70    2.10
  -3   3   5    3.70    2.20
  -3   3   5    4.50    1.60
   2  -3  -5   83.49    4.60
   2  -3  -5   82.79    4.30
   2  -3  -5   87.69    5.30
  -2   3   5   81.29    5.20
  -2   3   5   86.49    4.50
  -2   3   5   74.89    4.40
   1  -3  -5  241.08    6.60
   1  -3  -5  231.38    8.50
   1  -3  -5  239.38    7.90
  -1   3   5  248.48    8.00
  -1   3   5  238.88    8.50
  -1   3   5  231.58    6.60
   0  -3  -5    3.20    1.30
   0   3   5    2.60    1.20
  -1  -3  -5   84.09    4.20
  -1  -3  -5   77.89    4.00
   1   3   5   81.49    4.10
   1   3   5   87.79    4.40
  -2  -3  -5 1675.43   32.50
  -2  -3  -5 1614.54   31.60
  -2  -3  -5 1634.54   33.20
   2   3   5 1645.24   31.80
  -3  -3  -5   33.60   15.10
  -3  -3  -5   22.30   12.40
   3   3   5   24.50   11.10
  -4  -3  -5   38.80    2.50
  -4  -3  -5   43.00    4.30
  -4  -3  -5   40.90    3.50
   4   3   5   39.90    2.70
   4   3   5   35.20    3.00
  -5  -3  -5  266.97    7.60
  -5  -3  -5  265.57    9.30
  -5  -3  -5  279.47   10.20
   5   3   5  273.27    9.70
   5   3   5  269.37    9.80
   5   3   5  269.27    7.90
  -6  -3  -5   39.10    5.30
  -6  -3  -5   43.40    4.60
   6   3   5   35.30    3.60
   6   3   5   38.10    3.10
   6   3   5   34.00    4.60
   6   3   5   35.70    4.70
  -7  -3  -5   16.40    3.20
  -7  -3  -5   19.00    4.30
   7   3   5   17.70    2.80
   7   3   5   14.50    3.40
   7   3   5   20.00    4.00
   7   3   5   10.30    3.00
  -8  -3  -5    5.40    2.80
  -8  -3  -5    8.10    4.10
   8   3   5    9.20    2.40
   8   3   5    9.10    3.00
   8   3   5    8.60    2.30
  -9  -3  -5   28.10    4.70
  -9  -3  -5   36.30    6.30
   9   3   5   26.20    3.90
   9   3   5   30.60    5.20
   9   3   5   37.50    4.20
   8  -4  -5    6.80    3.30
  -8   4   5    9.40    4.60
  -8   4   5   14.60    4.70
   7  -4  -5    3.00    2.60
  -7   4   5    7.80    3.80
  -7   4   5    5.90    2.70
  -7   4   5    6.70    3.50
  -6   4   5   29.10    6.40
   5  -4  -5   60.09    6.40
   5  -4  -5   70.69    5.20
   5  -4  -5   74.89    6.40
  -5   4   5   72.79    5.10
  -5   4   5   68.99    7.60
  -5   4   5   71.99    6.30
   4  -4  -5   12.20    2.80
   3  -4  -5   -0.20   17.50
   3  -4  -5   30.40   19.80
  -3   4   5   15.70   19.00
  -3   4   5    6.00   19.00
   2  -4  -5  481.55   12.60
   2  -4  -5  479.25   13.10
   2  -4  -5  484.95   14.40
  -2   4   5  461.15   12.80
  -2   4   5  496.25   12.90
  -2   4   5  495.55   14.50
   1  -4  -5   90.09    3.90
   1  -4  -5   96.09    5.30
   1  -4  -5   81.89    5.20
  -1   4   5   87.99    3.90
  -1   4   5   84.09    4.50
   0  -4  -5    9.10    7.20
   0  -4  -5    4.30    9.80
   0   4   5    3.80   11.60
   0   4   5   11.30    7.50
  -1  -4  -5  642.84   15.00
  -1  -4  -5  654.63   15.50
   1   4   5  630.74   15.00
  -2  -4  -5  398.16   11.80
  -2  -4  -5  416.26    8.90
  -2  -4  -5  395.56   10.10
  -2  -4  -5  410.16   11.30
   2   4   5  401.96   10.20
  -4  -4  -5  218.68    8.30
  -4  -4  -5  211.38    5.90
  -4  -4  -5  204.58    7.70
   4   4   5  202.28    6.00
   4   4   5  215.98    8.60
   4   4   5  217.78    7.40
  -5  -4  -5  198.98    8.20
  -5  -4  -5  205.88    8.50
  -5  -4  -5  211.58    5.80
   5   4   5  211.58    6.20
   5   4   5  198.68    8.00
   5   4   5  211.18    8.90
   6   4   5    3.30    1.90
  -7  -4  -5    2.50    2.40
  -7  -4  -5   -1.10    2.00
   7   4   5    4.60    2.40
   7   4   5    1.10    1.20
   7   4   5    0.20    1.80
   7   4   5    1.10    1.40
  -8  -4  -5   43.30    5.50
  -8  -4  -5   55.49    8.20
   8   4   5   41.80    3.50
   8   4   5   50.29    3.50
   8   4   5   46.10    5.90
  -9  -4  -5   21.40    5.50
   9   4   5   26.60    4.10
   9   4   5   28.90    3.30
   9   4   5   26.30    8.20
   7  -5  -5    4.80    2.70
  -7   5   5    7.70    3.90
  -7   5   5    6.40    3.20
  -7   5   5    5.60    2.70
  -6   5   5   17.40    4.10
   5  -5  -5   29.10    4.80
   5  -5  -5   25.70    4.90
   5  -5  -5   34.90    4.50
  -5   5   5   28.70    3.90
  -5   5   5   23.10    4.50
  -5   5   5   32.50    5.10
   4  -5  -5    6.80    3.70
   4  -5  -5    1.70    1.90
   4  -5  -5   -0.10    1.30
  -4   5   5    4.80    2.50
  -4   5   5    3.80    1.70
  -4   5   5    2.00    1.90
   3  -5  -5  164.78    7.10
   3  -5  -5  165.08    7.50
   3  -5  -5  154.38    8.30
  -3   5   5  180.58    8.90
  -3   5   5  164.18    6.90
  -3   5   5  185.38    7.90
   2  -5  -5  130.79    7.00
   2  -5  -5  130.49    5.90
   2  -5  -5  126.79    6.00
  -2   5   5  127.59    5.90
  -2   5   5  135.59    7.10
  -2   5   5  130.09    6.00
   1  -5  -5   51.99    3.30
   1  -5  -5   47.60    3.60
   1  -5  -5   53.89    4.20
  -1   5   5   53.69    4.30
  -1   5   5   49.10    3.60
  -1   5   5   50.69    3.20
   0  -5  -5  100.29    5.20
   0  -5  -5  104.29    3.90
   0   5   5  102.39    5.40
   0   5   5   99.09    5.00
  -1  -5  -5  758.52   14.90
  -1  -5  -5  788.72   18.20
  -1  -5  -5  717.93   16.90
  -1  -5  -5  742.23   18.60
  -1  -5  -5  725.53   14.60
   1   5   5  756.92   17.20
  -2  -5  -5   28.60   16.80
  -2  -5  -5   38.60   17.80
   2   5   5   12.50    8.10
  -3  -5  -5    0.70   11.70
  -3  -5  -5    4.00   18.40
   3   5   5   14.00   11.10
  -4  -5  -5  209.38    7.60
  -4  -5  -5  198.78    8.30
  -4  -5  -5  183.68    5.10
   4   5   5  195.28    5.40
   4   5   5  201.38    8.70
   4   5   5  200.38    7.10
  -5  -5  -5  103.29    5.90
  -5  -5  -5   85.79    5.60
   5   5   5   75.89    5.80
   5   5   5   77.79    4.90
  -6  -5  -5    2.20    2.20
  -6  -5  -5    4.20    2.30
   6   5   5    2.90    1.90
   6   5   5    6.40    2.50
  -7  -5  -5   25.40    4.20
   7   5   5   36.10    5.30
   7   5   5   28.00    4.40
  -8  -5  -5   14.70    4.50
  -8  -5  -5   22.60    5.10
   8   5   5   23.90    4.80
  -9  -5  -5    6.20    3.50
   9   5   5    3.20    2.70
   7  -6  -5   12.40    3.40
  -7   6   5   12.00    4.70
  -7   6   5    4.40    3.20
  -7   6   5   12.80    3.40
   6  -6  -5   60.59    5.30
  -6   6   5   44.10    5.60
  -6   6   5   43.60    6.80
  -6   6   5   43.20    6.40
   5  -6  -5    8.90    2.60
   5  -6  -5    9.60    3.30
  -5   6   5   12.70    3.90
  -5   6   5   12.60    2.90
   4  -6  -5    7.30    2.70
   4  -6  -5    3.80    2.20
   4  -6  -5    9.20    2.50
  -4   6   5    3.50    2.40
  -4   6   5    6.50    2.80
  -4   6   5    6.60    2.10
   3  -6  -5  155.48    7.00
   3  -6  -5  160.08    7.70
   3  -6  -5  155.68    8.50
  -3   6   5  150.48    6.80
  -3   6   5  170.78    8.90
  -3   6   5  164.28    8.00
   2  -6  -5  170.98    7.20
   2  -6  -5  170.38    7.20
   2  -6  -5  175.68    8.50
  -2   6   5  176.98    7.40
  -2   6   5  168.58    7.00
  -2   6   5  171.48    8.40
   1  -6  -5   23.50    3.60
   1  -6  -5   29.50    3.20
   1  -6  -5   25.20    3.40
  -1   6   5   21.00    2.80
  -1   6   5   26.10    3.00
  -1   6   5   21.40    3.40
   0  -6  -5  529.15   14.30
   0  -6  -5  518.95   14.00
   0  -6  -5  507.25   12.20
   0   6   5  540.55   14.60
  -1  -6  -5   67.99    3.30
  -1  -6  -5   67.09    4.00
  -1  -6  -5   65.49    4.30
  -1  -6  -5   62.29    4.70
  -1  -6  -5   62.69    3.00
   1   6   5   73.09    4.20
  -2  -6  -5  621.04   16.00
  -2  -6  -5  612.84   13.50
  -2  -6  -5  576.14   13.90
  -2  -6  -5  606.44   16.60
   2   6   5  610.84   13.30
   2   6   5  629.34   14.20
  -3  -6  -5  124.59    4.30
  -4  -6  -5    5.90    1.80
  -4  -6  -5    2.70    1.70
   4   6   5    0.00    1.60
  -5  -6  -5   49.30    5.40
  -5  -6  -5   55.29    4.60
   5   6   5   51.19    4.20
   5   6   5   65.89    7.10
  -6  -6  -5   45.90    5.30
  -6  -6  -5   44.80    6.30
   6   6   5   42.00    5.60
   6   6   5   41.20    4.80
  -7  -6  -5   12.10    3.40
  -7  -6  -5    6.10    2.80
   7   6   5    5.50    2.60
   7   6   5    4.70    2.40
  -8  -6  -5   55.29    7.30
   8   6   5   61.69    7.70
  -9  -6  -5    3.20    3.10
   9   6   5    6.30    3.40
   7  -7  -5    5.50    2.70
  -7   7   5    4.30    2.90
  -7   7   5    9.40    3.90
   6  -7  -5    9.10    2.90
  -6   7   5    8.70    2.90
  -6   7   5    4.90    3.70
  -6   7   5    5.70    3.40
   5  -7  -5   11.50    3.40
   5  -7  -5   13.20    2.90
  -5   7   5   14.30    4.00
  -5   7   5    7.60    2.70
  -5   7   5    2.10    3.00
   4  -7  -5   52.99    6.30
   4  -7  -5   83.69    5.40
   4  -7  -5   61.89    6.60
  -4   7   5   70.99    5.10
  -4   7   5   77.49    6.90
  -4   7   5   84.19    6.70
   3  -7  -5   95.89    6.30
   3  -7  -5  100.99    7.30
   3  -7  -5   98.99    5.80
  -3   7   5  119.69    7.00
  -3   7   5  104.49    7.40
  -3   7   5  104.69    5.80
   2  -7  -5  282.07    9.80
   2  -7  -5  286.07   11.50
   2  -7  -5  280.67   10.10
  -2   7   5  281.87   11.30
  -2   7   5  299.87   10.40
  -2   7   5  266.37    9.50
   1  -7  -5   27.00   19.40
   1  -7  -5   63.99   22.90
  -1   7   5   39.60   19.10
   0  -7  -5    3.80    1.50
   0  -7  -5    3.30    1.50
   0  -7  -5    3.10    1.60
   0  -7  -5    1.70    1.60
   0  -7  -5    2.00    1.10
   0   7   5    2.50    1.50
  -1  -7  -5  112.69    6.30
  -1  -7  -5  126.09    5.20
  -1  -7  -5  118.49    6.00
  -1  -7  -5  115.99    6.50
  -1  -7  -5  115.79    4.70
   1   7   5  129.09    5.90
  -2  -7  -5  260.57    9.50
  -2  -7  -5  225.08    7.60
  -2  -7  -5  262.17   10.00
   2   7   5  257.97    7.90
  -3  -7  -5    6.10    2.10
  -3  -7  -5    9.30    1.90
  -3  -7  -5    4.30    1.10
   3   7   5    3.10    1.40
   3   7   5    2.30    2.00
  -4  -7  -5  171.98    8.30
   4   7   5  175.78    6.90
   4   7   5  165.58    8.60
  -5  -7  -5   11.80    2.90
   5   7   5   10.10    3.10
   5   7   5   12.20    2.60
  -6  -7  -5   89.09    6.40
  -6  -7  -5   67.29    5.90
   6   7   5   75.59    6.50
   6   7   5   74.09    5.50
  -7  -7  -5   65.69    7.30
   7   7   5   57.89    6.50
  -8  -7  -5   41.50    6.50
   8   7   5   28.00    5.40
  -9  -7  -5    1.10    3.00
   9   7   5    4.50    3.50
   6  -8  -5    6.20    2.90
  -6   8   5    2.90    3.40
  -6   8   5   10.00    3.10
   5  -8  -5    3.00    2.20
  -5   8   5   -0.20    3.10
  -5   8   5    0.60    2.60
  -5   8   5    2.30    2.10
   4  -8  -5    2.20    1.90
   4  -8  -5    2.90    2.50
  -4   8   5    0.80    1.70
  -4   8   5    7.80    3.20
  -4   8   5    6.50    3.20
   3  -8  -5  173.48    9.60
   3  -8  -5  159.28    7.50
   3  -8  -5  147.39    8.10
  -3   8   5  159.88    8.60
  -3   8   5  164.88    9.50
  -3   8   5  162.48    7.40
   2  -8  -5   83.19    6.30
   2  -8  -5   67.29    4.80
   2  -8  -5   72.49    5.30
  -2   8   5   73.59    5.50
  -2   8   5   72.29    6.20
   1  -8  -5  120.19    6.70
   1  -8  -5   94.19    6.40
   1  -8  -5  107.89    5.90
   1  -8  -5  104.49    5.80
  -1   8   5  124.09    7.10
  -1   8   5  110.59    7.40
   0  -8  -5   86.99    5.10
   0  -8  -5  100.69    6.00
   0  -8  -5   90.49    4.70
   0  -8  -5  100.99    5.80
   0  -8  -5  104.19    6.40
   0   8   5  102.89    6.10
  -1  -8  -5    1.90    1.30
  -1  -8  -5    2.40    1.50
  -1  -8  -5    1.20    1.60
  -1  -8  -5    2.60    1.90
  -1  -8  -5    1.10    1.20
   1   8   5    4.60    2.10
  -2  -8  -5  112.99    5.20
  -2  -8  -5  117.39    5.30
  -2  -8  -5  113.49    6.40
  -2  -8  -5  120.49    6.90
  -2  -8  -5  114.99    5.50
   2   8   5  121.69    5.40
  -3  -8  -5  100.19    4.10
  -3  -8  -5  105.59    6.60
  -3  -8  -5  103.69    5.30
   3   8   5  105.29    7.00
   3   8   5   92.99    4.80
  -4  -8  -5   44.30    4.00
   4   8   5   37.30    3.90
   4   8   5   30.70    4.80
  -5  -8  -5   46.10    5.20
  -5  -8  -5   41.70    5.40
   5   8   5   41.30    6.20
  -6  -8  -5    2.70    2.50
   6   8   5    4.30    2.20
   6   8   5    4.60    2.90
  -7  -8  -5   68.09    7.50
   7   8   5   62.19    6.60
   7   8   5   71.79    8.60
  -8  -8  -5    8.70    3.80
   8   8   5    4.70    3.50
   6  -9  -5    3.60    2.80
   6  -9  -5    7.40    2.90
  -6   9   5    2.10    2.70
  -6   9   5   -0.40    3.00
   5  -9  -5    5.30    2.30
  -5   9   5    1.80    3.40
  -5   9   5    4.40    3.40
   4  -9  -5  125.49    6.90
   4  -9  -5  110.99    8.00
  -4   9   5  129.29    8.80
  -4   9   5  103.19    8.50
   3  -9  -5   28.80    4.70
   3  -9  -5   32.60    4.30
  -3   9   5   42.20    6.30
  -3   9   5   44.90    5.70
   2  -9  -5   16.90    3.70
   2  -9  -5   12.80    3.10
   2  -9  -5    9.60    2.80
   2  -9  -5   21.70    3.40
  -2   9   5   16.90    3.60
  -2   9   5   18.90    4.30
   1  -9  -5  126.49    6.70
   1  -9  -5  129.79    7.60
   1  -9  -5  116.79    6.60
   1  -9  -5  128.69    7.40
  -1   9   5  128.79    7.70
   0  -9  -5   48.70    5.30
   0  -9  -5   68.69    4.90
   0  -9  -5   66.49    4.30
   0  -9  -5   63.39    4.90
   0  -9  -5   61.09    5.30
   0   9   5   59.89    5.20
  -1  -9  -5   85.09    5.30
  -1  -9  -5   84.39    5.10
  -1  -9  -5   93.59    5.90
  -1  -9  -5   82.89    6.00
   1   9   5   83.09    5.40
  -2  -9  -5   43.10    5.00
  -2  -9  -5   43.40    3.90
  -2  -9  -5   42.20    3.50
  -2  -9  -5   37.40    4.90
  -3  -9  -5  144.39    6.80
  -3  -9  -5  145.19    5.10
  -3  -9  -5  160.68   10.50
  -3  -9  -5  150.88    5.40
   3   9   5  143.49    6.40
  -4  -9  -5    6.70    2.40
   4   9   5    4.00    1.70
   4   9   5    9.20    3.10
  -5  -9  -5   13.60    3.30
   5   9   5   18.80    4.20
   5   9   5    9.50    2.70
  -6  -9  -5   94.99    7.10
   6   9   5   84.59    9.30
  -7  -9  -5   26.50    5.20
   7   9   5   15.50    4.40
  -8  -9  -5    8.20    3.90
   8   9   5    0.70    2.60
   5 -10  -5    2.50    2.10
   5 -10  -5    2.80    2.90
  -5  10   5    8.60    3.80
   4 -10  -5  141.29    9.90
   4 -10  -5  143.69    7.50
  -4  10   5  167.08   12.60
   3 -10  -5    5.00    2.10
   3 -10  -5    4.50    2.80
   3 -10  -5    0.50    2.00
  -3  10   5    5.00    2.80
   2 -10  -5   46.70    6.10
   2 -10  -5   77.19    6.20
   2 -10  -5   62.69    6.50
   2 -10  -5   75.79    5.50
  -2  10   5   78.89    6.30
   1 -10  -5  158.98    7.90
   1 -10  -5  154.68    8.10
   1 -10  -5  153.68    8.30
   0 -10  -5    7.20    2.40
   0 -10  -5    3.60    1.90
   0 -10  -5    4.90    1.90
   0 -10  -5    2.20    1.90
   0 -10  -5    3.10    2.20
  -1 -10  -5    1.90    1.80
  -1 -10  -5   -0.60    1.40
  -1 -10  -5    1.70    1.50
  -1 -10  -5   -0.60    1.50
  -1 -10  -5    3.30    2.60
  -2 -10  -5  298.87   10.30
  -2 -10  -5  308.57   11.80
  -2 -10  -5  308.17   10.10
  -2 -10  -5  300.57   12.20
  -2 -10  -5  300.87   10.80
  -3 -10  -5   24.20    2.60
  -3 -10  -5   21.40    4.10
  -3 -10  -5   25.30    3.50
  -3 -10  -5   19.20    2.60
  -4 -10  -5   48.10    5.20
   4  10   5   43.30    4.60
   4  10   5   48.70    6.40
  -5 -10  -5  104.29    7.00
   5  10   5   88.59    7.60
   5  10   5  105.59    6.40
  -6 -10  -5   39.40    5.60
   6  10   5   40.80    6.20
   6  10   5   29.10    4.40
  -7 -10  -5   20.70    5.00
   7  10   5   13.70    4.60
  -8 -10  -5   20.60    5.50
   8  10   5   19.10    5.50
   5 -11  -5   39.40    5.70
   5 -11  -5   65.89    5.60
   5 -11  -5   43.00    6.70
  -5  11   5   43.40    6.90
   4 -11  -5   11.20    3.50
   4 -11  -5   11.00    3.10
   4 -11  -5   20.40    4.60
  -4  11   5   11.70    4.20
   3 -11  -5    1.20    2.10
   3 -11  -5   -1.00    2.60
   3 -11  -5    1.70    2.60
   3 -11  -5    0.90    1.80
  -3  11   5    4.20    2.90
   2 -11  -5  129.19    9.40
   2 -11  -5  146.39    7.70
   2 -11  -5  144.19    9.70
   2 -11  -5  141.09    8.70
   1 -11  -5   14.50    3.80
   1 -11  -5   20.50    3.70
   1 -11  -5   20.50    4.00
   1 -11  -5   13.20    3.40
   1 -11  -5   19.50    3.50
   1 -11  -5   25.60    4.90
   0 -11  -5   19.10    4.00
   0 -11  -5   29.80    4.30
   0 -11  -5   27.00    4.10
   0 -11  -5   21.40    3.50
   0 -11  -5   22.40    4.30
   0 -11  -5   26.80    4.20
  -1 -11  -5   96.09    5.80
  -1 -11  -5  104.79    7.30
  -1 -11  -5  118.79    7.00
  -2 -11  -5   22.50    3.50
  -2 -11  -5   23.60    4.10
  -2 -11  -5   23.00    4.00
  -2 -11  -5   19.90    3.00
  -2 -11  -5   19.50    3.40
  -2 -11  -5   18.10    4.00
  -3 -11  -5  151.78    8.10
  -3 -11  -5  164.48    6.10
  -3 -11  -5  169.78    8.20
  -3 -11  -5  164.58    6.60
  -4 -11  -5   13.30    3.40
   4  11   5   16.40    4.00
   4  11   5   14.50    3.20
  -5 -11  -5   39.00    5.30
   5  11   5   39.00    6.60
   5  11   5   43.90    5.40
  -6 -11  -5   35.50    5.80
   6  11   5   22.50    5.30
   6  11   5   23.80    4.60
  -7 -11  -5   23.10    5.10
   7  11   5   17.30    4.90
   4 -12  -5   18.10    4.30
   4 -12  -5   23.10    5.00
   4 -12  -5   25.40    4.20
  -4  12   5   30.60    6.00
   3 -12  -5   28.50    5.00
   3 -12  -5   33.80    5.10
   3 -12  -5   33.00    4.40
  -3  12   5   41.50    6.10
   2 -12  -5    9.20    3.30
   2 -12  -5   14.20    3.50
   2 -12  -5   11.60    3.90
   2 -12  -5   14.90    3.80
   1 -12  -5   42.80    5.30
   1 -12  -5   37.00    5.50
   1 -12  -5   34.70    4.60
   1 -12  -5   32.50    5.30
   1 -12  -5   33.60    4.60
   0 -12  -5   12.10    3.30
   0 -12  -5   10.70    2.80
   0 -12  -5   12.50    3.50
   0 -12  -5    8.70    3.20
   0 -12  -5   13.20    3.40
   0 -12  -5    7.50    2.50
  -1 -12  -5   -0.20    1.80
  -1 -12  -5    6.00    2.70
  -1 -12  -5    2.70    1.80
  -1 -12  -5    6.10    2.60
  -1 -12  -5    6.00    2.50
  -2 -12  -5   39.70    4.80
  -2 -12  -5   31.40    4.80
  -2 -12  -5   40.20    4.30
  -2 -12  -5   41.70    4.90
  -3 -12  -5   11.40    2.70
  -3 -12  -5    8.90    2.30
  -3 -12  -5   10.10    3.30
  -3 -12  -5    9.70    2.80
  -4 -12  -5   25.20    4.20
   4  12   5   13.20    3.90
  -5 -12  -5   80.59    6.70
   5  12   5   58.49    6.40
   5  12   5   56.29    7.30
  -6 -12  -5    1.70    2.80
   6  12   5    4.60    3.00
  -7 -12  -5    4.90    3.40
   7  12   5    4.80    3.20
   3 -13  -5    0.70    2.40
   3 -13  -5    6.20    3.20
   2 -13  -5   15.50    4.00
   2 -13  -5   25.00    4.30
   2 -13  -5   29.10    5.10
   1 -13  -5   -2.10    1.60
   1 -13  -5   -1.30    2.30
   1 -13  -5   -0.70    1.80
   0 -13  -5    9.20    3.50
  -1 -13  -5   15.90    4.10
  -1 -13  -5   16.60    3.80
  -1 -13  -5   17.80    3.40
  -1 -13  -5   12.40    3.40
  -2 -13  -5   22.00    4.50
  -2 -13  -5   15.90    3.50
  -2 -13  -5   20.80    3.40
  -2 -13  -5   17.60    3.50
  -2 -13  -5   23.40    4.70
  -3 -13  -5    2.30    1.70
  -3 -13  -5    2.20    1.50
  -3 -13  -5    1.90    2.50
  -3 -13  -5    3.00    2.20
  -4 -13  -5   69.49    3.80
  -4 -13  -5   68.09    3.50
  -4 -13  -5   67.69    7.40
  -4 -13  -5   86.89    6.90
   4  13   5   41.70    6.60
  -5 -13  -5    5.00    3.50
   5  13   5    3.10    2.90
  -6 -13  -5    6.20    3.70
   6  13   5    9.20    4.50
   2 -14  -5   -2.00    1.90
   2 -14  -5   -0.30    2.20
   2 -14  -5    1.90    2.40
   1 -14  -5    0.70    2.30
   1 -14  -5    0.70    2.10
   1 -14  -5   -0.50    2.20
   0 -14  -5   13.90    3.40
   0 -14  -5   24.10    4.50
   0 -14  -5   27.70    4.70
  -1 -14  -5   33.70    5.50
  -1 -14  -5   22.70    4.70
  -1 -14  -5   28.80    4.40
  -1 -14  -5   32.00    5.00
  -2 -14  -5   -0.90    1.50
  -2 -14  -5   -2.00    2.10
  -2 -14  -5   -1.70    2.00
  -2 -14  -5   -0.10    2.20
  -3 -14  -5   14.60    4.10
  -3 -14  -5   15.50    3.10
  -3 -14  -5   10.10    2.30
  -4 -14  -5   50.39    3.70
  -4 -14  -5   44.20    6.00
  -4 -14  -5   47.50    3.20
  -5 -14  -5   10.60    3.70
   5  14   5    4.90    3.60
  -1 -15  -5   -1.00    2.40
  -1 -15  -5    2.00    2.80
  -1 -15  -5    1.40    2.80
  -2 -15  -5    5.50    3.10
  -2 -15  -5    6.40    2.60
  -2 -15  -5    3.50    2.90
  -2 -15  -5    1.50    2.50
  -3 -15  -5   85.09    7.30
  -3 -15  -5   61.09    4.80
  -3 -15  -5   63.79    5.50
  -3 -15  -5   53.29    7.10
   3  12  -6    5.90    3.50
  -3 -12   6    0.30    2.20
  -3 -12   6    1.60    3.10
   2  12  -6    5.40    3.30
  -2 -12   6   12.30    4.00
  -2 -12   6   11.20    4.30
   1  12  -6   56.39    6.60
  -1 -12   6   72.69    8.20
  -1 -12   6   74.09    8.40
   0  12  -6   19.00    4.10
   0 -12   6   26.20    5.60
   0 -12   6   22.30    4.10
   0 -12   6   31.20    5.50
  -1  12  -6   14.40    3.40
   1 -12   6   17.10    4.60
   1 -12   6   11.10    2.90
   1 -12   6   25.10    5.20
   4  11  -6   55.09    7.20
  -4 -11   6   47.40    6.90
  -4 -11   6   62.89    6.90
   3  11  -6   11.80    3.80
  -3 -11   6   17.80    4.70
   2  11  -6   15.70    4.00
  -2 -11   6   15.30    4.50
  -2 -11   6   14.90    4.00
   1  11  -6   62.09    6.60
  -1 -11   6   74.29    6.70
  -1 -11   6   63.59    5.60
  -1 -11   6   66.19    7.90
   0  11  -6   24.10    4.20
   0 -11   6   15.80    3.40
   0 -11   6   20.00    4.80
   0 -11   6   21.60    4.80
  -1  11  -6    1.60    2.30
   1 -11   6    2.60    2.60
   1 -11   6    2.10    2.10
   1 -11   6   -0.90    2.70
  -2  11  -6   11.00    2.60
   2 -11   6   12.30    4.10
   2 -11   6   11.80    3.90
   3 -11   6   45.60    6.80
   3 -11   6   53.89    7.70
   5  10  -6   56.09    6.20
   5  10  -6   69.89    8.90
  -5 -10   6   51.19    6.10
  -5 -10   6   52.79    7.40
   4  10  -6   36.80    5.20
   4  10  -6   33.10    5.70
  -4 -10   6   43.10    5.70
  -4 -10   6   49.99    7.20
   3  10  -6   20.90    4.60
   3  10  -6   14.70    3.40
  -3 -10   6   17.20    4.50
  -3 -10   6   26.20    4.70
   2  10  -6    4.70    2.90
   2  10  -6    7.60    3.00
  -2 -10   6    7.40    3.10
  -2 -10   6   11.40    4.00
   1  10  -6  152.08    8.20
  -1 -10   6  142.99   10.50
  -1 -10   6  146.79    7.80
  -1 -10   6  146.19    9.40
   0  10  -6   24.50    4.10
   0 -10   6   26.00    5.00
   0 -10   6   15.80    3.20
   0 -10   6   15.90    4.10
  -1  10  -6    2.20    2.10
   1 -10   6   -2.70    2.00
   1 -10   6   -1.50    1.50
   1 -10   6    3.30    2.90
  -2  10  -6   43.20    4.00
   2 -10   6   29.40    3.10
   2 -10   6   33.40    5.60
   2 -10   6   35.70    5.90
   3 -10   6    1.70    2.80
   3 -10   6    0.90    2.40
   4 -10   6   14.90    4.60
   4 -10   6   11.70    4.20
   6   9  -6    0.50    2.00
   6   9  -6    4.00    3.10
  -6  -9   6    0.50    2.00
  -6  -9   6    4.90    3.50
   5   9  -6   20.60    4.00
   5   9  -6   18.80    4.60
  -5  -9   6   20.00    4.00
  -5  -9   6   20.40    4.90
   4   9  -6   32.70    4.60
   4   9  -6   29.80    5.40
  -4  -9   6   33.20    5.10
  -4  -9   6   35.10    6.10
   3   9  -6   42.20    5.30
  -3  -9   6   35.10    5.80
  -3  -9   6   46.80    5.90
   2   9  -6   17.70    3.90
   2   9  -6   19.10    4.00
  -2  -9   6   17.20    3.80
  -2  -9   6   20.80    3.80
  -2  -9   6   29.80    5.00
   1   9  -6   34.00    4.70
   1   9  -6   31.60    4.60
  -1  -9   6   26.40    4.60
  -1  -9   6   36.40    4.50
  -1  -9   6   41.80    5.60
   0   9  -6   -0.10    1.80
   0   9  -6    0.00    1.90
   0  -9   6   -1.20    1.60
   0  -9   6    0.80    2.50
   0  -9   6    2.10    1.80
  -1   9  -6   15.70    3.00
   1  -9   6   11.20    5.80
   1  -9   6    3.60    2.70
   1  -9   6    9.30    2.30
  -2   9  -6  245.58    8.00
   2  -9   6  269.57   12.30
   2  -9   6  240.28    7.50
   2  -9   6  263.67   12.50
   3  -9   6   -1.40    1.70
   3  -9   6    0.30    2.90
   4  -9   6    8.40    3.30
  -5   9  -6   42.10    7.50
   5  -9   6   27.50    5.10
   6   8  -6    4.80    2.60
   6   8  -6    0.20    2.70
  -6  -8   6    0.30    2.40
  -6  -8   6   -2.00    1.70
   5   8  -6   12.30    3.90
  -5  -8   6   11.00    3.10
  -5  -8   6    8.50    3.60
   4   8  -6    0.10    2.30
   4   8  -6   -2.20    1.40
  -4  -8   6    2.50    2.70
  -4  -8   6    0.30    2.00
   3   8  -6    1.80    2.40
   3   8  -6    0.80    1.80
  -3  -8   6    1.10    2.20
  -3  -8   6    5.90    2.50
  -3  -8   6    0.10    3.10
   2   8  -6  300.47   11.60
   2   8  -6  287.17   13.80
  -2  -8   6  268.87   11.00
  -2  -8   6  294.97   12.50
  -2  -8   6  296.07   12.00
   1   8  -6   -3.20    1.60
   1   8  -6    0.90    1.70
  -1  -8   6   -1.00    2.10
  -1  -8   6   -0.60    1.70
  -1  -8   6   -1.50    2.30
  -1  -8   6    1.10    1.80
   0   8  -6   27.90    3.70
   0   8  -6   27.90    4.10
   0  -8   6   29.00    4.80
   0  -8   6   30.30    5.20
   0  -8   6   28.90    5.00
   0  -8   6   28.00    3.50
  -1   8  -6  279.87   11.50
   1  -8   6  265.07   11.70
   1  -8   6  282.27    9.00
   1  -8   6  278.87   12.90
   1  -8   6  277.77   12.10
  -2   8  -6   11.60    2.10
   2  -8   6   14.00    3.60
   2  -8   6   12.70    2.00
   2  -8   6   14.40    3.90
   3  -8   6   13.30    3.60
   3  -8   6   18.80    4.30
  -4   8  -6  114.19    8.90
   4  -8   6   86.69    7.50
  -5   8  -6  135.49   10.20
   5  -8   6   97.79    8.30
  -6   8  -6   31.50    6.20
   6  -8   6   28.90    5.90
   7   7  -6   13.20    3.50
   7   7  -6   11.80    4.00
  -7  -7   6   27.60    6.50
  -7  -7   6   11.90    3.70
   6   7  -6    6.90    3.20
  -6  -7   6   15.30    4.20
  -6  -7   6   20.70    3.90
   5   7  -6    4.00    3.10
   5   7  -6    2.20    1.90
  -5  -7   6    2.20    2.60
  -5  -7   6    6.10    2.60
   4   7  -6   41.40    5.20
  -4  -7   6   27.80    4.40
   3   7  -6  173.08    9.00
   3   7  -6  166.68    8.80
   3   7  -6  168.78    8.20
  -3  -7   6  172.98    8.70
  -3  -7   6  166.78    8.50
  -3  -7   6  175.88    9.50
   2   7  -6   31.20    4.40
   2   7  -6   25.50    4.20
   2   7  -6   26.30    4.30
  -2  -7   6   25.10    3.70
  -2  -7   6   23.40    4.20
  -2  -7   6   28.30    4.60
   1   7  -6   69.59    5.40
   1   7  -6   78.99    5.50
  -1  -7   6   80.49    6.00
  -1  -7   6   65.99    5.50
  -1  -7   6   71.59    4.90
   0   7  -6  105.79    6.70
   0   7  -6  109.19    5.80
   0  -7   6  103.99    5.50
   0  -7   6  106.69    6.80
   0  -7   6   99.39    6.80
  -1   7  -6  138.39    6.00
  -1   7  -6  136.89    7.60
   1  -7   6  136.89    8.70
   1  -7   6  139.89    8.10
   1  -7   6  140.99    7.90
   1  -7   6  130.99    5.80
  -2   7  -6  137.09    5.10
  -2   7  -6  140.69    7.90
   2  -7   6  126.59    8.50
   2  -7   6  126.99    8.00
   2  -7   6  143.39    5.10
   2  -7   6  130.69    7.90
   3  -7   6   -1.30    2.10
   3  -7   6   -0.40    1.70
  -4   7  -6    5.40    3.40
   4  -7   6   -0.20    1.60
  -5   7  -6   15.90    4.30
   5  -7   6    9.00    3.10
  -6   7  -6    0.20    2.90
   6  -7   6    0.80    2.20
   7   6  -6   12.30    3.40
   7   6  -6   12.40    4.30
  -7  -6   6   11.00    3.30
  -7  -6   6   16.50    5.10
   6   6  -6   22.00    4.50
   6   6  -6   21.20    5.10
  -6  -6   6   16.60    4.50
  -6  -6   6   22.20    4.20
   5   6  -6   40.00    5.60
   5   6  -6   54.59    5.80
  -5  -6   6   59.89    6.30
  -5  -6   6   62.59    7.50
   4   6  -6   63.09    7.00
   4   6  -6   61.59    5.20
   4   6  -6   62.59    5.60
  -4  -6   6   46.80    6.00
  -4  -6   6   57.99    6.50
  -4  -6   6   76.39    5.70
   3   6  -6   47.00    5.70
   3   6  -6   56.19    6.30
   3   6  -6   53.89    4.70
  -3  -6   6   52.49    5.70
  -3  -6   6   55.89    5.00
  -3  -6   6   67.79    7.00
   2   6  -6  205.78    9.10
   2   6  -6  198.08    8.70
   2   6  -6  192.88    8.60
  -2  -6   6  200.18    9.40
  -2  -6   6  200.98    8.60
  -2  -6   6  197.08    9.00
   1   6  -6    6.50    2.30
   1   6  -6   11.30    2.90
  -1  -6   6   13.80    3.20
  -1  -6   6    9.70    2.70
  -1  -6   6   11.20    2.60
   0   6  -6    1.30    1.50
   0   6  -6    2.30    1.80
   0  -6   6    3.30    2.20
   0  -6   6    0.70    1.30
   0  -6   6    4.20    2.00
   0  -6   6    2.30    2.00
  -1   6  -6  154.98    6.10
  -1   6  -6  153.68    7.80
   1  -6   6  168.48    8.50
   1  -6   6  157.78    6.10
   1  -6   6  157.78    8.70
   1  -6   6  167.08    8.10
  -2   6  -6   26.30    2.70
  -2   6  -6   21.20    3.70
   2  -6   6   38.60    5.40
   2  -6   6   22.80    4.00
   2  -6   6   27.50    2.30
   2  -6   6   36.70    4.80
  -3   6  -6   11.20    3.10
  -3   6  -6    7.70    3.00
   3  -6   6    9.90    3.30
   3  -6   6    8.40    3.20
  -4   6  -6   56.69    6.90
   4  -6   6   46.30    6.30
   4  -6   6   33.30    4.60
  -5   6  -6   -2.00    2.10
   5  -6   6   -1.60    1.70
  -6   6  -6    1.00    3.10
   6  -6   6   -2.70    1.80
  -7   6  -6   21.20    5.70
   7  -6   6   26.70    5.70
   7   5  -6   11.10    4.20
   7   5  -6    3.80    2.60
  -7  -5   6   10.30    3.30
  -7  -5   6    9.00    4.00
   6   5  -6  119.99    8.40
   6   5  -6  106.39    8.00
  -6  -5   6  110.59    7.20
  -6  -5   6  112.99    8.80
   5   5  -6    5.20    2.90
   5   5  -6    4.30    2.30
  -5  -5   6    4.70    2.40
  -5  -5   6    1.70    2.40
   4   5  -6   34.20    4.90
   4   5  -6   41.80    5.00
   4   5  -6   42.70    5.40
  -4  -5   6   37.50    5.00
  -4  -5   6   35.40    4.90
  -4  -5   6   41.30    5.60
   3   5  -6  344.97   12.40
   3   5  -6  357.36   12.10
   3   5  -6  355.46   12.60
  -3  -5   6  365.06   12.70
  -3  -5   6  355.26   12.30
  -3  -5   6  373.66   13.30
   2   5  -6   19.00    3.40
   2   5  -6   22.80    3.70
   2   5  -6   25.20    3.90
  -2  -5   6   20.60    3.20
  -2  -5   6   21.00    3.60
  -2  -5   6   28.90    4.40
   1   5  -6   -0.60    1.30
   1   5  -6    0.50    1.40
   1   5  -6   -0.70    1.20
  -1  -5   6   -0.80    1.10
  -1  -5   6    0.40    1.50
  -1  -5   6   -1.20    1.20
   0   5  -6  275.67   10.20
   0  -5   6  272.77   10.60
   0  -5   6  274.77   10.10
   0  -5   6  276.27    8.80
   0  -5   6  288.87   11.00
  -1   5  -6   71.09    5.00
  -1   5  -6   66.39    3.80
   1  -5   6   61.39    5.20
   1  -5   6   62.49    5.10
   1  -5   6   68.99    3.70
   1  -5   6   67.39    4.90
  -2   5  -6   67.99    5.10
  -2   5  -6   68.59    3.40
   2  -5   6   69.09    3.30
   2  -5   6   77.09    5.30
   2  -5   6   75.49    5.80
   2  -5   6   69.59    5.50
  -3   5  -6   56.29    6.30
   3  -5   6   50.89    5.90
   3  -5   6   63.19    5.60
  -4   5  -6   23.40    3.90
  -4   5  -6   21.30    4.20
   4  -5   6   21.30    4.40
   4  -5   6   20.20    3.70
  -5   5  -6   20.70    4.60
   5  -5   6    7.90    2.80
   5  -5   6   10.30    4.80
  -6   5  -6   75.09    8.40
   6  -5   6   72.39    8.40
  -7   5  -6  107.79    9.30
   7  -5   6  105.49    8.20
   8   4  -6   12.70    4.10
  -8  -4   6   14.70    5.30
   7   4  -6   14.30    3.90
   7   4  -6   23.10    4.40
  -7  -4   6   21.80    5.50
  -7  -4   6   22.20    4.60
   6   4  -6   45.10    6.00
   6   4  -6   60.89    7.30
  -6  -4   6   51.29    6.00
  -6  -4   6   64.09    7.80
   5   4  -6    6.00    2.70
   5   4  -6    5.80    2.70
   5   4  -6    5.80    2.50
  -5  -4   6    3.50    2.40
  -5  -4   6    3.50    2.60
   4   4  -6   16.10    3.40
   4   4  -6   14.60    3.00
   4   4  -6   19.50    4.50
  -4  -4   6   18.00    3.40
  -4  -4   6   17.20    3.60
  -4  -4   6   13.50    3.30
   3   4  -6  253.17   10.10
   3   4  -6  260.37   10.00
   3   4  -6  249.48    9.70
  -3  -4   6  258.07   10.10
  -3  -4   6  247.98   10.20
  -3  -4   6  239.28    9.70
   2   4  -6    0.50    1.50
   2   4  -6    1.00    1.60
   2   4  -6    0.50    1.20
  -2  -4   6    0.60    1.30
  -2  -4   6    0.10    1.40
  -2  -4   6    1.00    1.50
   1   4  -6   14.20    2.70
   1   4  -6   19.60    3.50
   1   4  -6   21.00    3.20
  -1  -4   6   14.60    2.80
  -1  -4   6   20.30    3.40
  -1  -4   6   22.90    3.30
   0   4  -6  684.33   16.20
   0   4  -6  653.83   17.70
   0  -4   6  655.93   16.00
   0  -4   6  698.23   17.40
   0  -4   6  671.83   18.20
   0  -4   6  683.43   18.20
  -1   4  -6   42.50    3.80
  -1   4  -6   38.80    3.00
   1  -4   6   48.30    4.40
   1  -4   6   45.10    3.00
   1  -4   6   51.09    5.20
   1  -4   6   44.00    4.60
  -2   4  -6   52.59    2.90
  -2   4  -6   50.09    4.30
   2  -4   6   57.09    5.90
   2  -4   6   49.90    2.80
   2  -4   6   56.19    5.70
  -3   4  -6  167.78    8.40
  -3   4  -6  146.29    7.50
   3  -4   6  164.18    8.20
   3  -4   6  168.78    8.30
  -4   4  -6   24.70    4.30
   4  -4   6   29.10    4.70
   4  -4   6   24.30    4.40
  -5   4  -6    8.10    2.80
  -5   4  -6   11.80    3.80
   5  -4   6    6.60    3.00
   5  -4   6   11.10    3.30
  -6   4  -6  117.99   13.10
   6  -4   6  102.79    9.00
  -7   4  -6   56.79    7.30
   7  -4   6   56.09    6.80
  -8   4  -6    1.30    3.60
   8  -4   6    2.30    2.40
   8   3  -6   13.70    4.10
  -8  -3   6    3.50    3.60
  -8  -3   6   12.90    3.80
   7   3  -6   91.19    6.90
   7   3  -6   95.89    8.00
  -7  -3   6  112.29    9.00
  -7  -3   6   87.09    7.10
   6   3  -6   39.30    5.50
  -6  -3   6   37.90    5.50
  -6  -3   6   36.40    6.10
   5   3  -6    0.40    1.70
   5   3  -6   -1.30    1.50
   5   3  -6   -2.10    1.90
  -5  -3   6   -0.20    1.90
  -5  -3   6   -1.30    1.50
  -5  -3   6    1.70    2.00
   4   3  -6  231.78    9.50
   4   3  -6  224.28    9.50
   4   3  -6  226.78    9.80
  -4  -3   6  197.08   13.30
  -4  -3   6  215.58    9.50
  -4  -3   6  214.58    9.80
   3   3  -6    3.60    2.10
   3   3  -6    1.60    1.70
   3   3  -6    2.40    1.60
  -3  -3   6    2.80    2.00
  -3  -3   6    2.10    1.50
  -3  -3   6    0.30    1.40
   2   3  -6   78.59    5.00
   2   3  -6   68.49    4.50
   2   3  -6   70.49    4.90
  -2  -3   6   83.99    5.40
  -2  -3   6   74.79    4.90
  -2  -3   6   72.69    4.70
   1   3  -6  393.76   11.50
   1   3  -6  410.86   11.60
   1   3  -6  384.06   12.20
  -1  -3   6  386.06   11.30
  -1  -3   6  388.46   12.40
  -1  -3   6  405.76   12.00
   0   3  -6   33.20    2.90
   0   3  -6   38.70    4.70
   0  -3   6   37.80    4.00
   0  -3   6   27.60    3.70
   0  -3   6   36.40    4.50
   0  -3   6   32.60    3.90
  -1   3  -6   29.90    2.90
  -1   3  -6   33.90    4.30
   1  -3   6   27.10    2.40
   1  -3   6   38.60    4.40
   1  -3   6   36.00    4.70
   1  -3   6   41.90    4.20
  -2   3  -6  297.17    7.90
  -2   3  -6  318.47   10.80
   2  -3   6  302.37   10.60
   2  -3   6  330.37   11.30
   2  -3   6  324.57    8.20
  -3   3  -6   32.40    4.10
  -3   3  -6   34.40    4.40
   3  -3   6   36.20    4.40
   3  -3   6   35.80    4.30
  -4   3  -6  241.78    9.70
  -4   3  -6  260.67   10.90
   4  -3   6  250.57   10.30
   4  -3   6  245.18   10.40
  -5   3  -6   41.30    5.60
   5  -3   6   44.80    5.60
   5  -3   6   32.30    5.20
  -6   3  -6  213.78    9.70
  -6   3  -6  221.48   11.30
   6  -3   6  195.58    9.90
   6  -3   6  218.28   11.10
  -7   3  -6    7.00    3.30
   7  -3   6    3.10    2.40
  -8   3  -6   -1.60    3.10
   8  -3   6    1.60    2.10
   8   2  -6   11.80    4.20
  -8  -2   6   11.50    4.60
  -8  -2   6   13.70    4.40
   7   2  -6   53.49    6.50
   7   2  -6   35.20    5.70
  -7  -2   6   50.39    6.80
  -7  -2   6   43.30    6.70
   6   2  -6   28.70    4.80
   6   2  -6   31.80    5.30
  -6  -2   6   37.90    5.60
  -6  -2   6   37.90    6.40
   5   2  -6   92.39    6.50
   5   2  -6   89.09    6.50
   5   2  -6   79.89    5.90
  -5  -2   6   80.89    5.90
  -5  -2   6   99.09    6.60
  -5  -2   6   78.99    6.60
   4   2  -6   48.40    5.30
   4   2  -6   45.90    5.30
   4   2  -6   49.10    5.60
  -4  -2   6   39.60    4.70
  -4  -2   6   48.30    5.70
  -4  -2   6   41.40    5.00
   3   2  -6  163.68    7.30
   3   2  -6  162.78    7.60
   3   2  -6  158.08    7.60
  -3  -2   6  163.18    7.80
  -3  -2   6  163.58    7.50
  -3  -2   6  167.28    7.60
   2   2  -6  508.95   14.00
   2   2  -6  495.25   14.40
   2   2  -6  484.15   13.40
  -2  -2   6  496.75   13.80
  -2  -2   6  508.05   14.40
  -2  -2   6  489.65   14.50
   1   2  -6  360.36   11.40
   1   2  -6  349.67   10.60
   1   2  -6  375.36   10.60
  -1  -2   6  348.97   10.50
  -1  -2   6  370.26   10.70
  -1  -2   6  386.26   11.90
   0   2  -6  367.66   11.50
   0   2  -6  369.76   10.40
   0  -2   6  366.26   10.30
   0  -2   6  408.96   12.70
   0  -2   6  362.56   11.70
  -1   2  -6  239.78    7.30
  -1   2  -6  238.28    8.70
   1  -2   6  245.48    8.40
   1  -2   6  226.38    7.60
   1  -2   6  237.48    7.20
   1  -2   6  250.57    9.10
  -2   2  -6   13.90    1.90
  -2   2  -6   13.40    2.60
  -2   2  -6   13.90    2.50
   2  -2   6   12.50    1.80
   2  -2   6   13.20    2.60
  -3   2  -6  275.57    7.00
  -3   2  -6  271.27    9.90
  -3   2  -6  267.57    9.60
   3  -2   6  273.37    9.90
   3  -2   6  288.07   10.30
  -4   2  -6  206.88    9.10
  -4   2  -6  205.88    8.40
   4  -2   6  198.58    8.80
   4  -2   6  196.18    8.80
  -5   2  -6  128.29    7.90
  -5   2  -6  130.89    6.90
   5  -2   6  136.79    8.00
   5  -2   6  134.59    7.40
  -6   2  -6  115.09    8.00
  -6   2  -6  120.09    8.20
   6  -2   6  126.99    7.60
   6  -2   6  125.49    8.20
  -7   2  -6    2.20    2.80
   7  -2   6    2.80    2.20
   7  -2   6    2.40    2.70
  -8   2  -6   13.80    4.60
   8  -2   6   11.00    3.20
   8   1  -6    0.80    2.90
  -8  -1   6    0.60    3.10
  -8  -1   6    1.70    2.70
   7   1  -6   79.79    8.30
  -7  -1   6   78.19    6.90
  -7  -1   6   70.49    8.40
   6   1  -6   35.30    5.40
   6   1  -6   22.40    5.10
  -6  -1   6   40.90    6.10
  -6  -1   6   33.00    5.30
   5   1  -6   13.10    3.20
   5   1  -6   15.60    3.70
  -5  -1   6    8.30    3.20
  -5  -1   6   14.10    3.40
  -5  -1   6   11.10    3.30
   4   1  -6  117.19    6.60
   4   1  -6  101.39    6.40
   4   1  -6  105.79    6.40
  -4  -1   6  113.19    6.40
  -4  -1   6  105.09    6.50
  -4  -1   6  104.49    6.60
   3   1  -6   35.90    4.10
   3   1  -6   44.20    5.00
   3   1  -6   38.90    4.50
  -3  -1   6   46.00    4.80
  -3  -1   6   35.70    4.40
  -3  -1   6   27.80    3.90
   2   1  -6   65.29    4.40
   2   1  -6   66.09    4.60
   2   1  -6   57.59    4.40
  -2  -1   6   61.89    4.10
  -2  -1   6   67.59    4.80
  -2  -1   6   65.79    4.30
   1   1  -6 1183.38   24.20
   1   1  -6 1158.28   26.10
   1   1  -6 1197.68   25.50
  -1  -1   6 1171.58   25.10
  -1  -1   6 1174.08   26.40
  -1  -1   6 1157.78   24.40
   0   1  -6    2.00    1.40
   0   1  -6    1.70    1.30
   0  -1   6   -0.30    1.10
   0  -1   6   -0.40    1.10
   0  -1   6    0.80    1.00
  -1   1  -6  126.39    5.00
  -1   1  -6  126.79    5.90
   1  -1   6  122.09    4.80
   1  -1   6  128.59    5.30
   1  -1   6  119.29    4.90
   1  -1   6  124.09    6.80
  -2   1  -6   35.80    2.60
  -2   1  -6   35.50    3.20
  -2   1  -6   37.80    3.40
   2  -1   6   38.20    2.60
   2  -1   6   40.50    3.80
   2  -1   6   44.40    3.80
  -3   1  -6  545.15   14.60
  -3   1  -6  543.65   14.60
  -3   1  -6  543.75   12.20
   3  -1   6  547.25   16.10
   3  -1   6  537.85   15.00
  -4   1  -6   77.89    4.80
  -4   1  -6   76.69    3.60
  -4   1  -6   67.09    5.10
  -4   1  -6   75.99    3.30
   4  -1   6   77.49    5.30
   4  -1   6   73.79    5.10
  -5   1  -6  156.88    8.30
  -5   1  -6  159.98    7.30
  -5   1  -6  165.78    5.40
  -5   1  -6  159.38    5.10
   5  -1   6  175.58    8.50
   5  -1   6  164.28    7.90
  -6   1  -6    2.10    1.40
  -6   1  -6    4.50    2.40
  -6   1  -6    2.80    1.20
  -6   1  -6    3.50    2.60
   6  -1   6    3.80    2.00
  -7   1  -6    0.60    1.20
  -7   1  -6    2.70    2.50
   7  -1   6    2.10    2.40
   7  -1   6    1.30    1.90
  -8   1  -6   35.80    6.30
   8  -1   6   21.60    5.70
   8  -1   6   43.10    6.10
   8   0  -6   15.20    4.20
  -8   0   6   19.40    4.70
  -8   0   6   20.70    5.50
   7   0  -6    1.60    2.60
  -7   0   6   -2.90    2.10
  -7   0   6   -1.00    3.30
   6   0  -6   65.89    6.00
   6   0  -6   56.29    6.80
   6   0  -6   83.39    6.50
  -6   0   6   70.39    6.40
  -6   0   6   80.79    7.20
   5   0  -6   77.69    6.10
   5   0  -6   99.19    6.60
   5   0  -6   98.19    6.50
  -5   0   6   84.19    6.40
  -5   0   6   93.09    6.10
  -5   0   6  100.39    7.10
   4   0  -6   82.09    5.80
   4   0  -6   87.29    5.70
   4   0  -6   76.39    5.30
  -4   0   6   94.89    6.10
  -4   0   6   83.19    5.90
  -4   0   6   91.59    5.60
   3   0  -6   20.90    3.20
   3   0  -6   16.90    3.10
   3   0  -6   23.10    3.30
  -3   0   6   19.40    3.20
  -3   0   6   16.90    3.20
  -3   0   6   19.30    2.90
   2   0  -6  123.39    6.00
   2   0  -6  134.29    5.50
   2   0  -6  121.39    6.20
  -2   0   6  119.39    5.50
  -2   0   6  129.49    6.60
  -2   0   6  111.39    5.70
   1   0  -6  400.16   12.70
   1   0  -6  395.16   11.90
   1   0  -6  396.86   10.00
  -1   0   6  393.76   12.00
  -1   0   6  386.16   11.10
  -1   0   6  382.66   10.10
   0   0  -6   18.30    2.50
   0   0  -6   20.40    2.10
   0   0  -6   16.20    2.80
   0   0   6   19.60    2.10
   0   0   6   18.90    2.90
   0   0   6   19.20    3.00
  -1   0  -6  390.06   10.20
  -1   0  -6  376.86   11.20
   1   0   6  385.56    9.10
   1   0   6  381.46    9.50
   1   0   6  386.46   10.20
   1   0   6  398.36   11.60
  -2   0  -6   66.39    3.60
  -2   0  -6   62.09    3.40
  -2   0  -6   59.99    4.00
   2   0   6   56.59    4.00
   2   0   6   56.99    3.20
   2   0   6   51.59    3.30
  -3   0  -6   94.79    4.90
  -3   0  -6   84.29    3.90
  -3   0  -6   79.29    4.10
  -3   0  -6   81.09    4.60
   3   0   6   92.99    6.70
   3   0   6   88.59    4.70
  -4   0  -6  212.08    9.80
  -4   0  -6  216.18    7.90
  -4   0  -6  216.88    7.00
  -4   0  -6  210.88    6.60
   4   0   6  203.88    8.30
   4   0   6  228.28    8.60
  -5   0  -6  139.99    7.50
  -5   0  -6  155.98    5.60
  -5   0  -6  152.28    6.80
  -5   0  -6  149.19    5.70
   5   0   6  158.18    7.90
   5   0   6  156.58    7.30
  -6   0  -6    1.20    2.30
  -6   0  -6    1.20    1.50
  -6   0  -6    1.20    1.40
  -6   0  -6    0.00    1.30
   6   0   6    1.20    1.90
   6   0   6    6.60    2.90
  -7   0  -6   59.39    7.20
  -7   0  -6   43.80    4.20
  -7   0  -6   54.99    3.70
   7   0   6   53.09    6.50
   7   0   6   58.59    5.10
   7   0   6   54.39    5.90
  -8   0  -6   56.39    4.90
  -8   0  -6   44.60    3.80
  -8   0  -6   51.59    7.30
   8   0   6   48.40    5.80
   8   0   6   49.90    6.10
  -9   0  -6   -0.30    1.80
  -9   0  -6    1.50    1.80
  -9   0  -6    1.20    3.00
   9   0   6    2.10    2.50
   8  -1  -6   47.40    6.60
  -8   1   6   50.69    7.10
  -8   1   6   36.30    7.20
   7  -1  -6    8.00    3.40
  -7   1   6    2.90    2.90
  -7   1   6    7.80    3.90
   6  -1  -6   51.29    6.70
   6  -1  -6   50.59    5.80
   6  -1  -6   61.69    7.30
  -6   1   6   64.49    6.80
  -6   1   6   58.59    7.10
  -6   1   6   68.29    7.80
   5  -1  -6   92.49    6.20
   5  -1  -6   76.19    5.90
  -5   1   6   86.09    6.60
  -5   1   6   69.59    5.40
  -5   1   6   76.59    6.30
   4  -1  -6    2.60    1.80
   4  -1  -6    4.70    2.30
   4  -1  -6    5.20    2.50
  -4   1   6    3.60    2.30
  -4   1   6    3.80    2.00
  -4   1   6    3.20    1.80
   3  -1  -6    0.00    1.40
   3  -1  -6   -0.10    1.30
   3  -1  -6    0.90    1.50
  -3   1   6    1.50    1.40
  -3   1   6    0.20    1.50
  -3   1   6    0.30    1.60
   2  -1  -6  244.68    8.70
   2  -1  -6  246.88    7.80
   2  -1  -6  227.68    9.00
  -2   1   6  237.38    8.00
  -2   1   6  238.88    9.30
  -2   1   6  240.08    8.50
   1  -1  -6   25.60    2.20
   1  -1  -6   30.10    3.60
   1  -1  -6   35.80    3.80
  -1   1   6   28.90    2.40
  -1   1   6   36.70    3.80
  -1   1   6   27.40    3.90
   0  -1  -6  626.44   15.00
   0  -1  -6  602.74   12.40
   0  -1  -6  611.04   15.60
   0   1   6  615.24   15.80
   0   1   6  604.04   12.60
   0   1   6  635.94   16.30
  -1  -1  -6   55.09    3.50
  -1  -1  -6   51.69    5.90
   1   1   6   53.19    3.80
   1   1   6   48.20    2.40
   1   1   6   51.09    2.20
   1   1   6   51.79    3.30
  -2  -1  -6  267.37    8.80
  -2  -1  -6  269.47    7.30
  -2  -1  -6  287.57    8.30
   2   1   6  275.17    9.00
   2   1   6  277.67    7.40
   2   1   6  278.77    8.20
  -3  -1  -6   32.10    2.90
  -3  -1  -6   34.90    3.10
  -3  -1  -6   37.70    2.80
   3   1   6   36.30    3.90
   3   1   6   34.20    2.90
  -4  -1  -6  416.76   12.10
  -4  -1  -6  417.26   11.30
  -4  -1  -6  396.26   11.40
  -4  -1  -6  420.76   10.90
   4   1   6  424.06   13.40
   4   1   6  419.56   12.20
  -5  -1  -6   79.39    5.50
  -5  -1  -6   79.89    4.30
  -5  -1  -6   83.49    4.70
   5   1   6   90.49    5.70
   5   1   6   73.59    4.80
  -6  -1  -6    6.20    2.10
  -6  -1  -6    5.00    2.00
  -6  -1  -6    5.40    2.70
  -6  -1  -6    9.20    2.30
   6   1   6    8.70    2.40
   6   1   6    7.40    2.90
  -7  -1  -6  108.99    8.00
  -7  -1  -6  105.49    5.60
   7   1   6  112.39    6.80
   7   1   6   97.69    7.50
   7   1   6  109.19    6.40
  -8  -1  -6   27.50    3.70
  -8  -1  -6   23.40    5.10
   8   1   6   19.70    4.00
   8   1   6   30.50    4.40
  -9  -1  -6    3.60    2.40
  -9  -1  -6    9.00    4.40
   9   1   6    4.00    3.00
   9   1   6    9.80    3.00
   8  -2  -6   14.60    4.10
  -8   2   6    8.00    3.80
  -8   2   6   16.20    4.90
   7  -2  -6   29.60    5.00
  -7   2   6   18.50    4.90
  -7   2   6   29.50    5.50
   6  -2  -6   50.09    6.60
   6  -2  -6   67.29    5.90
  -6   2   6   70.19    7.80
  -6   2   6   76.29    8.00
  -6   2   6   62.89    5.50
   5  -2  -6   12.50    3.20
   5  -2  -6   10.40    2.90
   5  -2  -6   12.90    3.60
  -5   2   6   13.60    3.50
  -5   2   6   14.80    5.00
  -5   2   6   16.70    3.90
   4  -2  -6    5.70    2.10
   4  -2  -6    3.50    1.90
   4  -2  -6    0.00    1.50
  -4   2   6    4.50    2.50
  -4   2   6    6.10    2.10
  -4   2   6    6.00    2.40
   3  -2  -6  180.38    7.40
   3  -2  -6  177.58    8.30
   3  -2  -6  187.88    7.90
  -3   2   6  184.38    7.70
  -3   2   6  176.38    8.40
   2  -2  -6  220.88    7.30
   2  -2  -6  227.28    8.90
   2  -2  -6  221.18    8.30
  -2   2   6  215.18    8.00
  -2   2   6  214.98    8.90
  -2   2   6  209.68    7.40
   1  -2  -6   72.59    4.40
   1  -2  -6   70.59    4.60
   1  -2  -6   69.19    3.20
  -1   2   6   73.89    4.30
  -1   2   6   79.89    5.00
  -1   2   6   73.79    3.40
   0  -2  -6   67.69    4.30
   0  -2  -6   68.29    4.00
   0   2   6   69.19    4.00
   0   2   6   65.79    4.50
  -1  -2  -6  101.69    4.80
  -1  -2  -6  101.89    5.00
   1   2   6   97.09    5.10
  -2  -2  -6   32.30    2.10
  -2  -2  -6   30.50    3.20
  -2  -2  -6   33.90    2.90
   2   2   6   26.80    3.10
   2   2   6   31.80    2.00
   2   2   6   30.90    2.70
  -3  -2  -6  454.35   11.10
  -3  -2  -6  456.35   11.80
  -3  -2  -6  452.85   11.80
  -3  -2  -6  431.46   14.60
   3   2   6  451.45   11.00
   3   2   6  446.16   12.00
  -4  -2  -6  373.16   11.20
  -4  -2  -6  376.56   11.10
  -4  -2  -6  402.96   11.00
  -4  -2  -6  386.36   10.60
   4   2   6  393.96   11.20
   4   2   6  377.36   10.80
  -5  -2  -6  156.18    7.40
  -5  -2  -6  139.59    6.30
  -5  -2  -6  146.59    6.00
  -5  -2  -6  141.89    7.10
   5   2   6  156.58    6.50
   5   2   6  140.39    6.90
  -6  -2  -6   23.80    3.60
  -6  -2  -6   28.30    3.50
  -6  -2  -6   23.50    4.40
   6   2   6   17.20    3.00
   6   2   6   15.10    3.30
  -7  -2  -6   18.40    4.40
  -7  -2  -6   19.80    3.30
   7   2   6   18.80    4.10
   7   2   6   19.20    3.30
   7   2   6   17.20    3.30
  -8  -2  -6    2.00    3.00
  -8  -2  -6    4.10    2.50
   8   2   6    4.80    2.30
   8   2   6    2.30    2.20
  -9  -2  -6   -1.20    2.60
  -9  -2  -6    2.60    3.40
   9   2   6    3.30    2.30
   9   2   6    1.80    2.40
   7  -3  -6   61.79    6.90
  -7   3   6   62.99    8.20
  -7   3   6   64.39    8.50
   6  -3  -6   37.70    5.10
  -6   3   6   48.10    6.60
  -6   3   6   33.70    4.60
  -6   3   6   29.00    5.80
   5  -3  -6   20.70    4.40
   5  -3  -6   26.60    4.20
   5  -3  -6   21.80    4.20
  -5   3   6   22.20    4.40
  -5   3   6   11.70    3.50
   4  -3  -6   12.30    2.90
   4  -3  -6   14.40    3.70
   4  -3  -6   14.80    3.30
  -4   3   6   10.40    3.10
  -4   3   6   12.60    3.40
  -4   3   6   16.60    3.30
   3  -3  -6  125.69    6.10
   3  -3  -6  121.59    7.10
   3  -3  -6  145.69    6.90
  -3   3   6  115.59    7.00
  -3   3   6  118.89    6.10
   2  -3  -6  132.29    6.90
   2  -3  -6  131.29    6.20
   2  -3  -6  124.09    5.30
  -2   3   6  119.39    5.40
  -2   3   6  137.59    7.00
  -2   3   6  122.09    6.00
   1  -3  -6  292.07    7.50
   1  -3  -6  286.27    9.40
   1  -3  -6  288.77    9.90
  -1   3   6  291.67   10.20
  -1   3   6  280.67    7.60
  -1   3   6  295.37    9.40
   0  -3  -6   74.19    7.90
   0  -3  -6   66.59    4.30
   0   3   6   74.09    4.60
   0   3   6   68.39    4.10
  -1  -3  -6  575.94   14.30
  -1  -3  -6  573.94   14.30
   1   3   6  549.25   14.10
   1   3   6  571.14   14.60
  -2  -3  -6    1.10    1.40
  -2  -3  -6    1.30    1.10
   2   3   6    1.40    1.30
  -3  -3  -6  165.58    6.00
  -3  -3  -6  164.48    6.90
  -3  -3  -6  155.68    5.40
   3   3   6  161.78    6.10
   3   3   6  163.78    5.30
  -4  -3  -6  417.56   11.90
  -4  -3  -6  410.16   11.50
  -4  -3  -6  422.16   10.80
  -4  -3  -6  404.86   12.20
   4   3   6  421.26   11.30
   4   3   6  420.86   11.20
  -5  -3  -6    8.70    2.50
  -5  -3  -6   14.10    2.90
  -5  -3  -6   18.10    2.60
   5   3   6   12.20    2.20
   5   3   6   13.40    2.70
  -6  -3  -6   10.00    2.60
  -6  -3  -6   16.90    3.70
   6   3   6   23.40    4.10
   6   3   6   18.30    2.80
   6   3   6   15.20    3.20
  -7  -3  -6   69.49    5.30
  -7  -3  -6   73.09    6.40
   7   3   6   67.09    5.60
   7   3   6   58.99    4.50
   7   3   6   68.69    7.00
  -8  -3  -6    9.80    4.30
  -8  -3  -6    7.00    3.00
   8   3   6    4.80    2.10
   8   3   6    8.90    3.10
   8   3   6    1.00    1.90
  -9  -3  -6    1.80    2.70
  -9  -3  -6   -1.00    2.50
   9   3   6    2.20    2.50
   9   3   6    0.00    1.80
   9   3   6   -0.20    1.90
   7  -4  -6   23.10    4.60
  -7   4   6   21.00    5.10
  -7   4   6   23.90    5.00
   6  -4  -6   16.40    3.80
  -6   4   6   13.30    3.80
  -6   4   6    7.20    3.50
  -6   4   6   14.10    3.50
   5  -4  -6    6.50    3.10
   5  -4  -6    2.40    2.00
  -5   4   6    6.80    3.10
  -5   4   6    3.30    2.80
   4  -4  -6   33.60    5.50
   4  -4  -6   34.60    4.60
   4  -4  -6   34.90    4.40
  -4   4   6   32.50    4.90
  -4   4   6   27.70    3.80
  -4   4   6   30.90    4.40
   3  -4  -6  201.98    8.40
   3  -4  -6  209.78    8.30
   3  -4  -6  216.48    9.70
  -3   4   6  205.18    9.60
  -3   4   6  207.78    8.30
  -3   4   6  206.28    8.40
   2  -4  -6    3.80    2.00
   2  -4  -6    2.40    1.50
   2  -4  -6    3.60    1.80
  -2   4   6    7.10    2.50
  -2   4   6    0.90    1.40
  -2   4   6    6.20    2.00
   1  -4  -6   73.19    3.40
   1  -4  -6   68.49    4.40
   1  -4  -6   70.19    4.90
  -1   4   6   64.89    4.70
  -1   4   6   68.69    4.40
  -1   4   6   66.29    3.40
   0  -4  -6  991.40   21.90
   0  -4  -6  952.00   22.00
   0   4   6  969.90   22.40
   0   4   6  922.71   21.40
  -1  -4  -6   95.89    5.00
  -1  -4  -6   91.89    4.80
   1   4   6   99.19    5.00
   1   4   6   87.49    4.70
  -2  -4  -6   22.00    3.30
  -2  -4  -6   18.30    2.70
  -2  -4  -6   14.80    2.30
   2   4   6   17.00    2.60
  -3  -4  -6  251.77    7.60
  -3  -4  -6  269.57    9.10
  -3  -4  -6  242.48    9.20
  -3  -4  -6  261.87    7.30
   3   4   6  252.67    6.90
   3   4   6  266.67    7.90
  -4  -4  -6  121.89    6.00
  -4  -4  -6  120.19    5.50
  -4  -4  -6  117.49    6.20
  -4  -4  -6  119.49    4.60
   4   4   6  120.49    5.20
   4   4   6  118.99    4.90
  -5  -4  -6   37.10    2.60
  -5  -4  -6   46.60    5.00
  -5  -4  -6   31.60    4.20
   5   4   6   37.60    4.00
   5   4   6   42.70    3.00
  -6  -4  -6   88.19    6.30
  -6  -4  -6   94.89    6.10
   6   4   6   88.79    6.20
   6   4   6   89.79    6.00
   6   4   6  103.69    4.60
  -7  -4  -6   15.50    4.00
  -7  -4  -6   17.60    3.50
   7   4   6   22.30    4.40
   7   4   6   18.30    6.20
   7   4   6   13.20    2.30
   7   4   6   12.70    2.30
  -8  -4  -6    0.10    2.50
   8   4   6    0.30    2.10
   8   4   6    2.90    1.60
  -9  -4  -6   21.60    5.20
   9   4   6   20.10    5.00
   9   4   6   27.70    3.70
   7  -5  -6   26.60    4.50
  -7   5   6   25.20    5.50
  -7   5   6   25.50    5.60
   6  -5  -6    1.30    2.20
  -6   5   6    3.70    2.30
  -6   5   6   -0.40    2.80
  -6   5   6    1.90    2.60
   5  -5  -6    4.10    2.50
   5  -5  -6    7.80    2.70
  -5   5   6    3.40    2.60
  -5   5   6    2.60    2.50
   4  -5  -6  122.19    8.00
   4  -5  -6  135.99    7.10
   4  -5  -6  118.49    7.10
  -4   5   6  132.49    7.60
  -4   5   6  131.59    8.40
  -4   5   6  129.49    6.80
   3  -5  -6  137.79    6.80
   3  -5  -6  120.39    7.40
   3  -5  -6  123.79    6.40
  -3   5   6  129.39    6.50
  -3   5   6  117.89    7.40
  -3   5   6  121.69    6.60
   2  -5  -6   46.50    5.30
   2  -5  -6   52.09    3.80
   2  -5  -6   56.79    4.30
  -2   5   6   52.19    4.10
  -2   5   6   53.99    3.90
  -2   5   6   58.89    5.00
   1  -5  -6  236.58    8.70
   1  -5  -6  257.97    9.60
   1  -5  -6  236.08    7.10
  -1   5   6  224.88    8.40
  -1   5   6  234.48    7.20
  -1   5   6  243.48    9.60
   0  -5  -6   92.69    5.40
   0  -5  -6   93.49    5.20
   0   5   6   95.29    5.20
   0   5   6   91.99    5.60
  -1  -5  -6  103.49    5.10
  -1  -5  -6   92.99    5.20
   1   5   6   94.29    5.00
  -2  -5  -6   39.90    4.10
  -2  -5  -6   44.00    4.60
  -2  -5  -6   42.60    3.10
   2   5   6   43.00    3.20
  -3  -5  -6  178.88    7.50
  -3  -5  -6  156.38    5.70
  -3  -5  -6  166.98    7.70
  -3  -5  -6  163.98    5.60
   3   5   6  173.38    5.30
   3   5   6  165.68    6.00
  -4  -5  -6    1.10    0.90
  -4  -5  -6    1.70    1.40
  -4  -5  -6    0.00    1.50
   4   5   6   -1.00    1.00
   4   5   6    0.60    0.90
  -5  -5  -6   13.70    1.80
  -5  -5  -6    9.60    2.60
  -5  -5  -6   10.50    2.80
   5   5   6   20.20    4.00
   5   5   6   13.80    1.90
   5   5   6   11.00    2.40
  -6  -5  -6  212.38    9.40
  -6  -5  -6  204.08    9.30
   6   5   6  206.28    6.10
   6   5   6  202.98    6.20
   6   5   6  197.98    8.60
   6   5   6  209.98    9.80
  -7  -5  -6   16.70    4.00
  -7  -5  -6   15.00    3.50
   7   5   6   18.80    2.20
   7   5   6   12.80    3.60
   7   5   6   14.10    5.40
   7   5   6   15.70    2.00
  -8  -5  -6    2.80    3.50
   8   5   6    6.00    3.00
  -9  -5  -6   16.30    4.80
   9   5   6   23.60    5.00
   7  -6  -6    9.30    3.40
  -7   6   6   -1.20    3.00
  -7   6   6    3.40    3.50
   6  -6  -6    7.30    2.60
  -6   6   6    9.30    3.10
  -6   6   6   11.70    4.10
  -6   6   6    9.90    4.00
   5  -6  -6   39.10    4.80
   5  -6  -6   31.10    5.10
  -5   6   6   46.70    5.10
  -5   6   6   33.60    5.70
  -5   6   6   29.40    5.20
   4  -6  -6   53.69    6.40
   4  -6  -6   43.10    5.30
   4  -6  -6   52.99    5.40
  -4   6   6   49.70    6.70
  -4   6   6   60.29    6.30
  -4   6   6   55.09    4.80
   3  -6  -6   92.59    5.70
   3  -6  -6   63.69    9.70
   3  -6  -6   95.49    5.90
  -3   6   6   93.29    5.70
  -3   6   6   92.09    5.90
  -3   6   6   92.29    6.90
   2  -6  -6   11.10    2.90
   2  -6  -6   12.40    3.00
   2  -6  -6   17.90    3.20
  -2   6   6   17.00    3.60
  -2   6   6   11.50    2.70
  -2   6   6   16.90    3.00
   1  -6  -6  123.79    6.90
   1  -6  -6  129.89    6.40
   1  -6  -6  132.39    5.40
  -1   6   6  128.29    6.30
  -1   6   6  138.89    7.20
  -1   6   6  125.69    5.40
   0  -6  -6   42.00    2.60
   0  -6  -6   42.60    3.90
   0  -6  -6   43.10    3.80
   0   6   6   45.00    4.00
   0   6   6   41.20    4.20
  -1  -6  -6   11.80    2.70
  -1  -6  -6    9.90    2.40
  -1  -6  -6    7.80    2.30
   1   6   6   11.50    2.30
  -2  -6  -6  102.29    4.80
  -2  -6  -6  109.49    6.30
  -2  -6  -6  102.79    3.80
  -2  -6  -6  115.89    6.00
   2   6   6  111.09    5.10
  -3  -6  -6   81.19    5.60
  -3  -6  -6   75.29    3.80
  -3  -6  -6   82.89    3.90
  -3  -6  -6   75.79    5.10
   3   6   6   77.99    3.90
   3   6   6   79.79    3.60
  -4  -6  -6   94.79    6.10
  -4  -6  -6  101.59    3.80
  -4  -6  -6   97.39    5.10
   4   6   6   93.79    4.60
   4   6   6  100.29    3.90
  -5  -6  -6  200.58    9.10
  -5  -6  -6  213.98    8.70
   5   6   6  211.38    9.90
   5   6   6  213.28    8.10
  -6  -6  -6   64.79    6.90
  -6  -6  -6   65.59    5.50
   6   6   6   51.99    4.70
   6   6   6   52.99    6.20
  -7  -6  -6    3.90    2.70
  -7  -6  -6    1.90    2.50
   7   6   6    4.30    2.80
   7   6   6    3.90    2.50
   8   6   6    1.90    2.60
  -9  -6  -6   12.80    4.70
   9   6   6   13.90    4.40
   6  -7  -6    2.00    2.40
  -6   7   6    1.00    2.70
  -6   7   6    1.70    2.90
  -6   7   6    1.00    2.70
   5  -7  -6    2.40    2.10
   5  -7  -6   -1.20    2.20
  -5   7   6   -0.50    2.30
  -5   7   6    4.20    3.10
  -5   7   6   -0.20    2.10
   4  -7  -6   66.69    5.90
   4  -7  -6   69.49    5.40
  -4   7   6   89.19    6.80
  -4   7   6   60.69    5.10
   3  -7  -6   61.19    4.80
   3  -7  -6   68.89    6.10
   3  -7  -6   63.89    5.30
  -3   7   6   51.49    6.10
  -3   7   6   61.69    4.80
  -3   7   6   68.59    5.50
   2  -7  -6   82.99    6.30
   2  -7  -6   87.69    5.50
   2  -7  -6   77.49    5.00
  -2   7   6   80.69    5.50
  -2   7   6   72.99    6.10
  -2   7   6   70.29    5.00
   1  -7  -6    9.00    2.10
   1  -7  -6    8.70    2.60
   1  -7  -6   10.90    2.50
  -1   7   6   10.00    2.20
  -1   7   6   10.60    2.80
  -1   7   6    9.20    2.30
   0  -7  -6   91.19    6.20
   0  -7  -6   94.79    4.50
   0  -7  -6  100.49    4.20
   0  -7  -6  102.29    5.70
   0  -7  -6   88.49    5.60
   0   7   6  103.69    6.00
  -1  -7  -6  106.89    6.10
  -1  -7  -6  115.29    6.80
  -1  -7  -6  110.09    5.70
  -1  -7  -6  122.39    4.70
  -1  -7  -6  110.99    4.30
  -2  -7  -6   -0.60    1.60
  -2  -7  -6    2.40    2.00
  -2  -7  -6    2.30    1.30
  -2  -7  -6    3.90    1.40
  -2  -7  -6    2.70    1.20
   2   7   6    0.30    1.20
  -3  -7  -6  223.08    9.20
  -3  -7  -6  226.98    7.30
  -3  -7  -6  227.38    9.70
  -3  -7  -6  218.98    6.90
   3   7   6  238.58    7.10
   3   7   6  231.48    7.20
  -4  -7  -6   85.79    4.90
  -4  -7  -6   82.19    3.30
  -4  -7  -6   79.49    6.00
   4   7   6   81.99    3.40
  -5  -7  -6   31.50    4.20
  -5  -7  -6   19.70    3.80
   5   7   6   26.30    3.40
   5   7   6   25.90    4.50
  -6  -7  -6  189.08    9.60
  -6  -7  -6  189.58    9.20
   6   7   6  201.98    8.80
   6   7   6  190.48   10.20
  -7  -7  -6    4.90    3.00
   7   7   6    7.80    4.30
   7   7   6    5.00    2.40
  -8  -7  -6   -0.80    2.60
   8   7   6   -0.80    2.30
   6  -8  -6   -0.30    2.10
  -6   8   6    4.00    3.30
  -6   8   6    3.30    3.50
   5  -8  -6    8.00    3.10
  -5   8   6    7.00    2.80
  -5   8   6    6.00    3.40
  -5   8   6   14.40    4.90
   4  -8  -6   27.20    4.20
   4  -8  -6   15.70    3.80
  -4   8   6   38.50    5.70
  -4   8   6   22.80    5.30
   3  -8  -6    6.90    2.60
   3  -8  -6    7.20    2.90
   3  -8  -6   12.40    2.90
  -3   8   6   10.10    3.20
  -3   8   6   12.50    3.10
  -3   8   6    6.60    3.10
   2  -8  -6   16.50    3.90
   2  -8  -6   21.80    3.60
   2  -8  -6   19.70    3.60
  -2   8   6   17.80    3.30
  -2   8   6   20.30    3.50
  -2   8   6   13.60    3.30
   1  -8  -6  152.38    6.80
   1  -8  -6  154.68    7.40
   1  -8  -6  139.89    7.80
  -1   8   6  151.98    8.20
  -1   8   6  153.98    6.90
   0  -8  -6  161.78    6.50
   0  -8  -6  157.98    8.20
   0  -8  -6  160.48    7.80
   0  -8  -6  160.98    7.60
   0  -8  -6  156.48    5.90
   0   8   6  159.28    7.80
  -1  -8  -6    8.00    2.70
  -1  -8  -6    5.50    2.00
  -1  -8  -6    5.50    1.50
  -1  -8  -6    4.50    1.90
  -1  -8  -6    7.70    1.90
   1   8   6    5.30    2.10
  -2  -8  -6  423.86   11.50
  -2  -8  -6  436.76   11.30
  -2  -8  -6  464.35   14.20
  -2  -8  -6  440.66   13.50
  -2  -8  -6  447.16   14.80
   2   8   6  428.06   12.20
  -3  -8  -6    4.30    1.40
  -3  -8  -6    5.40    1.70
  -3  -8  -6    5.60    2.30
  -3  -8  -6    4.70    2.10
   3   8   6    6.60    1.80
   3   8   6    5.70    1.60
  -4  -8  -6    1.10    1.80
  -4  -8  -6    0.90    0.80
   4   8   6    0.80    1.40
  -5  -8  -6  136.09    8.10
  -5  -8  -6  143.99    7.40
   5   8   6  152.28    9.00
   5   8   6  150.58    7.00
  -6  -8  -6   -0.10    2.10
   6   8   6    3.30    3.20
   6   8   6    0.30    1.90
  -7  -8  -6   -0.50    2.50
   7   8   6    1.50    2.90
   7   8   6    0.40    1.90
  -8  -8  -6    0.90    2.90
   8   8   6    1.30    2.70
   6  -9  -6   -0.90    2.40
  -6   9   6    1.40    3.20
   5  -9  -6   24.30    4.30
  -5   9   6   31.20    5.50
  -5   9   6   32.30    6.00
  -5   9   6   28.20    4.70
   4  -9  -6    2.10    2.10
   4  -9  -6    0.80    2.60
  -4   9   6   -3.40    2.10
  -4   9   6    0.40    2.30
  -4   9   6   -1.00    2.50
   3  -9  -6   52.69    6.00
   3  -9  -6   52.79    5.50
  -3   9   6   45.90    5.90
  -3   9   6   56.09   10.00
   2  -9  -6  187.58    8.80
   2  -9  -6  177.28    9.90
   2  -9  -6  206.68    8.90
  -2   9   6  172.98    9.90
  -2   9   6  191.48    8.80
   1  -9  -6    1.00    1.70
   1  -9  -6    0.40    1.70
   1  -9  -6    3.00    2.20
   1  -9  -6   -0.10    1.90
  -1   9   6   -1.80    1.60
   0  -9  -6    4.40    1.90
   0  -9  -6    3.20    2.50
   0  -9  -6    4.70    2.10
   0  -9  -6    2.50    1.60
   0  -9  -6    2.50    1.70
   0   9   6    4.20    2.10
  -1  -9  -6  162.78    8.00
  -1  -9  -6  164.38    8.70
  -1  -9  -6  159.58    7.60
  -1  -9  -6  175.68    7.80
  -1  -9  -6  169.58    6.50
   1   9   6  169.98    7.80
  -2  -9  -6   48.90    5.20
  -2  -9  -6   52.09    3.90
  -2  -9  -6   54.89    5.30
  -2  -9  -6   51.49    4.00
   2   9   6   58.39    4.30
  -3  -9  -6    5.20    2.20
  -3  -9  -6    0.40    1.70
  -3  -9  -6    2.10    1.90
  -3  -9  -6    3.40    1.40
   3   9   6    3.20    1.50
  -4  -9  -6   14.70    2.80
  -4  -9  -6   15.60    3.90
  -4  -9  -6   12.10    1.60
   4   9   6   13.30    2.50
  -5  -9  -6   84.69    6.10
   5   9   6   68.49    7.60
   5   9   6   78.09    5.30
  -6  -9  -6   27.80    4.60
   6   9   6   21.70    5.00
   6   9   6   19.80    3.70
  -7  -9  -6   18.90    4.40
   7   9   6   18.00    4.70
   7   9   6   21.20    4.30
  -8  -9  -6   11.70    4.10
   8   9   6    4.40    3.40
   5 -10  -6   13.50    3.70
  -5  10   6    6.60    3.90
   4 -10  -6    0.70    2.30
  -4  10   6    3.20    2.90
  -4  10   6    0.50    2.90
   3 -10  -6   75.19    6.60
   3 -10  -6   57.69    6.60
   3 -10  -6   75.09    5.80
  -3  10   6   64.69    6.90
  -3  10   6   88.39    9.70
   2 -10  -6  140.69    7.50
   2 -10  -6  115.99    7.70
   2 -10  -6  125.99    7.60
  -2  10   6  122.09    7.60
  -2  10   6  114.39    8.40
   1 -10  -6    3.20    2.40
   1 -10  -6    4.80    2.50
   1 -10  -6    3.00    2.10
   1 -10  -6    1.70    1.90
  -1  10   6    0.00    1.90
   0 -10  -6    4.20    2.10
   0 -10  -6    6.30    2.80
   0 -10  -6    3.10    2.30
   0 -10  -6    6.20    2.00
   0 -10  -6    2.30    2.20
   0  10   6    4.10    2.70
  -1 -10  -6   74.59    6.30
  -1 -10  -6   76.19    4.70
  -1 -10  -6   73.79    5.10
  -1 -10  -6   68.09    5.50
  -1 -10  -6   73.19    5.40
   1  10   6   72.59    5.60
  -2 -10  -6    1.00    2.10
  -2 -10  -6    1.90    1.80
  -2 -10  -6    0.90    1.40
  -2 -10  -6    0.50    2.00
  -2 -10  -6    4.20    1.80
   2  10   6   -0.50    1.50
  -3 -10  -6    1.80    1.40
  -3 -10  -6    2.00    1.70
  -3 -10  -6    1.90    2.40
  -3 -10  -6   -2.20    1.40
  -3 -10  -6   -0.20    1.50
  -4 -10  -6  129.69    6.90
   4  10   6  122.19    6.30
  -5 -10  -6   39.00    5.30
   5  10   6   49.00    5.30
   5  10   6   35.30    5.70
  -6 -10  -6   22.90    4.50
   6  10   6   18.20    5.10
   6  10   6   22.50    4.10
  -7 -10  -6    7.90    3.50
   7  10   6   15.20    5.00
  -8 -10  -6   38.00    6.40
   8  10   6   39.00    7.10
   4 -11  -6    5.30    3.50
   4 -11  -6    1.70    2.20
  -4  11   6    4.50    3.20
   3 -11  -6   48.40    5.50
   3 -11  -6   57.39    6.80
   3 -11  -6   65.49    7.70
  -3  11   6   83.99    7.20
   2 -11  -6    5.30    2.60
   2 -11  -6   11.00    3.70
   1 -11  -6   16.70    4.00
   1 -11  -6   17.30    3.50
   1 -11  -6   17.70    3.20
   1 -11  -6   19.10    3.70
   1 -11  -6    7.40    3.10
   0 -11  -6  107.59    6.60
   0 -11  -6  101.89    6.80
   0 -11  -6  100.49    7.40
   0 -11  -6  105.19    6.10
  -1 -11  -6   29.10    4.60
  -1 -11  -6   35.00    4.60
  -1 -11  -6   25.50    4.10
  -1 -11  -6   29.40    4.90
  -1 -11  -6   27.60    3.70
  -2 -11  -6   47.00    3.80
  -2 -11  -6   30.40    4.90
  -2 -11  -6   42.50    4.80
  -2 -11  -6   48.70    5.30
  -2 -11  -6   41.30    4.50
  -3 -11  -6   56.19    5.60
  -3 -11  -6   54.49    5.60
  -3 -11  -6   57.99    3.70
  -3 -11  -6   55.49    7.10
  -4 -11  -6  110.69    4.00
  -4 -11  -6  100.19    6.50
  -5 -11  -6   -1.90    2.10
   5  11   6   -1.40    2.00
   5  11   6   -0.40    1.70
  -6 -11  -6   18.20    4.10
   6  11   6   24.60    4.20
   6  11   6   22.30    5.10
  -7 -11  -6    9.60    3.80
   7  11   6    4.70    3.40
   4 -12  -6    6.30    3.40
   3 -12  -6   18.20    4.50
   3 -12  -6   24.40    5.00
  -3  12   6   22.80    5.20
   2 -12  -6   19.90    4.40
   2 -12  -6   29.70    4.60
   2 -12  -6   31.80    5.00
   1 -12  -6   31.20    4.80
   1 -12  -6   11.30    3.70
   1 -12  -6   19.20    3.50
   0 -12  -6    2.10    2.40
   0 -12  -6   -0.90    1.70
   0 -12  -6    4.20    2.40
   0 -12  -6    0.70    1.80
   0 -12  -6    1.00    2.30
  -1 -12  -6   78.89    5.50
  -1 -12  -6   78.69    6.20
  -1 -12  -6   70.39    5.90
  -1 -12  -6   66.99    7.80
  -1 -12  -6   80.49    5.70
  -2 -12  -6   12.90    3.00
  -2 -12  -6   20.10    3.30
  -2 -12  -6   22.90    4.10
  -2 -12  -6   15.30    3.30
  -2 -12  -6   19.80    4.40
  -3 -12  -6   55.19    4.40
  -3 -12  -6   48.20    6.50
  -3 -12  -6   51.59    6.00
  -3 -12  -6   60.79    5.20
  -3 -12  -6   52.89    3.90
  -4 -12  -6   74.99    3.50
  -4 -12  -6   78.89    3.80
  -4 -12  -6   84.79    6.30
  -5 -12  -6   22.40    4.40
   5  12   6   30.70    6.30
   5  12   6   23.40    4.20
  -6 -12  -6   19.90    4.50
   6  12   6   16.00    4.70
   3 -13  -6   12.80    3.70
   2 -13  -6    0.10    2.00
   2 -13  -6    1.30    2.20
   2 -13  -6   -1.30    2.00
   1 -13  -6    3.10    2.60
   1 -13  -6    0.00    2.10
   1 -13  -6    2.90    2.60
   1 -13  -6    0.30    2.50
   0 -13  -6   50.29    5.90
   0 -13  -6   51.79    5.70
   0 -13  -6   47.80    6.00
   0 -13  -6   39.00    5.30
  -1 -13  -6    0.90    1.90
  -1 -13  -6   -1.00    2.30
  -1 -13  -6   -0.20    1.70
  -1 -13  -6   -1.10    1.80
  -2 -13  -6    8.40    2.50
  -2 -13  -6    5.40    2.50
  -2 -13  -6    7.30    2.70
  -2 -13  -6    5.70    2.90
  -2 -13  -6    8.90    3.60
  -3 -13  -6  119.49    7.50
  -3 -13  -6  103.39    6.10
  -3 -13  -6  111.29    5.60
  -3 -13  -6  122.99    8.60
  -4 -13  -6   19.40    4.10
  -4 -13  -6    3.80    2.70
  -4 -13  -6   11.90    1.90
  -4 -13  -6   14.50    2.30
  -5 -13  -6    1.80    2.50
  -6 -13  -6    4.60    3.20
   6  13   6   -1.00    2.80
   1 -14  -6   19.00    4.10
   1 -14  -6   20.70    4.10
   1 -14  -6   27.40    5.20
   0 -14  -6   17.00    3.90
   0 -14  -6   16.50    3.90
   0 -14  -6   16.30    4.00
  -1 -14  -6    6.00    3.20
  -1 -14  -6    6.50    3.20
  -1 -14  -6    8.90    3.20
  -1 -14  -6    8.40    3.20
  -1 -14  -6    9.90    3.00
  -2 -14  -6   45.40    5.00
  -2 -14  -6   36.40    5.60
  -2 -14  -6   31.90    4.80
  -2 -14  -6   33.60    5.40
  -2 -14  -6   41.20    5.40
  -3 -14  -6   19.10    4.40
  -3 -14  -6   17.70    4.50
  -3 -14  -6   15.50    3.30
  -3 -14  -6   13.20    3.60
  -3 -14  -6   15.00    2.70
  -4 -14  -6    2.60    1.40
  -4 -14  -6    3.70    3.10
  -4 -14  -6    1.80    2.80
  -4 -14  -6    0.50    1.60
  -2 -15  -6    6.80    2.70
   3  11  -7   37.70    6.00
  -3 -11   7   49.90    7.20
  -3 -11   7   49.60    6.80
   2  11  -7   -1.40    2.60
  -2 -11   7   -0.10    2.70
  -2 -11   7    1.10    2.50
   1  11  -7   85.19    6.90
  -1 -11   7   88.49    7.70
  -1 -11   7   94.29    8.30
   0  11  -7   37.20    5.00
   0 -11   7   35.40    6.10
   0 -11   7   23.30    4.10
   0 -11   7   27.80    5.50
  -1  11  -7   25.50    4.10
   1 -11   7   13.50    4.40
   1 -11   7   26.40    3.70
   1 -11   7   24.90    5.00
  -2  11  -7   75.49    5.50
   2 -11   7  113.49    9.00
   2 -11   7   65.99    4.40
   2 -11   7   64.49    8.30
   4  10  -7   19.00    4.90
  -4 -10   7   13.30    4.50
  -4 -10   7   15.40    4.10
   3  10  -7    1.60    2.70
  -3 -10   7    3.80    2.70
  -3 -10   7    0.80    2.50
   2  10  -7   38.80    5.50
  -2 -10   7   50.19    6.80
  -2 -10   7   53.59    7.70
   1  10  -7   12.50    3.50
  -1 -10   7   10.10    3.90
  -1 -10   7   11.40    3.50
  -1 -10   7   10.90    3.20
   0  10  -7    3.60    2.50
   0 -10   7    3.40    3.00
   0 -10   7    1.00    2.30
   0 -10   7    0.60    1.90
  -1  10  -7  158.98    7.50
   1 -10   7  144.09    6.80
   1 -10   7  149.99    9.90
   1 -10   7  148.09    9.70
  -2  10  -7   10.80    2.40
   2 -10   7   12.50    3.70
   2 -10   7    5.70    3.50
   2 -10   7   12.20    4.10
   3 -10   7   28.90    5.60
   3 -10   7   26.80    5.10
   4 -10   7   40.60    6.30
   5   9  -7    9.30    3.70
  -5  -9   7    6.20    3.80
  -5  -9   7    9.40    3.20
   4   9  -7   -1.60    2.20
  -4  -9   7    4.40    2.60
  -4  -9   7    4.60    3.00
   3   9  -7   35.00    5.60
  -3  -9   7   40.90    5.90
  -3  -9   7   33.80    6.00
   2   9  -7    8.80    3.40
  -2  -9   7   -0.60    1.80
  -2  -9   7    2.60    2.70
  -2  -9   7    1.70    3.90
   1   9  -7    9.40    3.10
  -1  -9   7    3.30    2.20
  -1  -9   7    3.60    2.80
   0   9  -7  106.99    6.50
   0  -9   7  107.89    8.00
   0  -9   7  103.79    6.20
   0  -9   7   95.59    7.60
  -1   9  -7   70.29    4.90
   1  -9   7   63.39    4.50
   1  -9   7   57.09    6.80
   1  -9   7   63.39    7.10
  -2   9  -7   13.90    2.60
   2  -9   7   11.90    3.90
   2  -9   7    7.70    2.40
   2  -9   7   10.30    3.70
   3  -9   7   77.09    8.80
   3  -9   7   68.39    8.10
   4  -9   7   30.40    5.50
   4  -9   7   45.30    7.10
   5  -9   7    8.20    4.20
   6   8  -7   24.80    5.80
  -6  -8   7   12.00    4.40
  -6  -8   7   29.00    4.80
   5   8  -7    9.70    3.70
   5   8  -7    8.60    3.20
  -5  -8   7   10.00    3.30
  -5  -8   7   15.90    4.70
   4   8  -7   32.10    4.80
   4   8  -7   37.30    5.80
  -4  -8   7   46.20    6.50
  -4  -8   7   41.40    5.60
   3   8  -7   17.30    4.80
   3   8  -7   11.90    3.20
  -3  -8   7    7.10    2.80
  -3  -8   7    5.40    2.70
   2   8  -7   54.19    6.00
   2   8  -7   61.19    6.40
  -2  -8   7   46.60    6.40
  -2  -8   7   61.59    6.80
  -2  -8   7   55.39    5.90
   1   8  -7   60.19    6.10
   1   8  -7   53.69    5.80
  -1  -8   7   56.99    4.90
  -1  -8   7   60.19    7.30
  -1  -8   7   52.29    6.30
   0   8  -7  201.98    8.60
   0  -8   7  215.88   10.60
   0  -8   7  201.28   10.40
   0  -8   7  183.58    8.10
  -1   8  -7   77.89    5.00
   1  -8   7   70.49    7.70
   1  -8   7   72.59    4.60
  -2   8  -7   20.50    2.80
   2  -8   7   27.90    5.40
   2  -8   7   16.70    2.40
   2  -8   7   20.50    4.70
   3  -8   7  144.39    9.50
   3  -8   7  167.58    9.80
   4  -8   7   -1.10    2.20
  -5   8  -7    2.00    3.30
   5  -8   7    4.90    3.30
   6   7  -7   10.60    3.30
   6   7  -7   17.60    4.50
  -6  -7   7   17.80    4.00
  -6  -7   7   13.80    4.30
   5   7  -7   19.40    4.40
   5   7  -7   20.50    4.10
  -5  -7   7   20.00    4.80
  -5  -7   7   28.50    4.90
   4   7  -7  137.09    8.80
   4   7  -7  134.79    7.90
  -4  -7   7  147.59    8.50
  -4  -7   7  158.78    9.60
   3   7  -7   37.10    5.20
   3   7  -7   44.40    5.80
  -3  -7   7   43.10    5.70
  -3  -7   7   37.00    5.60
  -3  -7   7   38.70    7.90
   2   7  -7   85.49    6.10
   2   7  -7   71.59    5.80
   2   7  -7   86.19    6.50
  -2  -7   7   83.39    6.50
  -2  -7   7   70.99    5.50
  -2  -7   7   81.49    6.60
   1   7  -7  154.18    7.70
   1   7  -7  161.98    8.40
  -1  -7   7  134.99    8.90
  -1  -7   7  158.98    7.60
  -1  -7   7  180.38    9.30
  -1  -7   7  162.98    9.00
   0   7  -7  113.89    7.20
   0   7  -7  115.29    6.20
   0  -7   7  111.19    7.80
   0  -7   7  118.19    6.10
   0  -7   7  115.69    7.40
   0  -7   7  113.39    7.50
  -1   7  -7  206.98    7.70
  -1   7  -7  213.08    9.80
   1  -7   7  206.58   10.80
   1  -7   7  202.08    7.50
   1  -7   7  203.08   10.30
   1  -7   7  225.78   10.30
  -2   7  -7  152.28    5.90
   2  -7   7  161.48    8.80
   2  -7   7  147.69    5.60
   2  -7   7  150.98    9.50
   2  -7   7  147.39    9.00
   3  -7   7  137.99    9.00
   3  -7   7  140.69    8.70
  -4   7  -7    4.40    2.80
   4  -7   7    2.90    2.80
  -5   7  -7    0.70    2.70
   5  -7   7    4.40    3.30
  -6   7  -7   -2.80    2.60
   6  -7   7   -1.30    2.00
   7   6  -7   23.60    5.70
  -7  -6   7   30.80    6.30
   6   6  -7   41.40    6.10
   6   6  -7   41.50    5.60
  -6  -6   7   42.90    5.70
  -6  -6   7   53.19    7.50
   5   6  -7   54.79    6.20
   5   6  -7   50.89    6.90
  -5  -6   7   46.80    6.80
  -5  -6   7   55.69    6.50
   4   6  -7    6.40    3.30
   4   6  -7    7.30    3.00
  -4  -6   7    3.40    2.30
  -4  -6   7   10.00    4.10
   3   6  -7  136.69    8.80
   3   6  -7  124.39    7.60
   3   6  -7  125.89    7.80
  -3  -6   7  145.09    8.20
  -3  -6   7  148.79    8.00
  -3  -6   7  134.89    8.30
   2   6  -7   36.00    5.10
   2   6  -7   35.90    4.80
   2   6  -7   29.60    4.50
  -2  -6   7   35.40    5.20
  -2  -6   7   30.60    4.30
  -2  -6   7   33.20    4.90
   1   6  -7   34.30    4.30
   1   6  -7   34.00    4.80
  -1  -6   7   39.30    5.60
  -1  -6   7   32.10    4.00
  -1  -6   7   32.60    4.70
   0   6  -7  180.28    7.60
   0  -6   7  191.88    7.60
   0  -6   7  181.88    8.80
   0  -6   7  185.28    9.30
   0  -6   7  192.28    9.60
  -1   6  -7   28.30    4.40
   1  -6   7   20.90    3.80
   1  -6   7   25.80    4.20
   1  -6   7   24.00    4.50
   1  -6   7   22.30    3.00
  -2   6  -7   27.10    4.70
  -2   6  -7   35.10    3.00
   2  -6   7   29.30    2.60
   2  -6   7   35.20    5.80
   2  -6   7   40.70    5.30
   2  -6   7   31.50    4.80
   3  -6   7    0.70    2.30
   3  -6   7    0.60    2.40
  -4   6  -7   11.80    3.80
   4  -6   7   10.60    3.40
  -5   6  -7   -0.40    3.10
   5  -6   7    6.20    3.10
  -6   6  -7   34.80    6.40
   6  -6   7   48.00    7.10
  -7   6  -7   14.00    4.70
   7  -6   7   12.30    4.50
   7   5  -7   26.60    6.10
  -7  -5   7   37.50    6.70
   6   5  -7   10.40    3.80
   6   5  -7    2.10    2.20
  -6  -5   7    6.60    3.00
  -6  -5   7    6.80    3.50
   5   5  -7   15.40    3.70
   5   5  -7   10.60    3.40
  -5  -5   7   18.10    4.40
  -5  -5   7   16.00    3.80
   4   5  -7  114.39    7.60
   4   5  -7  119.09    7.50
   4   5  -7  108.99    7.10
  -4  -5   7  125.99    8.10
  -4  -5   7  106.09    7.20
   3   5  -7   19.50    4.20
   3   5  -7   19.80    3.80
   3   5  -7   20.60    3.80
  -3  -5   7   25.00    4.30
  -3  -5   7   27.60    5.00
  -3  -5   7   18.30    4.00
   2   5  -7    1.90    1.90
   2   5  -7   -0.10    1.80
   2   5  -7    2.20    1.80
  -2  -5   7    3.30    2.20
  -2  -5   7    0.90    1.90
  -2  -5   7    2.80    2.10
   1   5  -7   44.20    4.60
   1   5  -7   50.39    5.60
   1   5  -7   41.20    4.80
  -1  -5   7   51.19    5.50
  -1  -5   7   53.89    6.00
  -1  -5   7   41.00    4.50
   0   5  -7    0.90    1.50
   0   5  -7    3.60    1.70
   0  -5   7    0.90    2.00
   0  -5   7    4.40    1.80
   0  -5   7    4.90    2.60
   0  -5   7    4.40    2.50
  -1   5  -7  198.38    7.10
  -1   5  -7  188.78    8.80
   1  -5   7  191.78    9.30
   1  -5   7  204.38    7.20
   1  -5   7  181.48    9.10
   1  -5   7  218.68    9.10
  -2   5  -7  235.18   10.10
  -2   5  -7  228.98    7.00
   2  -5   7  224.78    6.90
   2  -5   7  225.68   10.30
   2  -5   7  211.88   10.10
   2  -5   7  214.28    9.40
  -3   5  -7   49.60    6.20
   3  -5   7   48.70    6.50
   3  -5   7   44.20    5.80
  -4   5  -7   -0.20    2.20
  -4   5  -7    3.10    2.80
   4  -5   7    3.10    2.70
   4  -5   7    3.50    2.80
  -5   5  -7   16.80    5.70
   5  -5   7   21.20    4.80
  -6   5  -7   65.29    7.90
   6  -5   7   58.59    7.30
  -7   5  -7    8.30    4.20
   7  -5   7    8.10    3.90
   7   4  -7    3.30    3.10
  -7  -4   7    7.80    3.90
   6   4  -7   -2.70    2.30
   6   4  -7    1.70    2.30
  -6  -4   7    1.30    2.30
  -6  -4   7    0.10    2.40
   5   4  -7  124.69    7.60
   5   4  -7  109.49    7.90
  -5  -4   7  130.69    8.00
  -5  -4   7  116.79    8.20
   4   4  -7    1.20    2.20
   4   4  -7    1.60    1.90
   4   4  -7    1.90    1.80
  -4  -4   7    4.30    2.30
  -4  -4   7   -1.50    1.70
  -4  -4   7   -0.10    1.80
   3   4  -7   28.70    4.10
   3   4  -7   28.60    4.30
   3   4  -7   29.60    4.20
  -3  -4   7   25.80    4.50
  -3  -4   7   35.60    5.00
  -3  -4   7   29.50    4.40
   2   4  -7  512.25   15.10
   2   4  -7  518.45   15.60
   2   4  -7  512.75   15.10
  -2  -4   7  520.25   15.50
  -2  -4   7  491.25   14.80
  -2  -4   7  490.25   15.60
   1   4  -7  125.39    6.40
   1   4  -7  139.39    7.20
   1   4  -7  126.89    6.50
  -1  -4   7  132.39    7.30
  -1  -4   7  115.59    6.50
  -1  -4   7  120.39    6.10
   0   4  -7   11.40    2.30
   0   4  -7   12.50    2.90
   0  -4   7   17.80    3.30
   0  -4   7   17.00    2.80
   0  -4   7   15.40    3.40
   0  -4   7   18.80    3.30
  -1   4  -7  466.55   14.50
  -1   4  -7  471.05   12.20
   1  -4   7  453.05   13.20
   1  -4   7  455.45   14.60
   1  -4   7  475.85   13.90
   1  -4   7  493.35   15.30
  -2   4  -7  200.88    8.90
  -2   4  -7  200.28    6.40
   2  -4   7  200.88    9.10
   2  -4   7  204.78    8.50
   2  -4   7  205.08    6.60
   2  -4   7  207.88    9.50
  -3   4  -7    0.90    0.90
  -3   4  -7   -0.60    1.90
   3  -4   7    1.90    1.80
   3  -4   7    0.70    2.10
   3  -4   7    0.20    0.90
  -4   4  -7   10.00    3.10
  -4   4  -7   14.60    3.70
   4  -4   7    8.20    2.90
   4  -4   7   11.40    3.50
  -5   4  -7   81.19    7.00
   5  -4   7   75.59    6.60
   5  -4   7   79.59    6.90
  -6   4  -7   24.50    5.10
   6  -4   7   28.40    5.70
  -7   4  -7    4.40    3.50
   7  -4   7    2.40    2.40
   7   3  -7    3.40    3.00
  -7  -3   7    3.20    3.00
  -7  -3   7    4.10    3.50
   6   3  -7   30.40    4.90
   6   3  -7   28.40    5.20
  -6  -3   7   29.90    5.70
  -6  -3   7   26.00    5.00
   5   3  -7  167.48    9.80
   5   3  -7  172.08    9.10
   5   3  -7  148.89    8.50
  -5  -3   7  165.88    9.50
  -5  -3   7  168.78    9.00
   4   3  -7   66.39    5.50
   4   3  -7   68.29    5.80
   4   3  -7   71.79    7.40
  -4  -3   7   71.69    5.80
  -4  -3   7   67.49    5.80
  -4  -3   7   75.79    5.80
   3   3  -7   63.29    5.20
   3   3  -7   61.39    4.80
   3   3  -7   61.89    5.10
  -3  -3   7   58.69    4.90
  -3  -3   7   60.09    5.20
  -3  -3   7   60.19    5.10
   2   3  -7  402.96   12.30
   2   3  -7  390.56   13.00
   2   3  -7  400.26   12.80
  -2  -3   7  401.26   12.60
  -2  -3   7  386.06   13.40
  -2  -3   7  399.36   12.70
   1   3  -7   34.60    3.90
   1   3  -7   42.00    4.80
   1   3  -7   41.70    4.60
  -1  -3   7   37.70    4.40
  -1  -3   7   38.50    4.20
  -1  -3   7   49.10    5.40
   0   3  -7   23.40    3.70
   0   3  -7   22.60    3.10
   0  -3   7   21.50    3.20
   0  -3   7   19.70    3.50
   0  -3   7   20.00    2.90
   0  -3   7   18.20    3.30
  -1   3  -7  590.24   16.60
  -1   3  -7  565.54   14.00
   1  -3   7  583.84   16.10
   1  -3   7  559.54   15.00
   1  -3   7  594.14   17.00
  -2   3  -7   14.30    2.10
  -2   3  -7   17.50    3.30
   2  -3   7   18.50    3.30
   2  -3   7   16.70    3.00
   2  -3   7   20.00    2.40
   2  -3   7   24.50    4.20
  -3   3  -7   23.80    3.80
  -3   3  -7   30.30    4.00
  -3   3  -7   28.00    2.20
   3  -3   7   31.70    4.50
   3  -3   7   28.00    2.30
   3  -3   7   32.20    4.40
  -4   3  -7  148.49    8.90
  -4   3  -7  149.88    8.20
   4  -3   7  166.38    8.60
   4  -3   7  148.09    8.20
  -5   3  -7   86.09    6.90
  -5   3  -7   83.49    6.10
   5  -3   7   77.39    7.00
   5  -3   7   80.09    6.30
  -6   3  -7   38.40    5.80
   6  -3   7   47.70    6.60
  -7   3  -7   21.20    4.90
   7  -3   7   30.20    5.50
  -8   3  -7   45.50    7.40
   8  -3   7   34.00    5.90
   7   2  -7    0.80    2.90
  -7  -2   7    3.80    3.40
  -7  -2   7    1.30    2.50
   6   2  -7   76.69    6.40
   6   2  -7   77.69    6.90
  -6  -2   7   75.09    6.70
  -6  -2   7   81.99    7.40
   5   2  -7   51.29    5.90
   5   2  -7   57.59    6.40
   5   2  -7   56.19    6.40
  -5  -2   7   48.20    6.50
  -5  -2   7   54.29    6.80
   4   2  -7   36.30    4.90
   4   2  -7   39.20    5.30
   4   2  -7   36.00    5.20
  -4  -2   7   30.10    4.70
  -4  -2   7   33.70    4.90
  -4  -2   7   28.50    4.50
   3   2  -7  174.58    8.20
   3   2  -7  176.68    7.80
   3   2  -7  172.58    8.30
  -3  -2   7  163.18    7.80
  -3  -2   7  181.28    8.30
  -3  -2   7  170.88    8.60
   2   2  -7  222.58    8.90
   2   2  -7  227.98    8.40
   2   2  -7  234.88    9.50
  -2  -2   7  219.28    8.60
  -2  -2   7  210.28    8.50
  -2  -2   7  226.68    9.50
   1   2  -7  264.87   10.00
   1   2  -7  259.47    8.70
   1   2  -7  267.27    9.30
  -1  -2   7  264.07   10.20
  -1  -2   7  277.17    9.20
  -1  -2   7  264.37    9.20
   0   2  -7  116.99    5.50
   0   2  -7  107.69    6.10
   0  -2   7  112.39    6.40
   0  -2   7  113.19    5.30
   0  -2   7  109.29    5.30
  -1   2  -7  136.89    5.60
  -1   2  -7  129.19    6.70
   1  -2   7  129.99    5.70
   1  -2   7  135.59    7.00
  -2   2  -7  200.38    8.40
  -2   2  -7  205.78    6.70
   2  -2   7  214.58    6.80
   2  -2   7  213.88    9.00
   2  -2   7  202.78    8.10
  -3   2  -7   54.19    3.10
  -3   2  -7   52.79    4.50
  -3   2  -7   55.79    4.50
   3  -2   7   50.19    4.50
   3  -2   7   49.00    4.40
   3  -2   7   59.29    3.10
  -4   2  -7    4.80    1.20
  -4   2  -7    6.40    2.40
  -4   2  -7    3.40    1.50
  -4   2  -7    4.10    2.20
   4  -2   7    4.20    2.10
   4  -2   7    7.40    2.60
  -5   2  -7   83.19    6.50
  -5   2  -7   84.89    6.90
   5  -2   7   84.99    6.30
   5  -2   7   70.19    6.10
  -6   2  -7    0.90    2.30
  -6   2  -7    2.00    2.00
   6  -2   7    3.30    2.50
   6  -2   7    3.00    2.60
  -7   2  -7   29.00    5.60
   7  -2   7   28.40    4.90
  -8   2  -7   80.09    9.00
   8  -2   7   83.69    7.20
   7   1  -7    5.50    3.10
  -7  -1   7    4.90    3.00
  -7  -1   7    6.60    3.70
   6   1  -7  101.79    7.80
   6   1  -7  102.49    7.50
  -6  -1   7  104.39    7.80
  -6  -1   7  114.79   13.70
   5   1  -7   45.70    6.00
   5   1  -7   52.09    6.00
   5   1  -7   44.40    5.70
  -5  -1   7   44.10    5.70
  -5  -1   7   49.10    6.10
  -5  -1   7   53.99    7.90
   4   1  -7   29.40    4.40
   4   1  -7   32.50    4.40
   4   1  -7   38.20    5.40
  -4  -1   7   33.90    4.80
  -4  -1   7   32.10    4.40
  -4  -1   7   32.00    4.80
   3   1  -7  130.89    6.50
   3   1  -7  126.09    7.10
   3   1  -7  136.79    7.20
  -3  -1   7  136.49    6.90
  -3  -1   7  131.79    7.50
  -3  -1   7  135.89    6.90
   2   1  -7   72.29    5.30
   2   1  -7   77.39    4.50
   2   1  -7   69.49    4.80
  -2  -1   7   71.89    4.80
  -2  -1   7   70.99    5.30
   1   1  -7    7.00    1.80
   1   1  -7   14.10    2.80
   1   1  -7    5.60    2.10
  -1  -1   7    7.60    2.10
  -1  -1   7   10.10    2.30
  -1  -1   7   12.40    3.00
   0   1  -7   16.00    3.00
   0   1  -7   12.20    2.40
   0  -1   7   15.20    2.60
   0  -1   7   14.50    2.30
   0  -1   7   17.30    3.20
  -1   1  -7  502.45   14.40
  -1   1  -7  501.45   12.90
   1  -1   7  496.35   13.90
   1  -1   7  503.65   12.30
   1  -1   7  491.55   12.90
   1  -1   7  516.65   14.90
  -2   1  -7   22.40    3.20
  -2   1  -7   20.20    2.50
   2  -1   7   21.50    3.40
   2  -1   7   24.10    2.80
   2  -1   7   22.20    3.00
  -3   1  -7   28.90    2.80
  -3   1  -7   24.50    3.80
  -3   1  -7   29.10    3.60
   3  -1   7   28.60    3.70
   3  -1   7   29.90    4.30
  -4   1  -7  179.68    7.80
  -4   1  -7  188.78    8.30
  -4   1  -7  181.18    5.90
  -4   1  -7  178.68    6.20
   4  -1   7  178.98    8.40
   4  -1   7  184.28    8.20
  -5   1  -7   36.80    4.90
  -5   1  -7   42.20    2.80
  -5   1  -7   39.10    2.90
  -5   1  -7   45.10    5.20
   5  -1   7   42.90    4.90
   5  -1   7   40.30    5.20
  -6   1  -7    4.30    1.60
  -6   1  -7    8.10    3.10
  -6   1  -7    8.10    1.60
  -6   1  -7    8.40    3.20
   6  -1   7    4.40    2.50
   6  -1   7   11.40    3.80
  -7   1  -7   72.69    9.40
   7  -1   7   69.69    7.50
  -8   1  -7    9.20    3.90
   7   0  -7   19.30    4.40
  -7   0   7   19.40    4.70
  -7   0   7   24.10    5.20
   6   0  -7  119.39    8.00
  -6   0   7  106.79    9.40
  -6   0   7  111.49    8.10
   5   0  -7   10.20    3.30
   5   0  -7    6.00    2.70
   5   0  -7    3.00    2.50
  -5   0   7    6.80    2.80
  -5   0   7    5.10    2.70
  -5   0   7    3.50    2.20
   4   0  -7   26.90    4.00
   4   0  -7   32.00    4.90
   4   0  -7   21.30    3.60
  -4   0   7   27.30    4.50
  -4   0   7   23.30    4.00
  -4   0   7   26.30    4.30
   3   0  -7  304.27   11.50
   3   0  -7  312.87   11.30
   3   0  -7  331.97   10.70
  -3   0   7  320.17   11.00
  -3   0   7  312.17   11.10
  -3   0   7  328.37   12.10
   2   0  -7    6.30    2.10
   2   0  -7    4.60    2.00
  -2   0   7    5.90    2.30
  -2   0   7    8.20    2.20
  -2   0   7    6.10    2.00
   1   0  -7    4.10    1.80
   1   0  -7    4.60    1.40
   1   0  -7    2.50    1.50
  -1   0   7    3.00    1.40
  -1   0   7    4.40    1.90
  -1   0   7    2.60    1.70
   0   0  -7   79.09    5.00
   0   0  -7   84.09    4.70
   0   0   7   76.79    4.40
   0   0   7   88.29    5.40
   0   0   7   83.19    3.90
  -1   0  -7   35.30    4.00
  -1   0  -7   32.40    3.50
   1   0   7   33.70    2.90
   1   0   7   33.20    4.10
   1   0   7   28.10    2.30
   1   0   7   32.40    2.60
  -2   0  -7    8.40    2.30
  -2   0  -7    9.40    2.00
   2   0   7    9.60    2.50
   2   0   7   10.20    2.00
   2   0   7    6.10    1.70
  -3   0  -7   94.89    5.00
  -3   0  -7  103.79    4.60
  -3   0  -7   96.29    5.40
   3   0   7  101.09    5.10
   3   0   7   99.39    5.70
  -4   0  -7    4.90    2.10
  -4   0  -7    4.70    1.60
  -4   0  -7    5.50    1.70
  -4   0  -7    7.20    2.20
   4   0   7    4.10    1.90
   4   0   7    5.00    2.20
  -5   0  -7   49.90    5.50
  -5   0  -7   41.20    3.40
  -5   0  -7   42.30    3.20
  -5   0  -7   43.50    4.70
   5   0   7   54.49    5.60
   5   0   7   47.50    5.30
  -6   0  -7  144.99    6.40
  -6   0  -7  147.39    7.30
  -6   0  -7  145.49    8.50
  -6   0  -7  148.39    5.80
   6   0   7  147.49    8.40
   6   0   7  148.09    7.80
  -7   0  -7  103.89    5.00
  -7   0  -7   94.39    5.40
  -7   0  -7   87.69    7.30
   7   0   7   91.09    7.40
   7   0   7  103.69    6.90
  -8   0  -7   16.90    4.90
  -8   0  -7   10.70    2.40
   8   0   7    8.30    3.00
   8   0   7    7.00    3.30
   7  -1  -7   50.09    6.40
  -7   1   7   44.60    7.10
  -7   1   7   56.89    7.60
   6  -1  -7   54.69    6.30
  -6   1   7   49.20    6.80
  -6   1   7   59.99   11.30
   5  -1  -7   -0.50    1.90
   5  -1  -7    0.80    1.70
  -5   1   7    2.50    2.00
  -5   1   7    4.90    2.70
  -5   1   7   -1.60    1.80
   4  -1  -7   59.09    4.80
   4  -1  -7   64.89    6.60
   4  -1  -7   59.39    5.10
  -4   1   7   60.39    5.30
  -4   1   7   65.69    5.70
   3  -1  -7   32.60    3.90
   3  -1  -7   31.80    4.50
   3  -1  -7   39.40    4.90
  -3   1   7   33.90    4.10
  -3   1   7   37.00    4.40
  -3   1   7   35.00    4.70
   2  -1  -7   22.00    2.90
   2  -1  -7   25.80    4.20
   2  -1  -7   21.30    3.20
  -2   1   7   19.90    2.80
  -2   1   7   21.80    3.60
  -2   1   7   20.00    3.10
   1  -1  -7   25.40    3.70
   1  -1  -7   27.20    2.30
   1  -1  -7   29.70    3.70
  -1   1   7   32.60    4.40
  -1   1   7   34.00    4.00
  -1   1   7   27.30    2.40
   0  -1  -7  509.75   13.60
   0  -1  -7  501.55   11.00
   0  -1  -7  523.45   14.50
   0   1   7  514.55   14.60
   0   1   7  497.05   13.40
   0   1   7  501.85   11.20
  -1  -1  -7   45.00    4.80
  -1  -1  -7   24.60    3.40
   1   1   7   28.60    2.50
   1   1   7   28.90    3.30
   1   1   7   29.50    3.90
   1   1   7   21.50    1.80
  -2  -1  -7  311.87   10.20
  -2  -1  -7  314.57    9.30
   2   1   7  317.07    9.50
   2   1   7  311.97    8.20
   2   1   7  317.17   10.40
  -3  -1  -7  128.79    5.40
  -3  -1  -7  131.69    6.10
  -3  -1  -7  116.39    5.20
   3   1   7  121.59    5.20
   3   1   7  117.29    6.00
  -4  -1  -7   84.39    4.90
  -4  -1  -7   81.49    4.30
  -4  -1  -7   87.99    5.60
  -4  -1  -7   94.29    5.30
   4   1   7   67.19    4.70
   4   1   7   88.39    5.30
  -5  -1  -7   -0.10    1.20
  -5  -1  -7   -0.40    1.00
  -5  -1  -7    3.50    2.00
  -5  -1  -7   -0.10    1.40
   5   1   7   -1.00    1.50
   5   1   7    4.10    1.90
  -6  -1  -7   28.90    3.50
  -6  -1  -7   32.80    3.80
  -6  -1  -7   29.40    4.70
  -6  -1  -7   25.40    3.40
   6   1   7   25.70    4.30
   6   1   7   28.00    3.80
  -7  -1  -7   75.99    6.80
  -7  -1  -7   80.89    5.10
  -7  -1  -7   76.99    4.80
   7   1   7   86.09    6.10
   7   1   7   72.09    7.30
  -8  -1  -7    1.70    1.80
  -8  -1  -7   -3.40    1.80
  -8  -1  -7    0.50    2.40
   8   1   7   -0.40    1.90
  -9  -1  -7   34.80    4.10
  -9  -1  -7   29.10    4.10
  -9  -1  -7   35.80    6.60
   9   1   7   23.10    4.60
   9   1   7   30.80    5.00
   7  -2  -7   44.70    6.30
  -7   2   7   44.50    6.90
  -7   2   7   29.00    5.50
   6  -2  -7    3.20    2.50
  -6   2   7    9.60    3.70
  -6   2   7    9.00    3.80
   5  -2  -7    2.90    2.40
   5  -2  -7    3.60    2.40
  -5   2   7   15.60    4.10
  -5   2   7    5.70    3.00
  -5   2   7    7.20    2.80
   4  -2  -7  169.58    8.40
   4  -2  -7  171.38    8.10
   4  -2  -7  183.38   11.70
  -4   2   7  171.08    8.40
  -4   2   7  154.88    8.80
   3  -2  -7   98.79    6.40
   3  -2  -7   94.29    5.20
   3  -2  -7   91.79    5.80
  -3   2   7   89.79    5.50
  -3   2   7   87.49    5.50
  -3   2   7   90.39    6.30
   2  -2  -7   19.00    3.50
   2  -2  -7   19.30    2.60
   2  -2  -7   14.60    2.70
  -2   2   7   16.20    2.80
  -2   2   7   17.70    2.70
  -2   2   7   20.20    3.50
   1  -2  -7  193.68    5.80
   1  -2  -7  178.08    8.00
   1  -2  -7  189.38    7.60
  -1   2   7  187.48    7.60
  -1   2   7  195.58    6.10
  -1   2   7  178.48    8.20
   0  -2  -7  580.34   15.70
   0  -2  -7  602.44   15.20
   0   2   7  574.14   15.90
   0   2   7  552.64   14.70
  -1  -2  -7   35.20    4.00
  -1  -2  -7   37.00    3.80
   1   2   7   37.30    4.20
   1   2   7   40.80    4.20
  -2  -2  -7  337.47   10.50
   2   2   7  361.86   12.20
   2   2   7  332.57   10.00
  -3  -2  -7  114.99    4.70
  -3  -2  -7  123.99    5.70
  -3  -2  -7  108.89    5.70
   3   2   7  118.29    4.70
   3   2   7  112.49    6.50
  -4  -2  -7   91.49    4.90
  -4  -2  -7   96.39    5.10
  -4  -2  -7   98.09    5.40
  -4  -2  -7  101.39    5.20
   4   2   7   98.89    5.00
   4   2   7   98.79    6.20
  -5  -2  -7   35.10    3.70
  -5  -2  -7   39.70    3.40
  -5  -2  -7   43.90    4.70
  -5  -2  -7   43.10    4.60
   5   2   7   39.90    4.30
   5   2   7   44.50    4.70
  -6  -2  -7   73.09    4.60
  -6  -2  -7   63.79    4.50
  -6  -2  -7   72.59    5.00
  -6  -2  -7   81.29    6.30
   6   2   7   78.69    5.10
   6   2   7   82.19    5.90
  -7  -2  -7   58.99    4.70
  -7  -2  -7   65.79    4.90
  -7  -2  -7   55.29    6.80
   7   2   7   61.49    4.90
   7   2   7   59.09    6.60
  -8  -2  -7    0.90    2.50
  -8  -2  -7    0.20    2.30
  -8  -2  -7   -1.70    1.70
   8   2   7   -0.20    1.80
   8   2   7   -3.10    2.00
  -9  -2  -7   -0.40    3.20
  -9  -2  -7    3.80    2.40
  -9  -2  -7   -1.80    2.40
   9   2   7    4.70    2.50
   7  -3  -7   20.80    4.50
  -7   3   7   17.20    4.60
  -7   3   7   15.80    4.70
   6  -3  -7    5.30    2.90
  -6   3   7    5.20    3.40
  -6   3   7    3.30    2.90
   5  -3  -7  143.99    8.10
  -5   3   7  138.49    8.90
  -5   3   7  145.29    8.60
  -5   3   7  148.79    7.90
   4  -3  -7  130.69    7.10
   4  -3  -7  134.39    7.30
   4  -3  -7  132.69    8.20
  -4   3   7  128.99    7.40
  -4   3   7  130.59    8.20
   3  -3  -7    2.20    1.50
   3  -3  -7    0.40    1.50
   3  -3  -7    0.50    1.30
  -3   3   7    2.40    1.90
  -3   3   7    1.10    1.70
  -3   3   7    0.50    1.50
   2  -3  -7    5.30    2.10
   2  -3  -7    5.80    2.10
   2  -3  -7    6.20    1.80
  -2   3   7    3.40    1.70
  -2   3   7    6.00    1.90
  -2   3   7    9.80    2.60
   1  -3  -7  354.26    8.60
   1  -3  -7  329.17   10.90
   1  -3  -7  356.56   11.90
  -1   3   7  358.86   12.00
  -1   3   7  333.67    8.70
  -1   3   7  342.07   10.90
   0  -3  -7  265.07    9.50
   0  -3  -7  264.97    9.10
   0   3   7  260.37    9.60
   0   3   7  251.87    8.90
  -1  -3  -7  308.87   10.10
  -1  -3  -7  309.77    9.90
   1   3   7  316.87    9.90
  -2  -3  -7    2.90    1.40
  -2  -3  -7    0.10    1.20
   2   3   7    3.40    1.50
  -3  -3  -7   51.79    3.90
  -3  -3  -7   53.39    4.30
  -3  -3  -7   48.80    2.90
   3   3   7   49.20    3.70
   3   3   7   47.00    2.70
  -4  -3  -7   16.40    2.90
  -4  -3  -7   16.40    2.70
  -4  -3  -7   12.40    2.70
  -4  -3  -7   16.30    3.50
   4   3   7   11.60    2.10
   4   3   7   12.10    2.40
  -5  -3  -7    5.80    1.80
  -5  -3  -7    6.90    2.50
  -5  -3  -7    6.30    2.20
  -5  -3  -7    8.70    2.30
   5   3   7    5.80    1.80
   5   3   7    6.00    2.10
  -6  -3  -7   50.39    4.30
  -6  -3  -7   47.50    3.60
  -6  -3  -7   51.69    5.20
  -6  -3  -7   63.99    6.40
   6   3   7   54.49    4.80
   6   3   7   59.49    4.80
  -7  -3  -7   -1.50    1.60
  -7  -3  -7    1.10    2.40
  -7  -3  -7   -0.30    2.10
   7   3   7    2.90    2.60
   7   3   7    0.50    1.50
  -8  -3  -7   98.59    8.00
   8   3   7  100.39    5.90
   8   3   7   86.99    5.90
  -9  -3  -7   15.20    3.80
  -9  -3  -7   18.30    5.10
   9   3   7   13.90    3.00
   9   3   7   11.60    3.10
   7  -4  -7   29.70    5.20
  -7   4   7   25.10    5.70
  -7   4   7   23.60    5.60
   6  -4  -7   11.70    3.50
  -6   4   7   12.20    4.00
   5  -4  -7  119.79    7.30
   5  -4  -7  106.59    7.40
  -5   4   7  111.39    9.80
  -5   4   7  122.19    7.90
  -5   4   7  118.19    7.10
   4  -4  -7   23.40    4.00
   4  -4  -7   25.00    3.90
   4  -4  -7   28.60    4.90
  -4   4   7   32.10    6.70
  -4   4   7   34.10    5.30
  -4   4   7   36.90    5.10
   3  -4  -7    2.50    1.80
   3  -4  -7    0.20    1.40
   3  -4  -7    1.10    1.60
  -3   4   7    0.10    1.80
  -3   4   7    0.20    1.70
  -3   4   7   -0.80    1.30
   2  -4  -7    4.40    1.70
   2  -4  -7    5.30    2.20
   2  -4  -7    6.20    2.10
  -2   4   7    2.90    1.80
  -2   4   7    4.60    1.90
  -2   4   7    6.60    2.00
   1  -4  -7  884.91   17.90
   1  -4  -7  890.31   21.20
   1  -4  -7  853.91   21.80
  -1   4   7  848.22   22.00
  -1   4   7  885.41   18.10
  -1   4   7  867.11   20.90
   0  -4  -7   47.80    3.90
   0  -4  -7   54.59    4.30
   0   4   7   57.89    4.40
   0   4   7   44.40    3.70
  -1  -4  -7   46.90    3.80
  -1  -4  -7   49.60    3.80
   1   4   7   49.10    3.80
  -2  -4  -7  359.36   11.70
  -2  -4  -7  349.57   11.70
  -2  -4  -7  354.66   11.00
   2   4   7  342.97   10.70
  -3  -4  -7   59.99    5.90
  -3  -4  -7   42.60    2.60
  -3  -4  -7   52.49    4.00
  -3  -4  -7   48.40    3.50
   3   4   7   46.90    3.60
  -4  -4  -7    3.50    1.40
  -4  -4  -7   -0.10    1.40
  -4  -4  -7    1.80    1.70
  -4  -4  -7    4.00    1.60
   4   4   7    1.50    1.30
   4   4   7    1.50    1.20
  -5  -4  -7  230.88   10.10
  -5  -4  -7  248.18    9.30
  -5  -4  -7  226.48    9.40
  -5  -4  -7  232.08    7.40
   5   4   7  224.18    8.30
   5   4   7  228.68    7.70
  -6  -4  -7   50.69    5.60
  -6  -4  -7   53.79    5.60
  -6  -4  -7   59.29    6.00
  -6  -4  -7   46.10    3.40
   6   4   7   50.89    3.70
   6   4   7   52.69    4.60
  -7  -4  -7    4.20    2.60
  -7  -4  -7    4.40    2.70
   7   4   7    2.50    2.90
   7   4   7    2.90    1.60
   7   4   7    1.70    1.80
  -8  -4  -7   57.39    8.30
  -8  -4  -7   50.89    5.90
   8   4   7   50.19    4.30
  -9  -4  -7   38.90    6.60
   9   4   7   21.60    3.60
   9   4   7   23.10    3.30
   7  -5  -7   21.40    4.70
  -7   5   7   20.70    5.40
  -7   5   7   20.40    5.00
   6  -5  -7   32.00    5.00
  -6   5   7   36.10    6.80
  -6   5   7   37.80    5.90
   5  -5  -7  109.19    7.20
   5  -5  -7   99.19    7.20
  -5   5   7  116.59    8.00
  -5   5   7  113.99    7.10
  -5   5   7  114.89    8.60
   4  -5  -7   19.00    4.10
   4  -5  -7   20.50    3.90
   4  -5  -7   18.10    3.50
  -4   5   7   21.10    4.60
  -4   5   7   12.40    3.00
  -4   5   7   10.40    3.10
   3  -5  -7   14.90    2.90
   3  -5  -7   19.30    3.80
   3  -5  -7   16.30    3.30
  -3   5   7   17.90    3.30
  -3   5   7   16.20    3.20
  -3   5   7   21.50    4.20
   2  -5  -7  228.28   10.10
   2  -5  -7  213.28    8.90
   2  -5  -7  205.38    7.50
  -2   5   7  225.28    7.90
  -2   5   7  206.98    9.70
  -2   5   7  213.28    8.70
   1  -5  -7   59.59    4.90
   1  -5  -7   59.69    3.30
   1  -5  -7   60.49    4.60
  -1   5   7   61.59    4.60
  -1   5   7   59.79    5.00
  -1   5   7   61.29    3.40
   0  -5  -7    8.60    2.20
   0  -5  -7   11.40    2.60
   0   5   7   11.70    2.70
   0   5   7   14.00    2.90
  -1  -5  -7  299.27   10.30
  -1  -5  -7  308.57   10.20
   1   5   7  321.67   10.50
   1   5   7  300.27   10.20
  -2  -5  -7   13.60    2.70
  -2  -5  -7   14.30    3.20
   2   5   7   17.10    2.80
  -3  -5  -7  177.78    8.20
  -3  -5  -7  193.78    8.00
  -3  -5  -7  184.68    6.80
   3   5   7  194.88    7.20
  -4  -5  -7  308.17    8.90
  -4  -5  -7  316.47   11.00
  -4  -5  -7  307.07    9.20
  -4  -5  -7  308.47   11.30
   4   5   7  304.77    8.70
   4   5   7  313.57    9.20
  -5  -5  -7  221.38    9.10
  -5  -5  -7  216.88    6.70
  -5  -5  -7  206.88    9.30
   5   5   7  214.38    7.10
   5   5   7  198.78    7.70
  -6  -5  -7   81.79    6.00
  -6  -5  -7   86.59    4.00
  -6  -5  -7   89.99    6.40
   6   5   7   90.19    4.30
   6   5   7   83.79    5.60
  -7  -5  -7   32.90    5.20
  -7  -5  -7   34.70    5.30
   7   5   7   33.50    2.90
   7   5   7   33.40    4.90
   7   5   7   33.20    3.30
  -8  -5  -7   48.80    6.80
   8   5   7   31.10    3.10
   8   5   7   28.70    3.10
  -9  -5  -7   10.30    4.00
   9   5   7    9.00    1.90
   6  -6  -7   13.30    3.60
  -6   6   7   13.70    4.40
  -6   6   7   17.10    4.80
   5  -6  -7    5.60    2.90
   5  -6  -7   16.70    3.70
  -5   6   7   16.30    3.70
  -5   6   7   15.60    3.90
  -5   6   7   16.70    4.40
   4  -6  -7    9.20    3.10
   4  -6  -7    5.00    2.60
  -4   6   7    9.80    4.50
  -4   6   7    4.80    2.40
  -4   6   7    6.40    2.90
   3  -6  -7   24.60    3.70
   3  -6  -7   19.30    3.40
   3  -6  -7   24.60    4.60
  -3   6   7   23.20    3.70
  -3   6   7   25.40    5.00
  -3   6   7   23.10    3.70
   2  -6  -7   96.99    5.90
   2  -6  -7   90.39    6.50
  -2   6   7   91.79    5.20
  -2   6   7   97.59    6.80
  -2   6   7   87.49    5.70
   1  -6  -7   62.09    4.70
   1  -6  -7   66.69    3.80
   1  -6  -7   69.99    5.50
  -1   6   7   64.99    4.80
  -1   6   7   69.29    5.60
  -1   6   7   65.19    3.80
   0  -6  -7  189.28    8.10
   0  -6  -7  193.38    8.40
   0   6   7  185.48    7.90
   0   6   7  201.88    8.60
  -1  -6  -7   46.50    4.10
  -1  -6  -7   42.30    3.70
   1   6   7   48.80    4.10
  -2  -6  -7  187.98    8.80
  -2  -6  -7  201.48    8.30
  -2  -6  -7  190.18    8.30
   2   6   7  206.68    7.70
  -3  -6  -7   14.50    3.60
  -3  -6  -7   15.40    3.10
  -3  -6  -7   11.40    1.90
  -3  -6  -7   10.40    2.00
   3   6   7   10.60    2.20
   3   6   7    9.10    1.50
  -4  -6  -7   87.99    4.10
  -4  -6  -7   82.59    6.00
  -4  -6  -7   83.49    5.70
  -4  -6  -7   89.99    4.60
   4   6   7   81.69    4.10
   4   6   7   82.99    4.20
  -5  -6  -7  105.09    4.10
  -5  -6  -7  114.89    6.90
  -5  -6  -7  106.39    6.40
  -5  -6  -7  101.49    7.00
   5   6   7  110.79    5.50
   5   6   7  109.09    4.50
  -6  -6  -7    6.70    2.80
  -6  -6  -7    6.10    2.70
   6   6   7    2.40    1.20
   6   6   7    3.10    2.10
  -7  -6  -7   55.29    7.20
  -7  -6  -7   58.09    6.50
   7   6   7   52.49    7.10
   7   6   7   45.00    6.30
  -8  -6  -7   25.80    5.10
   8   6   7   27.90    5.50
   6  -7  -7   30.70    5.10
  -6   7   7   21.00    5.50
  -6   7   7   15.70    4.50
   5  -7  -7    3.80    2.80
   5  -7  -7   10.10    3.20
  -5   7   7   10.60    3.70
  -5   7   7   11.70    4.00
  -5   7   7    8.20    5.30
   4  -7  -7    0.80    2.10
   4  -7  -7   -0.10    2.10
  -4   7   7    2.90    2.70
  -4   7   7    1.50    2.20
  -4   7   7    0.40    2.50
   3  -7  -7   15.50    3.30
   3  -7  -7    2.70    2.50
   3  -7  -7   10.80    2.90
  -3   7   7    7.70    3.20
  -3   7   7    9.40    2.90
   2  -7  -7   67.99    4.80
   2  -7  -7   72.89    8.70
   2  -7  -7   79.69    5.50
  -2   7   7   66.79    6.10
  -2   7   7   77.69    5.50
   1  -7  -7   -0.10    1.20
   1  -7  -7   -0.80    1.40
   1  -7  -7    1.30    2.10
  -1   7   7    2.90    2.40
  -1   7   7    1.20    1.40
  -1   7   7   -0.70    1.40
   0  -7  -7   67.39    3.50
   0  -7  -7   63.99    3.10
   0  -7  -7   62.19    5.00
   0  -7  -7   68.89    5.00
   0   7   7   67.09    5.30
  -1  -7  -7   72.89    5.20
  -1  -7  -7   77.99    5.90
  -1  -7  -7   85.59    5.20
   1   7   7   84.79    5.40
  -2  -7  -7   92.59    5.10
  -2  -7  -7   95.19    6.50
  -2  -7  -7   95.09    6.00
   2   7   7   92.79    5.20
  -3  -7  -7   89.89    5.90
  -3  -7  -7   88.39    4.60
  -3  -7  -7   85.39    6.30
  -3  -7  -7   96.99    4.20
   3   7   7   96.19    3.90
   3   7   7   93.69    4.80
  -4  -7  -7   79.89    4.50
  -4  -7  -7   71.99    3.70
  -4  -7  -7   77.89    5.70
   4   7   7   76.89    3.90
   4   7   7   76.99    4.00
  -5  -7  -7   35.30    2.20
  -5  -7  -7   42.90    4.60
  -5  -7  -7   37.00    5.20
   5   7   7   44.20    3.60
  -6  -7  -7    0.70    2.20
  -6  -7  -7    0.70    2.30
   6   7   7    1.50    1.90
  -7  -7  -7   15.10    3.70
   7   7   7   19.30    4.70
   8   7   7   34.60    6.20
   6  -8  -7    9.70    3.30
  -6   8   7   10.60    4.10
  -6   8   7   17.00    5.40
   5  -8  -7   14.00    4.30
  -5   8   7    2.30    2.80
  -5   8   7    5.90    3.90
   4  -8  -7   44.20    5.30
   4  -8  -7   26.10    4.50
  -4   8   7   39.60    5.20
  -4   8   7   40.70    6.50
  -4   8   7   38.20    5.50
   3  -8  -7   47.50    5.30
   3  -8  -7   47.00    5.30
  -3   8   7   48.60    5.70
  -3   8   7   48.90    5.50
   2  -8  -7   87.69    5.50
   2  -8  -7   84.29    6.80
   2  -8  -7   82.29    5.90
  -2   8   7   93.19    7.20
  -2   8   7   75.89    5.40
   1  -8  -7   96.59    6.80
   1  -8  -7   93.49    6.10
   1  -8  -7   92.99    7.50
  -1   8   7   96.19    5.30
  -1   8   7   88.29    6.70
   0  -8  -7    3.80    1.60
   0  -8  -7   -0.60    1.50
   0  -8  -7    0.90    1.80
   0  -8  -7    1.00    1.10
   0  -8  -7    2.60    1.80
   0   8   7   -1.00    1.80
  -1  -8  -7  193.88    6.10
  -1  -8  -7  190.08    8.70
  -1  -8  -7  191.58    6.30
  -1  -8  -7  181.78    9.30
  -1  -8  -7  180.88    8.20
   1   8   7  189.08    8.30
  -2  -8  -7   -0.40    1.20
  -2  -8  -7    1.60    1.30
  -2  -8  -7   -0.80    1.00
  -2  -8  -7    2.00    2.20
  -2  -8  -7    1.30    1.80
  -3  -8  -7   12.70    3.30
  -3  -8  -7    9.60    2.70
  -3  -8  -7   13.60    2.30
  -3  -8  -7   14.50    2.20
   3   8   7   13.10    2.40
  -4  -8  -7  117.39    4.60
  -4  -8  -7  120.69    7.30
  -4  -8  -7  112.19    5.70
  -4  -8  -7  121.59    7.70
   4   8   7  111.89    4.70
  -5  -8  -7    1.50    1.80
  -5  -8  -7    3.90    2.60
   5   8   7    1.20    1.50
  -6  -8  -7    5.00    2.70
   6   8   7    7.90    2.60
  -7  -8  -7   63.49    6.90
   7   8   7   78.49    6.00
   7   8   7   69.99    8.20
  -8  -8  -7    6.30    3.60
   8   8   7    6.80    3.60
   5  -9  -7    2.70    2.50
  -5   9   7    4.30    3.40
  -5   9   7    5.50    3.50
   4  -9  -7    3.00    2.80
   4  -9  -7    3.10    2.10
  -4   9   7    6.60    3.20
  -4   9   7    3.30    3.40
  -4   9   7    0.60    2.90
   3  -9  -7  156.48    8.30
   3  -9  -7  143.19    8.20
  -3   9   7  135.69    9.50
  -3   9   7  154.08    8.20
  -3   9   7  153.38    8.60
   2  -9  -7   20.40    3.70
   2  -9  -7   17.00    4.00
   2  -9  -7   13.20    3.10
  -2   9   7   21.80    3.80
  -2   9   7    9.30    3.60
   1  -9  -7    6.10    2.40
   1  -9  -7    8.10    2.90
   1  -9  -7    3.40    2.60
   1  -9  -7    8.20    2.80
  -1   9   7    5.10    2.70
   0  -9  -7  179.68    8.70
   0  -9  -7  193.58    6.90
   0  -9  -7  184.48    7.50
   0  -9  -7  196.58    9.80
   0  -9  -7  190.68    9.20
   0   9   7  182.08    9.00
  -1  -9  -7    0.30    1.50
  -1  -9  -7    0.50    1.90
  -1  -9  -7   -2.40    1.10
  -1  -9  -7   -1.00    1.10
  -1  -9  -7    0.10    1.60
   1   9   7    0.50    1.80
  -2  -9  -7   12.70    3.40
  -2  -9  -7   11.20    2.40
  -2  -9  -7    7.40    2.10
  -2  -9  -7   12.40    2.30
  -2  -9  -7   12.90    3.00
   2   9   7   14.40    3.00
  -3  -9  -7  126.19    8.00
  -3  -9  -7  124.19    5.60
  -3  -9  -7  126.59    7.60
  -3  -9  -7  126.59    5.90
  -3  -9  -7  121.09    5.60
   3   9   7  121.19    5.70
  -4  -9  -7    3.50    2.50
  -4  -9  -7    2.40    2.40
  -4  -9  -7    3.60    1.30
  -4  -9  -7    1.20    2.50
   4   9   7    1.20    1.50
   4   9   7    2.60    1.50
  -5  -9  -7   23.70    3.80
   5   9   7   24.70    3.50
  -6  -9  -7   35.40    5.20
   6   9   7   41.10    5.10
  -7  -9  -7   24.10    4.60
   7   9   7   27.30    4.60
   7   9   7   20.30    5.10
  -8  -9  -7    3.10    3.10
   8   9   7    3.70    3.40
   5 -10  -7    1.60    2.60
  -5  10   7    2.60    3.20
  -5  10   7   -2.00    2.60
  -4  10   7   66.09    7.60
  -4  10   7   66.49    8.70
   3 -10  -7    3.20    3.10
   3 -10  -7    2.90    2.20
  -3  10   7    7.80    3.20
  -3  10   7    5.70    3.50
   2 -10  -7    6.60    3.00
   2 -10  -7   10.70    3.20
   2 -10  -7    8.00    2.80
  -2  10   7    4.60    3.20
  -2  10   7    7.00    2.80
   1 -10  -7   34.20    4.40
   1 -10  -7   46.90    6.20
   1 -10  -7   36.70    5.00
   1 -10  -7   26.60    4.70
  -1  10   7   45.00    5.90
   0 -10  -7    1.90    1.90
   0 -10  -7    0.30    2.50
   0 -10  -7    1.80    2.00
   0 -10  -7   -1.40    1.40
   0 -10  -7   -1.30    1.60
   0  10   7   -3.10    2.00
  -1 -10  -7   41.80    5.60
  -1 -10  -7   34.20    4.00
  -1 -10  -7   32.20    5.50
  -1 -10  -7   27.40    3.40
  -1 -10  -7   28.50    4.30
   1  10   7   34.50    4.80
  -2 -10  -7   61.19    4.70
  -2 -10  -7   57.89    4.10
  -2 -10  -7   61.79    5.20
  -2 -10  -7   66.09    5.80
  -2 -10  -7   56.49    6.80
   2  10   7   57.09    4.80
  -3 -10  -7   50.89    4.10
  -3 -10  -7   49.20    4.40
  -3 -10  -7   42.70    5.40
   3  10   7   47.10    4.00
  -4 -10  -7    5.10    2.20
  -4 -10  -7    6.40    3.10
  -4 -10  -7    6.70    1.60
   4  10   7    8.60    2.30
  -5 -10  -7   22.90    4.00
   5  10   7   30.00    4.10
  -6 -10  -7  109.19    7.40
   6  10   7  107.59    6.60
  -7 -10  -7    2.60    3.00
   7  10   7    6.30    2.80
   7  10   7    5.50    3.70
   4 -11  -7   16.90    3.70
  -4  11   7   10.70    3.90
   3 -11  -7    4.30    3.00
   3 -11  -7    4.80    3.20
  -3  11   7    5.60    3.20
  -3  11   7    3.80    3.20
   2 -11  -7   27.30    4.40
   2 -11  -7   33.40    5.20
  -2  11   7   27.00    5.60
   1 -11  -7    6.50    2.80
   1 -11  -7    4.00    2.30
   1 -11  -7    3.70    2.10
  -1  11   7    2.70    2.50
   0 -11  -7   27.30    3.80
   0 -11  -7   25.00    4.40
   0 -11  -7   23.20    3.90
   0 -11  -7   27.80    4.70
   0  11   7   26.90    4.90
  -1 -11  -7   -0.90    1.50
  -1 -11  -7   -0.90    2.00
  -1 -11  -7   -1.20    1.80
  -1 -11  -7    2.30    1.80
   1  11   7    2.80    2.30
  -2 -11  -7  179.58   10.50
  -2 -11  -7  178.08    8.10
  -2 -11  -7  181.48    7.70
  -2 -11  -7  189.18    8.50
   2  11   7  175.28    8.20
  -3 -11  -7   52.19    4.10
  -3 -11  -7   49.60    5.10
  -3 -11  -7   50.79    5.30
  -3 -11  -7   52.99    7.30
  -4 -11  -7   16.40    3.30
  -4 -11  -7   20.10    2.30
  -4 -11  -7   15.40    3.70
  -4 -11  -7   19.70    2.40
  -5 -11  -7   89.09    6.40
   5  11   7   74.59    5.50
  -6 -11  -7   42.60    5.90
   6  11   7   46.60    5.50
  -7 -11  -7    2.40    3.40
   7  11   7   -1.40    2.70
   3 -12  -7    0.50    2.30
  -3  12   7    1.60    3.60
   2 -12  -7   27.00    4.60
   2 -12  -7   25.00    4.80
   1 -12  -7   52.09    6.20
   1 -12  -7   42.20    5.40
   1 -12  -7   50.39    5.30
   0 -12  -7   56.19    6.10
   0 -12  -7   50.19    5.80
   0 -12  -7   54.69    6.60
   0 -12  -7   52.69    4.60
  -1 -12  -7   46.90    5.00
  -1 -12  -7   40.00    5.50
  -1 -12  -7   44.80    6.40
  -1 -12  -7   40.90    5.30
  -2 -12  -7   66.99    5.50
  -2 -12  -7   80.49    6.80
  -2 -12  -7   70.59    5.30
  -2 -12  -7   79.69    5.20
  -2 -12  -7   70.69    5.80
  -3 -12  -7   22.80    4.10
  -3 -12  -7   33.40    4.30
  -3 -12  -7   26.30    3.70
  -3 -12  -7   31.40    3.60
  -3 -12  -7   25.00    4.80
  -4 -12  -7    5.70    1.60
  -4 -12  -7    4.80    2.50
  -4 -12  -7    7.00    1.80
  -4 -12  -7    2.70    2.50
  -4 -12  -7    6.40    2.90
  -5 -12  -7   14.90    3.70
   5  12   7   14.70    3.90
  -6 -12  -7   41.90    6.10
   6  12   7   34.80    5.20
   2 -13  -7    0.30    2.10
   2 -13  -7    1.50    2.40
   2 -13  -7   -1.10    2.40
   1 -13  -7   55.59    5.80
   1 -13  -7   47.90    6.20
   1 -13  -7   36.10    5.60
   1 -13  -7   43.80    5.90
   0 -13  -7   11.80    3.60
   0 -13  -7   10.50    3.50
   0 -13  -7    6.00    2.30
   0 -13  -7    5.70    3.30
  -1 -13  -7   13.90    3.40
  -1 -13  -7   19.60    4.40
  -1 -13  -7   16.90    3.40
  -1 -13  -7   11.50    3.70
  -1 -13  -7   13.10    3.50
  -2 -13  -7   44.40    5.10
  -2 -13  -7   42.30    6.00
  -2 -13  -7   53.49    4.70
  -2 -13  -7   47.00    5.70
  -2 -13  -7   44.70    5.50
  -3 -13  -7    4.10    2.50
  -3 -13  -7   -2.00    2.30
  -3 -13  -7    3.10    2.90
  -3 -13  -7    2.10    1.80
  -3 -13  -7    4.20    2.10
  -4 -13  -7   -0.70    2.20
  -4 -13  -7    2.50    1.60
  -4 -13  -7    1.50    1.30
  -4 -13  -7    3.80    2.70
  -4 -13  -7   -0.30    2.50
  -5 -13  -7   63.09    6.70
  -5 -13  -7   54.99    7.70
   1 -14  -7    0.70    2.30
   1 -14  -7    6.40    2.90
   0 -14  -7    3.80    3.00
   0 -14  -7    1.30    2.00
   0 -14  -7    4.20    2.60
   0 -14  -7    2.10    2.60
  -1 -14  -7   23.00    4.10
  -1 -14  -7   20.10    4.80
  -1 -14  -7   24.40    4.90
  -1 -14  -7   18.30    3.70
  -2 -14  -7   11.70    3.40
  -2 -14  -7   10.10    3.70
  -2 -14  -7    9.80    3.70
  -2 -14  -7   11.00    3.00
  -3 -14  -7    5.70    2.50
  -3 -14  -7    2.50    3.00
  -3 -14  -7    4.40    2.70
  -3 -14  -7    5.10    3.30
  -3 -14  -7    3.90    2.00
  -4 -14  -7   14.10    3.10
  -4 -14  -7   20.20    5.20
  -4 -14  -7   11.60    2.20
  -4 -14  -7   13.00    4.10
  -4 -14  -7   17.10    4.20
   1  11  -8    4.90    3.20
  -1 -11   8    4.60    3.20
  -1 -11   8   11.20    4.10
   0  11  -8   17.80    3.90
   0 -11   8    7.90    3.60
   0 -11   8   15.40    3.50
   0 -11   8   12.20    4.00
   3  10  -8   47.60    6.50
  -3 -10   8   41.90    6.70
  -3 -10   8   54.39    6.90
   2  10  -8   24.60    4.80
  -2 -10   8   21.10    4.90
  -2 -10   8   24.80    4.90
   1  10  -8   -0.10    2.60
  -1 -10   8   -1.80    1.80
  -1 -10   8    1.80    2.90
   0  10  -8  101.79    6.80
   0 -10   8  103.59    8.40
   0 -10   8  100.79    6.50
   0 -10   8  103.99    8.40
  -1  10  -8   15.50    3.30
   1 -10   8   10.30    2.70
   1 -10   8    4.40    3.40
   1 -10   8    6.10    3.30
   2 -10   8   12.20    2.40
   2 -10   8   11.00    3.80
   2 -10   8    6.00    3.10
   3 -10   8   44.80    7.10
   3 -10   8   54.19    7.70
   4   9  -8   85.79    9.20
  -4  -9   8   81.29    7.20
  -4  -9   8   94.39    8.40
   3   9  -8    0.70    2.60
  -3  -9   8    3.20    3.10
  -3  -9   8    3.20    3.00
   2   9  -8   -1.60    2.20
  -2  -9   8   -1.40    1.90
  -2  -9   8   -1.10    2.60
   1   9  -8  218.38   10.00
  -1  -9   8  194.28   10.90
  -1  -9   8  194.18    9.40
  -1  -9   8  220.18   11.60
   0   9  -8   37.90    4.80
   0  -9   8   31.30    4.20
   0  -9   8   37.40    6.20
   0  -9   8   50.59    6.40
  -1   9  -8    6.40    2.30
   1  -9   8    4.10    3.00
   1  -9   8    8.50    3.30
   1  -9   8    3.60    2.00
  -2   9  -8   93.99    6.90
   2  -9   8  114.19    8.80
   2  -9   8  107.79    5.20
   2  -9   8   93.69    8.00
   3  -9   8   13.80    4.30
   3  -9   8    6.80    3.30
   4  -9   8   -1.90    2.30
   4  -9   8    1.00    2.70
   5   8  -8   17.20    4.40
  -5  -8   8   13.20    4.20
  -5  -8   8   13.30    4.00
   4   8  -8   29.40    5.50
  -4  -8   8   39.70    6.40
  -4  -8   8   34.30    5.50
   3   8  -8    5.50    3.10
  -3  -8   8   10.10    3.50
  -3  -8   8   18.20    5.70
   2   8  -8    0.00    2.30
  -2  -8   8    8.90    4.30
  -2  -8   8    0.30    2.70
   1   8  -8  100.99    6.80
  -1  -8   8   99.79    7.70
  -1  -8   8  110.59    6.80
  -1  -8   8   99.69    7.60
   0   8  -8   19.60    3.60
   0  -8   8   23.60    3.70
   0  -8   8   23.40    5.00
   0  -8   8   21.40    4.40
  -1   8  -8   71.79    5.00
   1  -8   8   63.09    4.60
   1  -8   8   74.99    8.50
   1  -8   8   74.69    6.60
  -2   8  -8  108.99    5.40
   2  -8   8  102.49    5.10
   2  -8   8  109.79    8.00
   2  -8   8  106.99    8.30
   3  -8   8    9.20    3.30
   3  -8   8    3.20    2.80
   4  -8   8    0.40    2.80
   4  -8   8   -0.90    2.20
   5  -8   8   76.49    9.80
  -6  -7   8    9.90    4.00
  -6  -7   8    9.80    3.50
   5   7  -8   22.00    5.20
  -5  -7   8   28.30    5.80
  -5  -7   8   25.00    5.60
   4   7  -8   32.20    5.40
  -4  -7   8   28.90    5.20
  -4  -7   8   30.80    5.10
   3   7  -8    2.00    2.70
   3   7  -8    3.60    2.50
  -3  -7   8    3.50    2.90
  -3  -7   8    1.90    2.20
   2   7  -8   94.49    7.00
   2   7  -8   92.29    6.80
  -2  -7   8  101.09    6.80
  -2  -7   8   97.59    8.10
  -2  -7   8  103.59    7.50
   1   7  -8   72.99    5.80
   1   7  -8   84.09    9.10
  -1  -7   8   81.09    6.80
  -1  -7   8   65.59    7.00
  -1  -7   8   95.49   10.70
   0   7  -8    2.90    2.10
   0  -7   8    1.70    2.00
   0  -7   8    1.60    1.80
   0  -7   8    6.00    3.30
   0  -7   8    2.40    2.40
  -1   7  -8  128.29    6.30
   1  -7   8  120.49    9.60
   1  -7   8  112.79    8.60
   1  -7   8  129.49    8.00
   1  -7   8  117.49    5.90
  -2   7  -8    7.50    2.00
   2  -7   8    5.10    2.10
   2  -7   8   11.20    3.20
   2  -7   8    6.70    3.30
   3  -7   8   35.20    5.60
   3  -7   8   30.00    5.10
   4  -7   8    1.60    2.60
  -5   7  -8  158.08   10.90
   5  -7   8  149.09   10.40
   6   6  -8   11.30    4.20
  -6  -6   8   18.30    4.40
  -6  -6   8   15.60    4.60
   5   6  -8   30.90    5.30
  -5  -6   8   27.60    5.40
  -5  -6   8   31.90    5.70
   4   6  -8   18.30    4.10
   4   6  -8   19.60    4.30
  -4  -6   8   14.50    3.90
  -4  -6   8   18.70    4.50
   3   6  -8   59.69    7.10
   3   6  -8   49.80    6.00
  -3  -6   8   46.30    6.10
  -3  -6   8   48.00    6.60
   2   6  -8   75.79    6.10
   2   6  -8   77.59    6.00
   2   6  -8   67.79    5.80
  -2  -6   8   79.69    6.40
  -2  -6   8   80.49    6.50
  -2  -6   8   77.09    5.80
   1   6  -8  259.97   11.10
   1   6  -8  263.57   10.40
  -1  -6   8  261.37   10.10
  -1  -6   8  260.77   11.90
  -1  -6   8  265.67   11.20
  -1  -6   8  270.57   11.90
   0   6  -8  411.36   14.50
   0   6  -8  417.26   12.90
   0  -6   8  440.96   15.60
   0  -6   8  404.76   12.60
   0  -6   8  406.76   15.20
   0  -6   8  416.16   14.40
  -1   6  -8   57.09    4.30
  -1   6  -8   69.39    7.30
   1  -6   8   59.19    5.30
   1  -6   8   63.69    7.20
   1  -6   8   61.69    4.30
   1  -6   8   64.69    7.00
  -2   6  -8  110.69    5.10
   2  -6   8  101.59    7.80
   2  -6   8  114.09    7.30
   2  -6   8  101.79    7.90
   3  -6   8   87.79    6.80
   3  -6   8   79.99    7.20
   3  -6   8   91.39    7.40
   4  -6   8    2.80    2.80
  -5   6  -8   12.40    4.30
   5  -6   8   16.90    4.20
  -6   6  -8   11.80    4.60
   6  -6   8   17.50    4.40
   6   5  -8   11.00    4.10
  -6  -5   8   12.70    3.90
  -6  -5   8   21.40    5.30
   5   5  -8   96.49    7.80
  -5  -5   8  100.79    8.10
  -5  -5   8   98.99    7.40
   4   5  -8   14.40    3.50
   4   5  -8    9.00    3.60
  -4  -5   8   14.30    4.00
  -4  -5   8   11.70    3.60
   3   5  -8   -1.40    1.50
   3   5  -8   -0.20    1.70
   3   5  -8   -0.80    1.90
  -3  -5   8    0.80    1.90
  -3  -5   8    0.90    2.00
  -3  -5   8    3.50    2.30
   2   5  -8  407.56   14.40
   2   5  -8  413.96   13.90
  -2  -5   8  406.26   14.30
  -2  -5   8  384.16   13.30
  -2  -5   8  403.66   14.80
   1   5  -8    0.70    1.70
   1   5  -8    1.50    1.70
  -1  -5   8    0.20    1.60
  -1  -5   8    1.50    1.90
  -1  -5   8    1.40    1.70
   0   5  -8    0.30    1.60
   0   5  -8   -0.80    1.50
   0  -5   8    0.90    1.90
   0  -5   8   -0.60    1.40
   0  -5   8    1.20    1.90
   0  -5   8    2.10    2.20
  -1   5  -8   -0.40    1.40
  -1   5  -8    4.00    2.20
   1  -5   8    0.30    1.40
   1  -5   8    3.00    2.10
   1  -5   8    3.00    2.40
   1  -5   8    0.60    1.40
  -2   5  -8   15.60    3.60
  -2   5  -8   17.00    2.60
   2  -5   8   15.20    4.00
   2  -5   8   21.40    3.90
   2  -5   8   12.50    3.30
  -3   5  -8   13.50    2.00
   3  -5   8    9.60    1.70
   3  -5   8    8.80    2.90
   3  -5   8    7.30    3.20
   3  -5   8    9.80    3.40
  -4   5  -8  296.67   13.20
   4  -5   8  291.47   13.10
   4  -5   8  288.87   13.10
  -5   5  -8    3.40    3.10
   5  -5   8   -1.50    1.50
  -6   5  -8   13.00    4.30
   6  -5   8   18.30    4.60
  -7   5  -8   22.10    5.50
   7  -5   8   16.70    4.40
   7   4  -8    0.10    2.90
  -7  -4   8    0.90    2.50
  -7  -4   8    0.40    3.00
   6   4  -8   34.60    5.90
  -6  -4   8   50.09    7.40
  -6  -4   8   45.70    6.50
   5   4  -8    6.50    3.40
   5   4  -8   13.60    3.70
  -5  -4   8    9.00    3.40
  -5  -4   8    6.80    3.40
   4   4  -8    5.00    2.90
   4   4  -8    0.20    1.70
   4   4  -8    1.70    2.30
  -4  -4   8   -1.50    1.90
  -4  -4   8   -2.00    1.90
   3   4  -8   69.79    7.20
   3   4  -8   74.69    7.40
  -3  -4   8   68.09    7.00
  -3  -4   8   61.29    6.70
  -3  -4   8   67.99    6.90
   2   4  -8   60.29    6.30
   2   4  -8   51.09    4.60
   2   4  -8   78.29   11.00
  -2  -4   8   67.29    7.40
  -2  -4   8   52.99    6.60
  -2  -4   8   60.59    6.30
   1   4  -8  242.58    9.50
   1   4  -8  236.58    9.50
   1   4  -8  254.77   10.60
  -1  -4   8  237.08    9.20
  -1  -4   8  245.88   10.70
  -1  -4   8  240.38    9.70
   0   4  -8  273.57    9.70
   0   4  -8  293.77   11.50
   0  -4   8  287.67   11.80
   0  -4   8  286.67   10.50
   0  -4   8  307.47   11.50
   0  -4   8  282.07    9.80
  -1   4  -8    0.70    1.40
   1  -4   8   -0.10    1.60
   1  -4   8    0.60    1.60
   1  -4   8    1.60    2.30
   1  -4   8   -0.30    1.20
  -2   4  -8  288.27   11.40
  -2   4  -8  280.97    8.60
   2  -4   8  276.27   11.20
   2  -4   8  283.97   11.80
   2  -4   8  270.67   10.40
  -3   4  -8  120.09    7.30
  -3   4  -8  127.39    4.80
   3  -4   8  129.29    7.80
   3  -4   8  125.69    4.80
   3  -4   8  106.49    7.40
  -4   4  -8   90.19    7.00
  -4   4  -8   91.99    7.70
   4  -4   8   77.79    6.70
   4  -4   8   75.39    6.60
  -5   4  -8    6.00    3.00
   5  -4   8   -0.70    2.50
   5  -4   8    6.80    2.80
  -6   4  -8   62.99    7.70
   6  -4   8   52.89    6.80
  -7   4  -8   28.80    5.90
   7  -4   8   20.60    4.60
   7   3  -8   19.30    4.80
  -7  -3   8   22.60    5.10
  -7  -3   8   25.20    5.90
   6   3  -8    0.90    2.70
  -6  -3   8    4.70    3.00
  -6  -3   8    3.90    3.00
   5   3  -8    9.30    3.10
   5   3  -8   11.80    3.70
  -5  -3   8    6.90    3.20
  -5  -3   8   10.80    3.30
   4   3  -8   82.69    6.50
   4   3  -8   85.49    7.00
   4   3  -8   81.69    6.10
  -4  -3   8   89.79    6.80
  -4  -3   8   79.09    6.60
   3   3  -8  193.78    8.70
   3   3  -8  199.98    9.40
  -3  -3   8  197.98    9.10
  -3  -3   8  195.58    9.20
  -3  -3   8  203.68    9.90
   2   3  -8   79.39    5.30
   2   3  -8   94.39    6.40
   2   3  -8   81.09    5.80
  -2  -3   8   88.19    6.50
  -2  -3   8   93.19    6.00
  -2  -3   8   84.39    5.70
   1   3  -8  391.76   13.50
   1   3  -8  382.86   12.30
   1   3  -8  392.06   12.20
  -1  -3   8  390.66   12.40
  -1  -3   8  387.86   13.80
  -1  -3   8  401.46   12.50
   0   3  -8    2.10    1.70
   0   3  -8    0.60    1.50
   0  -3   8    3.50    2.00
   0  -3   8    2.10    1.90
   0  -3   8    0.60    1.40
   0  -3   8    1.40    1.60
  -1   3  -8  152.68    7.90
  -1   3  -8  168.58    6.70
   1  -3   8  161.08    6.60
   1  -3   8  167.28    8.50
   1  -3   8  170.68    8.00
   1  -3   8  171.08    7.30
  -2   3  -8  191.78    6.90
  -2   3  -8  198.88    9.00
   2  -3   8  204.78    9.60
   2  -3   8  214.98    8.40
   2  -3   8  199.18    8.90
  -3   3  -8  113.69    4.60
  -3   3  -8  119.09    8.20
   3  -3   8  113.89    7.30
   3  -3   8  114.79    7.00
   3  -3   8  114.49    4.80
  -4   3  -8  142.09    8.20
  -4   3  -8  139.49    7.80
   4  -3   8  147.39    8.50
   4  -3   8  131.59    7.90
  -5   3  -8   14.60    4.10
  -5   3  -8   15.90    3.90
   5  -3   8   13.10    3.50
   5  -3   8   15.60    3.90
  -6   3  -8    0.10    3.60
   6  -3   8    5.20    3.10
  -7   3  -8   30.90    6.10
   7  -3   8   32.90    5.40
   7   2  -8  106.79    8.80
  -7  -2   8  110.09    8.70
  -7  -2   8  103.29    9.20
   6   2  -8   42.00    6.00
  -6  -2   8   44.70    6.70
  -6  -2   8   52.59    7.40
   5   2  -8   12.40    3.40
   5   2  -8    9.80    3.30
   5   2  -8    9.40    3.20
  -5  -2   8   14.30    3.60
  -5  -2   8   15.90    4.10
   4   2  -8   91.49    6.80
   4   2  -8   95.89    6.80
   4   2  -8   81.19    6.80
  -4  -2   8   84.49    6.60
  -4  -2   8   85.29    9.40
  -4  -2   8   81.09    6.40
   3   2  -8  249.08   10.50
   3   2  -8  251.17   11.00
   3   2  -8  257.37    9.90
  -3  -2   8  248.18   11.10
  -3  -2   8  249.88   10.30
  -3  -2   8  250.17   10.20
   2   2  -8   41.60    5.40
   2   2  -8   46.30    4.70
   2   2  -8   44.50    5.50
  -2  -2   8   42.50    5.40
  -2  -2   8   32.90    4.30
  -2  -2   8   43.20    5.20
   1   2  -8  121.29    5.80
   1   2  -8  120.29    6.90
   1   2  -8  118.59    6.30
  -1  -2   8  100.19    6.60
  -1  -2   8  117.69    5.90
  -1  -2   8  120.19    6.30
   0   2  -8   51.39    4.60
   0   2  -8   51.69    4.00
   0  -2   8   51.99    4.50
   0  -2   8   54.99    4.90
   0  -2   8   44.00    3.90
   0  -2   8   46.30    3.80
  -1   2  -8   82.49    5.70
  -1   2  -8   93.99    4.90
   1  -2   8   83.79    5.90
   1  -2   8   78.79    5.10
   1  -2   8   84.79    5.30
   1  -2   8   90.39    4.80
  -2   2  -8  151.98    7.50
  -2   2  -8  145.59    5.90
   2  -2   8  151.28    6.50
   2  -2   8  145.99    5.90
   2  -2   8  149.88    7.10
   2  -2   8  140.79    7.70
  -3   2  -8  361.26   12.60
  -3   2  -8  366.76    9.80
  -3   2  -8  368.46   12.30
   3  -2   8  350.56    9.80
   3  -2   8  376.76   13.30
   3  -2   8  349.17   12.00
  -4   2  -8   -0.30    1.90
  -4   2  -8    3.70    1.60
  -4   2  -8    0.80    1.10
   4  -2   8    3.20    2.10
   4  -2   8    2.40    2.10
  -5   2  -8   83.69    6.60
  -5   2  -8   75.69    5.90
   5  -2   8   76.79    6.40
   5  -2   8   74.19    6.20
  -6   2  -8   43.40    6.30
  -6   2  -8   35.90    5.80
   6  -2   8   26.10    4.60
   6  -2   8   29.00    5.30
  -7   2  -8   25.10    5.20
   7  -2   8   33.60    5.20
  -8   2  -8    0.90    3.00
   8  -2   8    0.80    2.40
   7   1  -8   19.50    4.60
  -7  -1   8   15.30    4.80
  -7  -1   8   18.30    4.80
   6   1  -8   34.40    5.40
  -6  -1   8   46.20    6.80
  -6  -1   8   43.70    6.60
   5   1  -8    9.70    3.20
   5   1  -8   11.00    3.30
   5   1  -8   10.00    3.10
  -5  -1   8   16.00    4.20
  -5  -1   8   14.20    3.70
   4   1  -8  101.79    6.90
   4   1  -8   96.69    6.20
   4   1  -8  101.49    7.00
  -4  -1   8   99.69    7.10
  -4  -1   8  106.09    6.90
  -4  -1   8   82.69    6.40
   3   1  -8  202.38    8.40
   3   1  -8  195.18    9.40
   3   1  -8  192.48    9.10
  -3  -1   8  193.88    9.60
  -3  -1   8  187.18    8.50
  -3  -1   8  188.28    8.80
   2   1  -8  252.67    9.90
   2   1  -8  254.07   10.50
   2   1  -8  241.58    8.70
  -2  -1   8  260.37    9.40
  -2  -1   8  255.87   10.80
  -2  -1   8  250.07    9.80
   1   1  -8  115.29    6.60
   1   1  -8  109.69    6.00
   1   1  -8  105.99    5.20
  -1  -1   8  105.89    5.80
  -1  -1   8  104.59    5.30
  -1  -1   8  101.49    6.50
   0   1  -8  493.15   15.10
   0   1  -8  493.85   13.80
   0  -1   8  508.65   12.80
   0  -1   8  475.65   13.50
   0  -1   8  487.95   15.20
  -1   1  -8    1.30    1.50
  -1   1  -8   -1.20    1.00
   1  -1   8    1.70    1.50
   1  -1   8   -0.40    1.10
   1  -1   8    1.50    1.70
   1  -1   8    0.00    1.20
  -2   1  -8   79.09    4.40
  -2   1  -8   85.79    5.50
   2  -1   8   74.19    5.40
   2  -1   8   73.89    5.40
   2  -1   8   85.89    4.50
   2  -1   8   78.09    4.30
  -3   1  -8  459.35   13.60
  -3   1  -8  439.56   13.80
  -3   1  -8  445.06   11.60
   3  -1   8  451.05   13.00
   3  -1   8  444.56   13.20
   3  -1   8  448.96   14.50
  -4   1  -8   62.69    5.00
  -4   1  -8   58.99    5.00
  -4   1  -8   56.19    3.50
  -4   1  -8   57.29    3.90
   4  -1   8   65.29    5.40
   4  -1   8   70.19    5.30
  -5   1  -8   11.30    2.20
  -5   1  -8   14.50    2.10
  -5   1  -8   15.20    3.30
  -5   1  -8   15.40    3.70
   5  -1   8    8.90    2.90
   5  -1   8    9.50    2.80
  -6   1  -8   62.79    5.40
  -6   1  -8   71.79    3.70
  -6   1  -8   67.39    3.80
  -6   1  -8   57.69    6.60
   6  -1   8   82.99    6.50
   6  -1   8   64.79    6.80
   7  -1   8   12.70    3.50
  -8   1  -8   19.20    4.70
   8  -1   8   32.20    5.50
   7   0  -8    4.70    3.30
  -7   0   8   21.20    5.20
  -7   0   8    5.50    3.60
   6   0  -8    3.80    3.00
  -6   0   8    7.20    3.30
  -6   0   8    5.50    3.00
   5   0  -8    3.80    4.00
   5   0  -8    6.40    2.60
   5   0  -8    7.10    3.30
  -5   0   8    6.30    2.90
  -5   0   8    6.70    3.20
   4   0  -8  116.09    7.60
   4   0  -8  140.49    8.00
   4   0  -8  144.39    7.50
  -4   0   8  146.89    8.60
  -4   0   8  149.69    8.00
  -4   0   8  128.19    7.60
   3   0  -8    8.00    2.30
   3   0  -8   10.10    3.00
   3   0  -8    4.30    2.40
  -3   0   8   13.50    3.20
  -3   0   8   11.40    3.30
  -3   0   8    8.80    4.20
   2   0  -8    3.00    1.90
   2   0  -8    3.80    2.00
   2   0  -8    1.90    1.50
  -2   0   8    1.90    1.60
  -2   0   8    4.00    2.10
  -2   0   8    3.50    2.00
   1   0  -8  252.77   10.10
   1   0  -8  264.47    8.00
   1   0  -8  261.27    9.70
  -1   0   8  276.07   10.70
  -1   0   8  247.78    8.10
  -1   0   8  247.48    9.30
   0   0  -8   60.49    4.40
   0   0  -8   61.39    4.70
   0   0   8   60.29    3.50
   0   0   8   66.99    5.20
   0   0   8   54.09    4.10
  -1   0  -8   10.30    2.40
  -1   0  -8   13.90    2.50
   1   0   8   15.80    2.30
   1   0   8   16.50    2.10
   1   0   8   17.60    2.70
   1   0   8   18.90    3.50
  -2   0  -8  388.96   12.50
  -2   0  -8  386.26   12.50
   2   0   8  395.76   13.00
   2   0   8  393.06   10.10
   2   0   8  392.96   10.70
   2   0   8  382.16   11.00
  -3   0  -8   45.70    5.10
  -3   0  -8   52.89    3.60
  -3   0  -8   47.20    3.80
   3   0   8   47.60    3.80
   3   0   8   52.29    4.50
  -4   0  -8    5.60    2.20
  -4   0  -8    4.40    1.60
  -4   0  -8    1.50    1.50
  -4   0  -8    3.10    1.70
   4   0   8    2.10    1.90
   4   0   8    3.90    2.00
  -5   0  -8   12.10    3.30
  -5   0  -8   13.20    2.80
  -5   0  -8   13.30    2.20
  -5   0  -8   13.90    3.00
   5   0   8   14.40    3.30
   5   0   8   19.50    3.70
  -6   0  -8   70.79    6.30
  -6   0  -8   72.19    4.20
  -6   0  -8   67.79    4.40
  -6   0  -8   61.89    5.30
   6   0   8   66.19    6.00
   6   0   8   70.69    5.80
  -7   0  -8    7.50    3.30
  -7   0  -8    8.00    2.10
  -7   0  -8   12.00    2.60
  -7   0  -8    7.50    3.00
   7   0   8   10.40    3.30
   7   0   8    9.00    3.60
  -8   0  -8   48.70    4.40
  -8   0  -8   47.40    7.20
   8   0   8   61.59    7.00
   7  -1  -8    0.60    2.50
  -7   1   8    0.50    2.90
  -7   1   8    0.20    2.60
   6  -1  -8   10.40    3.70
  -6   1   8    3.50    3.00
  -6   1   8    5.50    3.40
   5  -1  -8  138.89    8.00
   5  -1  -8  125.99    9.00
  -5   1   8  132.89    8.90
  -5   1   8  117.79    8.00
   4  -1  -8    6.90    2.30
   4  -1  -8    8.40    2.90
   4  -1  -8    2.80    2.20
  -4   1   8    3.10    2.20
  -4   1   8    3.00    2.20
  -4   1   8    4.60    2.40
   3  -1  -8   15.20    3.10
   3  -1  -8   13.00    2.80
   3  -1  -8   15.30    3.70
  -3   1   8   10.30    3.00
  -3   1   8   15.40    3.10
   2  -1  -8  148.49    7.40
   2  -1  -8  130.09    7.30
  -2   1   8  143.99    7.90
  -2   1   8  133.69    6.90
  -2   1   8  143.49    6.30
   1  -1  -8    2.10    1.10
   1  -1  -8    3.10    1.70
   1  -1  -8    2.00    1.60
  -1   1   8    2.50    1.90
  -1   1   8    3.50    1.80
  -1   1   8    2.90    1.40
   0  -1  -8  216.18    8.30
   0  -1  -8  206.68    8.80
   0   1   8  207.48    9.00
   0   1   8  197.88    8.00
   0   1   8  224.18    6.30
  -1  -1  -8   93.79    5.60
  -1  -1  -8   90.59    5.10
   1   1   8   91.79    3.50
   1   1   8   97.59    5.90
   1   1   8   84.99    3.70
   1   1   8   93.69    5.00
  -2  -1  -8   14.80    2.50
  -2  -1  -8    9.30    2.40
   2   1   8   12.60    2.00
   2   1   8    9.30    2.70
   2   1   8   11.40    1.70
   2   1   8    9.00    2.10
  -3  -1  -8    0.70    1.20
  -3  -1  -8    2.20    1.50
  -3  -1  -8    1.70    1.50
   3   1   8    4.20    1.60
   3   1   8   -1.00    1.30
  -4  -1  -8  145.29    6.30
  -4  -1  -8  137.79    6.70
  -4  -1  -8  137.29    6.40
  -4  -1  -8  138.59    6.50
   4   1   8  129.39    6.20
   4   1   8  145.89    7.20
  -5  -1  -8   45.00    5.10
  -5  -1  -8   39.20    4.20
  -5  -1  -8   37.50    3.80
  -5  -1  -8   42.10    4.80
   5   1   8   37.60    4.50
   5   1   8   41.10    4.90
  -6  -1  -8   -2.10    2.00
  -6  -1  -8    5.00    1.90
  -6  -1  -8    4.20    1.90
  -6  -1  -8    1.70    1.80
   6   1   8    3.70    2.20
   6   1   8   -0.70    1.80
  -7  -1  -8   41.30    4.20
  -7  -1  -8   49.40    4.30
  -7  -1  -8   42.60    5.00
  -7  -1  -8   48.40    6.30
   7   1   8   53.99    6.20
   7   1   8   38.60    5.70
  -8  -1  -8   24.20    3.50
  -8  -1  -8   25.20    3.60
  -8  -1  -8   15.70    4.30
   8   1   8   25.50    4.40
   8   1   8   21.80    4.50
   7  -2  -8    2.00    2.90
  -7   2   8   -1.40    2.80
  -7   2   8   -0.40    2.80
   6  -2  -8   47.40    6.20
  -6   2   8   70.29   10.30
  -6   2   8   44.70    6.60
   5  -2  -8   13.20    3.40
  -5   2   8   12.90    4.50
  -5   2   8    9.60    3.60
   4  -2  -8   66.69    5.20
   4  -2  -8   68.89    6.20
   4  -2  -8   90.59    6.40
  -4   2   8   69.79    6.30
  -4   2   8   64.89    5.40
  -4   2   8   78.29    5.90
   3  -2  -8   64.79    4.60
   3  -2  -8   72.89    5.50
  -3   2   8   73.09    6.00
  -3   2   8   70.39    5.00
   2  -2  -8   69.39    4.00
   2  -2  -8   64.59    5.00
   2  -2  -8   81.59    5.80
  -2   2   8   77.59    4.50
  -2   2   8   60.49    4.70
  -2   2   8   67.59    5.60
   1  -2  -8   23.80    3.90
   1  -2  -8   21.90    2.30
   1  -2  -8   30.40    4.20
  -1   2   8   26.60    2.70
  -1   2   8   24.00    3.90
  -1   2   8   25.80    3.50
   0  -2  -8  318.27   11.30
   0  -2  -8  325.67   10.80
   0   2   8  327.37   11.60
   0   2   8  324.37   10.60
  -1  -2  -8  401.46   12.00
  -1  -2  -8  412.66   12.80
   1   2   8  411.96   12.10
   1   2   8  411.76   13.00
  -2  -2  -8  149.59    6.50
  -2  -2  -8  151.68    7.00
   2   2   8  149.49    6.50
   2   2   8  148.09    7.10
  -3  -2  -8   68.89    4.40
  -3  -2  -8   71.99    4.70
  -3  -2  -8   55.89    3.40
  -3  -2  -8   60.39    4.60
   3   2   8   64.09    4.70
   3   2   8   65.39    3.50
  -4  -2  -8   41.00    4.60
  -4  -2  -8   41.00    4.40
  -4  -2  -8   37.50    4.00
  -4  -2  -8   42.30    4.20
   4   2   8   38.20    4.60
   4   2   8   34.90    3.60
  -5  -2  -8  136.49    6.80
  -5  -2  -8  144.49    6.70
  -5  -2  -8  165.08    6.90
  -5  -2  -8  159.68    7.60
   5   2   8  157.28    7.40
   5   2   8  151.08    7.20
  -6  -2  -8   76.29    6.00
  -6  -2  -8   69.09    4.80
  -6  -2  -8   72.79    5.10
  -6  -2  -8   76.19    5.00
   6   2   8   70.79    5.20
   6   2   8   67.99    5.60
  -7  -2  -8   84.39    5.70
  -7  -2  -8   75.49    5.30
  -7  -2  -8   84.49    5.40
  -7  -2  -8   87.39    7.10
   7   2   8   82.49    5.90
   7   2   8  101.29    7.20
  -8  -2  -8    5.80    2.50
  -8  -2  -8    8.10    3.10
  -8  -2  -8    8.90    3.70
   8   2   8   15.30    3.40
   8   2   8    8.90    3.20
   7  -3  -8    6.20    3.10
  -7   3   8    5.90    3.50
  -7   3   8    7.60    4.00
   6  -3  -8   83.09    6.90
  -6   3   8   78.89    9.10
  -6   3   8   63.49    8.20
   5  -3  -8    3.90    4.30
   5  -3  -8    1.50    2.10
  -5   3   8    2.40    2.70
  -5   3   8   -0.20    2.00
   4  -3  -8   14.60    3.50
   4  -3  -8   14.80    3.20
   4  -3  -8   12.00    3.60
  -4   3   8   14.80    3.50
  -4   3   8   12.90    3.50
  -4   3   8   13.50    3.70
   3  -3  -8  107.89    5.70
   3  -3  -8   98.29    6.90
   3  -3  -8  102.39    6.50
  -3   3   8  109.29    6.10
  -3   3   8  117.59   12.30
  -3   3   8   94.39    7.00
   2  -3  -8  455.45   11.80
   2  -3  -8  441.16   14.90
   2  -3  -8  434.46   13.90
  -2   3   8  446.16   12.10
  -2   3   8  466.95   15.30
  -2   3   8  423.46   13.60
   1  -3  -8   68.59    5.10
   1  -3  -8   63.49    4.70
   1  -3  -8   60.99    3.00
  -1   3   8   59.39    5.10
  -1   3   8   59.09    4.60
  -1   3   8   63.99    3.30
   0  -3  -8  125.19    6.40
   0  -3  -8  123.39    6.60
   0   3   8  119.19    6.10
   0   3   8  126.09    6.80
  -1  -3  -8  434.76   12.70
  -1  -3  -8  438.56   13.20
   1   3   8  423.06   13.30
   1   3   8  412.56   12.40
  -2  -3  -8    2.40    1.80
  -2  -3  -8    1.80    1.40
   2   3   8    3.10    1.80
   2   3   8    1.10    1.40
  -3  -3  -8   79.89    5.00
  -3  -3  -8   87.99    5.10
  -3  -3  -8  100.59    5.90
   3   3   8   92.69    5.40
  -4  -3  -8   39.90    3.30
  -4  -3  -8   46.50    4.60
  -4  -3  -8   48.30    3.80
  -4  -3  -8   49.50    5.20
   4   3   8   39.10    4.30
   4   3   8   41.40    3.20
  -5  -3  -8  279.37   10.20
  -5  -3  -8  295.27   10.20
  -5  -3  -8  276.27   10.40
  -5  -3  -8  283.37    9.50
   5   3   8  298.87   10.10
   5   3   8  275.97    9.60
  -6  -3  -8    0.80    1.50
  -6  -3  -8    0.40    1.80
  -6  -3  -8    1.10    1.50
  -6  -3  -8   -0.30    2.00
   6   3   8   -0.40    1.70
   6   3   8   -0.40    1.40
  -7  -3  -8    0.10    1.50
  -7  -3  -8   -1.20    2.10
  -7  -3  -8    1.10    1.90
  -7  -3  -8    0.30    1.90
   7   3   8    4.10    2.00
  -8  -3  -8   12.70    5.90
  -8  -3  -8   13.10    3.40
   8   3   8   20.50    4.10
   8   3   8   13.30    3.20
   7  -4  -8   12.10    3.90
  -7   4   8   22.70    5.70
  -7   4   8    7.80    3.60
   6  -4  -8   22.00    4.70
  -6   4   8   22.90    5.00
  -6   4   8   25.50    5.60
   5  -4  -8   25.50    5.80
   5  -4  -8   26.60    4.60
  -5   4   8   29.40    5.50
  -5   4   8   35.30    5.40
   4  -4  -8    0.80    1.90
   4  -4  -8    0.60    1.80
  -4   4   8    4.30    2.50
  -4   4   8    2.10    2.70
  -4   4   8    3.40    2.30
   3  -4  -8  183.68    9.60
   3  -4  -8  211.38    9.30
   3  -4  -8  190.78    7.90
  -3   4   8  190.48    8.90
  -3   4   8  193.58   10.00
  -3   4   8  190.08    8.10
   2  -4  -8    3.50    1.50
   2  -4  -8    4.30    2.00
   2  -4  -8    3.30    2.10
  -2   4   8    3.20    2.00
  -2   4   8    4.80    1.80
  -2   4   8    7.30    3.00
   1  -4  -8   -0.60    1.40
   1  -4  -8    2.00    1.80
   1  -4  -8    2.30    1.00
  -1   4   8    2.00    1.70
  -1   4   8    3.10    1.80
  -1   4   8    3.30    1.20
   0  -4  -8  261.67   10.00
   0  -4  -8  250.77    9.60
   0   4   8  247.78    9.40
   0   4   8  273.97   10.40
  -1  -4  -8  271.77   10.00
  -1  -4  -8  289.97   10.10
   1   4   8  275.47    9.80
   1   4   8  289.47   10.40
  -2  -4  -8    3.00    1.60
  -2  -4  -8   -0.70    1.00
   2   4   8    1.30    1.70
  -3  -4  -8   57.59    6.20
  -3  -4  -8   54.39    4.30
  -3  -4  -8   48.70    3.80
   3   4   8   53.99    4.20
  -4  -4  -8   95.69    6.10
  -4  -4  -8  109.49    4.90
  -4  -4  -8  105.39    5.30
  -4  -4  -8  103.09    6.00
   4   4   8  107.99    4.60
  -5  -4  -8    2.00    2.00
  -5  -4  -8    0.60    1.80
  -5  -4  -8   -1.20    1.60
  -5  -4  -8    1.50    1.20
   5   4   8    0.30    1.50
  -6  -4  -8   75.99    4.40
  -6  -4  -8   78.29    5.70
  -6  -4  -8   85.29    5.80
  -6  -4  -8   72.79    5.70
   6   4   8   68.49    5.20
   6   4   8   75.89    5.10
  -7  -4  -8   22.00    3.10
  -7  -4  -8   21.30    3.90
  -7  -4  -8   27.00    4.80
  -7  -4  -8   25.90    5.40
   7   4   8   23.00    3.90
   7   4   8   27.20    3.60
  -8  -4  -8    3.80    2.70
  -8  -4  -8   -3.10    2.00
  -8  -4  -8    0.30    2.60
   8   4   8   -1.20    1.80
   8   4   8    0.90    1.80
   6  -5  -8    0.90    2.30
  -6   5   8    3.60    3.50
  -6   5   8    5.50    3.10
   5  -5  -8   14.80    3.50
   5  -5  -8   18.40    3.90
  -5   5   8   18.30    4.40
  -5   5   8    8.10    3.60
   4  -5  -8   16.60    3.90
   4  -5  -8   15.60    3.30
  -4   5   8   14.00    4.20
  -4   5   8   14.30    3.40
  -4   5   8   12.50    3.30
   3  -5  -8  209.78    8.50
   3  -5  -8  221.98   11.00
   3  -5  -8  216.38    9.70
  -3   5   8  211.78    9.40
  -3   5   8  222.58    9.00
  -3   5   8  211.28   10.80
   2  -5  -8    9.30    4.60
   2  -5  -8    8.00    1.90
   2  -5  -8    4.20    1.90
  -2   5   8    8.30    2.20
  -2   5   8    5.20    2.50
  -2   5   8    5.80    2.30
   1  -5  -8   22.90    4.00
   1  -5  -8   20.60    3.70
   1  -5  -8   18.10    2.10
  -1   5   8   18.80    2.30
  -1   5   8   15.70    3.30
  -1   5   8   13.20    3.10
   0  -5  -8  266.77   10.00
   0  -5  -8  265.57   10.40
   0   5   8  254.47    9.70
   0   5   8  273.57   10.60
  -1  -5  -8   73.99    5.10
  -1  -5  -8   77.49    5.10
   1   5   8   85.09    5.50
   1   5   8   78.29    5.10
  -2  -5  -8    4.20    2.10
  -2  -5  -8    1.70    1.80
  -2  -5  -8    2.00    1.60
   2   5   8    3.20    1.60
  -3  -5  -8  149.29    6.50
  -3  -5  -8  147.79    7.80
  -3  -5  -8  158.68    7.50
  -4  -5  -8  164.98    6.10
  -4  -5  -8  172.98    6.80
  -4  -5  -8  162.38    8.30
  -4  -5  -8  177.08    8.00
   4   5   8  168.48    6.90
   4   5   8  175.18    5.80
  -5  -5  -8   -0.30    1.50
  -5  -5  -8    1.30    1.70
  -5  -5  -8    2.70    2.10
   5   5   8    2.40    1.60
   5   5   8    2.40    1.50
  -6  -5  -8   83.59    6.50
  -6  -5  -8   79.49    5.60
  -6  -5  -8   64.89    5.00
  -6  -5  -8   73.99    5.80
   6   5   8   73.69    4.40
   6   5   8   72.49    5.10
  -7  -5  -8   35.30    5.20
  -7  -5  -8   38.40    5.20
  -7  -5  -8   36.70    5.20
   7   5   8   38.10    5.10
   7   5   8   36.50    3.80
  -8  -5  -8   14.20    3.90
  -8  -5  -8   17.40    4.30
   8   5   8   19.20    2.80
   6  -6  -8   -1.30    2.20
  -6   6   8   -2.70    2.50
  -6   6   8    1.50    3.10
   5  -6  -8    0.90    2.20
   5  -6  -8    5.40    2.90
  -5   6   8   -1.70    2.20
  -5   6   8    4.10    3.30
   4  -6  -8  169.98    9.00
   4  -6  -8  156.38    8.30
  -4   6   8  156.58    8.60
  -4   6   8  148.09    9.90
  -4   6   8  156.38    9.70
   3  -6  -8   17.40    3.60
   3  -6  -8    6.60    2.40
   3  -6  -8   18.30    4.20
  -3   6   8   10.00    2.90
  -3   6   8   14.70    4.00
  -3   6   8   13.60    3.30
   2  -6  -8   45.30    4.10
   2  -6  -8   51.09    6.50
   2  -6  -8   48.80    5.30
  -2   6   8   45.80    6.00
  -2   6   8   41.90    5.80
  -2   6   8   43.40    3.80
   1  -6  -8  289.47   10.90
   1  -6  -8  302.97   11.90
   1  -6  -8  288.87    8.10
  -1   6   8  295.67    8.30
  -1   6   8  278.47   10.60
  -1   6   8  288.07   11.80
   0  -6  -8  329.27   11.80
   0  -6  -8  320.97   11.50
   0   6   8  343.47   12.20
   0   6   8  313.57   11.30
  -1  -6  -8   50.59    5.40
  -1  -6  -8   49.40    4.30
   1   6   8   50.79    4.50
  -2  -6  -8   40.10    4.30
  -2  -6  -8   42.00    5.80
  -2  -6  -8   41.40    4.80
   2   6   8   31.60    3.90
  -3  -6  -8   87.59    5.90
  -3  -6  -8   95.59    5.20
  -3  -6  -8  100.29    6.60
   3   6   8  101.69    5.50
  -4  -6  -8   58.09    6.40
  -4  -6  -8   52.69    3.50
  -4  -6  -8   56.39    4.90
  -4  -6  -8   55.49    3.80
   4   6   8   58.89    3.20
   4   6   8   51.29    3.90
  -5  -6  -8   56.69    6.20
  -5  -6  -8   68.99    5.60
  -5  -6  -8   56.09    4.30
  -5  -6  -8   56.89    3.40
   5   6   8   61.19    3.90
   5   6   8   57.89    4.00
  -6  -6  -8   33.50    4.90
  -6  -6  -8   26.00    4.30
  -6  -6  -8   29.30    2.50
  -6  -6  -8   33.70    4.60
   6   6   8   25.20    3.60
   6   6   8   33.90    3.00
  -7  -6  -8   91.19    6.90
  -7  -6  -8   90.59    6.80
   7   6   8   96.89    4.30
   7   6   8   81.79    6.10
  -8  -6  -8   -0.30    2.40
   8   6   8    0.20    2.80
   6  -7  -8   11.30    3.80
  -6   7   8    8.80    3.80
  -6   7   8    9.80    4.10
   5  -7  -8   13.20    4.00
   5  -7  -8   16.30    4.00
  -5   7   8   25.70    4.90
  -5   7   8   17.10    5.00
   4  -7  -8   81.49    6.40
   4  -7  -8   85.99    6.70
  -4   7   8   79.99    6.60
  -4   7   8   90.39    8.10
   3  -7  -8  105.99    6.90
   3  -7  -8   91.89    6.00
  -3   7   8   90.79    6.60
  -3   7   8   93.89    6.30
   2  -7  -8    3.00    2.10
   2  -7  -8    5.30    2.00
   2  -7  -8    4.70    2.80
  -2   7   8    1.30    2.00
  -2   7   8    7.90    2.90
  -2   7   8    9.50    3.20
   1  -7  -8  110.49    5.00
   1  -7  -8  104.89    7.20
   1  -7  -8  109.79    6.70
  -1   7   8  117.79    7.60
  -1   7   8  119.79    8.80
  -1   7   8  112.49    5.00
   0  -7  -8   43.20    5.30
   0  -7  -8   49.40    5.20
   0   7   8   41.40    4.80
   0   7   8   51.59    5.60
  -1  -7  -8    6.30    2.30
  -1  -7  -8    7.00    3.00
  -1  -7  -8   13.30    3.10
   1   7   8    7.00    2.60
  -2  -7  -8   69.19    7.30
  -2  -7  -8   64.99    5.20
  -2  -7  -8   54.49    4.30
   2   7   8   64.69    4.60
  -3  -7  -8  159.78    8.10
  -3  -7  -8  158.78   13.30
  -3  -7  -8  154.48    6.60
   3   7   8  161.18    6.90
  -4  -7  -8   11.60    2.20
  -4  -7  -8    9.60    2.10
  -4  -7  -8    8.40    2.90
  -4  -7  -8   12.30    3.50
   4   7   8   10.20    2.20
   4   7   8    9.40    1.90
  -5  -7  -8   21.60    4.60
  -5  -7  -8   30.30    4.60
  -5  -7  -8   24.80    2.60
  -5  -7  -8   25.30    3.60
   5   7   8   21.90    2.70
   5   7   8   27.70    3.30
  -6  -7  -8  120.49    7.80
  -6  -7  -8  117.99    6.90
   6   7   8  116.19    6.30
  -7  -7  -8   41.10    5.80
  -7  -7  -8   41.20    5.70
   7   7   8   37.60    5.00
  -8  -7  -8    4.80    2.90
   5  -8  -8    1.50    2.70
  -5   8   8    2.20    4.40
  -5   8   8   -0.70    2.40
   4  -8  -8   60.19    7.20
   4  -8  -8   56.29    7.70
  -4   8   8   60.79    7.40
  -4   8   8   61.19    6.90
   3  -8  -8   18.80    3.60
   3  -8  -8   17.70    3.70
  -3   8   8   13.10    3.90
  -3   8   8   17.90    3.70
  -3   8   8   13.80    4.20
   2  -8  -8   -0.10    2.00
   2  -8  -8    1.10    2.10
   2  -8  -8    3.00    1.90
  -2   8   8    1.50    2.50
  -2   8   8    2.30    1.90
  -2   8   8    0.90    2.20
   1  -8  -8   81.19    6.60
   1  -8  -8   90.29    4.90
   1  -8  -8   90.99    6.30
  -1   8   8   91.29    6.30
  -1   8   8   80.79    6.70
  -1   8   8   87.89    4.80
   0  -8  -8   -0.10    1.60
   0  -8  -8    0.30    1.70
   0  -8  -8    0.60    1.20
   0  -8  -8    0.00    1.00
   0   8   8   -0.50    1.80
  -1  -8  -8   53.49    5.60
  -1  -8  -8   53.09    4.70
  -1  -8  -8   59.59    6.80
   1   8   8   54.29    5.00
  -2  -8  -8   -0.60    1.60
  -2  -8  -8    5.40    2.50
  -2  -8  -8    3.10    1.70
   2   8   8    5.80    2.10
  -3  -8  -8   75.09    7.90
  -3  -8  -8   67.99    5.60
  -3  -8  -8   49.70    3.90
   3   8   8   67.09    5.10
  -4  -8  -8    9.90    2.30
  -4  -8  -8   16.10    3.90
  -4  -8  -8    7.20    3.00
  -4  -8  -8   14.60    2.50
   4   8   8   10.50    2.30
   4   8   8   10.60    2.00
  -5  -8  -8    4.50    2.20
  -5  -8  -8    3.10    1.10
  -5  -8  -8    3.50    2.70
   5   8   8    3.30    1.50
   5   8   8    5.00    1.80
  -6  -8  -8  183.68    8.60
  -6  -8  -8  162.48    9.30
   6   8   8  171.18    7.70
  -7  -8  -8    2.70    2.50
   7   8   8    0.70    2.00
  -8  -8  -8    9.10    3.70
   5  -9  -8   23.80    4.80
  -5   9   8   23.60    6.30
  -5   9   8   17.50    4.60
   4  -9  -8    1.10    2.70
   4  -9  -8    4.50    2.70
  -4   9   8    8.80    3.40
  -4   9   8    6.40    3.80
   3  -9  -8    1.90    2.50
  -3   9   8    8.50    3.60
  -3   9   8    3.20    2.70
   2  -9  -8   47.90    5.60
   2  -9  -8   36.80    4.70
  -2   9   8   47.30    6.70
  -2   9   8   38.40    4.60
   1  -9  -8   53.99    6.60
   1  -9  -8   42.30    5.20
   1  -9  -8   54.99    4.30
  -1   9   8   53.39    6.50
   0  -9  -8   10.00    2.30
   0  -9  -8   12.50    2.10
   0  -9  -8   10.20    3.20
   0  -9  -8   13.50    3.30
   0  -9  -8    7.30    3.00
   0   9   8    3.50    2.60
  -1  -9  -8    4.40    2.30
  -1  -9  -8    5.50    2.70
  -1  -9  -8    8.70    1.70
  -1  -9  -8    7.90    1.90
  -1  -9  -8    7.80    2.80
   1   9   8   12.80    3.20
  -2  -9  -8  172.78    7.90
  -2  -9  -8  157.38    9.20
  -2  -9  -8  167.88    8.80
   2   9   8  170.18    7.90
  -3  -9  -8   -0.70    1.60
  -3  -9  -8    1.80    1.50
  -3  -9  -8   -0.50    1.70
  -3  -9  -8   -0.40    1.60
  -3  -9  -8    1.00    2.50
   3   9   8    1.80    2.70
  -4  -9  -8   36.30    3.80
  -4  -9  -8   36.60    3.10
   4   9   8   41.90    3.30
   4   9   8   42.30    3.40
  -5  -9  -8  102.69    7.50
  -5  -9  -8  108.39    6.20
   5   9   8  105.79    5.50
  -6  -9  -8    2.90    2.50
  -6  -9  -8    3.00    3.00
   6   9   8    6.40    2.50
  -7  -9  -8   -0.80    2.10
   7   9   8   -1.40    1.90
   4 -10  -8   -0.30    2.00
  -4  10   8    3.90    3.10
  -4  10   8    2.90    3.00
   3 -10  -8   11.30    3.40
   3 -10  -8    6.20    3.50
  -3  10   8   10.90    3.40
  -3  10   8    3.60    3.50
   2 -10  -8   94.09   12.00
   2 -10  -8   90.59    6.20
  -2  10   8   82.19    6.20
  -2  10   8   70.09    7.90
   1 -10  -8   -0.20    1.70
   1 -10  -8    0.50    2.30
   1 -10  -8    1.00    1.50
   1 -10  -8    0.50    1.70
  -1  10   8    0.20    2.40
   0 -10  -8    0.40    1.80
   0 -10  -8   -2.20    1.50
   0 -10  -8    2.60    1.60
   0 -10  -8    1.60    2.00
   0  10   8    3.70    2.70
  -1 -10  -8  116.09    7.50
  -1 -10  -8  107.19    5.50
  -1 -10  -8  118.19    7.30
  -1 -10  -8  116.09    5.20
   1  10   8  125.99    7.50
  -2 -10  -8    0.60    1.50
  -2 -10  -8    2.30    1.50
  -2 -10  -8    2.10    3.80
  -2 -10  -8   -0.50    1.50
   2  10   8    1.80    1.80
  -3 -10  -8  129.39    6.10
  -3 -10  -8  141.69    8.40
  -3 -10  -8  127.69    6.30
  -3 -10  -8  135.29    5.90
   3  10   8  134.09    6.50
  -4 -10  -8  133.69    8.50
  -4 -10  -8  135.09    5.60
   4  10   8  117.49    5.50
  -5 -10  -8   45.80    5.00
  -5 -10  -8   37.90    5.50
   5  10   8   55.69    4.40
  -6 -10  -8    2.20    2.50
  -6 -10  -8    0.70    2.30
   6  10   8    1.80    2.10
  -7 -10  -8   67.69    7.20
   7  10   8   61.49    6.50
   3 -11  -8   14.60    3.80
   3 -11  -8   12.10    3.80
  -3  11   8    9.30    4.10
  -3  11   8    7.90    3.30
   2 -11  -8   36.80    5.10
   2 -11  -8   26.90    4.60
  -2  11   8   35.50    6.10
   1 -11  -8   20.20    3.30
   1 -11  -8   28.10    4.20
   1 -11  -8   27.10    4.50
  -1  11   8   25.30    4.80
   0 -11  -8   61.29    7.00
   0 -11  -8   58.59    4.80
   0 -11  -8   60.69    4.30
   0 -11  -8   60.59    6.50
   0  11   8   66.89    7.30
  -1 -11  -8   10.30    3.20
  -1 -11  -8    4.50    2.10
  -1 -11  -8    6.10    3.50
  -1 -11  -8    9.10    3.10
   1  11   8    9.10    3.10
  -2 -11  -8   21.30    4.30
  -2 -11  -8   20.20    3.70
  -2 -11  -8   25.30    3.70
  -2 -11  -8   19.50    3.70
   2  11   8   15.40    3.40
  -3 -11  -8    5.30    2.20
  -3 -11  -8    0.60    2.10
  -3 -11  -8    7.60    3.00
  -3 -11  -8    7.40    2.70
   3  11   8    7.60    2.50
  -4 -11  -8   41.40    3.30
  -4 -11  -8   39.60    4.60
  -4 -11  -8   41.00    4.70
  -4 -11  -8   34.70    5.20
  -5 -11  -8   69.59    8.20
  -5 -11  -8   58.09    5.30
   5  11   8   63.09    4.90
  -6 -11  -8   10.40    3.30
  -6 -11  -8   11.20    4.20
   6  11   8    7.00    2.80
  -7 -11  -8   21.60    4.80
   7  11   8   23.20    4.40
   3 -12  -8    6.80    3.10
  -3  12   8    3.90    3.10
  -3  12   8    3.30    3.50
   2 -12  -8   25.50    4.50
   2 -12  -8   32.40    5.00
  -2  12   8   39.50    6.70
   1 -12  -8   -0.50    2.10
   1 -12  -8    0.40    2.40
   1 -12  -8   -1.30    1.70
  -1  12   8    3.30    3.00
   0 -12  -8   66.99    4.90
   0 -12  -8   59.89    6.00
   0 -12  -8   62.29    6.90
   0  12   8   54.39    6.80
  -1 -12  -8   23.20    4.40
  -1 -12  -8   24.60    4.70
  -1 -12  -8   17.30    3.10
  -1 -12  -8   25.70    4.00
   1  12   8   23.90    4.60
  -2 -12  -8   43.60    6.00
  -2 -12  -8   44.30    5.00
  -2 -12  -8   41.20    4.50
  -2 -12  -8   31.40    4.80
  -3 -12  -8   11.30    3.30
  -3 -12  -8   13.20    3.00
  -3 -12  -8    8.00    2.50
  -3 -12  -8    8.70    3.40
  -4 -12  -8   75.59    5.50
  -4 -12  -8   85.59    5.50
  -4 -12  -8   80.79    6.00
  -4 -12  -8   85.49    7.60
  -4 -12  -8   84.49    4.30
  -5 -12  -8   -1.10    2.20
  -5 -12  -8    1.00    2.90
  -6 -12  -8    4.50    3.00
  -6 -12  -8   -1.10    2.30
   6  12   8    0.50    2.30
   1 -13  -8   24.60    4.80
   1 -13  -8   21.90    3.90
   1 -13  -8   22.40    4.90
   0 -13  -8   -0.90    2.00
   0 -13  -8   -1.50    1.60
   0 -13  -8    2.40    2.60
  -1 -13  -8    9.50    3.40
  -1 -13  -8    7.90    2.70
  -1 -13  -8    5.60    2.90
  -1 -13  -8    4.70    2.70
  -2 -13  -8    0.00    1.60
  -2 -13  -8    0.50    2.20
  -2 -13  -8    0.30    2.20
  -2 -13  -8   -1.00    1.70
  -2 -13  -8   -3.20    2.10
  -3 -13  -8   33.90    4.00
  -3 -13  -8   26.40    4.00
  -3 -13  -8   27.00    4.90
  -3 -13  -8   25.60    4.40
  -3 -13  -8   19.40    3.50
  -4 -13  -8   40.60    6.40
  -4 -13  -8   44.80    5.60
  -4 -13  -8   45.10    5.60
  -4 -13  -8   45.60    4.10
  -5 -13  -8    7.70    5.80
  -5 -13  -8    3.90    2.90
  -5 -13  -8   -0.70    2.60
   0 -14  -8   17.90    4.30
   0 -14  -8   13.00    3.30
   0 -14  -8   10.10    3.50
   0 -14  -8   12.50    3.20
  -1 -14  -8    3.40    2.70
  -1 -14  -8    4.40    3.00
  -1 -14  -8    5.50    3.40
  -1 -14  -8    5.20    2.60
  -2 -14  -8    1.30    2.00
  -2 -14  -8    1.20    2.70
  -2 -14  -8    2.60    2.50
  -2 -14  -8    1.90    2.50
  -2 -14  -8   -3.10    1.60
  -3 -14  -8   55.19    6.30
  -3 -14  -8   42.90    5.10
  -3 -14  -8   50.59    7.20
  -3 -14  -8   45.60    5.40
  -3 -14  -8   53.69    4.50
   1  10  -9    6.80    3.30
  -1 -10   9    5.70    3.50
  -1 -10   9   10.60    4.10
   0  10  -9   15.20    3.70
   0 -10   9   16.00    4.40
   0 -10   9   21.20    4.90
   0 -10   9   14.60    3.60
  -1  10  -9   11.20    3.20
   1 -10   9    7.40    2.80
   1 -10   9    3.10    3.00
   1 -10   9    5.80    3.50
   3   9  -9    5.60    3.40
  -3  -9   9    9.50    3.60
  -3  -9   9    5.40    3.30
   2   9  -9  105.19    7.80
  -2  -9   9  100.09    8.60
  -2  -9   9  106.99    8.50
   1   9  -9    5.90    3.30
  -1  -9   9    7.60    3.50
  -1  -9   9    5.00    3.40
   0   9  -9   -1.00    1.90
   0  -9   9   -1.40    1.90
   0  -9   9    3.00    2.20
   0  -9   9   -0.10    2.70
  -1   9  -9   85.09    5.90
   1  -9   9   86.19    9.00
   1  -9   9   71.09    8.30
   1  -9   9   79.29    5.40
  -2   9  -9    1.90    1.90
   2  -9   9   -0.70    2.10
   2  -9   9    0.30    2.60
   2  -9   9    2.50    1.80
   3  -9   9    2.70    3.00
   3  -9   9   -0.30    2.40
   4   8  -9    5.70    3.10
  -4  -8   9    2.20    2.90
  -4  -8   9    2.70    2.60
   3   8  -9  284.97   13.00
  -3  -8   9  248.88   12.70
  -3  -8   9  272.57   13.50
   2   8  -9    3.60    2.70
  -2  -8   9    4.30    2.90
  -2  -8   9    4.00    3.00
   1   8  -9    4.80    2.70
  -1  -8   9    4.10    2.40
  -1  -8   9    3.80    2.90
  -1  -8   9    8.10    3.20
   0   8  -9  152.68    8.00
   0  -8   9  179.78   10.60
   0  -8   9  170.98    9.90
  -1   8  -9   41.20    4.70
   1  -8   9   48.50    6.80
   1  -8   9   24.50    5.30
   1  -8   9   38.80    4.40
  -2   8  -9   57.49    4.30
   2  -8   9   46.70    6.20
   2  -8   9   53.69    4.00
   2  -8   9   50.59    7.50
   3  -8   9   38.80    7.00
   3  -8   9   35.90    5.60
   4  -8   9   91.09    8.10
   4  -8   9   69.29    8.40
   5   7  -9   20.40    5.00
  -5  -7   9   22.90    5.10
  -5  -7   9   27.60    5.70
   4   7  -9   53.49    7.00
  -4  -7   9   53.69    7.30
  -4  -7   9   45.90    6.50
   3   7  -9  132.19    8.90
  -3  -7   9  153.28    9.70
  -3  -7   9  137.39    9.20
  -2  -7   9   94.29    7.50
  -2  -7   9  110.39    8.10
   1   7  -9   29.40    4.50
  -1  -7   9   20.70    5.00
  -1  -7   9   23.50    4.70
  -1  -7   9   26.80    4.20
   0   7  -9   35.10    4.60
   0  -7   9   28.80    7.80
   0  -7   9   23.60    3.70
   0  -7   9   33.80    5.40
  -1   7  -9   38.20    4.30
   1  -7   9   31.00    3.90
   1  -7   9   29.30    5.30
  -2   7  -9   28.60    3.40
   2  -7   9   26.20    4.80
   2  -7   9   28.60    4.90
   2  -7   9   22.10    2.90
   3  -7   9  116.49    9.00
   3  -7   9  133.59    8.80
   4  -7   9   35.70    6.60
   4  -7   9   40.70    6.20
   5  -7   9    4.90    3.30
   5   6  -9   -1.00    2.50
  -5  -6   9    2.80    2.50
  -5  -6   9    5.40    3.20
   4   6  -9  105.99    8.10
  -4  -6   9   97.09    8.00
  -4  -6   9  100.89    7.90
   3   6  -9   98.99    7.40
  -3  -6   9  105.39    7.80
  -3  -6   9  101.49    7.90
   2   6  -9    4.40    2.70
  -2  -6   9    8.90    3.30
   1   6  -9   -1.50    1.90
  -1  -6   9    1.30    2.10
  -1  -6   9    1.40    2.70
  -1  -6   9   -0.60    1.70
   0   6  -9   45.50    5.10
   0  -6   9   46.80    6.60
   0  -6   9   51.49    6.00
   0  -6   9   42.70    4.80
   0  -6   9   37.80    7.60
  -1   6  -9  264.17    9.60
   1  -6   9  277.27   11.60
   1  -6   9  262.97    9.50
   1  -6   9  279.67   12.80
   1  -6   9  256.87   12.40
  -2   6  -9   12.30    2.60
   2  -6   9    5.10    2.70
   2  -6   9    8.90    2.10
   2  -6   9   10.30    3.50
   2  -6   9    6.30    3.00
  -3   6  -9  149.19    5.60
   3  -6   9  144.29    5.40
   3  -6   9  139.59    9.40
   3  -6   9  135.49    8.80
   4  -6   9    5.50    3.00
   4  -6   9    5.40    2.80
  -5   6  -9   17.30    5.00
   5  -6   9   18.40    4.60
  -6   6  -9   11.70    4.70
   6  -6   9   23.70    5.60
   6   5  -9   45.10    7.30
  -6  -5   9   29.40    6.00
  -6  -5   9   47.60    7.00
   5   5  -9    0.90    2.30
  -5  -5   9    4.10    2.90
  -5  -5   9    0.20    2.60
   4   5  -9  143.99    9.10
  -4  -5   9  138.99    9.30
  -4  -5   9  136.69    9.00
   3   5  -9   32.20    4.80
   3   5  -9   27.00    5.30
  -3  -5   9   43.90    6.20
  -3  -5   9   41.80    5.90
   2   5  -9   65.69    8.10
   2   5  -9   63.79    5.50
   2   5  -9   67.99    5.80
  -2  -5   9   72.39    8.10
  -2  -5   9   60.19    5.30
  -2  -5   9   70.49    6.00
   1   5  -9   27.30    4.50
   1   5  -9   17.10    3.50
  -1  -5   9   20.90    6.00
  -1  -5   9   24.60    4.30
  -1  -5   9   22.50    4.50
   0   5  -9    8.70    2.80
   0   5  -9   10.60    3.30
   0  -5   9   10.00    3.10
   0  -5   9    8.70    2.60
   0  -5   9   12.00    3.60
   0  -5   9    8.00    3.00
  -1   5  -9  141.99    6.70
   1  -5   9  144.19    6.70
   1  -5   9  143.79    7.90
   1  -5   9  140.89   10.00
   1  -5   9  155.98    9.20
  -2   5  -9   27.00    3.40
   2  -5   9   24.30    4.20
   2  -5   9   17.10    4.30
   2  -5   9   20.80    2.90
  -3   5  -9   19.10    2.40
   3  -5   9   15.10    3.60
   3  -5   9   10.70    3.60
   3  -5   9   13.10    3.90
   3  -5   9   15.30    2.30
   4  -5   9   15.00    4.60
  -5   5  -9   34.30    6.00
   5  -5   9   30.20    5.70
  -6   5  -9   67.49    8.30
   6  -5   9   74.09    9.00
   6   4  -9   -2.20    2.10
  -6  -4   9   -2.00    2.40
  -6  -4   9    6.20    3.20
   5   4  -9   10.40    3.80
  -5  -4   9   10.20    3.70
  -5  -4   9    5.90    3.20
   4   4  -9  234.98   11.40
  -4  -4   9  242.08   11.60
  -4  -4   9  240.88   17.50
   3   4  -9   82.79   11.10
   3   4  -9   79.89    8.00
   3   4  -9   73.79    5.80
  -3  -4   9   64.59    7.20
  -3  -4   9   74.39    6.20
   2   4  -9    0.10    1.70
   2   4  -9   -0.60    1.80
   2   4  -9    3.00    2.40
  -2  -4   9   -0.20    1.60
  -2  -4   9    0.20    1.80
  -2  -4   9    0.70    2.10
   1   4  -9   37.30    4.70
   1   4  -9   24.30    4.40
  -1  -4   9   37.60    5.00
  -1  -4   9   33.80    4.60
  -1  -4   9   31.20    5.10
   0   4  -9   13.10    3.10
   0   4  -9   15.20    3.10
   0  -4   9   13.30    3.20
   0  -4   9   13.50    2.90
   0  -4   9   12.70    3.30
   0  -4   9   11.90    3.40
  -1   4  -9  149.09    6.80
  -1   4  -9  143.29    8.30
   1  -4   9  136.59    8.10
   1  -4   9  157.58    6.90
   1  -4   9  159.78    9.00
   1  -4   9  162.48    7.80
  -2   4  -9  434.16   15.40
  -2   4  -9  446.26   12.40
   2  -4   9  469.55   16.50
   2  -4   9  466.95   15.60
   2  -4   9  473.65   14.60
   2  -4   9  456.65   12.50
  -3   4  -9    1.70    1.50
   3  -4   9    0.80    2.30
   3  -4   9    2.10    2.00
   3  -4   9    2.10    1.40
   3  -4   9    0.40    2.30
   4  -4   9    1.20    2.10
   4  -4   9   -0.40    2.00
  -5   4  -9  171.78   10.60
   5  -4   9  171.08   10.20
  -6   4  -9   10.00    3.90
   6  -4   9   12.80    4.20
  -7   4  -9    0.00    2.90
   7  -4   9    7.00    3.40
   6   3  -9    5.40    3.20
  -6  -3   9   10.40    4.00
  -6  -3   9    8.50    3.50
   5   3  -9  131.99    8.90
  -5  -3   9  126.99    8.80
  -5  -3   9  119.09    8.70
   4   3  -9    7.90    3.40
   4   3  -9    8.50    3.10
  -4  -3   9    3.40    2.70
  -4  -3   9    3.00    2.70
   3   3  -9  338.37   14.00
   3   3  -9  363.46   13.90
   3   3  -9  363.76   13.60
  -3  -3   9  370.16   13.50
  -3  -3   9  362.36   14.30
   2   3  -9  115.99    7.10
   2   3  -9  114.59    7.40
   2   3  -9  100.99    6.10
  -2  -3   9  117.99    7.00
  -2  -3   9  110.89    6.80
  -2  -3   9  105.79    7.40
   1   3  -9  142.99    8.20
   1   3  -9  157.08    7.70
   1   3  -9  144.49    7.10
  -1  -3   9  134.69    7.20
  -1  -3   9  149.79    7.50
  -1  -3   9  154.78    8.70
   0   3  -9  305.27   12.10
   0   3  -9  296.67   10.60
   0  -3   9  312.47   12.60
   0  -3   9  314.47   10.80
   0  -3   9  280.37   10.20
   0  -3   9  304.87   11.40
  -1   3  -9  202.48    8.00
  -1   3  -9  206.38    9.70
   1  -3   9  204.98    7.90
   1  -3   9  216.48    8.60
   1  -3   9  191.58    8.90
   1  -3   9  208.68   10.20
  -2   3  -9  579.14   14.70
  -2   3  -9  544.35   17.40
   2  -3   9  574.84   14.70
   2  -3   9  560.24   18.20
   2  -3   9  572.24   17.00
   2  -3   9  597.34   16.20
  -3   3  -9  162.18    6.10
  -3   3  -9  148.69    8.30
   3  -3   9  157.98    8.40
   3  -3   9  155.98    7.70
   3  -3   9  148.69    7.40
   3  -3   9  160.38    9.00
  -4   3  -9   32.30    2.70
  -4   3  -9   32.50    3.30
  -4   3  -9   38.40    5.40
   4  -3   9   27.70    4.80
   4  -3   9   30.20    5.20
  -5   3  -9   74.09    6.70
   5  -3   9   51.39    6.60
   5  -3   9   63.39    7.80
  -6   3  -9   18.90    4.30
   6  -3   9   23.00    4.50
  -7   3  -9    0.70    3.00
   7  -3   9    1.40    2.80
   6   2  -9    9.70    3.90
  -6  -2   9   19.40    5.00
  -6  -2   9   25.30    5.10
   5   2  -9  363.86   14.90
  -5  -2   9  375.56   15.40
  -5  -2   9  402.96   19.30
   4   2  -9   14.90    3.80
   4   2  -9   11.20    3.20
  -4  -2   9   13.40    3.60
  -4  -2   9   12.20    3.70
   3   2  -9   84.59    6.60
   3   2  -9   78.79    5.60
   3   2  -9   79.29    6.20
  -3  -2   9   80.29    6.20
  -3  -2   9   82.69    6.80
  -3  -2   9   87.79    6.20
   2   2  -9    8.90    3.00
   2   2  -9   16.80    3.90
   2   2  -9   14.60    2.90
  -2  -2   9   11.50    3.60
  -2  -2   9   18.00    3.80
  -2  -2   9   13.70    3.00
   1   2  -9  502.25   14.00
   1   2  -9  437.26   21.20
   1   2  -9  521.65   15.20
  -1  -2   9  477.85   14.60
  -1  -2   9  483.75   16.40
  -1  -2   9  478.65   14.10
   0   2  -9    0.70    1.40
   0   2  -9    2.20    2.10
   0  -2   9   -1.00    1.30
   0  -2   9    0.60    1.40
   0  -2   9    1.60    1.90
   0  -2   9    0.80    1.90
  -1   2  -9   43.70    3.80
  -1   2  -9   40.00    5.60
   1  -2   9   57.99    6.50
   1  -2   9   47.40    3.90
   1  -2   9   40.80    3.70
   1  -2   9   51.59    5.20
  -2   2  -9  170.98    6.90
   2  -2   9  172.08    7.90
   2  -2   9  187.28    9.30
   2  -2   9  167.08    7.20
   2  -2   9  165.98    6.80
  -3   2  -9   41.20    3.50
  -3   2  -9   41.00    5.20
   3  -2   9   39.60    5.50
   3  -2   9   43.10    3.50
   3  -2   9   41.10    4.80
  -4   2  -9   33.20    4.80
  -4   2  -9   30.00    3.50
  -4   2  -9   22.50    3.90
  -4   2  -9   28.40    2.90
   4  -2   9   26.30    4.50
   4  -2   9   32.40    4.70
  -5   2  -9  117.29    9.00
  -5   2  -9  112.89    4.60
  -5   2  -9  122.19    7.80
  -5   2  -9  110.79    4.90
   5  -2   9  103.19    7.60
  -6   2  -9    4.10    2.80
   6  -2   9    0.00    2.50
   6  -2   9    0.60    2.10
  -7   2  -9    3.90    3.50
   7  -2   9    4.80    3.10
   6   1  -9   21.80    4.80
  -6  -1   9   26.20    5.60
  -6  -1   9   28.60    5.50
   5   1  -9  121.79    8.30
   5   1  -9  126.59    9.20
  -5  -1   9  133.19    9.10
  -5  -1   9  136.59    8.70
   4   1  -9  145.59    8.60
  -4  -1   9  137.69    8.20
  -4  -1   9  137.49    8.80
   3   1  -9    2.20    1.90
   3   1  -9    1.50    2.00
   3   1  -9    2.00    2.10
  -3  -1   9    3.80    2.30
  -3  -1   9    3.20    2.30
  -3  -1   9    3.90    2.40
   2   1  -9  138.39    8.10
   2   1  -9  124.89    7.30
   2   1  -9  131.49    6.40
  -2  -1   9  147.89    8.50
  -2  -1   9  131.59    7.40
  -2  -1   9  134.09    6.80
   1   1  -9  168.48    7.90
   1   1  -9  159.28    6.60
   1   1  -9  154.78    8.40
  -1  -1   9  164.58    7.70
  -1  -1   9  190.88    9.40
  -1  -1   9  163.68    8.10
   0   1  -9    2.70    1.90
   0   1  -9    6.60    2.20
   0  -1   9    4.40    1.70
   0  -1   9    5.30    2.10
   0  -1   9    3.30    1.70
   0  -1   9    3.80    2.30
  -1   1  -9  172.28    8.40
  -1   1  -9  152.98    7.00
   1  -1   9  176.88    7.30
   1  -1   9  173.58    6.60
   1  -1   9  163.18    8.50
  -2   1  -9  158.58    6.70
  -2   1  -9  151.28    7.80
   2  -1   9  144.59    6.60
   2  -1   9  147.49    8.20
   2  -1   9  150.28    6.20
   2  -1   9  152.88    6.60
  -3   1  -9   66.49    5.30
  -3   1  -9   65.79    4.20
   3  -1   9   66.29    5.60
   3  -1   9   63.69    4.30
   3  -1   9   67.59    5.00
  -4   1  -9    7.40    2.20
  -4   1  -9    6.20    2.50
  -4   1  -9    5.50    2.60
  -4   1  -9    8.00    2.00
   4  -1   9    3.30    2.30
   4  -1   9    5.00    2.50
  -5   1  -9    7.20    1.90
  -5   1  -9    7.00    2.40
  -5   1  -9   10.00    2.90
   5  -1   9   15.10    3.70
   5  -1   9    7.70    2.90
  -6   1  -9   16.50    4.00
  -6   1  -9   16.10    4.20
  -6   1  -9   23.80    2.90
  -6   1  -9   24.10    2.70
   6  -1   9   23.20    4.60
   6  -1   9   29.70    5.30
  -7   1  -9   24.50    5.30
   7  -1   9   22.30    4.50
  -8   1  -9   27.50    6.00
   8  -1   9   26.10    5.00
   6   0  -9  224.08   11.90
  -6   0   9  226.48   12.40
  -6   0   9  232.58   12.30
   5   0  -9   13.70    4.10
   5   0  -9    3.30    2.30
  -5   0   9   12.60    4.00
  -5   0   9    6.90    3.70
   4   0  -9   54.69    5.80
   4   0  -9   47.50    7.60
  -4   0   9   62.79    6.50
  -4   0   9   54.99    7.20
   3   0  -9    5.20    2.60
   3   0  -9    2.60    2.00
   3   0  -9    8.00    2.30
  -3   0   9    4.20    2.30
  -3   0   9    5.40    2.40
  -3   0   9    4.90    2.70
   2   0  -9  167.98    8.30
   2   0  -9  167.18    6.90
   2   0  -9  138.69    9.30
  -2   0   9  178.78    9.70
  -2   0   9  159.98    7.20
  -2   0   9  181.18    9.40
   1   0  -9   19.30    2.90
   1   0  -9   16.10    3.50
   1   0  -9   16.30    3.30
  -1   0   9   15.00    3.30
  -1   0   9   12.70    2.40
  -1   0   9   19.00    3.60
   0   0  -9    2.30    1.90
   0   0  -9   -0.40    1.40
   0   0   9    0.30    1.40
   0   0   9   -1.00    1.30
   0   0   9   -1.00    1.10
   0   0   9   -0.40    1.10
  -1   0  -9  476.85   15.20
  -1   0  -9  508.45   14.00
   1   0   9  469.75   13.60
   1   0   9  506.35   15.70
   1   0   9  478.15   11.90
   1   0   9  476.55   12.40
  -2   0  -9   -0.80    1.30
  -2   0  -9   -1.30    1.20
   2   0   9   -1.00    1.00
   2   0   9    1.10    1.70
   2   0   9   -1.40    1.20
   2   0   9   -2.20    1.00
  -3   0  -9   96.39    5.20
  -3   0  -9   90.89    5.90
   3   0   9   87.59    6.20
   3   0   9  108.29    8.50
   3   0   9   91.59    5.00
  -4   0  -9  673.13   16.40
  -4   0  -9  683.03   17.90
  -4   0  -9  666.13   17.30
  -4   0  -9  684.03   18.90
   4   0   9  668.63   17.80
   4   0   9  682.03   19.50
  -5   0  -9   25.40    4.30
  -5   0  -9   21.60    3.30
  -5   0  -9   19.90    3.00
   5   0   9   22.90    4.00
   5   0   9   28.50    4.70
  -6   0  -9    8.80    3.00
  -6   0  -9    7.20    2.60
  -6   0  -9   12.30    3.10
  -6   0  -9    5.00    2.00
   6   0   9   12.00    3.60
   6   0   9    6.80    2.80
  -7   0  -9   16.10    4.50
  -7   0  -9   13.30    3.90
  -7   0  -9   17.10    2.90
   7   0   9   15.70    3.80
  -8   0  -9   16.80    4.60
  -8   0  -9   18.60    3.10
   8   0   9   11.90    3.60
   6  -1  -9   67.49    7.90
  -6   1   9   72.59    8.60
  -6   1   9   66.99    8.10
   5  -1  -9    0.70    2.30
   5  -1  -9    0.90    2.00
  -5   1   9   -0.90    2.30
  -5   1   9    0.10    2.30
   4  -1  -9    1.40    2.00
  -4   1   9    4.10    2.50
  -4   1   9    5.10    2.60
   3  -1  -9   72.39    6.20
   3  -1  -9   74.79    5.00
   3  -1  -9   68.79    5.70
  -3   1   9   73.19    6.30
  -3   1   9   74.69    5.70
  -3   1   9   74.59    5.40
   2  -1  -9   87.69    6.10
   2  -1  -9   75.89    4.50
   2  -1  -9   86.39   10.40
  -2   1   9   86.29    6.60
  -2   1   9   87.89    5.10
  -2   1   9   80.89    6.60
   1  -1  -9   56.99    5.80
   1  -1  -9   55.09    6.00
   1  -1  -9   53.29    3.30
  -1   1   9   60.79    6.70
  -1   1   9   49.99    4.40
  -1   1   9   51.39    3.50
   0  -1  -9  229.98    9.80
   0  -1  -9  225.48    9.00
   0   1   9  218.08    9.80
   0   1   9  229.28    9.00
   0   1   9  240.78    7.00
  -1  -1  -9  129.19    7.00
  -1  -1  -9  120.39    6.20
   1   1   9  118.09    4.30
   1   1   9  120.39    4.60
   1   1   9  107.49    5.80
   1   1   9  113.79    6.80
  -2  -1  -9    2.70    1.90
  -2  -1  -9    4.10    1.90
   2   1   9    4.20    1.20
   2   1   9    5.50    1.50
   2   1   9    7.20    2.50
   2   1   9    1.00    1.60
  -3  -1  -9  427.96   12.40
  -3  -1  -9  430.86   13.70
   3   1   9  427.76   11.50
   3   1   9  434.16   14.10
  -4  -1  -9   55.79    4.60
  -4  -1  -9   54.19    4.40
  -4  -1  -9   48.50    4.30
  -4  -1  -9   51.89    4.00
   4   1   9   63.99    4.40
   4   1   9   67.39    5.30
  -5  -1  -9   30.70    4.10
  -5  -1  -9   39.80    4.80
  -5  -1  -9   24.90    3.30
  -5  -1  -9   26.10    4.10
   5   1   9   26.90    4.40
   5   1   9   29.50    4.10
  -6  -1  -9   72.59    6.50
  -6  -1  -9   84.29    5.10
  -6  -1  -9   77.09    5.20
  -6  -1  -9   84.29    6.50
   6   1   9   82.29    6.30
   6   1   9   94.39    6.50
  -7  -1  -9   19.10    3.40
  -7  -1  -9   16.60    4.20
  -7  -1  -9   18.30    3.00
  -7  -1  -9   18.80    3.60
   7   1   9   16.40    3.70
   7   1   9    7.30    3.40
  -8  -1  -9   92.29    5.40
  -8  -1  -9   64.49    7.60
  -8  -1  -9   79.29    5.60
   8   1   9   98.39    7.20
   6  -2  -9    4.70    3.30
  -6   2   9   11.40    4.40
  -6   2   9    5.50    3.40
   5  -2  -9    2.90    2.60
   5  -2  -9   10.30    3.30
  -5   2   9    6.10    2.90
  -5   2   9    3.80    3.00
   4  -2  -9    6.00    2.60
  -4   2   9    8.10    3.00
  -4   2   9   12.80    6.10
   3  -2  -9    7.30    2.70
   3  -2  -9    3.10    1.80
   3  -2  -9    6.70    2.50
  -3   2   9    5.20    2.40
  -3   2   9   10.30    3.20
  -3   2   9    7.70    3.00
   2  -2  -9   94.19    5.90
   2  -2  -9   92.09    6.60
   2  -2  -9   79.89    5.80
  -2   2   9   89.89    6.70
  -2   2   9   89.39    5.00
  -2   2   9   72.59    5.70
   1  -2  -9  114.69    7.00
   1  -2  -9  115.29    4.50
   1  -2  -9  110.39    6.50
  -1   2   9  110.69    4.70
  -1   2   9  111.89    7.10
  -1   2   9  112.59    6.50
   0  -2  -9  124.79    7.00
   0  -2  -9  126.39    6.60
   0   2   9  119.89    7.10
   0   2   9  102.09    6.00
  -1  -2  -9  278.67   10.60
  -1  -2  -9  268.97    9.90
   1   2   9  266.77    9.70
   1   2   9  276.77   10.80
  -2  -2  -9  264.17    9.40
  -2  -2  -9  249.97    9.80
   2   2   9  248.28    9.20
   2   2   9  247.38   10.10
  -3  -2  -9  130.49    6.70
  -3  -2  -9  120.99    6.20
   3   2   9  111.69    6.50
   3   2   9  120.39    4.80
  -4  -2  -9  111.99    6.40
  -4  -2  -9  117.39    6.10
  -4  -2  -9  111.39    6.20
  -4  -2  -9  106.09    5.40
   4   2   9  105.09    5.20
   4   2   9  111.99    6.60
  -5  -2  -9   31.50    3.90
  -5  -2  -9   24.10    3.60
  -5  -2  -9   31.00    4.20
  -5  -2  -9   29.70    4.30
   5   2   9   26.30    3.80
   5   2   9   22.90    3.80
  -6  -2  -9  108.09    6.20
  -6  -2  -9  114.59    7.10
  -6  -2  -9   91.89    6.10
  -6  -2  -9  105.19    6.00
   6   2   9  100.49    6.60
   6   2   9  100.19    6.60
  -7  -2  -9   43.80    4.90
  -7  -2  -9   38.00    5.60
  -7  -2  -9   44.40    5.00
  -7  -2  -9   49.70    4.90
   7   2   9   47.60    5.70
   7   2   9   35.30    5.40
  -8  -2  -9   46.00    6.80
  -8  -2  -9   77.29    5.50
  -8  -2  -9   58.39    5.70
   8   2   9   64.39    5.70
   6  -3  -9    9.90    3.60
  -6   3   9    4.50    3.40
  -6   3   9    6.60    3.40
   5  -3  -9   50.89    6.30
   5  -3  -9   49.20    6.20
  -5   3   9   34.50    5.30
  -5   3   9   37.80    6.20
   4  -3  -9   43.10    5.30
  -4   3   9   36.30    5.70
  -4   3   9   44.60    5.40
   3  -3  -9   26.10    4.30
   3  -3  -9   31.00    3.90
   3  -3  -9   17.30    3.90
  -3   3   9   24.40    4.10
  -3   3   9   25.70    3.80
  -3   3   9   26.50    4.70
   2  -3  -9   27.50    4.60
   2  -3  -9   24.10    3.90
   2  -3  -9   27.50    3.20
  -2   3   9   27.10    3.40
  -2   3   9   26.10    4.40
  -2   3   9   20.80    4.40
   1  -3  -9   37.50    4.60
   1  -3  -9   33.30    2.40
   1  -3  -9   30.00    4.40
  -1   3   9   27.40    4.50
  -1   3   9   34.20    2.60
  -1   3   9   39.40    5.20
   0  -3  -9  360.46   12.70
   0  -3  -9  364.06   12.20
   0   3   9  358.66   13.00
   0   3   9  363.16   12.10
  -1  -3  -9    1.20    1.50
  -1  -3  -9   -0.70    1.30
   1   3   9    0.30    1.60
   1   3   9    2.50    1.90
  -2  -3  -9   57.29    4.50
  -2  -3  -9   58.69    4.70
   2   3   9   52.49    4.30
   2   3   9   62.09    4.90
  -3  -3  -9  235.88    9.10
  -3  -3  -9  229.48    9.60
  -3  -3  -9  223.58    9.00
   3   3   9  234.78    9.50
  -4  -3  -9    0.80    1.40
  -4  -3  -9    4.20    2.00
  -4  -3  -9    6.40    1.80
  -4  -3  -9    1.40    2.00
   4   3   9    4.20    2.00
   4   3   9    4.60    1.60
  -5  -3  -9   16.40    3.00
  -5  -3  -9   25.20    3.80
  -5  -3  -9   13.20    3.20
   5   3   9   16.40    2.90
   5   3   9   19.40    3.60
  -6  -3  -9    4.50    2.00
  -6  -3  -9    8.40    2.70
  -6  -3  -9    6.50    2.70
  -6  -3  -9    1.50    2.20
   6   3   9    1.60    1.90
   6   3   9    3.80    2.20
  -7  -3  -9   67.99    7.20
  -7  -3  -9   53.79    4.60
  -7  -3  -9   65.99    5.30
  -7  -3  -9   63.49    5.50
   7   3   9   61.49    5.20
  -8  -3  -9   14.80    3.50
  -8  -3  -9   16.60    3.90
   8   3   9   13.40    3.20
   6  -4  -9   -1.40    2.50
  -6   4   9    1.50    2.50
  -6   4   9    0.20    2.60
   5  -4  -9   46.20    6.00
   5  -4  -9   48.20    6.00
  -5   4   9   54.39    6.50
  -5   4   9   47.20    6.80
   4  -4  -9   93.59    7.90
   4  -4  -9   91.59    6.20
  -4   4   9  102.99    6.80
  -4   4   9  106.79    8.90
   3  -4  -9   93.19    6.70
   3  -4  -9   93.99    9.80
   3  -4  -9   97.99    5.60
  -3   4   9   92.59    5.80
  -3   4   9  101.49    6.70
  -3   4   9   88.39    7.20
   2  -4  -9  126.59    7.40
   2  -4  -9  127.49    8.00
   2  -4  -9  117.39    5.30
  -2   4   9  128.49    5.70
  -2   4   9  109.39    7.60
  -2   4   9  131.49    7.40
   1  -4  -9  170.08    8.70
   1  -4  -9  176.88    8.40
  -1   4   9  154.78    8.10
  -1   4   9  150.68    8.50
   0  -4  -9  187.08    8.50
   0  -4  -9  189.28    8.80
   0   4   9  190.68    8.50
   0   4   9  196.98    9.20
  -1  -4  -9   10.00    2.60
  -1  -4  -9    7.20    2.30
   1   4   9    6.40    2.40
   1   4   9    6.10    2.30
  -2  -4  -9   98.19    5.90
  -2  -4  -9   94.19    5.80
   2   4   9  100.99    6.20
   2   4   9   86.69    5.50
  -3  -4  -9  169.78    7.80
  -3  -4  -9  169.88    7.60
  -3  -4  -9  151.98    8.00
   3   4   9  169.98    7.80
  -4  -4  -9  141.49    7.10
  -4  -4  -9  132.49    6.50
  -4  -4  -9  122.29    5.10
  -4  -4  -9  119.89    7.20
   4   4   9  128.59    4.80
   4   4   9  147.69    7.00
  -5  -4  -9   50.69    5.50
  -5  -4  -9   45.80    3.90
  -5  -4  -9   49.90    5.60
  -5  -4  -9   43.70    4.70
   5   4   9   45.40    4.90
   5   4   9   48.80    5.30
  -6  -4  -9    2.40    2.10
  -6  -4  -9    5.90    2.70
  -6  -4  -9    1.40    2.20
  -6  -4  -9    0.60    1.50
   6   4   9    3.20    1.90
   6   4   9    2.70    1.90
  -7  -4  -9   26.70    4.50
  -7  -4  -9   24.00    3.40
  -7  -4  -9   30.90    5.00
  -7  -4  -9   22.70    3.90
   7   4   9   25.80    3.80
   7   4   9   21.80    4.00
  -8  -4  -9  191.38    9.30
  -8  -4  -9  183.28   10.50
  -8  -4  -9  188.28    9.70
   8   4   9  198.68    8.50
   6  -5  -9    1.40    2.60
  -6   5   9   -2.00    2.20
  -6   5   9    0.60    2.50
   5  -5  -9   36.90    5.70
   5  -5  -9   32.70    5.20
  -5   5   9   45.40    6.30
  -5   5   9   33.70    5.90
   4  -5  -9   41.90    5.50
   4  -5  -9   33.30    4.70
  -4   5   9   40.00    5.40
  -4   5   9   40.50    6.80
   3  -5  -9    7.70    3.00
   3  -5  -9   13.30    2.90
  -3   5   9    9.60    3.60
  -3   5   9   13.20    3.00
  -3   5   9   21.10    4.20
   2  -5  -9   -2.80    1.30
   2  -5  -9    0.80    1.40
   2  -5  -9   -0.20    1.90
  -2   5   9    0.00    1.50
  -2   5   9    1.40    2.00
  -2   5   9   -1.00    1.40
   1  -5  -9  303.37   13.80
   1  -5  -9  290.37   11.40
  -1   5   9  291.27   12.10
  -1   5   9  301.27   11.40
   0  -5  -9   31.60    4.60
   0  -5  -9   28.90    4.40
   0   5   9   22.60    4.20
   0   5   9   26.10    4.10
  -1  -5  -9   -0.10    1.40
  -1  -5  -9    2.90    1.90
   1   5   9    2.60    2.00
   1   5   9    2.50    1.70
  -2  -5  -9  452.55   13.90
  -2  -5  -9  465.45   14.40
   2   5   9  453.15   14.20
  -3  -5  -9  103.59    5.90
  -3  -5  -9  109.19    7.00
  -3  -5  -9  115.99    6.60
   3   5   9  114.79    6.40
  -4  -5  -9  238.48   10.60
  -4  -5  -9  264.17   10.40
  -4  -5  -9  259.47    9.20
   4   5   9  258.57    9.40
  -5  -5  -9   17.70    4.60
  -5  -5  -9   15.90    2.80
  -5  -5  -9   23.60    4.00
  -5  -5  -9   20.50    3.00
   5   5   9   16.50    2.90
   5   5   9   12.90    2.40
  -6  -5  -9  150.28    6.40
  -6  -5  -9  143.99    7.60
  -6  -5  -9  163.98    8.50
  -6  -5  -9  158.68    8.80
   6   5   9  161.48    7.10
   6   5   9  154.48    7.10
  -7  -5  -9   13.20    3.80
  -7  -5  -9   17.10    3.80
  -7  -5  -9   14.80    2.60
  -7  -5  -9   14.40    3.70
   7   5   9   14.50    3.40
   7   5   9   13.60    2.70
  -8  -5  -9   66.49    7.80
  -8  -5  -9   62.49    7.20
   8   5   9   70.19    4.80
   8   5   9   68.29    5.00
   8   5   9   57.89    6.60
   6  -6  -9    7.10    3.40
  -6   6   9    1.00    3.10
  -6   6   9    2.10    3.10
   5  -6  -9   18.50    4.30
   5  -6  -9   18.30    4.10
  -5   6   9   14.90    3.80
  -5   6   9   27.80    5.70
   4  -6  -9   33.80    4.80
   4  -6  -9   30.10    5.20
  -4   6   9   30.60    4.90
  -4   6   9   37.20    6.40
   3  -6  -9    2.80    2.00
   3  -6  -9    8.00    2.80
  -3   6   9   14.20    4.10
  -3   6   9    8.90    2.70
   2  -6  -9   77.29    6.50
   2  -6  -9   73.69    4.40
   2  -6  -9   74.89    6.00
  -2   6   9   82.29    6.20
  -2   6   9   87.89    5.00
  -2   6   9   76.69    6.80
   1  -6  -9   32.60    5.10
   1  -6  -9   30.90    4.50
  -1   6   9   25.20    4.00
  -1   6   9   23.40    4.30
   0  -6  -9  124.79    7.30
   0  -6  -9  139.19    7.80
   0   6   9  135.29    7.80
   0   6   9  131.99    7.40
  -1  -6  -9  472.45   15.10
  -1  -6  -9  478.15   14.90
   1   6   9  486.95   15.30
  -2  -6  -9  323.07   11.70
  -2  -6  -9  297.07   10.90
   2   6   9  316.67   11.30
  -3  -6  -9   14.10    4.30
  -3  -6  -9   15.90    3.00
  -3  -6  -9   13.90    3.20
   3   6   9   22.70    3.60
  -4  -6  -9   24.10    4.30
  -4  -6  -9   33.20    3.90
  -4  -6  -9   27.60    4.60
   4   6   9   28.60    3.70
  -5  -6  -9    9.60    3.10
  -5  -6  -9   12.30    2.60
  -5  -6  -9    9.20    3.40
  -5  -6  -9    7.80    2.00
   5   6   9   10.80    3.50
   5   6   9    7.50    1.90
  -6  -6  -9  213.58    8.40
  -6  -6  -9  201.48    8.80
  -6  -6  -9  194.28   10.70
  -6  -6  -9  185.98    9.50
   6   6   9  199.68    8.00
   6   6   9  199.98    7.60
  -7  -6  -9    4.50    1.90
  -7  -6  -9    4.60    2.80
  -7  -6  -9    2.40    2.80
   7   6   9    2.80    2.40
   7   6   9    6.80    1.90
  -8  -6  -9   47.80    6.20
  -8  -6  -9   54.79    6.70
   8   6   9   44.10    3.60
   8   6   9   52.59    6.30
   8   6   9   52.29    3.60
   5  -7  -9   -3.10    1.80
  -5   7   9    6.60    3.30
  -5   7   9    1.50    2.90
   4  -7  -9   24.20    4.50
   4  -7  -9   12.30    3.30
  -4   7   9   15.50    3.80
  -4   7   9   28.30    5.70
   3  -7  -9  117.29    6.70
   3  -7  -9  130.39   14.40
  -3   7   9  132.99    7.20
  -3   7   9  131.49    9.20
   2  -7  -9   44.10    5.40
   2  -7  -9   49.80    4.20
  -2   7   9   53.09    6.50
  -2   7   9   48.20    4.10
  -2   7   9   44.00    6.30
   1  -7  -9  165.78    8.60
   1  -7  -9  175.48    9.30
   1  -7  -9  167.38    5.80
  -1   7   9  161.98    8.50
  -1   7   9  167.08    5.90
  -1   7   9  145.69    8.90
   0  -7  -9   89.29    6.50
   0  -7  -9   94.99    6.50
   0   7   9   93.19    6.80
   0   7   9   88.79    6.40
  -1  -7  -9  189.78    9.10
  -1  -7  -9  186.28    8.70
   1   7   9  192.28    9.10
  -2  -7  -9   90.69    8.90
  -2  -7  -9   70.29    5.60
  -2  -7  -9   69.19    5.10
   2   7   9   70.19    5.30
  -3  -7  -9   69.89    6.10
  -3  -7  -9   75.19    5.00
  -3  -7  -9   71.99    5.80
   3   7   9   66.29    4.90
  -4  -7  -9   31.70    5.00
  -4  -7  -9   40.80    3.60
  -4  -7  -9   38.70    5.40
   4   7   9   42.20    5.50
  -5  -7  -9  137.29    6.20
  -5  -7  -9  140.59    8.20
   5   7   9  141.39    6.20
   5   7   9  140.69    5.70
  -6  -7  -9   45.40    4.90
  -6  -7  -9   45.40    6.40
  -6  -7  -9   39.90    3.00
   6   7   9   43.60    4.50
   6   7   9   45.70    3.40
  -7  -7  -9   19.20    4.10
  -7  -7  -9   10.70    3.50
   7   7   9   17.30    3.50
  -8  -7  -9   45.80    6.20
  -8  -7  -9   36.40    5.60
   8   7   9   38.30    5.50
   5  -8  -9   41.70    6.20
  -5   8   9   20.70    5.30
   4  -8  -9    1.60    2.60
   4  -8  -9    0.40    2.80
  -4   8   9    0.50    2.70
  -4   8   9    0.90    2.70
   3  -8  -9   36.70    4.70
   3  -8  -9   46.40    5.80
  -3   8   9   41.80    6.40
  -3   8   9   49.90    5.50
   2  -8  -9   12.70    2.80
   2  -8  -9   27.10    6.90
  -2   8   9   21.90    5.70
   1  -8  -9   43.90    3.40
   1  -8  -9   43.90    5.70
   1  -8  -9   37.70    5.70
  -1   8   9   52.09    7.20
  -1   8   9   42.50    5.90
   0  -8  -9   30.40    4.80
   0   8   9   26.40    4.50
  -1  -8  -9  432.16   15.90
  -1  -8  -9  442.66   15.00
  -1  -8  -9  443.36   14.80
   1   8   9  457.85   15.00
  -2  -8  -9   71.49    5.20
  -2  -8  -9   62.49    7.00
  -2  -8  -9   62.59    5.60
   2   8   9   77.99    5.50
  -3  -8  -9    3.00    1.80
  -3  -8  -9    3.30    2.20
  -3  -8  -9   -0.20    2.10
   3   8   9    2.00    1.80
  -4  -8  -9   20.60    3.10
  -4  -8  -9   13.80    3.40
   4   8   9   17.50    4.70
  -5  -8  -9   74.69    6.50
  -5  -8  -9   80.09    4.30
  -5  -8  -9   76.79    4.80
   5   8   9   78.49    5.40
   5   8   9   78.79    4.50
  -6  -8  -9    9.80    2.80
  -6  -8  -9    7.40    3.20
  -6  -8  -9    9.50    1.60
   6   8   9    8.70    2.40
  -7  -8  -9   52.59    6.90
  -7  -8  -9   44.80    5.80
   7   8   9   49.80    5.40
   4  -9  -9   23.40    4.80
   4  -9  -9   19.40    4.30
  -4   9   9    9.00    4.00
  -4   9   9   23.60    4.70
   3  -9  -9   32.80    5.10
   3  -9  -9   29.60    4.40
  -3   9   9   39.60    5.50
  -3   9   9   19.30    5.10
   2  -9  -9   13.50    3.70
   2  -9  -9   10.00    2.70
  -2   9   9   12.10    4.00
  -2   9   9   16.40    3.30
   1  -9  -9   13.80    2.70
   1  -9  -9    7.80    3.90
  -1   9   9   14.10    3.90
   0  -9  -9  136.09    8.40
   0  -9  -9  133.09    9.00
   0   9   9  138.49    8.50
  -1  -9  -9   32.90    4.70
  -1  -9  -9   24.60    4.30
   1   9   9   28.60    4.40
  -2  -9  -9   42.50    5.10
  -2  -9  -9   45.20    6.90
   2   9   9   41.20    5.00
  -3  -9  -9   -0.50    1.30
  -3  -9  -9    0.00    2.50
   3   9   9   -1.30    1.40
  -4  -9  -9   32.20    5.10
  -4  -9  -9   28.90    3.50
   4   9   9   24.80    3.70
  -5  -9  -9   15.70    2.30
  -5  -9  -9   16.30    3.10
  -5  -9  -9   11.80    3.60
   5   9   9   14.60    2.50
   5   9   9   16.20    2.50
  -6  -9  -9   10.60    3.30
  -6  -9  -9    6.20    2.80
   6   9   9   12.00    2.80
  -7  -9  -9   32.30    5.00
  -7  -9  -9   29.60    5.40
   7   9   9   40.40    4.90
   4 -10  -9   15.10    4.70
   4 -10  -9   20.50    4.50
  -4  10   9   13.90    4.50
  -4  10   9   30.80    5.30
   3 -10  -9   10.20    3.50
   3 -10  -9    8.30    3.20
  -3  10   9   13.60    4.60
  -3  10   9   15.20    3.90
   2 -10  -9   25.80    4.10
   2 -10  -9   23.00    4.50
  -2  10   9   26.10    5.10
  -2  10   9   27.40    4.10
   1 -10  -9    0.80    1.60
   1 -10  -9    2.40    2.40
   1 -10  -9   -0.20    1.70
  -1  10   9   -1.00    1.80
   0 -10  -9  105.39    7.60
   0 -10  -9   99.09    5.10
   0 -10  -9  104.39    4.80
   0 -10  -9  110.09    7.60
   0  10   9  103.39    7.50
  -1 -10  -9    2.10    2.40
   1  10   9    3.50    2.40
  -2 -10  -9    8.10    2.80
  -2 -10  -9   10.40    3.10
   2  10   9    7.60    2.90
  -3 -10  -9    7.30    3.30
  -3 -10  -9    4.50    2.10
   3  10   9    3.50    2.10
  -4 -10  -9    9.00    3.20
  -4 -10  -9    9.50    2.20
  -4 -10  -9    9.20    2.30
  -4 -10  -9    6.30    2.10
   4  10   9   10.50    2.80
  -5 -10  -9   11.50    3.00
  -5 -10  -9   12.50    1.90
  -5 -10  -9   12.10    3.90
   5  10   9   11.70    2.50
   5  10   9   12.70    2.20
  -6 -10  -9   27.20    4.30
  -6 -10  -9   28.70    5.30
   6  10   9   32.30    4.20
  -7 -10  -9   16.40    4.00
  -7 -10  -9    7.90    3.50
   3 -11  -9    0.80    2.50
   3 -11  -9    2.20    3.00
  -3  11   9    0.50    2.80
  -3  11   9    2.70    2.80
   2 -11  -9   17.50    4.10
   2 -11  -9   13.10    3.30
  -2  11   9   22.20    4.90
   1 -11  -9   57.89    5.10
   1 -11  -9   75.09    6.60
   1 -11  -9   64.19    4.60
  -1  11   9   64.79    8.00
   0 -11  -9    1.50    1.90
   0 -11  -9   -0.40    2.10
   0  11   9    5.40    3.30
  -1 -11  -9    3.40    1.60
  -1 -11  -9    5.10    2.90
  -1 -11  -9    5.00    1.90
  -1 -11  -9    5.40    2.80
   1  11   9    6.00    2.80
  -2 -11  -9  103.69    5.20
  -2 -11  -9   95.79    6.60
  -2 -11  -9   99.69    4.80
  -2 -11  -9   99.39    7.70
   2  11   9  109.19    6.90
  -3 -11  -9   11.20    2.30
  -3 -11  -9   17.60    4.60
  -3 -11  -9   13.00    2.90
  -3 -11  -9   10.30    2.50
   3  11   9    7.90    2.70
  -4 -11  -9   -2.90    2.10
  -4 -11  -9    2.10    2.00
  -4 -11  -9    0.90    2.20
  -4 -11  -9    1.10    1.60
  -5 -11  -9   28.50    5.00
  -5 -11  -9   29.10    4.00
  -6 -11  -9   16.90    3.70
  -6 -11  -9   15.70    4.30
   6  11   9   17.30    3.50
   2 -12  -9   15.70    4.30
   2 -12  -9   16.40    4.20
   2 -12  -9   18.80    3.60
  -2  12   9   19.90    5.60
   1 -12  -9   19.00    3.50
   1 -12  -9   17.10    3.70
   1 -12  -9   21.40    4.30
  -1  12   9   20.80    4.90
   0 -12  -9   35.70    5.50
   0 -12  -9   25.50    3.50
   0 -12  -9   31.70    4.30
   0  12   9   18.80    4.40
  -1 -12  -9   29.50    4.90
  -1 -12  -9   37.10    3.90
  -1 -12  -9   32.10    5.30
  -1 -12  -9   32.60    4.00
   1  12   9   34.80    5.50
  -2 -12  -9   36.00    6.00
  -2 -12  -9   30.20    3.90
  -2 -12  -9   43.40    5.80
   2  12   9   32.40    4.90
  -3 -12  -9   72.19    5.50
  -3 -12  -9   76.39    8.30
  -3 -12  -9   72.89    5.20
   3  12   9   79.99    5.90
  -4 -12  -9   13.80    4.30
  -4 -12  -9   16.80    3.20
  -4 -12  -9   11.40    2.60
  -4 -12  -9   16.10    3.40
  -5 -12  -9    3.30    2.60
  -5 -12  -9    4.60    2.50
  -5 -12  -9    2.50    3.10
   1 -13  -9   80.89    5.90
   1 -13  -9   53.59    6.30
   1 -13  -9   63.29    7.20
  -1  13   9   64.29    8.20
   0 -13  -9    6.80    2.50
   0 -13  -9    6.10    2.80
   0 -13  -9    8.10    3.60
   0  13   9    9.60    3.80
  -1 -13  -9    0.80    2.10
  -1 -13  -9    1.70    1.90
  -1 -13  -9    0.90    2.60
   1  13   9    1.30    3.00
  -2 -13  -9   26.30    3.60
  -2 -13  -9   30.30    5.60
  -2 -13  -9   32.50    4.40
  -2 -13  -9   26.50    4.60
  -3 -13  -9    4.30    2.30
  -3 -13  -9    2.40    2.60
  -3 -13  -9    5.80    2.60
  -3 -13  -9    5.30    2.30
  -4 -13  -9    4.30    1.70
  -4 -13  -9    3.00    2.80
  -4 -13  -9    5.00    2.50
  -4 -13  -9    2.90    1.90
  -4 -13  -9    0.00    2.00
   1   9 -10  100.39    7.50
  -1  -9  10   98.69    8.70
  -1  -9  10   87.99    8.00
   0   9 -10   59.79    6.30
   0  -9  10   50.89    7.50
   0  -9  10   49.80    7.20
   0  -9  10   51.09    6.80
  -1   9 -10   15.70    3.50
   1  -9  10   16.50    4.70
   1  -9  10   16.20    4.50
   1  -9  10   12.10    3.70
   3   8 -10   44.40    6.60
  -3  -8  10   40.70    6.60
  -3  -8  10   41.20    6.80
   2   8 -10   16.30    3.90
  -2  -8  10   21.70    4.90
  -2  -8  10   14.00    4.20
   1   8 -10  307.67   12.80
  -1  -8  10  299.17   13.80
  -1  -8  10  309.57   14.80
   0   8 -10    3.20    2.50
   0  -8  10    0.20    2.20
   0  -8  10    5.40    3.00
   0  -8  10    1.10    2.10
  -1   8 -10    0.80    2.00
   1  -8  10    1.20    2.40
   1  -8  10    2.10    2.80
   1  -8  10    5.30    2.30
  -2   8 -10   30.30    3.90
   2  -8  10   19.00    5.20
   2  -8  10   28.90    5.50
   2  -8  10   22.70    3.20
   3  -8  10   27.50    5.20
   3  -8  10   36.00    6.70
   4   7 -10   24.10    5.40
  -4  -7  10   22.90    5.10
  -4  -7  10   19.80    4.90
   3   7 -10   32.60    5.60
  -3  -7  10   49.50    7.10
  -3  -7  10   40.40    6.30
   2   7 -10  116.29    8.00
  -2  -7  10  101.89    8.10
  -2  -7  10  132.79    9.40
   1   7 -10    9.30    3.20
  -1  -7  10    8.20    3.30
  -1  -7  10   11.30    4.20
   0   7 -10   24.00    4.10
   0  -7  10   26.90    5.30
   0  -7  10   21.40    3.80
   0  -7  10   34.50    5.80
  -1   7 -10   12.10    3.00
   1  -7  10    8.30    2.50
   1  -7  10    8.20    3.30
   1  -7  10    3.80    2.70
  -2   7 -10    3.40    2.10
   2  -7  10    1.50    2.60
   2  -7  10    3.30    1.90
   2  -7  10   -0.30    2.30
  -3   7 -10   50.29    3.70
   3  -7  10   39.70    5.80
   3  -7  10   52.79    8.10
   4  -7  10    2.20    2.90
   4  -7  10    2.50    3.00
   4   6 -10   97.79    8.30
  -4  -6  10   99.59    8.40
  -4  -6  10  117.29    8.90
   3   6 -10    7.80    3.20
  -3  -6  10   10.50    3.80
  -3  -6  10   11.70    3.60
   2   6 -10  126.89    8.20
  -2  -6  10  113.09    8.10
  -2  -6  10  137.49    9.20
   1   6 -10    7.70    3.00
  -1  -6  10    5.50    2.70
  -1  -6  10    4.30    2.90
  -1  -6  10    2.60    2.50
   0   6 -10    4.50    2.40
   0  -6  10    3.20    2.50
   0  -6  10    2.90    1.80
   0  -6  10    5.80    2.60
  -1   6 -10    5.00    2.20
   1  -6  10    0.80    1.80
   1  -6  10    1.30    2.40
   1  -6  10    1.00    2.20
  -2   6 -10   38.60    4.10
   2  -6  10   33.40    5.50
   2  -6  10   30.50    5.30
   2  -6  10   48.20    4.70
  -3   6 -10   38.50    3.40
   3  -6  10   41.90    3.90
   3  -6  10   38.30    5.50
   3  -6  10   40.50    6.10
   4  -6  10   12.30    3.90
   4  -6  10    5.40    2.90
   5  -6  10   82.49    9.50
   5   5 -10   35.40    6.60
  -5  -5  10   42.10    6.90
  -5  -5  10   43.30    7.00
   4   5 -10   19.40    4.70
  -4  -5  10   26.80    5.50
  -4  -5  10   18.30    4.50
   3   5 -10   33.50    5.30
  -3  -5  10   37.90    6.00
  -3  -5  10   34.00    6.00
   2   5 -10   34.50    6.10
   2   5 -10   31.00    5.00
  -2  -5  10   36.80    5.60
  -2  -5  10   34.80    5.40
   1   5 -10   86.89    6.30
  -1  -5  10   92.19    7.50
  -1  -5  10   78.69    8.00
  -1  -5  10   76.09    5.90
  -1  -5  10   82.39    6.50
   0   5 -10   26.90    4.20
   0  -5  10   34.80    5.00
   0  -5  10   17.90    4.30
   0  -5  10   23.90    4.80
  -1   5 -10   77.09    5.30
   1  -5  10   76.09    6.90
   1  -5  10   62.49    4.80
   1  -5  10   69.79    5.70
   1  -5  10   73.19    7.70
  -2   5 -10   50.99    4.20
   2  -5  10   49.10    4.10
   2  -5  10   60.59    5.50
   2  -5  10   57.79    7.10
   2  -5  10   61.89    7.40
  -3   5 -10   77.49    6.40
   3  -5  10   68.39    7.90
   3  -5  10   70.69    6.00
   3  -5  10   75.79    4.40
   3  -5  10   69.69    8.10
   4  -5  10   60.29    7.20
   4  -5  10   76.29    8.80
   5  -5  10   22.30    4.90
   5   4 -10   19.10    4.90
  -5  -4  10   14.80    4.20
  -5  -4  10   27.10    5.60
   4   4 -10    4.20    2.90
  -4  -4  10    6.00    3.10
  -4  -4  10    6.00    3.20
   3   4 -10    6.20    2.80
   3   4 -10    7.60    3.00
  -3  -4  10    6.40    2.90
  -3  -4  10    5.30    2.90
   2   4 -10   31.20    4.80
   2   4 -10   33.50    4.70
  -2  -4  10   39.00    5.40
  -2  -4  10   33.00    5.40
   1   4 -10   14.80    3.20
  -1  -4  10   13.50    3.30
   0   4 -10    1.90    1.90
   0  -4  10    3.20    3.70
   0  -4  10    1.20    2.30
   0  -4  10    3.20    2.00
   0  -4  10    2.60    2.00
  -1   4 -10    5.00    2.10
   1  -4  10    4.20    4.20
   1  -4  10    6.90    2.30
   1  -4  10    4.60    2.70
   1  -4  10    1.80    1.80
  -2   4 -10   15.40    2.70
   2  -4  10   19.80    4.20
   2  -4  10   16.60    4.30
   2  -4  10   11.90    2.60
   2  -4  10   20.20    3.90
  -3   4 -10   50.49    3.90
   3  -4  10   46.20    3.60
   3  -4  10   45.40    6.00
   3  -4  10   42.60    5.90
   3  -4  10   49.90    5.50
  -4   4 -10   86.09    4.30
  -4   4 -10  105.09    4.90
   4  -4  10   83.19    6.50
   4  -4  10   86.99    7.40
   4  -4  10   90.09    7.80
  -5   4 -10   35.20    6.10
   5  -4  10   22.20    4.80
  -6   4 -10    1.30    3.00
   6  -4  10    1.30    2.50
   5   3 -10    3.10    2.90
  -5  -3  10    4.70    3.00
  -5  -3  10    6.00    3.30
   4   3 -10    4.50    2.70
  -4  -3  10    7.10    3.20
  -4  -3  10    5.80    3.10
   3   3 -10   59.39    5.30
   3   3 -10   67.09    7.60
  -3  -3  10   60.69    6.70
  -3  -3  10   69.89    8.20
   2   3 -10    0.80    1.70
   2   3 -10    4.30    2.60
  -2  -3  10    2.60    2.20
  -2  -3  10    3.50    2.20
   1   3 -10  126.39    7.30
  -1  -3  10  106.49    6.70
  -1  -3  10  128.99    7.10
  -1  -3  10  110.99    8.00
   0   3 -10  371.36   14.60
   0   3 -10  381.76   12.80
   0  -3  10  357.46   12.20
   0  -3  10  348.07   12.20
   0  -3  10  386.36   13.30
   0  -3  10  379.46   14.80
  -1   3 -10    3.10    1.90
  -1   3 -10   -0.40    1.60
   1  -3  10   -0.40    2.00
   1  -3  10    2.70    1.70
   1  -3  10   -0.50    1.90
   1  -3  10    2.70    2.50
  -2   3 -10  243.28    8.90
   2  -3  10  255.77   10.70
   2  -3  10  221.78    8.50
   2  -3  10  242.78    9.50
   2  -3  10  238.98   11.50
  -3   3 -10   79.59    4.60
   3  -3  10   69.99    4.40
   3  -3  10   69.39    5.30
   3  -3  10   67.89    6.00
  -4   3 -10   22.00    5.00
  -4   3 -10   23.40    2.80
   4  -3  10   23.80    5.20
   4  -3  10   28.50    5.20
  -5   3 -10   40.30    6.10
   5  -3  10   41.00    6.40
   5  -3  10   33.40    5.40
  -6   3 -10   38.90    6.00
   6  -3  10   33.90    5.60
   6   2 -10    5.40    3.50
  -6  -2  10   10.50    3.80
  -6  -2  10   14.20    4.60
   5   2 -10   19.30    4.50
  -5  -2  10   10.90    3.80
  -5  -2  10   13.50    4.10
   4   2 -10   65.59    5.80
   4   2 -10   83.19    7.00
  -4  -2  10   97.39    7.20
  -4  -2  10   72.79    8.20
   3   2 -10  267.47   10.90
   3   2 -10  307.97   12.60
  -3  -2  10  272.77   15.20
  -3  -2  10  311.77   12.10
   2   2 -10  160.08    8.70
   2   2 -10  148.99    7.50
  -2  -2  10  175.38    9.70
  -2  -2  10  179.68    9.00
  -2  -2  10  168.48    8.20
   1   2 -10  105.89    7.50
   1   2 -10  126.39    6.50
   1   2 -10  125.19    7.20
  -1  -2  10  117.69    6.50
  -1  -2  10  110.29    7.80
  -1  -2  10  112.09    6.80
   0   2 -10    5.70    2.10
   0   2 -10    7.60    3.10
   0  -2  10    5.40    2.40
   0  -2  10    8.50    2.50
   0  -2  10    4.70    2.20
   0  -2  10   10.30    3.10
  -1   2 -10  187.58    8.00
  -1   2 -10  168.28    9.10
   1  -2  10  168.88    8.00
   1  -2  10  173.68    7.70
   1  -2  10  169.88    7.40
   1  -2  10  182.68    9.70
  -2   2 -10  119.39    7.60
  -2   2 -10  133.69    6.50
   2  -2  10  121.39    6.20
   2  -2  10  139.19    8.60
   2  -2  10  133.69    6.50
   2  -2  10  119.49    7.00
  -3   2 -10   49.50    5.50
  -3   2 -10   42.90    3.80
   3  -2  10   49.00    5.40
   3  -2  10   42.90    3.80
   3  -2  10   52.99    5.30
   3  -2  10   41.10    5.60
  -4   2 -10  141.09    6.50
   4  -2  10  138.19    8.90
   4  -2  10  142.89    8.10
  -5   2 -10    2.10    1.40
  -5   2 -10    3.30    2.70
   5  -2  10    0.50    2.10
   5  -2  10    4.20    2.90
  -6   2 -10   54.89    6.80
   6  -2  10   63.99    7.90
  -7   2 -10    7.80    3.80
   7  -2  10    4.20    3.30
   6   1 -10   13.90    4.00
  -6  -1  10   12.40    4.30
  -6  -1  10   11.10    4.00
   5   1 -10    7.30    3.50
  -5  -1  10    7.60    3.30
   4   1 -10   17.50    4.00
   4   1 -10   11.40    3.10
  -4  -1  10   23.30    5.30
  -4  -1  10   12.30    3.60
   3   1 -10  213.98    9.20
   3   1 -10  218.48   10.80
  -3  -1  10  228.08   10.00
   2   1 -10   15.20    3.10
   2   1 -10   15.30    3.70
   2   1 -10   14.90    3.80
  -2  -1  10   11.60    2.90
  -2  -1  10   11.30    3.50
  -2  -1  10   14.70    3.50
   1   1 -10    1.50    1.70
   1   1 -10    2.10    2.00
   1   1 -10    5.70    1.90
  -1  -1  10    2.10    1.90
  -1  -1  10    0.00    1.90
  -1  -1  10    1.70    1.60
   0   1 -10  248.08   11.00
   0   1 -10  239.78    9.70
   0  -1  10  247.28   11.30
   0  -1  10  239.38    9.70
   0  -1  10  251.27    9.20
  -1   1 -10   50.49    5.90
  -1   1 -10   54.19    4.50
   1  -1  10   45.50    4.10
   1  -1  10   53.19    4.40
   1  -1  10   39.80    3.60
   1  -1  10   59.09    6.80
  -2   1 -10   12.60    2.60
  -2   1 -10   14.30    3.60
   2  -1  10   19.90    4.10
   2  -1  10   22.90    3.50
   2  -1  10   22.20    4.80
   2  -1  10   24.80    3.70
  -3   1 -10  433.76   14.90
  -3   1 -10  437.56   12.60
   3  -1  10  447.46   12.70
   3  -1  10  413.16   12.40
   3  -1  10  433.66   13.40
   3  -1  10  429.96   15.50
  -4   1 -10    3.30    2.20
  -4   1 -10    0.60    1.60
  -4   1 -10    2.10    1.60
  -4   1 -10    1.20    2.10
   4  -1  10    1.00    2.10
   4  -1  10    0.70    2.20
  -5   1 -10   52.39    6.10
  -5   1 -10   52.59    4.40
  -5   1 -10   49.30    4.80
   5  -1  10   49.00    5.80
   5  -1  10   43.00    6.10
  -6   1 -10  139.99    8.80
  -6   1 -10  142.39    6.60
  -6   1 -10  136.39    5.70
   6  -1  10  131.39    8.60
   6  -1  10  137.69    8.90
  -7   1 -10   -1.70    2.30
   7  -1  10    4.40    2.90
   6   0 -10    1.70    2.90
  -6   0  10   -0.80    2.80
  -6   0  10    1.10    3.00
   5   0 -10   39.00    6.00
  -5   0  10   42.00    6.20
  -5   0  10   50.69    7.80
   4   0 -10  130.09    8.40
  -4   0  10  127.49    7.80
  -4   0  10  110.39    8.40
   3   0 -10    5.50    2.20
   3   0 -10    3.70    3.10
  -3   0  10    4.90    3.10
  -3   0  10    3.50    2.10
   2   0 -10    9.30    3.10
   2   0 -10    8.60    3.00
   2   0 -10   10.80    2.50
  -2   0  10   12.20    3.40
  -2   0  10   11.70    3.10
  -2   0  10    5.70    2.20
   1   0 -10   91.59    6.70
   1   0 -10   75.29    5.70
   1   0 -10   81.39    4.50
  -1   0  10   76.69    6.40
  -1   0  10   79.19    5.70
  -1   0  10   76.79    4.70
   0   0 -10   27.10    4.10
   0   0 -10   23.80    4.30
   0   0  10   25.60    3.10
   0   0  10   23.00    4.20
   0   0  10   22.80    3.20
   0   0  10   24.50    3.70
  -1   0 -10   46.90    6.50
  -1   0 -10   53.99    5.40
   1   0  10   45.20    4.70
   1   0  10   38.50    3.40
   1   0  10   43.10    3.20
   1   0  10   47.40    6.10
  -2   0 -10  225.38    8.80
  -2   0 -10  224.28   11.60
   2   0  10  240.08   10.60
   2   0  10  221.68    8.70
   2   0  10  214.98    7.30
   2   0  10  224.98    7.90
  -3   0 -10  109.69    7.00
  -3   0 -10  110.59    5.80
   3   0  10  107.79    7.20
   3   0  10  103.09    5.70
   3   0  10  107.29    5.70
   3   0  10  103.19    5.10
  -4   0 -10  113.69    6.40
  -4   0 -10  120.39    6.00
  -4   0 -10  113.89    6.50
  -4   0 -10  114.09    7.10
   4   0  10  115.29    6.50
   4   0  10  113.89    7.40
  -5   0 -10   65.29    4.40
  -5   0 -10   55.79    5.90
  -5   0 -10   67.59    5.60
  -5   0 -10   51.39    4.50
   5   0  10   59.09    5.90
   5   0  10   64.49    5.80
  -6   0 -10   47.50    6.00
  -6   0 -10   62.59    4.30
  -6   0 -10   49.60    4.40
   6   0  10   55.79    6.60
  -7   0 -10    1.70    1.60
  -7   0 -10    1.40    2.50
  -7   0 -10    1.70    1.90
   7   0  10   -0.70    2.10
   6  -1 -10   -0.40    2.30
  -6   1  10   -0.30    2.50
  -6   1  10    0.60    3.00
   5  -1 -10   -0.20    1.80
   5  -1 -10    2.20    2.60
  -5   1  10    2.20    2.60
  -5   1  10    0.90    2.60
   4  -1 -10   50.09    6.50
   4  -1 -10   57.69    6.00
  -4   1  10   50.99    6.10
  -4   1  10   62.49    8.20
   3  -1 -10    0.90    1.60
  -3   1  10    1.00    2.90
  -3   1  10    1.50    1.80
   2  -1 -10   27.50    3.50
   2  -1 -10   28.90    4.90
   2  -1 -10   24.40    4.10
  -2   1  10   22.90    4.50
  -2   1  10   26.30    3.60
  -2   1  10   25.30    4.40
   1  -1 -10  159.48    8.20
   1  -1 -10  141.19    8.30
   1  -1 -10  148.69    5.80
  -1   1  10  130.29    7.40
  -1   1  10  157.18    9.10
  -1   1  10  147.89    6.20
   0  -1 -10   44.90    6.30
   0  -1 -10   52.79    5.60
   0   1  10   42.10    3.20
   0   1  10   44.20    5.70
   0   1  10   54.59    5.60
   0   1  10   42.90    3.00
  -1  -1 -10    0.50    1.50
  -1  -1 -10    1.00    1.70
   1   1  10   -1.00    1.20
   1   1  10   -0.60    1.10
   1   1  10    2.00    2.00
   1   1  10    2.40    1.20
  -2  -1 -10  336.37   11.30
  -2  -1 -10  334.47   12.50
   2   1  10  324.37    9.10
   2   1  10  336.77   12.80
   2   1  10  333.27    8.70
   2   1  10  322.97   11.00
  -3  -1 -10    0.20    1.60
  -3  -1 -10    1.10    1.60
   3   1  10    2.50    1.70
   3   1  10   -0.50    1.60
   3   1  10   -0.40    1.40
   3   1  10    1.00    1.10
  -4  -1 -10    2.90    2.10
  -4  -1 -10   -0.30    1.50
  -4  -1 -10    4.10    2.00
   4   1  10    3.70    2.00
   4   1  10   -0.40    1.60
  -5  -1 -10   76.29    5.60
  -5  -1 -10   66.59    4.70
  -5  -1 -10   66.09    5.40
  -5  -1 -10   69.49    5.30
   5   1  10   60.39    5.50
   5   1  10   67.39    5.30
  -6  -1 -10   15.10    3.70
  -6  -1 -10   12.00    3.00
  -6  -1 -10   16.50    3.80
  -6  -1 -10   15.00    2.80
   6   1  10   11.50    3.30
   6   1  10    9.90    3.40
  -7  -1 -10   27.90    4.00
  -7  -1 -10   24.20    4.80
  -7  -1 -10   17.90    3.10
  -7  -1 -10   19.40    4.80
   7   1  10   19.00    4.60
   7   1  10   18.00    4.00
   6  -2 -10    1.60    3.00
  -6   2  10    3.30    3.20
  -6   2  10    2.10    2.70
   5  -2 -10  130.49    8.90
   5  -2 -10  129.89    8.00
  -5   2  10  112.69    9.10
  -5   2  10  130.49    8.50
   4  -2 -10    2.70    2.00
   4  -2 -10    1.30    2.10
  -4   2  10    9.00    3.00
  -4   2  10    0.60    2.00
   3  -2 -10    8.10    4.40
   3  -2 -10    7.30    2.30
  -3   2  10    8.00    2.70
   2  -2 -10  187.88    9.20
   2  -2 -10  159.98    6.50
   2  -2 -10  171.68    9.40
  -2   2  10  174.58    7.10
  -2   2  10  168.48    8.60
  -2   2  10  154.08    9.30
   1  -2 -10   63.99    5.40
   1  -2 -10   73.59    6.10
   1  -2 -10   69.89    3.70
  -1   2  10   70.79    3.90
  -1   2  10   63.49    5.20
  -1   2  10   61.29    6.80
   0  -2 -10   89.99    5.90
   0   2  10   83.79    6.50
   0   2  10   77.89    5.60
  -1  -2 -10  277.67   10.60
  -1  -2 -10  275.37   11.20
   1   2  10  288.77   11.70
   1   2  10  304.17   10.80
  -2  -2 -10   76.59    5.80
  -2  -2 -10   73.89    5.30
   2   2  10   92.49    5.70
   2   2  10   86.19    6.20
  -3  -2 -10  103.49    6.00
  -3  -2 -10  105.39    6.50
   3   2  10   88.59    6.30
  -4  -2 -10   31.20    3.40
  -4  -2 -10   27.50    4.20
  -4  -2 -10   32.20    4.10
  -4  -2 -10   35.70    4.80
   4   2  10   35.80    3.70
   4   2  10   32.20    4.60
  -5  -2 -10   71.89    5.40
  -5  -2 -10   71.99    5.20
  -5  -2 -10   65.89    5.40
  -5  -2 -10   65.99    4.90
   5   2  10   63.59    4.90
   5   2  10   62.29    5.60
  -6  -2 -10    5.40    2.70
  -6  -2 -10    4.90    2.10
  -6  -2 -10    4.40    2.40
   6   2  10    1.10    2.30
   6   2  10   10.10    2.90
  -7  -2 -10    1.40    2.20
  -7  -2 -10   -1.10    2.20
  -7  -2 -10    2.30    1.90
  -7  -2 -10    5.20    2.60
   7   2  10    1.40    2.20
   7   2  10    0.90    2.60
  -8  -2 -10   12.40    4.20
  -8  -2 -10    6.80    3.00
  -8  -2 -10   20.00    3.60
  -8  -2 -10   16.00    3.60
   8   2  10   16.30    4.00
   6  -3 -10    4.40    3.30
  -6   3  10    4.30    3.60
  -6   3  10    4.50    3.30
   5  -3 -10   55.89    6.60
   5  -3 -10   53.59    6.60
  -5   3  10   64.09    7.30
  -5   3  10   63.99    8.20
   4  -3 -10   94.39    7.20
   4  -3 -10   90.19    6.10
  -4   3  10   88.59    6.50
  -4   3  10   93.69    7.90
   3  -3 -10  100.99    7.50
   3  -3 -10   88.39    5.40
  -3   3  10   92.99    5.80
  -3   3  10   76.09    8.80
   2  -3 -10   40.60    5.80
   2  -3 -10   51.59    6.10
   2  -3 -10   50.09    3.60
  -2   3  10   52.79    3.90
  -2   3  10   51.39    5.80
  -2   3  10   54.59    6.60
   1  -3 -10  202.58    9.40
   1  -3 -10  208.68   10.10
   1  -3 -10  217.38    6.30
  -1   3  10  197.58   10.20
  -1   3  10  209.58    9.40
  -1   3  10  209.48    6.60
   0  -3 -10   28.00    7.00
   0  -3 -10   16.40    3.30
   0   3  10   16.00    3.50
  -1  -3 -10   16.70    3.50
  -1  -3 -10   21.70    4.00
   1   3  10   21.30    3.50
   1   3  10   21.40    4.10
  -2  -3 -10  110.19    6.40
  -2  -3 -10  111.79    6.80
   2   3  10  114.69    6.60
   2   3  10  117.89    7.20
  -3  -3 -10    4.70    2.40
  -3  -3 -10    8.00    2.50
   3   3  10    7.00    2.70
  -4  -3 -10   11.80    2.20
  -4  -3 -10   15.30    3.00
  -4  -3 -10   12.30    3.10
  -4  -3 -10   17.70    3.90
   4   3  10    9.50    2.90
   4   3  10    9.70    1.90
  -5  -3 -10  179.48    8.20
  -5  -3 -10  138.89    8.70
  -5  -3 -10  169.28    8.00
  -5  -3 -10  178.68    8.80
   5   3  10  174.08    8.40
   5   3  10  168.88    7.00
  -6  -3 -10   51.99    5.90
  -6  -3 -10   59.59    5.00
  -6  -3 -10   45.60    5.20
  -6  -3 -10   52.39    5.70
   6   3  10   46.80    5.30
   6   3  10   46.30    5.00
  -7  -3 -10   18.70    4.00
  -7  -3 -10   22.90    3.90
  -7  -3 -10   31.40    4.60
  -7  -3 -10   25.50    4.50
   7   3  10   24.70    5.20
   7   3  10   26.70    4.20
  -8  -3 -10   10.20    3.10
  -8  -3 -10   11.30    3.70
  -8  -3 -10   11.00    3.10
   8   3  10   11.20    3.10
   6  -4 -10   11.60    4.10
  -6   4  10   13.70    5.00
  -6   4  10   17.10    4.70
   5  -4 -10   72.99    7.90
   5  -4 -10   68.79    6.20
  -5   4  10   90.69    7.10
  -5   4  10   70.39    8.80
   4  -4 -10   15.80    3.30
   4  -4 -10   27.00    4.80
  -4   4  10   19.30    4.60
  -4   4  10   21.40    4.20
   3  -4 -10   24.20    4.40
   3  -4 -10   26.10    3.70
  -3   4  10   15.50    3.90
  -3   4  10   25.80    4.00
   2  -4 -10  297.07   14.50
   2  -4 -10  244.08   11.00
   2  -4 -10  256.67    8.30
  -2   4  10  252.67   12.10
  -2   4  10  285.67   14.30
  -2   4  10  269.27    8.70
   1  -4 -10   18.00    4.00
   1  -4 -10   18.30    3.90
  -1   4  10   22.70    4.50
  -1   4  10   25.30    4.40
   0  -4 -10    0.00    1.60
   0   4  10    2.00    1.90
   0   4  10    0.40    1.80
  -1  -4 -10  163.58    8.40
  -1  -4 -10  178.78    8.40
   1   4  10  163.98    8.70
  -2  -4 -10    3.10    2.00
  -2  -4 -10    1.60    1.80
   2   4  10   -0.40    1.30
   2   4  10    1.70    1.80
  -3  -4 -10    2.50    2.20
  -3  -4 -10    5.00    2.20
  -3  -4 -10    4.10    2.00
   3   4  10    3.80    2.30
  -4  -4 -10   25.90    4.00
  -4  -4 -10   34.20    4.40
  -4  -4 -10   28.40    4.70
   4   4  10   33.80    4.80
  -5  -4 -10   82.39    5.30
  -5  -4 -10   76.09    4.70
  -5  -4 -10   81.69    9.50
  -5  -4 -10   74.99    5.50
   5   4  10   76.69    5.50
   5   4  10   73.99    4.30
  -6  -4 -10    0.50    1.60
  -6  -4 -10    3.00    2.40
  -6  -4 -10    1.10    2.10
  -6  -4 -10   -0.70    1.90
   6   4  10    2.40    2.00
   6   4  10    0.70    1.70
  -7  -4 -10    2.60    2.40
  -7  -4 -10    2.40    1.90
  -7  -4 -10    1.60    2.10
  -7  -4 -10    2.10    2.40
   7   4  10   -1.00    1.80
   7   4  10    0.80    2.20
  -8  -4 -10    6.10    2.40
  -8  -4 -10    6.00    3.10
  -8  -4 -10    8.20    3.10
   8   4  10   10.40    3.00
   8   4  10   12.20    4.30
   5  -5 -10    3.90    2.80
   5  -5 -10    2.60    2.70
  -5   5  10   12.50    4.30
  -5   5  10    3.30    2.80
   4  -5 -10    0.60    1.80
   4  -5 -10    0.40    2.10
  -4   5  10    2.20    2.30
  -4   5  10    3.10    2.70
   3  -5 -10   32.00    3.90
   3  -5 -10   40.10    5.80
  -3   5  10   32.70    5.80
  -3   5  10   31.90    4.10
   2  -5 -10   -1.20    1.00
   2  -5 -10    1.10    2.00
  -2   5  10   -0.40    1.30
  -2   5  10    2.90    2.40
   1  -5 -10   -0.70    1.70
   1  -5 -10    2.40    2.00
  -1   5  10    1.70    2.00
  -1   5  10    2.10    2.00
   0  -5 -10   71.49    5.70
   0  -5 -10   79.19    9.60
   0   5  10   86.99    6.60
   0   5  10   67.99    5.50
  -1  -5 -10  117.69    7.10
  -1  -5 -10  136.39    7.60
   1   5  10  125.59    7.20
   1   5  10  127.79    7.60
  -2  -5 -10   52.29    4.70
  -2  -5 -10   46.80    5.40
   2   5  10   55.49    6.00
  -3  -5 -10    3.50    2.40
  -3  -5 -10    6.40    2.20
  -3  -5 -10    2.00    2.10
   3   5  10   -0.40    1.50
  -4  -5 -10  134.49    7.50
  -4  -5 -10  145.09    8.40
  -4  -5 -10  132.89    6.90
   4   5  10  135.49    7.20
  -5  -5 -10    5.90    2.00
  -5  -5 -10   12.30    3.20
  -5  -5 -10   10.90    3.50
  -5  -5 -10    7.20    2.40
   5   5  10    5.50    1.70
   5   5  10    7.50    2.40
  -6  -5 -10   94.29    5.80
  -6  -5 -10   94.29    5.40
  -6  -5 -10   89.69    7.00
  -6  -5 -10   84.89    6.50
   6   5  10   87.09    5.80
   6   5  10   88.79    5.30
  -7  -5 -10   23.10    4.50
  -7  -5 -10   30.80    4.80
  -7  -5 -10   24.10    3.50
   7   5  10   23.20    3.60
   7   5  10   19.60    3.70
  -8  -5 -10    2.50    3.10
  -8  -5 -10    1.90    2.80
   8   5  10    0.80    1.80
   8   5  10    0.40    2.60
   5  -6 -10   -1.50    2.00
   5  -6 -10   -1.20    2.20
  -5   6  10    2.10    2.60
  -5   6  10   -3.30    2.40
   4  -6 -10    2.10    2.30
   4  -6 -10    2.60    2.20
  -4   6  10    5.40    3.50
  -4   6  10    4.30    2.80
   3  -6 -10   57.69    4.60
   3  -6 -10   69.79    7.40
  -3   6  10   73.49    5.30
  -3   6  10   68.99    8.00
   2  -6 -10   62.79    4.00
   2  -6 -10   72.89    9.60
  -2   6  10   70.89    4.40
  -2   6  10   52.39    8.30
   1  -6 -10   69.79    7.40
   1  -6 -10   65.59    7.40
  -1   6  10   97.39   12.10
  -1   6  10   62.59    7.30
   0  -6 -10  219.38   10.10
   0  -6 -10  220.98   10.40
   0   6  10  231.58   10.20
   0   6  10  224.08   10.70
  -1  -6 -10   48.90    5.70
  -1  -6 -10   72.89    7.50
   1   6  10   56.29    6.30
   1   6  10   44.70    5.20
  -2  -6 -10   26.30    4.20
  -2  -6 -10   28.60    4.60
  -2  -6 -10   38.10    5.70
   2   6  10   30.20    4.70
  -3  -6 -10  204.58   10.30
  -3  -6 -10  204.98    9.60
  -3  -6 -10  193.18    8.60
   3   6  10  199.88    9.00
  -4  -6 -10  284.07   10.40
  -4  -6 -10  288.47   12.50
  -4  -6 -10  307.67   12.00
   4   6  10  315.77   11.10
  -5  -6 -10    6.50    3.20
  -5  -6 -10    3.30    1.80
  -5  -6 -10    4.30    1.70
  -5  -6 -10    4.70    2.40
   5   6  10   -0.30    1.80
  -6  -6 -10   49.10    3.90
  -6  -6 -10   55.19    4.70
   6   6  10   53.09    4.40
   6   6  10   53.09    4.10
  -7  -6 -10   52.49    3.90
  -7  -6 -10   62.19    6.90
  -7  -6 -10   64.39    5.80
   7   6  10   41.50    4.40
   7   6  10   56.39    5.10
   5  -7 -10    5.30    3.20
  -5   7  10    6.80    3.50
  -5   7  10    5.60    4.00
   4  -7 -10    5.60    2.60
   4  -7 -10    6.70    3.10
  -4   7  10   10.50    3.40
  -4   7  10   10.60    4.10
   3  -7 -10   13.50    3.70
   3  -7 -10   20.10    3.40
  -3   7  10   16.50    4.40
  -3   7  10   31.60    4.40
   2  -7 -10   20.20    3.40
   2  -7 -10   18.40    4.00
  -2   7  10   19.80    3.00
  -2   7  10   24.80    5.10
   1  -7 -10  220.98   12.30
  -1   7  10  184.68   10.50
   0  -7 -10  435.26   15.50
   0  -7 -10  423.16   14.90
   0   7  10  429.66   15.50
  -1  -7 -10   61.39    5.40
  -1  -7 -10   71.49    6.00
   1   7  10   66.69    5.80
  -2  -7 -10   26.40    4.70
  -2  -7 -10   18.60    4.30
  -2  -7 -10   22.30    3.80
   2   7  10   25.30    4.10
  -3  -7 -10   71.19    5.30
  -3  -7 -10   74.09    6.10
  -3  -7 -10   79.99    9.90
   3   7  10   68.69    5.40
  -4  -7 -10  146.99    8.50
  -4  -7 -10  152.28    7.20
   4   7  10  152.88    7.50
  -5  -7 -10    4.50    2.00
  -5  -7 -10    9.50    3.80
   5   7  10    8.60    2.50
  -6  -7 -10    4.10    2.20
  -6  -7 -10    4.00    2.60
  -6  -7 -10    7.80    2.00
   6   7  10    7.00    2.00
  -7  -7 -10   34.20    5.40
  -7  -7 -10   34.20    4.90
  -7  -7 -10   33.40    4.10
   7   7  10   34.20    3.50
   7   7  10   31.40    4.30
   4  -8 -10   18.70    4.30
  -4   8  10    9.40    4.20
  -4   8  10   10.10    3.50
   3  -8 -10  159.78    9.30
   3  -8 -10  145.29    7.60
  -3   8  10  154.58   10.70
  -3   8  10  150.48    7.80
   2  -8 -10    2.30    2.20
   2  -8 -10    2.10    1.70
  -2   8  10   -0.20    1.60
  -2   8  10    2.90    2.40
   1  -8 -10   21.00    4.20
  -1   8  10   25.70    5.80
   0  -8 -10    0.30    2.00
   0  -8 -10    1.90    2.20
   0   8  10   -1.50    1.70
   1   8  10   33.00    5.10
  -2  -8 -10   10.20    2.90
   2   8  10   18.10    3.80
  -3  -8 -10  256.77   10.00
  -3  -8 -10  279.47   13.70
   3   8  10  250.67   10.20
  -4  -8 -10    1.50    2.10
  -4  -8 -10    0.30    1.60
   4   8  10    2.00    1.80
  -5  -8 -10    8.40    2.20
  -5  -8 -10    5.80    3.00
   5   8  10   10.50    2.70
  -6  -8 -10   49.70    6.70
  -6  -8 -10   57.99    4.70
  -6  -8 -10   52.29    3.50
   6   8  10   56.59    3.90
   6   8  10   57.29    4.20
  -7  -8 -10   -0.50    2.10
  -7  -8 -10    1.90    3.00
   7   8  10    1.20    1.80
   4  -9 -10    5.90    3.10
   4  -9 -10    5.40    3.10
  -4   9  10    9.50    4.10
  -4   9  10    0.40    2.30
   3  -9 -10   20.70    4.30
   3  -9 -10   30.80    4.50
  -3   9  10   30.30    4.50
  -3   9  10   28.30    5.70
   2  -9 -10   14.00    2.80
   2  -9 -10   18.90    4.20
  -2   9  10   19.10    3.30
  -2   9  10   13.70    4.50
   1  -9 -10   39.90    5.50
  -1   9  10   38.20    6.00
   0  -9 -10   -3.10    1.40
   0  -9 -10   -0.10    1.90
   0   9  10    4.30    2.80
  -1  -9 -10    1.30    2.00
  -1  -9 -10    1.30    2.10
   1   9  10    0.40    2.00
  -2  -9 -10    5.90    2.80
  -2  -9 -10   11.10    3.00
   2   9  10   14.30    3.40
  -3  -9 -10   40.50    5.90
  -3  -9 -10   34.30    4.50
   3   9  10   37.10    4.60
  -4  -9 -10    3.40    2.90
  -4  -9 -10   -0.10    1.30
   4   9  10    0.60    1.80
  -5  -9 -10   60.29    7.10
  -5  -9 -10   52.69    3.90
   5   9  10   71.89    4.80
  -6  -9 -10    5.80    1.50
  -6  -9 -10    5.40    2.40
  -6  -9 -10   11.10    4.10
   6   9  10    7.70    1.90
   6   9  10    7.40    2.20
  -7  -9 -10    3.20    2.70
  -7  -9 -10    5.70    2.70
   7   9  10    0.90    2.00
   3 -10 -10    1.50    2.50
   3 -10 -10   -1.90    2.20
  -3  10  10   -1.50    2.20
  -3  10  10    2.20    2.30
   2 -10 -10   35.70    5.40
   2 -10 -10   49.20    5.30
  -2  10  10   40.00    6.40
   1 -10 -10    5.90    3.00
   1 -10 -10    6.50    1.90
   1 -10 -10   11.50    3.50
  -1  10  10    7.50    3.40
   0 -10 -10   14.50    3.80
   0  10  10   12.70    4.20
  -1 -10 -10    7.40    3.00
  -1 -10 -10   13.70    3.80
   1  10  10   10.90    3.40
  -2 -10 -10  133.49    7.80
  -2 -10 -10  131.49    8.50
   2  10  10  137.39    7.90
  -3 -10 -10    3.10    2.30
  -3 -10 -10    3.60    2.60
   3  10  10    4.90    2.30
  -4 -10 -10   40.30    4.40
  -4 -10 -10   32.60    5.10
   4  10  10   39.20    4.50
  -5 -10 -10   16.10    4.50
   5  10  10   16.20    2.70
  -6 -10 -10    9.20    3.50
  -6 -10 -10    3.80    2.30
   6  10  10    5.90    2.20
   2 -11 -10   15.70    3.70
   2 -11 -10   23.60    4.70
  -2  11  10   13.30    4.40
   1 -11 -10    3.60    2.30
   1 -11 -10    8.00    2.20
   1 -11 -10    8.10    3.60
  -1  11  10   14.40    4.30
   0 -11 -10   -2.60    1.90
   0  11  10   -1.20    2.10
  -1 -11 -10   19.00    4.40
  -1 -11 -10   24.20    4.60
   1  11  10   25.30    4.60
  -2 -11 -10   28.60    5.50
  -2 -11 -10   31.00    5.10
   2  11  10   37.80    5.20
  -3 -11 -10   16.40    3.40
  -3 -11 -10   17.20    4.40
   3  11  10   18.00    3.70
  -4 -11 -10   86.39    7.60
  -4 -11 -10   72.69    5.00
   4  11  10   93.19    5.70
  -5 -11 -10   10.90    4.20
  -5 -11 -10    5.70    2.80
  -5 -11 -10    3.60    1.50
   5  11  10    8.10    2.10
  -6 -11 -10   10.30    4.40
  -6 -11 -10   14.70    3.40
   6  11  10   13.20    2.80
   1 -12 -10   12.10    3.20
   1 -12 -10   10.80    2.60
   1 -12 -10   12.90    3.80
  -1  12  10   17.90    4.90
   0 -12 -10   22.30    3.30
   0 -12 -10   23.70    4.90
   0  12  10   20.20    4.70
  -1 -12 -10   14.80    3.80
   1  12  10   10.10    4.00
  -2 -12 -10   34.60    5.20
  -2 -12 -10   41.10    5.90
   2  12  10   52.19    6.30
  -3 -12 -10   39.70    6.10
  -3 -12 -10   42.90    5.20
  -4 -12 -10    6.60    3.60
  -4 -12 -10    3.40    2.00
   4  12  10    2.10    2.20
  -5 -12 -10   45.70    3.30
  -5 -12 -10   50.39    7.60
  -5 -12 -10   39.00    4.50
  -5 -12 -10   47.60    4.80
   0 -13 -10    4.90    3.10
  -1 -13 -10   90.39    7.90
  -1 -13 -10   83.59    6.30
  -1 -13 -10   76.49    5.40
   1  13  10   89.99    7.70
  -2 -13 -10    1.00    2.40
  -2 -13 -10    0.70    2.50
   2  13  10    1.60    2.70
  -3 -13 -10    1.10    2.20
  -3 -13 -10    1.30    2.60
   3  13  10    1.20    2.30
   1   8 -11    3.90    3.10
  -1  -8  11    1.00    2.80
  -1  -8  11    5.80    3.60
   0  -8  11   14.50    4.20
   0  -8  11   19.80    5.20
  -1   8 -11  151.88    8.10
   1  -8  11  154.18    9.90
   1  -8  11  136.89   10.30
   1  -8  11  135.79    7.60
   2   7 -11    7.00    3.50
  -2  -7  11   11.30    3.80
  -2  -7  11    8.20    3.90
   1   7 -11   13.60    3.80
  -1  -7  11   19.20    4.50
  -1  -7  11   11.20    3.90
   0   7 -11   92.69    6.80
   0  -7  11  113.99    8.20
   0  -7  11   92.59   10.20
  -1   7 -11   86.49    6.20
   1  -7  11   86.09    6.10
   1  -7  11   85.29    7.20
   1  -7  11   81.69    9.30
  -2   7 -11   16.40    3.30
   2  -7  11   11.20    3.90
   2  -7  11   19.00    4.30
   2  -7  11   19.00    3.40
  -3   7 -11    2.70    2.60
   3  -7  11    2.80    2.90
   3  -7  11   -0.10    2.60
   3  -7  11    5.40    1.90
   3   6 -11    8.10    3.50
  -3  -6  11    5.20    3.10
  -3  -6  11    8.70    3.30
   2   6 -11  171.78    9.80
  -2  -6  11  159.68    9.90
  -2  -6  11  174.48   11.10
   1   6 -11    0.80    2.10
  -1  -6  11    0.90    2.40
  -1  -6  11    2.40    2.50
   0   6 -11   17.00    3.60
   0  -6  11   12.80    3.40
   0  -6  11   19.20    4.40
   0  -6  11   19.40    4.80
  -1   6 -11   89.29    6.10
   1  -6  11   76.69    9.00
   1  -6  11   81.99    6.70
  -2   6 -11   -1.40    1.90
   2  -6  11   -0.70    2.20
   2  -6  11   -0.70    1.60
   2  -6  11   -1.70    1.90
  -3   6 -11   -0.60    1.80
   3  -6  11   -0.70    2.00
   3  -6  11    0.40    2.10
   3  -6  11   -0.70    1.40
   4  -6  11   33.50    6.10
   4  -6  11   35.40    5.50
   4   5 -11   -0.40    2.40
  -4  -5  11    1.10    2.60
  -4  -5  11    2.30    2.70
   3   5 -11   23.40    5.20
  -3  -5  11   22.60    5.00
  -3  -5  11   27.40    6.00
   2   5 -11   -1.70    1.90
  -2  -5  11   -4.10    1.60
   1   5 -11   -5.90    2.50
  -1  -5  11   -0.80    1.90
  -1  -5  11    1.90    3.70
  -1  -5  11   -1.60    1.80
   0   5 -11  139.19    7.90
   0  -5  11  127.79    7.50
   0  -5  11  149.29    9.90
   0  -5  11  148.19    8.50
   0  -5  11  138.19    9.10
  -1   5 -11   19.10    3.60
   1  -5  11   14.90    4.30
   1  -5  11   15.50    3.70
   1  -5  11    7.70    3.50
   1  -5  11   15.30    3.60
  -2   5 -11    1.10    1.70
   2  -5  11    1.00    2.10
   2  -5  11    3.50    3.10
   2  -5  11    1.10    1.70
   2  -5  11    0.80    2.50
  -3   5 -11   27.80    3.50
   3  -5  11   28.80    5.90
   3  -5  11   28.90    3.60
   3  -5  11   18.70    4.50
   4  -5  11   15.30    4.40
   4  -5  11   13.80    3.70
   5  -5  11    0.70    2.60
   5  -5  11    4.60    3.20
   4   4 -11   53.29    7.40
  -4  -4  11   47.80    7.20
  -4  -4  11   52.89    7.20
   3   4 -11   38.50    5.90
  -3  -4  11   49.10    7.20
   2   4 -11    1.30    2.00
   2   4 -11   -2.90    1.90
  -2  -4  11    3.40    2.50
  -2  -4  11    0.80    2.30
   1   4 -11   62.19    6.60
  -1  -4  11   71.79    6.00
  -1  -4  11   69.69    8.00
  -1  -4  11   81.49    8.20
   0   4 -11    8.60    3.00
   0  -4  11   11.30    4.00
   0  -4  11    4.20    2.80
   0  -4  11   12.80    3.30
   0  -4  11    6.20    2.50
  -1   4 -11    2.60    2.10
   1  -4  11    5.40    4.70
   1  -4  11    2.30    2.10
   1  -4  11    4.80    2.40
   1  -4  11    5.90    3.10
  -2   4 -11   23.00    3.40
   2  -4  11   29.10    5.10
   2  -4  11   24.90    3.50
   2  -4  11   27.50    4.90
   2  -4  11   34.10    4.90
  -3   4 -11   48.30    4.10
   3  -4  11   45.70    5.60
   3  -4  11   48.10    4.00
   3  -4  11   41.50    6.70
   3  -4  11   35.80    5.40
  -4   4 -11    8.60    2.40
   4  -4  11    2.30    2.40
   4  -4  11    9.40    3.10
   5  -4  11   54.79    7.90
   5   3 -11    5.40    3.40
  -5  -3  11    7.50    3.90
  -5  -3  11   12.90    4.40
   4   3 -11   27.40    5.10
  -4  -3  11   25.20    5.50
  -4  -3  11   36.30    5.80
   3   3 -11   17.60    4.20
   3   3 -11   19.20    4.00
  -3  -3  11   26.60    4.70
  -3  -3  11   19.90    5.00
   2   3 -11   59.29    6.60
   2   3 -11   53.49    6.00
  -2  -3  11   39.20    6.30
  -2  -3  11   54.19    6.10
   1   3 -11   95.99    6.80
  -1  -3  11  100.09    8.00
  -1  -3  11   93.79    6.40
   0   3 -11   59.19    6.40
   0  -3  11   55.69    5.80
   0  -3  11   54.59    4.90
   0  -3  11   62.69    7.50
   0  -3  11   59.79    6.50
  -1   3 -11   98.49    6.20
   1  -3  11   83.29    7.30
   1  -3  11   88.89    5.90
   1  -3  11   86.69    6.50
   1  -3  11   97.49    6.10
  -2   3 -11   47.60    4.80
   2  -3  11   52.69    5.60
   2  -3  11   42.40    4.60
   2  -3  11   51.49    6.90
   2  -3  11   47.80    5.90
  -3   3 -11  128.09    6.30
   3  -3  11  129.59    8.90
   3  -3  11  114.29    7.00
   3  -3  11  123.49    6.20
   3  -3  11  125.99    7.90
  -4   3 -11    1.90    1.70
   4  -3  11   -0.20    2.30
   4  -3  11    5.50    3.20
   4  -3  11   -0.60    2.00
  -5   3 -11   44.10    4.80
  -5   3 -11   40.40    3.20
   5  -3  11   34.40    5.90
  -6   3 -11   27.70    5.70
   6  -3  11   26.90    5.50
   5   2 -11   27.10    5.20
  -5  -2  11   34.60    6.20
  -5  -2  11   37.80    6.40
   4   2 -11   49.40    6.80
  -4  -2  11   51.49    7.50
  -4  -2  11   52.89    6.60
   3   2 -11    4.20    2.80
   3   2 -11    2.20    2.20
  -3  -2  11    1.30    2.20
  -3  -2  11    1.10    2.30
   2   2 -11   90.29    7.00
   2   2 -11   94.89    6.10
  -2  -2  11   99.09    6.60
  -2  -2  11   92.09    7.70
   1   2 -11  128.19    7.70
  -1  -2  11  118.69    6.70
  -1  -2  11  104.29    7.70
  -1  -2  11  100.39    7.90
   0   2 -11   35.10    4.80
   0  -2  11   35.80    5.00
   0  -2  11   39.20    5.10
   0  -2  11   33.30    4.20
   0  -2  11   32.60    5.90
  -1   2 -11    4.40    2.30
   1  -2  11    6.10    2.20
   1  -2  11    6.90    2.80
   1  -2  11    0.90    1.70
   1  -2  11    5.10    4.70
  -2   2 -11   83.39    5.50
   2  -2  11   74.29    5.70
   2  -2  11   85.09    7.50
   2  -2  11   71.09    5.10
   2  -2  11   83.09    5.40
  -3   2 -11  266.77    9.60
   3  -2  11  274.57    9.80
   3  -2  11  267.37   12.70
   3  -2  11  280.17   10.30
   3  -2  11  286.77   11.30
  -4   2 -11   62.49    4.40
   4  -2  11   61.89    5.20
   4  -2  11   56.29    6.20
   4  -2  11   59.79    7.30
  -5   2 -11    1.00    1.80
  -5   2 -11    1.10    1.90
   5  -2  11    1.50    2.80
   5  -2  11   -0.30    2.10
  -6   2 -11   32.70    8.00
   6  -2  11   46.00    6.50
   5   1 -11  108.19    8.50
  -5  -1  11  104.69    8.20
  -5  -1  11  105.79    8.80
   4   1 -11   77.69    6.10
   4   1 -11   85.69    7.30
  -4  -1  11   90.89    8.00
  -4  -1  11   77.99    7.90
   3   1 -11    5.10    2.30
   3   1 -11    1.30    2.30
  -3  -1  11    2.20    2.30
  -3  -1  11    6.50    2.80
   2   1 -11   36.90    5.10
   2   1 -11   52.39    4.40
  -2  -1  11   50.39    5.30
  -2  -1  11   51.49    7.00
   1   1 -11   85.89    6.40
  -1  -1  11   93.49    5.70
  -1  -1  11  109.59   14.90
  -1  -1  11   81.19    6.20
   0   1 -11   20.80    3.70
   0  -1  11   24.00    4.20
   0  -1  11   19.70    3.20
   0  -1  11   15.30    4.20
   0  -1  11   21.50    3.40
  -1   1 -11    6.20    2.40
   1  -1  11    9.00    2.70
   1  -1  11    5.80    2.70
   1  -1  11    7.20    2.10
   1  -1  11    6.40    2.40
  -2   1 -11  183.58    8.20
   2  -1  11  168.78    9.70
   2  -1  11  173.08    7.90
   2  -1  11  177.18    7.70
   2  -1  11  170.88    7.10
  -3   1 -11    1.60    1.90
   3  -1  11    3.10    2.50
   3  -1  11   -0.20    1.50
   3  -1  11   -1.90    1.60
   3  -1  11    0.10    1.70
  -4   1 -11   12.00    3.00
  -4   1 -11   10.60    2.30
   4  -1  11   15.80    3.60
   4  -1  11   14.30    3.20
   4  -1  11    7.70    3.20
  -5   1 -11   10.60    3.40
  -5   1 -11   11.30    2.90
  -5   1 -11    6.70    2.00
   5  -1  11    9.10    3.20
   5  -1  11    6.30    3.20
  -6   1 -11    4.30    2.10
  -6   1 -11   -2.90    2.00
  -6   1 -11    4.20    1.80
   6  -1  11    3.70    2.60
   6  -1  11    0.70    2.70
   5   0 -11   34.00    5.80
  -5   0  11   38.70    7.20
  -5   0  11   36.20    6.00
   4   0 -11    1.70    1.90
   4   0 -11    3.10    2.70
  -4   0  11    3.10    2.70
  -4   0  11    1.60    2.40
   3   0 -11    7.40    3.00
   3   0 -11   12.60    2.80
  -3   0  11   13.90    4.50
  -3   0  11   10.50    3.30
   2   0 -11  214.78   10.70
   2   0 -11  225.78    8.80
  -2   0  11  242.38   12.10
  -2   0  11  222.08    9.10
   1   0 -11   -1.00    1.20
   1   0 -11    0.80    1.90
  -1   0  11    0.00    1.50
  -1   0  11    0.00    1.90
  -1   0  11    0.20    1.70
   0   0 -11   -1.30    1.70
   0   0 -11   -2.40    1.20
   0   0  11   -1.10    1.30
   0   0  11    0.50    1.80
   0   0  11    0.10    1.90
   0   0  11    0.20    1.80
  -1   0 -11  225.98   10.70
  -1   0 -11  230.58    9.70
   1   0  11  232.28    7.70
   1   0  11  229.18    8.10
   1   0  11  224.58   11.10
   1   0  11  209.48   10.60
  -2   0 -11   46.20    5.10
  -2   0 -11   30.80    4.90
   2   0  11   47.00    6.20
   2   0  11   36.00    3.20
   2   0  11   48.40    5.20
  -3   0 -11  105.49    7.20
  -3   0 -11  112.59    6.30
   3   0  11  112.69    7.80
   3   0  11  114.29    6.40
   3   0  11  102.89    5.80
  -4   0 -11   84.69    5.30
  -4   0 -11   76.09    5.70
   4   0  11   74.99    6.60
   4   0  11   72.99    5.40
  -5   0 -11    4.70    2.70
  -5   0 -11    5.90    2.10
  -5   0 -11    1.50    2.10
   5   0  11    4.70    2.50
  -6   0 -11    6.90    2.70
  -6   0 -11   14.30    4.00
  -6   0 -11    8.80    2.30
   6   0  11   11.70    3.80
   6   0  11   11.70    3.90
  -7   0 -11   47.30    4.10
  -7   0 -11   50.79    4.50
   7   0  11   50.79    6.90
   5  -1 -11   16.50    4.20
  -5   1  11   25.30    6.00
  -5   1  11   13.30    4.10
   4  -1 -11   36.70    6.20
   4  -1 -11   24.10    4.80
  -4   1  11   27.20    4.70
  -4   1  11   26.10    5.90
   3  -1 -11  124.59    8.30
   3  -1 -11  126.99    6.70
  -3   1  11  122.99    7.10
  -3   1  11  135.39    9.30
   2  -1 -11   28.00    4.90
   2  -1 -11   18.70    3.00
  -2   1  11   25.00    3.70
  -2   1  11   27.10    5.60
   1  -1 -11   23.10    4.20
  -1   1  11   23.80    4.80
  -1   1  11   25.80    4.40
  -1   1  11   26.10    3.20
   0  -1 -11   89.99    6.30
   0  -1 -11   88.19    6.70
   0   1  11   80.09    6.70
   0   1  11   88.49    4.30
   0   1  11   79.49    5.90
   0   1  11   82.49    4.50
  -1  -1 -11  157.08    7.90
  -1  -1 -11  149.09    8.50
   1   1  11  155.68    5.40
   1   1  11  153.68    9.80
   1   1  11  147.69    8.80
   1   1  11  145.99    5.60
  -2  -1 -11   49.90    5.30
  -2  -1 -11   54.29    6.40
   2   1  11   48.10    3.40
   2   1  11   45.20    3.00
   2   1  11   52.09    5.50
   2   1  11   55.09    6.50
  -3  -1 -11  101.49    6.10
  -3  -1 -11   82.99    6.30
   3   1  11   95.59    5.90
   3   1  11   86.39    4.30
   3   1  11   96.09    7.00
   3   1  11   89.29    4.90
  -4  -1 -11   94.39    5.80
  -4  -1 -11   81.59    6.20
  -4  -1 -11   89.49    6.20
   4   1  11   83.59    5.30
   4   1  11   88.99    6.90
  -5  -1 -11   84.39    5.40
  -5  -1 -11   70.69    6.00
  -5  -1 -11   68.29    5.40
  -5  -1 -11   75.29    5.80
   5   1  11   74.99    6.60
   5   1  11   80.39    5.70
  -6  -1 -11    2.10    2.30
  -6  -1 -11    0.10    2.10
  -6  -1 -11    0.10    1.80
   6   1  11    0.20    2.40
   6   1  11    1.80    2.30
  -7  -1 -11   43.20    4.50
  -7  -1 -11   40.80    5.90
  -7  -1 -11   46.30    5.10
   7   1  11   62.99    7.30
   7   1  11   37.70    5.70
   5  -2 -11   53.49    7.40
  -5   2  11   52.39    7.70
  -5   2  11   54.69    6.90
   4  -2 -11   17.80    3.40
   4  -2 -11   34.40    5.70
  -4   2  11   27.90    6.20
  -4   2  11   29.10    4.90
   3  -2 -11  133.79    8.60
   3  -2 -11  142.09    6.90
  -3   2  11  147.09    7.50
  -3   2  11  141.59    9.60
   2  -2 -11   17.90    2.80
   2  -2 -11   18.00    3.90
  -2   2  11   27.00    5.50
   1  -2 -11    1.10    1.90
   1  -2 -11    0.00    1.00
  -1   2  11    1.10    1.40
  -1   2  11   -1.30    1.60
  -1   2  11   -1.20    1.70
   0  -2 -11  115.99    7.10
   0  -2 -11  110.89    7.50
   0   2  11   99.09    6.60
   0   2  11  108.19    7.80
  -1  -2 -11   61.69    6.80
  -1  -2 -11   52.89    5.70
   1   2  11   66.89    6.70
   1   2  11   61.19    7.10
  -2  -2 -11   62.29    5.60
  -2  -2 -11   63.69    5.20
   2   2  11   81.59    8.60
   2   2  11   54.79    6.60
  -3  -2 -11   50.39    5.70
  -3  -2 -11   58.09    5.80
   3   2  11   45.00    5.90
  -4  -2 -11    6.50    2.60
  -4  -2 -11   13.40    3.40
  -4  -2 -11    2.70    2.00
   4   2  11    6.80    2.00
   4   2  11    3.10    2.20
  -5  -2 -11  260.27   10.80
  -5  -2 -11  246.88    9.30
  -5  -2 -11  258.77    9.90
  -5  -2 -11  232.48   10.40
   5   2  11  250.17   11.20
   5   2  11  248.58    9.20
  -6  -2 -11   20.30    3.60
  -6  -2 -11   18.80    3.70
  -6  -2 -11   30.00    4.80
  -6  -2 -11   22.90    4.10
   6   2  11   19.70    3.80
   6   2  11   25.20    4.60
  -7  -2 -11   35.20    4.30
  -7  -2 -11   49.80    6.70
  -7  -2 -11   45.10    5.90
   7   2  11   36.30    5.40
   7   2  11   42.40    5.90
   5  -3 -11    2.20    2.40
   5  -3 -11    8.50    3.60
  -5   3  11    6.20    3.20
  -5   3  11    0.30    2.70
   4  -3 -11   43.10    6.20
   4  -3 -11   35.00    4.70
  -4   3  11   42.40    5.70
  -4   3  11   48.20    7.20
   3  -3 -11   14.30    2.80
   3  -3 -11   10.70    3.40
  -3   3  11   16.50    4.40
  -3   3  11   13.60    3.10
   2  -3 -11   13.80    3.60
  -2   3  11   15.70    3.90
  -2   3  11   20.10    3.10
   1  -3 -11  131.69    7.90
  -1   3  11  137.29    8.80
   0  -3 -11    5.50    2.60
   0  -3 -11    7.00    2.70
   0   3  11    4.00    2.40
   0   3  11    3.30    2.10
  -1  -3 -11  109.29    7.30
  -1  -3 -11  126.39    7.30
   1   3  11  118.69    7.00
   1   3  11  126.39    8.10
  -2  -3 -11   62.19    5.50
  -2  -3 -11   68.69    5.40
   2   3  11   63.99    5.70
   2   3  11   67.09    6.50
  -3  -3 -11    2.10    1.90
   3   3  11   -0.50    1.70
  -4  -3 -11  119.59    8.90
  -4  -3 -11  110.09    6.60
   4   3  11  111.69    7.30
  -5  -3 -11    4.40    2.30
  -5  -3 -11    0.20    1.80
  -5  -3 -11   -0.90    1.70
  -5  -3 -11   -0.20    2.10
   5   3  11   -0.80    1.70
   5   3  11    2.00    1.90
  -6  -3 -11    0.50    2.10
  -6  -3 -11    1.80    1.90
  -6  -3 -11    0.90    2.30
  -6  -3 -11    0.00    2.00
   6   3  11    2.70    2.30
   6   3  11   -0.50    1.90
  -7  -3 -11   22.10    3.90
  -7  -3 -11   21.30    3.90
  -7  -3 -11   24.10    4.40
  -7  -3 -11   19.40    4.30
   7   3  11   25.30    4.40
   7   3  11   29.80    4.80
   5  -4 -11    8.10    3.40
   5  -4 -11    3.20    2.60
  -5   4  11    6.40    3.70
  -5   4  11    8.40    3.60
   4  -4 -11  104.79    8.00
   4  -4 -11   83.59    6.00
  -4   4  11   95.19    8.60
  -4   4  11   92.99    6.60
   3  -4 -11   26.20    4.70
   3  -4 -11   26.30    3.60
  -3   4  11   28.30    4.10
  -3   4  11   23.10    5.20
   2  -4 -11   20.30    2.70
   2  -4 -11   29.00    4.90
  -2   4  11   22.00    3.10
  -2   4  11   26.90    5.30
   1  -4 -11   -0.70    1.90
  -1   4  11    2.30    2.30
   0  -4 -11  131.79    8.20
   0  -4 -11  129.79    7.80
   0   4  11  124.09    7.50
   0   4  11  135.39    8.50
  -1  -4 -11   -0.40    1.70
  -1  -4 -11   -1.40    1.40
   1   4  11    0.30    1.80
   1   4  11    4.60    2.20
  -2  -4 -11    0.40    1.80
   2   4  11    0.80    1.60
   2   4  11   -2.60    1.50
  -3  -4 -11  115.69    7.70
  -3  -4 -11  133.29    7.50
  -3  -4 -11  131.29    7.40
   3   4  11  133.99    7.70
  -4  -4 -11    9.70    3.00
  -4  -4 -11    7.70    3.10
  -4  -4 -11    6.80    2.50
   4   4  11   10.10    3.10
  -5  -4 -11   13.60    3.20
  -5  -4 -11   14.90    2.70
  -5  -4 -11   16.30    3.50
  -5  -4 -11   13.90    3.90
   5   4  11   12.80    2.20
   5   4  11   17.80    3.80
  -6  -4 -11   73.59    7.60
  -6  -4 -11   60.19    5.00
  -6  -4 -11   62.69    5.50
  -6  -4 -11   61.69    5.00
   6   4  11   62.89    5.40
   6   4  11   62.99    4.70
  -7  -4 -11    2.10    2.30
  -7  -4 -11    1.60    2.40
   7   4  11    2.70    2.10
   7   4  11    3.00    2.40
   5  -5 -11   -0.40    2.30
   5  -5 -11    1.30    2.40
  -5   5  11   -0.90    3.00
  -5   5  11   -0.80    2.40
   4  -5 -11   95.19    7.80
   4  -5 -11   82.19    6.00
  -4   5  11  102.59    9.10
  -4   5  11   95.19    6.90
   3  -5 -11    6.30    2.90
   3  -5 -11    7.10    2.20
  -3   5  11   12.70    3.20
  -3   5  11    9.50    3.90
   2  -5 -11   12.00    3.40
   2  -5 -11    6.40    1.80
  -2   5  11    8.20    2.30
  -2   5  11    8.40    3.60
   1  -5 -11  170.18    9.30
  -1   5  11  157.58   10.80
   0  -5 -11    1.80    1.80
   0  -5 -11    1.60    2.00
   0   5  11    5.90    2.80
  -1  -5 -11   63.09    6.80
  -1  -5 -11   49.20    5.70
   1   5  11   59.29    6.90
   1   5  11   57.99    6.20
  -2  -5 -11   64.69    5.50
   2   5  11   83.49    6.30
  -3  -5 -11   45.70    5.40
  -3  -5 -11   48.70    6.20
  -3  -5 -11   47.70    5.60
   3   5  11   48.80    6.00
  -4  -5 -11   28.30    4.60
  -4  -5 -11   30.90    5.20
  -4  -5 -11   31.70    4.50
   4   5  11   32.70    4.90
  -5  -5 -11   42.30    5.50
  -5  -5 -11   31.90    6.90
  -5  -5 -11   33.30    4.60
   5   5  11   38.40    4.90
  -6  -5 -11   26.50    3.90
  -6  -5 -11   22.30    4.90
  -6  -5 -11   28.30    4.00
   6   5  11   20.80    3.00
   6   5  11   22.10    3.80
  -7  -5 -11    2.90    2.00
  -7  -5 -11    5.90    2.90
  -7  -5 -11   -0.10    2.20
   7   5  11    0.90    2.10
   7   5  11    1.50    2.10
   4  -6 -11   19.00    3.80
   4  -6 -11   20.60    4.80
  -4   6  11   16.80    3.80
  -4   6  11   14.50    4.40
   3  -6 -11    4.30    2.10
   3  -6 -11   -2.70    1.70
  -3   6  11   -2.80    1.90
  -3   6  11   -0.40    1.70
   2  -6 -11   12.20    2.20
   2  -6 -11   17.60    3.90
  -2   6  11   12.50    4.00
  -2   6  11   11.10    2.40
   1  -6 -11   29.40    4.80
  -1   6  11   37.20    7.90
   0  -6 -11    2.30    2.10
   0  -6 -11    4.00    2.80
   0   6  11    6.90    3.10
  -1  -6 -11    1.20    1.90
  -1  -6 -11   -0.10    1.50
   1   6  11    0.30    1.70
  -2  -6 -11   89.29    6.60
  -2  -6 -11  108.29   13.20
   2   6  11   78.79    6.40
  -3  -6 -11   -2.60    1.60
  -3  -6 -11    1.40    1.80
   3   6  11    0.60    1.70
  -4  -6 -11   41.30    5.50
  -4  -6 -11   43.60    5.00
   4   6  11   45.90    5.60
  -5  -6 -11  152.68   10.10
  -5  -6 -11  136.59    7.10
   5   6  11  140.69    7.60
  -6  -6 -11   82.49    6.80
  -6  -6 -11   75.79    5.00
  -6  -6 -11   68.19    7.00
   6   6  11   72.79    4.70
   6   6  11   80.49    5.70
  -7  -6 -11   -0.70    1.90
  -7  -6 -11    1.80    1.80
  -7  -6 -11   -2.60    2.20
   7   6  11    2.70    2.10
   7   6  11   -1.10    1.70
   4  -7 -11    4.40    3.20
   4  -7 -11    2.50    2.60
  -4   7  11    7.70    3.90
  -4   7  11   10.80    3.40
   3  -7 -11    8.00    2.30
   3  -7 -11    9.70    3.40
  -3   7  11    9.20    4.10
  -3   7  11   12.60    3.20
   2  -7 -11   82.49    4.50
   2  -7 -11   93.99    7.20
  -2   7  11   78.59    4.70
  -2   7  11   92.99    8.20
   1  -7 -11   61.69    7.00
  -1   7  11   60.79    7.60
   0  -7 -11   42.00    5.70
   0   7  11   44.10    6.30
  -1  -7 -11  122.69    7.80
  -1  -7 -11  131.69    8.00
   1   7  11  134.59    8.40
  -2  -7 -11  208.78   10.40
   2   7  11  211.28   10.10
  -3  -7 -11   61.49    5.20
  -3  -7 -11   59.09    6.30
   3   7  11   59.29    6.40
  -4  -7 -11    6.40    2.50
  -4  -7 -11   11.80    3.50
   4   7  11    8.60    3.00
  -5  -7 -11  103.79    6.00
  -5  -7 -11  112.99    7.70
   5   7  11  102.19    6.40
  -6  -7 -11    2.50    1.60
  -6  -7 -11    0.30    2.50
  -6  -7 -11    1.20    1.70
   6   7  11    2.60    2.00
  -7  -7 -11    0.80    1.60
  -7  -7 -11    2.80    3.10
  -7  -7 -11    0.00    2.10
   7   7  11   -0.80    1.60
   7   7  11    1.20    2.00
   4  -8 -11    3.20    3.00
  -4   8  11    5.70    3.20
  -4   8  11    8.40    4.30
   3  -8 -11  105.29    8.00
   3  -8 -11  114.39    6.50
  -3   8  11  119.29    6.90
  -3   8  11  113.29    9.50
   2  -8 -11   15.30    3.90
   2  -8 -11   11.20    2.60
  -2   8  11   13.70    4.40
  -2   8  11   13.50    2.60
   1  -8 -11   85.19    7.00
  -1   8  11   69.79    8.20
   0  -8 -11   15.90    4.10
   0   8  11    9.50    3.70
  -1  -8 -11   54.69    6.90
  -1  -8 -11   52.19    6.30
   1   8  11   53.69    6.80
  -2  -8 -11   81.49    6.70
  -2  -8 -11   74.59    8.20
   2   8  11   74.59    6.30
  -3  -8 -11   10.40    3.60
  -3  -8 -11    3.50    2.10
   3   8  11    9.40    2.90
  -4  -8 -11   62.69    7.00
  -4  -8 -11   67.49    5.20
   4   8  11   57.49    5.20
  -5  -8 -11   74.79    8.30
  -5  -8 -11   56.09    4.50
   5   8  11   63.89    5.10
  -6  -8 -11    0.20    2.30
  -6  -8 -11    1.60    1.40
   6   8  11   -1.90    1.40
   3  -9 -11    0.60    2.10
   3  -9 -11    0.70    2.50
  -3   9  11    2.30    2.40
  -3   9  11    3.00    3.50
   2  -9 -11    0.90    1.70
   2  -9 -11    1.80    2.50
  -2   9  11   -2.30    2.20
  -2   9  11    0.70    1.60
   1  -9 -11   32.90    5.20
  -1   9  11   32.80    5.80
   0  -9 -11    3.70    2.80
   0   9  11    0.10    2.50
  -1  -9 -11  260.67   12.10
  -1  -9 -11  248.68   11.70
   1   9  11  247.38   11.70
  -2  -9 -11    8.50    2.90
  -2  -9 -11    5.80    3.10
   2   9  11   16.90    4.10
  -3  -9 -11    2.70    2.10
  -3  -9 -11   -0.90    2.00
   3   9  11    2.10    2.10
  -4  -9 -11  121.09    6.80
  -4  -9 -11  125.79    8.60
   4   9  11  128.69    7.30
  -5  -9 -11    6.10    3.10
  -5  -9 -11    6.50    2.20
   5   9  11    2.40    2.00
  -6  -9 -11   -0.70    2.70
  -6  -9 -11    1.10    1.40
   6   9  11    2.30    1.90
   2 -10 -11   -0.20    2.20
   2 -10 -11    0.20    1.80
  -2  10  11   -0.10    2.50
   1 -10 -11   45.80    6.40
  -1  10  11   38.40    6.60
   0 -10 -11   30.80    5.30
   0  10  11   42.30    6.30
  -1 -10 -11   11.70    3.60
   1  10  11    7.40    3.20
  -2 -10 -11   75.99    6.30
  -2 -10 -11   72.49    7.60
   2  10  11   83.09    6.80
  -3 -10 -11   85.69    7.30
  -3 -10 -11   78.89    6.10
   3  10  11   85.59    6.40
  -4 -10 -11   10.60    2.90
  -4 -10 -11   16.30    4.50
   4  10  11   12.10    3.20
  -5 -10 -11   -0.60    2.20
  -5 -10 -11    0.40    1.50
   5  10  11    0.70    1.80
  -6 -10 -11    3.60    3.30
  -6 -10 -11    2.40    1.40
   6  10  11    3.80    1.70
   1 -11 -11    7.80    3.60
  -1  11  11    5.20    3.50
   0 -11 -11   17.90    4.20
   0  11  11   18.60    4.70
  -1 -11 -11   31.50    5.30
   1  11  11   39.40    7.10
  -2 -11 -11   16.30    3.90
  -2 -11 -11   19.10    4.80
   2  11  11   20.60    4.20
  -3 -11 -11   25.80    7.10
  -3 -11 -11   20.30    4.40
   3  11  11   18.80    4.00
  -4 -11 -11   13.30    4.30
  -4 -11 -11   10.70    2.80
   4  11  11   10.10    2.90
  -5 -11 -11    1.80    1.70
  -5 -11 -11    2.00    2.80
   5  11  11    8.50    2.40
   0 -12 -11   56.29    7.40
   0  12  11   58.99    7.70
  -1 -12 -11    2.30    2.70
   1  12  11    6.70    3.60
  -2 -12 -11   32.70    6.00
   2  12  11   25.30    4.50
  -3 -12 -11   53.79    6.20
  -3 -12 -11   53.69    7.20
   3  12  11   66.39    6.00
  -4 -12 -11   -0.10    1.90
  -4 -12 -11    0.80    2.50
   4  12  11   -0.40    2.10
   2   6 -12    8.90    3.70
  -2  -6  12   11.40    3.80
  -2  -6  12   10.40    4.60
   1   6 -12   30.50    5.20
  -1  -6  12   29.00    6.10
  -1  -6  12   24.80    5.30
   0   6 -12   68.89    6.90
   0  -6  12   67.09    7.50
   0  -6  12   56.39    7.60
  -1   6 -12   31.00    4.80
   1  -6  12   28.10    4.50
   1  -6  12   28.50    5.20
   1  -6  12   32.20    6.20
  -2   6 -12   52.49    5.40
   2  -6  12   45.20    6.20
   2  -6  12   39.20    5.50
   2  -6  12   54.69    8.30
   3   5 -12    0.20    2.70
  -3  -5  12    2.10    3.10
  -3  -5  12   -3.90    1.90
   2   5 -12    7.90    3.50
  -2  -5  12    4.40    3.00
  -2  -5  12   10.90    4.00
   1   5 -12  118.29    8.10
  -1  -5  12  130.59    8.90
  -1  -5  12  130.69    9.70
   0   5 -12   -2.00    3.60
   0  -5  12    1.90    2.60
   0  -5  12   -0.90    2.00
  -1   5 -12   19.80    3.80
   1  -5  12   20.70    3.90
   1  -5  12   16.80    4.50
   1  -5  12   22.90    4.20
  -2   5 -12   99.49    6.30
   2  -5  12   92.29    6.80
   2  -5  12  107.29    9.00
  -3   5 -12   -0.10    1.80
   3  -5  12    0.50    2.20
   3  -5  12    0.80    1.90
   3  -5  12    0.60    1.80
   3   4 -12    9.70    3.80
  -3  -4  12    3.30    2.90
  -3  -4  12    9.40    3.50
   2   4 -12   81.69    8.50
  -2  -4  12   78.99    8.00
  -2  -4  12   72.79    8.70
   1   4 -12   32.20    5.20
  -1  -4  12   39.40    5.70
  -1  -4  12   23.20    5.00
  -1  -4  12   29.60    6.10
   0   4 -12    2.60    2.50
   0  -4  12    1.90    2.80
   0  -4  12    0.70    2.40
   0  -4  12   -0.50    2.10
  -1   4 -12  170.58    8.60
   1  -4  12  166.18    8.80
   1  -4  12  163.68    8.40
   1  -4  12  178.08   10.00
   1  -4  12  157.68   10.40
  -2   4 -12    8.60    2.70
   2  -4  12    4.20    2.90
   2  -4  12    4.20    2.50
   2  -4  12    5.60    2.70
   2  -4  12    7.20    3.40
  -3   4 -12   12.10    2.80
   3  -4  12   14.50    3.60
   3  -4  12   14.10    2.90
   3  -4  12   13.10    3.90
   3  -4  12   12.60    4.10
  -4   4 -12   28.50    3.60
   4  -4  12   33.40    6.80
   4  -4  12   32.20    5.90
   4   3 -12    0.90    2.90
  -4  -3  12    0.00    2.30
  -4  -3  12    0.40    2.40
   3   3 -12   15.20    4.20
  -3  -3  12   22.90    5.20
  -3  -3  12   26.80    5.50
   2   3 -12   52.79    6.80
   2   3 -12   55.79    6.40
  -2  -3  12   51.09    6.10
  -2  -3  12   61.69    8.70
   1   3 -12   18.60    4.10
  -1  -3  12   17.50    4.60
  -1  -3  12   15.70    4.70
  -1  -3  12   16.60    3.70
   0   3 -12   75.09    7.30
   0  -3  12   63.59    7.10
   0  -3  12   63.29    8.10
   0  -3  12   65.39    6.50
  -1   3 -12   68.39    5.60
   1  -3  12   59.49    6.50
   1  -3  12   61.39    5.30
   1  -3  12   64.09    8.20
   1  -3  12   63.09    5.30
  -2   3 -12   30.20    4.20
   2  -3  12   32.70    5.10
   2  -3  12   33.90    4.60
   2  -3  12   31.30    5.80
  -3   3 -12    2.50    1.90
   3  -3  12    4.80    2.10
   3  -3  12    0.50    1.80
   3  -3  12    2.60    2.70
   3  -3  12   -2.50    1.70
  -4   3 -12    5.20    2.10
   4  -3  12    7.80    3.60
   4  -3  12   13.00    3.80
   4  -3  12    8.70    3.00
  -5   3 -12    9.60    2.70
   5  -3  12   13.50    4.60
   4   2 -12   13.30    4.50
  -4  -2  12   10.20    3.80
  -4  -2  12    5.60    3.50
   3   2 -12   70.39    5.90
   3   2 -12   75.99    8.50
  -3  -2  12   71.09    8.80
  -3  -2  12   82.29    6.70
   2   2 -12   89.99    7.30
  -2  -2  12  113.19    7.10
  -2  -2  12  105.89    8.60
   1   2 -12    1.60    2.20
  -1  -2  12    3.90    2.70
  -1  -2  12    7.60    2.50
  -1  -2  12    0.40    2.40
   0   2 -12   94.59    6.70
   0  -2  12   96.19    6.60
   0  -2  12   92.19    7.90
   0  -2  12   97.69    6.10
  -1   2 -12   89.99    6.20
   1  -2  12   87.19    5.70
   1  -2  12   79.39    6.10
   1  -2  12   81.39    6.00
   1  -2  12   94.69    7.80
  -2   2 -12    1.10    1.70
   2  -2  12   -1.10    1.40
   2  -2  12    0.10    2.00
   2  -2  12    0.00    1.80
  -3   2 -12   18.60    3.20
   3  -2  12   11.30    2.90
   3  -2  12   13.40    3.10
   3  -2  12   12.30    3.90
   3  -2  12   17.20    3.90
  -4   2 -12   31.60    3.90
   4  -2  12   31.40    6.20
   4  -2  12   33.30    4.60
   4  -2  12   37.10    6.20
  -5   2 -12    5.10    2.50
  -5   2 -12    8.70    2.30
   5  -2  12    7.60    3.50
   5  -2  12    3.90    3.10
   5  -2  12    7.30    2.90
   4   1 -12    6.00    3.20
  -4  -1  12    4.40    3.30
  -4  -1  12    8.60    3.60
   3   1 -12  134.39    8.90
   3   1 -12  125.39    7.40
  -3  -1  12  127.99    9.60
  -3  -1  12  126.69    7.90
   2   1 -12  172.28    8.20
   2   1 -12  192.28   10.20
  -2  -1  12  181.28   11.20
  -2  -1  12  187.48    8.90
   1   1 -12    1.30    1.90
  -1  -1  12    5.00    2.20
  -1  -1  12    1.30    2.20
   0   1 -12   97.79    6.90
   0  -1  12  104.69    6.30
   0  -1  12  102.39    5.80
   0  -1  12  103.99    8.20
  -1   1 -12   87.29    6.30
   1  -1  12  101.59    7.90
   1  -1  12   87.59    5.30
   1  -1  12   87.39    6.10
   1  -1  12   85.39    5.70
  -2   1 -12   67.39    5.40
   2  -1  12   63.49    5.10
   2  -1  12   67.29    7.80
   2  -1  12   68.09    5.40
   2  -1  12   67.89    4.70
  -3   1 -12    2.90    2.20
   3  -1  12    2.20    2.50
   3  -1  12    3.60    2.00
   3  -1  12    3.50    2.20
   3  -1  12    3.30    2.30
  -4   1 -12   58.89    4.70
   4  -1  12   63.69    5.00
   4  -1  12   62.99    7.80
   4  -1  12   57.79    6.00
  -5   1 -12    3.00    2.30
  -5   1 -12    0.50    1.60
   5  -1  12    2.20    2.30
  -6   1 -12    8.30    2.70
  -6   1 -12    7.50    2.30
  -6   1 -12    8.30    3.50
   6  -1  12   10.60    4.00
   6  -1  12   12.00    3.90
   4   0 -12   -0.90    2.00
   4   0 -12   -0.70    1.70
  -4   0  12   -1.60    2.00
  -4   0  12   -0.70    2.10
   3   0 -12  120.99    8.40
   3   0 -12  104.09    6.40
  -3   0  12   87.99    6.60
  -3   0  12   96.99    8.40
   2   0 -12    0.70    1.40
   2   0 -12   -0.50    2.00
  -2   0  12    0.50    2.10
  -2   0  12    2.10    1.80
   1   0 -12   -0.30    1.80
  -1   0  12    0.60    2.30
  -1   0  12    0.60    1.60
   0   0 -12  360.76   13.50
   0   0  12  353.56   15.00
   0   0  12  372.46   11.90
   0   0  12  350.06   11.20
  -1   0 -12   52.59    5.90
   1   0  12   49.30    6.80
   1   0  12   49.40    5.60
   1   0  12   58.49    6.20
   1   0  12   43.20    3.60
  -2   0 -12   -1.60    1.30
   2   0  12   -1.40    1.50
   2   0  12   -0.50    1.20
   2   0  12    4.20    2.50
   2   0  12    0.10    2.20
  -3   0 -12   59.89    5.00
   3   0  12   51.69    4.50
   3   0  12   49.40    6.50
   3   0  12   62.59    4.80
   3   0  12   56.49    6.40
  -4   0 -12    5.30    2.40
  -4   0 -12    5.80    2.40
   4   0  12    3.20    2.50
   4   0  12    4.60    2.00
   4   0  12    6.30    2.50
  -5   0 -12    2.00    2.40
  -5   0 -12    1.60    1.70
   5   0  12   -0.80    2.20
   5   0  12    0.90    2.40
  -6   0 -12   75.59    5.10
  -6   0 -12   68.89    5.70
  -6   0 -12   77.59    6.60
   6   0  12   64.49    6.90
   6   0  12   68.29    7.80
   4  -1 -12   43.10    5.70
   4  -1 -12   59.09    7.30
  -4   1  12   56.09    7.80
  -4   1  12   64.69    7.10
   3  -1 -12    9.30    3.30
   3  -1 -12   16.00    3.20
  -3   1  12   18.10    4.70
  -3   1  12   13.80    3.40
   2  -1 -12   17.10    3.90
   2  -1 -12   15.10    2.90
  -2   1  12   13.50    4.50
  -2   1  12   15.80    3.20
   1  -1 -12  272.27   11.90
  -1   1  12  273.87   13.40
  -1   1  12  266.67    9.10
   0  -1 -12    2.30    2.20
   0   1  12    1.70    2.20
   0   1  12    1.00    1.70
   0   1  12    1.40    1.50
  -1  -1 -12   74.59    5.80
   1   1  12  100.39   12.70
   1   1  12   61.79    5.40
  -2  -1 -12   60.39    5.20
   2   1  12   61.09    5.20
  -3  -1 -12   54.29    5.60
   3   1  12   56.59    3.60
   3   1  12   55.19    5.80
   3   1  12   52.59    4.00
  -4  -1 -12  105.49    6.40
   4   1  12   98.59    5.70
   4   1  12  111.09   12.50
  -5  -1 -12   12.20    3.50
  -5  -1 -12   14.20    3.10
   5   1  12   19.60    4.40
   5   1  12   10.40    2.90
  -6  -1 -12   70.39    6.70
  -6  -1 -12   53.09    5.20
  -6  -1 -12   68.29    6.00
   6   1  12   58.79    7.20
   6   1  12   44.00    5.40
   4  -2 -12   18.10    4.50
   4  -2 -12    9.60    3.40
  -4   2  12    9.20    3.90
  -4   2  12   12.90    3.40
   3  -2 -12   32.80    4.20
   3  -2 -12   40.60    6.30
  -3   2  12   33.20    6.00
  -3   2  12   41.60    4.90
   2  -2 -12  139.39    6.20
   2  -2 -12  122.19    8.30
  -2   2  12  130.99    6.60
  -2   2  12  134.69    9.50
   1  -2 -12  308.27   12.80
  -1   2  12  305.47   14.00
  -1   2  12  283.57    8.90
   0  -2 -12   59.29    9.80
   0   2  12   48.50    6.90
  -1  -2 -12   67.79    5.60
   1   2  12   65.79    5.70
   1   2  12   70.49    8.30
  -2  -2 -12   -0.50    1.80
   2   2  12    2.30    2.10
   2   2  12   -0.50    1.90
  -3  -2 -12  184.68    8.90
   3   2  12  188.88    9.00
   3   2  12  221.48   11.00
  -4  -2 -12    9.00    3.10
  -4  -2 -12    5.40    2.40
   4   2  12   15.70    3.80
   4   2  12    9.70    1.90
   4   2  12    7.60    2.00
  -5  -2 -12   16.00    3.40
  -5  -2 -12   20.80    4.30
   5   2  12   10.10    2.50
   5   2  12   19.70    4.60
  -6  -2 -12   63.79    6.70
  -6  -2 -12   74.19    5.70
  -6  -2 -12   71.89    5.60
   6   2  12   70.99    7.90
   6   2  12   60.99    5.40
   4  -3 -12   62.09    5.30
   4  -3 -12   77.89    8.80
  -4   3  12   63.39    9.00
  -4   3  12   71.79    6.10
   3  -3 -12   13.40    2.90
   3  -3 -12   13.50    3.80
  -3   3  12   16.40    3.50
  -3   3  12   17.90    4.40
   2  -3 -12   90.89    7.30
   2  -3 -12   77.29    4.50
  -2   3  12   74.59    4.80
  -2   3  12   87.39    7.70
   1  -3 -12  149.79    8.90
  -1   3  12  164.68   10.10
   0  -3 -12    3.20    2.60
   0   3  12    6.70    3.50
  -1  -3 -12    6.50    2.60
   1   3  12   -0.20    1.60
  -2  -3 -12   49.00    6.30
  -2  -3 -12   48.40    5.70
   2   3  12   54.19    6.70
   2   3  12   54.19    6.00
  -3  -3 -12  216.58    9.80
  -3  -3 -12  198.08   10.00
   3   3  12  205.58   10.40
  -4  -3 -12    3.30    2.20
  -4  -3 -12    0.70    1.60
  -4  -3 -12    2.60    2.40
   4   3  12   -0.40    1.90
  -5  -3 -12   35.60    4.70
  -5  -3 -12   47.30    6.20
  -5  -3 -12   37.40    5.50
   5   3  12   32.60    4.50
   5   3  12   28.80    4.80
  -6  -3 -12   44.00    6.00
  -6  -3 -12   38.30    5.00
  -6  -3 -12   37.80    4.70
   6   3  12   28.20    3.80
   6   3  12   44.90    6.00
  -7  -3 -12    1.80    3.40
  -7  -3 -12    4.70    2.70
  -7  -3 -12   -0.50    2.10
   7   3  12    0.10    2.30
   4  -4 -12   70.99    8.10
   4  -4 -12   64.59    5.40
  -4   4  12   83.09    6.30
  -4   4  12   64.19    8.50
   3  -4 -12    1.00    1.50
   3  -4 -12    1.20    2.20
  -3   4  12    1.30    2.80
  -3   4  12   -0.50    1.80
   2  -4 -12   83.59    4.40
   2  -4 -12   92.79    7.30
  -2   4  12   86.99    4.90
  -2   4  12   98.39   10.60
   1  -4 -12   43.00    6.00
  -1   4  12   48.50    7.00
   0  -4 -12   40.20    5.50
   0   4  12   39.90    6.80
   1   4  12   87.39    7.10
  -2  -4 -12   90.89    6.90
  -2  -4 -12   79.69    6.20
   2   4  12   79.69    6.90
  -3  -4 -12    5.10    2.50
  -3  -4 -12    4.10    2.40
   3   4  12    5.20    2.50
  -4  -4 -12   -1.00    1.90
  -4  -4 -12    1.10    1.60
   4   4  12    4.40    2.50
  -5  -4 -12   83.09    6.20
  -5  -4 -12  103.59    7.00
   5   4  12   98.89    7.10
  -6  -4 -12    6.40    3.20
  -6  -4 -12    3.30    2.10
  -6  -4 -12    1.90    1.90
   6   4  12    1.70    2.20
   6   4  12    2.00    2.00
  -7  -4 -12    8.40    3.00
  -7  -4 -12    8.00    3.00
  -7  -4 -12    7.80    2.90
   7   4  12   12.40    3.20
   7   4  12   11.80    3.40
   4  -5 -12    7.00    2.70
   4  -5 -12    7.30    3.30
  -4   5  12   17.60    3.90
  -4   5  12   12.80    4.50
   3  -5 -12    5.00    3.10
   3  -5 -12    4.10    1.90
  -3   5  12    4.20    2.40
  -3   5  12    2.80    2.90
   2  -5 -12  130.69    8.70
  -2   5  12  128.49    9.40
   1  -5 -12   70.89    7.90
  -1   5  12   62.79    7.90
   0  -5 -12    1.40    2.10
   0   5  12   -2.00    1.50
  -1  -5 -12   28.50    4.70
   1   5  12   38.80    6.10
  -2  -5 -12   24.70    5.30
  -2  -5 -12   20.90    4.20
   2   5  12   20.70    4.30
  -3  -5 -12    2.50    2.20
   3   5  12    3.80    2.60
  -4  -5 -12   34.80    5.00
   4   5  12   37.70    5.40
  -5  -5 -12   33.50    5.20
  -5  -5 -12   24.70    4.30
   5   5  12   28.30    4.50
  -6  -5 -12    3.60    1.90
  -6  -5 -12    0.80    2.10
  -6  -5 -12    0.80    1.80
   6   5  12    0.70    2.00
   4  -6 -12    2.00    2.10
   4  -6 -12    1.10    2.50
  -4   6  12   -2.60    2.50
  -4   6  12    2.20    2.40
   3  -6 -12  147.09    6.90
   3  -6 -12  167.58   10.20
  -3   6  12  169.68    7.70
  -3   6  12  161.18   11.20
   2  -6 -12   -1.50    1.60
  -2   6  12    2.90    3.30
   1  -6 -12    7.60    3.20
  -1   6  12    4.90    3.00
   0  -6 -12   39.30    5.80
   0   6  12   38.40    6.10
  -1  -6 -12   13.40    3.70
   1   6  12   16.60    4.00
  -2  -6 -12   30.20    4.70
  -2  -6 -12   29.00    5.00
   2   6  12   38.50    5.90
  -3  -6 -12   55.29    6.30
  -3  -6 -12   60.39    6.90
   3   6  12   60.99    6.70
  -4  -6 -12  108.39    7.10
  -4  -6 -12  130.79    8.30
   4   6  12  119.69    7.60
  -5  -6 -12   21.00    4.70
  -5  -6 -12   31.20    5.00
   5   6  12   32.90    4.90
  -6  -6 -12   28.40    4.10
  -6  -6 -12   37.60    5.70
   6   6  12   31.00    4.70
   3  -7 -12   48.10    4.20
   3  -7 -12   45.40    6.50
  -3   7  12   62.79    5.00
  -3   7  12   50.09    7.80
   2  -7 -12    4.10    2.40
  -2   7  12    3.50    3.00
   1  -7 -12   42.10    5.80
  -1   7  12   29.10    5.50
   0  -7 -12   30.20    4.90
   0   7  12   31.00    5.70
  -1  -7 -12   73.69    6.50
   1   7  12   79.49    6.90
  -2  -7 -12    4.30    2.60
  -2  -7 -12    7.00    2.80
   2   7  12   11.10    3.40
  -3  -7 -12   62.69    7.00
  -3  -7 -12   92.59    9.30
   3   7  12   58.29    6.70
  -4  -7 -12  146.69    9.00
   4   7  12  138.99    8.10
  -5  -7 -12   24.80    4.80
  -5  -7 -12   18.50    3.70
   5   7  12   21.40    4.00
  -6  -7 -12   10.50    2.60
  -6  -7 -12   13.00    4.10
   6   7  12    9.90    3.00
   3  -8 -12   14.10    3.00
   3  -8 -12   11.10    3.70
  -3   8  12   17.40    3.60
  -3   8  12    9.60    3.90
   2  -8 -12    8.20    3.30
  -2   8  12    6.80    3.90
   1  -8 -12   17.10    3.90
  -1   8  12   22.20    5.20
   0  -8 -12   49.90    6.30
   0   8  12   63.49    7.70
  -1  -8 -12  129.99    8.70
  -2  -8 -12    7.20    3.00
  -2  -8 -12    4.80    2.70
   2   8  12    3.50    2.40
  -3  -8 -12   39.30    6.30
  -3  -8 -12   18.30    4.00
   3   8  12   23.30    4.40
  -4  -8 -12   40.00    5.70
  -4  -8 -12   40.80    5.80
   4   8  12   38.50    5.20
  -5  -8 -12    1.10    2.40
  -5  -8 -12    1.70    1.90
   5   8  12    1.20    2.10
  -6  -8 -12    8.80    2.50
  -6  -8 -12    7.70    3.40
   6   8  12   10.50    2.90
   2  -9 -12    5.70    3.10
  -2   9  12    8.60    4.00
   1  -9 -12    0.10    2.00
  -1   9  12   -1.80    2.40
   0  -9 -12    2.30    2.80
   0   9  12    7.50    3.80
  -1  -9 -12   21.90    5.00
   1   9  12   22.10    4.40
  -2  -9 -12    8.70    3.20
  -2  -9 -12   12.50    4.20
   2   9  12   24.60    5.00
  -3  -9 -12   34.40    5.90
  -3  -9 -12   30.50    4.90
   3   9  12   27.70    4.90
  -4  -9 -12    5.60    3.00
  -4  -9 -12    4.50    2.20
   4   9  12    2.30    2.40
  -5  -9 -12    3.80    2.60
  -5  -9 -12    3.40    2.10
   5   9  12    1.00    2.20
   1 -10 -12   12.80    3.70
  -1  10  12    6.10    3.70
   0 -10 -12    9.20    3.40
   0  10  12    5.70    3.50
  -1 -10 -12   -1.00    2.10
   1  10  12    0.30    2.50
  -2 -10 -12   53.39    7.50
   2  10  12   36.90    5.80
  -3 -10 -12    1.20    2.30
  -3 -10 -12    0.90    2.10
   3  10  12    3.00    2.60
  -4 -10 -12   10.20    3.00
  -4 -10 -12    4.30    2.60
   4  10  12   10.70    3.20
  -5 -10 -12   96.69    8.30
  -5 -10 -12   79.29    5.50
   5  10  12   94.49    6.30
   0 -11 -12   16.60    4.30
   0  11  12   19.80    5.00
  -1 -11 -12   47.50    6.50
   1  11  12   58.69    7.50
  -2 -11 -12   15.60    4.30
  -3 -11 -12   57.79    7.60
  -3 -11 -12   49.60    6.10
   3  11  12   48.60    6.10
  -4 -11 -12    0.30    2.50
  -4 -11 -12    2.20    2.20
   4  11  12    1.50    2.50
   0   5 -13   37.30    5.50
   0  -5  13   46.00    6.20
   0  -5  13   42.00    7.40
  -1   5 -13  114.79    9.00
   1  -5  13  111.39    9.50
   1  -5  13  111.69    7.80
   2   4 -13    2.40    2.90
  -2  -4  13    4.30    2.70
  -2  -4  13    4.30    3.60
   1   4 -13    0.60    2.40
  -1  -4  13    0.00    2.30
  -1  -4  13    0.90    2.50
   0   4 -13   96.69    7.30
   0  -4  13  137.49   14.10
   0  -4  13  111.69    7.50
   0  -4  13   94.99   10.20
   1  -4  13    1.00    2.90
   1  -4  13   -0.70    1.90
   1  -4  13    3.60    2.90
  -2   4 -13   -2.10    1.80
   2  -4  13    0.00    2.00
   2  -4  13    0.10    2.40
   2  -4  13   -3.40    1.60
  -3   4 -13   89.69    6.00
   3  -4  13  101.09   10.90
   3  -4  13   72.79    9.10
   2   3 -13   23.50    5.00
  -2  -3  13   14.20    4.10
  -2  -3  13   30.90    6.20
   1   3 -13   79.69    6.90
  -1  -3  13   88.39    7.30
  -1  -3  13   94.99    6.80
  -1  -3  13   96.09   10.30
   0   3 -13   27.80    4.70
   0  -3  13   29.30    6.10
   0  -3  13   32.20    4.90
   0  -3  13   29.70    5.20
   1  -3  13   59.79    5.40
   1  -3  13   45.70    7.10
   1  -3  13   67.29    8.00
  -2   3 -13   59.89    6.10
   2  -3  13   69.29    5.70
   2  -3  13   53.19    5.70
   2  -3  13   52.79    6.70
   2  -3  13   60.89    8.20
  -3   3 -13   25.60    4.00
   3  -3  13   33.30    6.40
   3  -3  13   19.90    4.30
   3  -3  13   33.30    4.80
  -4   3 -13   47.50    4.90
   4  -3  13   52.59    6.00
   4  -3  13   42.10    6.60
   3   2 -13   50.19    6.70
  -3  -2  13   54.79    8.00
  -3  -2  13   57.99    6.80
   2   2 -13    6.20    3.00
  -2  -2  13    9.60    3.20
  -2  -2  13   12.00    4.40
   1   2 -13   25.00    4.90
  -1  -2  13   36.30    6.50
  -1  -2  13   26.60    4.70
  -1  -2  13   33.70    4.60
   0   2 -13   99.69    7.20
   0  -2  13   95.69    8.50
   0  -2  13   81.99    6.50
   0  -2  13  100.19    6.30
   1  -2  13   -0.10    2.20
   1  -2  13    2.50    2.10
   1  -2  13    2.20    2.70
  -2   2 -13   36.90    4.90
   2  -2  13   19.30    4.10
   2  -2  13   29.90    4.20
   2  -2  13   38.60    6.40
   2  -2  13   38.80    5.10
  -3   2 -13   26.90    3.90
   3  -2  13   18.20    4.00
   3  -2  13   24.70    4.00
   3  -2  13   21.70    3.90
   3  -2  13   28.60    5.80
  -4   2 -13    0.90    1.90
   4  -2  13    3.80    3.10
   4  -2  13    4.50    2.40
   4  -2  13    3.20    2.80
   3   1 -13    6.80    2.90
   3   1 -13    4.00    3.00
  -3  -1  13    2.40    2.70
  -3  -1  13    7.00    3.80
   2   1 -13   -2.40    1.70
   2   1 -13    0.10    1.70
  -2  -1  13   -1.20    2.10
  -2  -1  13    0.00    2.10
   1   1 -13   49.99    6.80
  -1  -1  13   46.50    5.10
  -1  -1  13   47.80    7.70
  -1  -1  13   52.59    5.90
   0   1 -13   23.40    4.50
   0  -1  13   23.60    5.60
   0  -1  13   24.30    3.70
   0  -1  13   16.00    3.50
   1  -1  13   55.29    7.50
   1  -1  13   61.29    4.60
   1  -1  13   56.99    5.00
  -2   1 -13   35.30    4.80
   2  -1  13   46.40    4.60
   2  -1  13   37.10    5.10
   2  -1  13   38.40    4.80
   2  -1  13   35.10    6.30
  -3   1 -13    4.60    2.40
   3  -1  13    7.20    2.80
   3  -1  13    6.60    3.70
   3  -1  13   -0.60    1.50
   3  -1  13    2.90    2.50
  -4   1 -13   -2.10    1.50
   4  -1  13   -1.00    1.70
   4  -1  13   -0.40    2.40
   4  -1  13   -1.00    2.20
  -5   1 -13   16.60    3.80
  -5   1 -13   25.30    3.80
   5  -1  13   25.90    4.20
   5  -1  13   34.20    6.20
   5  -1  13   17.80    4.40
   3   0 -13    3.20    2.70
  -3   0  13    1.30    2.20
  -3   0  13   -2.20    2.00
   2   0 -13   68.39    5.00
   2   0 -13   93.39    9.50
  -2   0  13   79.49    9.40
  -2   0  13   77.49    5.70
   1   0 -13   83.19    7.00
  -1   0  13   78.69    5.60
  -1   0  13   92.59    5.60
  -1   0  13   90.49   10.00
   0   0 -13    5.70    2.70
   0   0  13    9.60    3.60
   0   0  13    1.20    1.70
   0   0  13    6.70    2.50
  -1   0 -13   53.69    8.30
   1   0  13   47.00    6.80
   1   0  13   46.30    4.10
   1   0  13   43.50    3.90
  -2   0 -13   67.19    5.80
   2   0  13   70.19    4.90
   2   0  13   81.99    8.90
   2   0  13   74.59    5.30
  -3   0 -13   -1.00    1.60
   3   0  13    0.40    1.80
   3   0  13   -0.90    1.90
   3   0  13    2.40    1.60
   3   0  13    1.00    1.90
  -4   0 -13    3.60    2.70
  -4   0 -13    0.70    1.90
   4   0  13    1.40    1.80
   4   0  13    5.80    2.60
   4   0  13    3.90    3.00
  -5   0 -13   29.80    5.80
  -5   0 -13   20.90    3.60
   5   0  13   18.70    4.10
   5   0  13   28.10    5.50
   5   0  13   27.60    4.10
   3  -1 -13    1.80    2.70
   3  -1 -13    5.30    2.50
  -3   1  13    7.60    3.90
  -3   1  13    3.30    2.50
   2  -1 -13  143.89    6.80
   2  -1 -13  156.28    9.60
  -2   1  13  138.99   10.10
  -2   1  13  145.09    7.30
   1  -1 -13   23.80    4.70
  -1   1  13   20.40    3.30
  -1   1  13   22.60    5.30
   0  -1 -13    7.40    3.40
   0   1  13    1.80    2.50
   0   1  13    5.60    1.90
   0   1  13    3.50    1.70
  -1  -1 -13  162.28    9.00
   1   1  13  157.48   10.10
  -2  -1 -13   -0.30    1.60
   2   1  13    0.30    2.30
  -3  -1 -13    9.40    3.00
   3   1  13   12.30    4.00
   3   1  13   11.90    2.20
   3   1  13   12.20    3.20
  -4  -1 -13  127.09    8.10
  -4  -1 -13  132.19    7.50
   4   1  13  134.59    9.30
   4   1  13  127.39    6.40
  -5  -1 -13   68.19    7.10
  -5  -1 -13   70.49    5.60
   5   1  13   53.19    7.20
   5   1  13   66.79    4.80
   5   1  13   69.99    5.50
   3  -2 -13   57.09    4.70
   3  -2 -13   82.89    8.90
  -3   2  13   64.89    8.20
  -3   2  13   76.09    5.80
   2  -2 -13   39.40    4.10
   2  -2 -13   33.90    6.10
  -2   2  13   29.40    3.90
  -2   2  13   25.70    5.40
   1  -2 -13   22.70    4.40
  -1   2  13   18.10    5.00
   0  -2 -13   48.20    6.50
   0   2  13   41.90    6.60
  -1  -2 -13   68.49    7.30
   1   2  13   64.99    7.80
   2   2  13  118.99    8.70
  -3  -2 -13    0.80    2.10
   3   2  13   -1.70    1.90
  -4  -2 -13   31.60    6.20
  -4  -2 -13   26.90    4.40
   4   2  13   25.00    5.10
  -5  -2 -13   40.20    5.10
  -5  -2 -13   48.70    6.50
   5   2  13   42.50    4.30
   5   2  13   41.00    6.20
  -6  -2 -13    2.30    2.90
  -6  -2 -13    0.70    2.10
   6   2  13    0.60    2.30
   6   2  13   -1.40    2.00
   3  -3 -13   37.30    6.20
   3  -3 -13   29.30    3.80
  -3   3  13   38.30    7.00
  -3   3  13   37.10    4.80
   2  -3 -13   82.79    8.60
   2  -3 -13   84.59    4.80
  -2   3  13   96.59    8.50
  -2   3  13  102.19    5.40
   1  -3 -13    0.20    2.00
  -1   3  13   -0.10    2.50
   0  -3 -13    8.80    3.10
   0   3  13    6.70    3.50
  -1  -3 -13   36.30    5.30
   1   3  13   49.90    7.30
  -2  -3 -13   10.00    3.20
   2   3  13    3.30    2.90
  -3  -3 -13    2.10    4.00
   3   3  13    0.40    2.40
   4   3  13  105.29    7.90
   5   3  13    1.70    2.20
   6   3  13    5.80    3.10
   6   3  13    3.70    2.20
   3  -4 -13   40.30    6.20
   3  -4 -13   33.00    3.90
  -3   4  13   38.10    4.70
  -3   4  13   32.20    6.50
   2  -4 -13    5.60    3.00
  -2   4  13    3.30    2.60
   1  -4 -13   -0.60    2.00
  -1   4  13    0.00    2.40
   0  -4 -13   44.70    6.00
   0   4  13   66.29    8.30
  -1  -4 -13   18.50    4.00
   1   4  13   32.80    5.80
  -2  -4 -13   11.90    3.50
   2   4  13   13.30    4.10
  -3  -4 -13   54.49    6.40
   3   4  13   52.79    9.20
  -4  -4 -13   46.40    5.80
  -5  -4 -13    3.00    2.20
  -6  -4 -13   24.30    4.70
   6   4  13   13.40    4.50
   3  -5 -13   10.90    3.90
   3  -5 -13   13.10    2.60
  -3   5  13   20.20    5.40
  -3   5  13   27.40    4.00
   2  -5 -13    2.70    2.70
  -2   5  13    2.20    2.50
   1  -5 -13    8.00    3.40
  -1   5  13    1.00    2.70
   0  -5 -13  109.29    7.90
   0   5  13  108.49    8.50
  -1  -5 -13    0.80    1.90
   1   5  13   -0.70    2.20
  -2  -5 -13    3.80    2.20
   2   5  13    1.60    2.40
  -3  -5 -13  152.88    8.90
   3   5  13  166.38   12.50
  -4  -5 -13    3.40    2.50
   4   5  13    2.30    2.40
  -5  -5 -13   -1.20    2.00
   5   5  13    0.40    2.40
  -6  -5 -13   38.20    5.60
   6   5  13   38.80    5.70
   3  -6 -13    1.70    1.70
   3  -6 -13    0.70    2.60
  -3   6  13    0.60    1.90
  -3   6  13   -0.70    2.90
   2  -6 -13   -0.60    2.10
  -2   6  13    1.20    2.40
   1  -6 -13   57.29    7.30
  -1   6  13   74.19    9.00
   0  -6 -13   21.40    4.80
   0   6  13   13.90    4.00
  -1  -6 -13    1.60    2.30
   1   6  13    6.80    3.20
  -2  -6 -13   63.59    7.50
   2   6  13   67.99    7.80
  -3  -6 -13   19.50    4.70
   3   6  13   13.40    3.90
  -4  -6 -13   19.00    4.80
  -4  -6 -13   25.20    5.00
   4   6  13   16.10    4.10
  -5  -6 -13   28.60    5.30
  -5  -6 -13   25.10    4.70
   5   6  13   18.10    4.00
  -6  -6 -13   15.70    4.40
  -6  -6 -13   20.90    3.90
   2  -7 -13   21.00    5.30
  -2   7  13   20.60    5.30
   1  -7 -13   25.50    4.60
  -1   7  13   30.40    6.30
   0  -7 -13   20.10    4.30
   0   7  13   26.10    5.20
  -1  -7 -13   26.10    5.20
   1   7  13   15.10    4.30
  -2  -7 -13   30.70    5.40
   2   7  13   41.60    6.20
  -3  -7 -13   70.79    8.00
   3   7  13   48.50    6.40
  -4  -7 -13   35.70    5.60
  -4  -7 -13   30.70    5.50
   4   7  13   30.00    5.10
  -5  -7 -13    6.00    3.10
  -5  -7 -13    5.10    2.90
   5   7  13    5.00    2.90
   2  -8 -13   12.40    3.80
  -2   8  13    9.30    4.10
   1  -8 -13  109.59    8.50
  -1   8  13   82.69    9.70
   0  -8 -13    1.00    2.30
   0   8  13   -1.60    2.00
  -1  -8 -13   14.50    4.10
   1   8  13   12.10    4.20
  -2  -8 -13   93.69    7.70
   2   8  13   97.29    7.70
  -3  -8 -13   -0.50    2.20
   3   8  13   -3.40    1.80
  -4  -8 -13    0.50    1.90
  -4  -8 -13    6.20    3.20
   4   8  13    4.20    2.50
  -5  -8 -13   62.89    7.60
  -5  -8 -13   57.19    6.30
   5   8  13   71.09    6.10
   1  -9 -13   39.40    6.10
  -1   9  13   35.40    6.70
   0  -9 -13    2.20    2.50
   0   9  13    0.10    2.50
  -1  -9 -13    8.70    3.20
   1   9  13    9.40    3.80
  -2  -9 -13   41.80    6.60
   2   9  13   44.60    6.30
  -3  -9 -13    2.70    2.80
   3   9  13    1.70    2.50
  -4  -9 -13   13.90    4.60
  -4  -9 -13   16.70    4.00
   4   9  13    9.50    3.40
   0 -10 -13    8.50    3.30
   0  10  13   18.40    5.20
  -1 -10 -13   32.30    6.00
   1  10  13   25.30    5.40
  -2 -10 -13    6.50    3.30
   2  10  13   20.60    4.80
  -3 -10 -13    2.70    2.60
   3  10  13   -1.20    2.50
   0   3 -14   40.60    5.90
   0  -3  14   40.30    7.10
   0  -3  14   41.90    5.50
   0  -3  14   29.90    5.50
  -1   3 -14   67.19    7.10
   1  -3  14   69.99    7.70
   1  -3  14   68.89    8.90
   1  -3  14   65.09    5.70
   1   2 -14   45.90    6.40
  -1  -2  14   62.69    6.50
  -1  -2  14   59.59    7.00
  -1  -2  14   68.69    9.50
   0   2 -14   20.40    4.40
   0  -2  14   17.00    3.70
   0  -2  14   17.00    4.20
   0  -2  14   19.70    5.10
  -1   2 -14   61.69    6.70
   1  -2  14   56.79    6.50
   1  -2  14   55.99    8.10
   1  -2  14   58.49    5.10
  -2   2 -14   69.39    7.00
   2  -2  14   51.99    7.70
   2  -2  14   50.49    5.40
   2  -2  14   61.09    6.50
  -3   2 -14   -2.10    1.80
   3  -2  14   -0.80    1.80
   3  -2  14   -0.30    4.90
   3  -2  14   -0.70    2.70
   2   1 -14   56.89    8.00
  -2  -1  14   49.00    8.10
  -2  -1  14   46.00    5.60
   1   1 -14    5.90    3.20
  -1  -1  14    8.00    3.20
  -1  -1  14    1.30    3.00
  -1  -1  14    3.50    2.40
   0   1 -14   -0.40    2.10
   0  -1  14   -1.70    2.00
   0  -1  14   -0.60    1.80
   0  -1  14    0.00    2.40
  -1   1 -14   64.89    6.80
   1  -1  14   53.79    4.60
   1  -1  14   70.09    8.80
   1  -1  14   67.59    5.50
  -2   1 -14   -0.20    1.90
   2  -1  14    2.40    2.00
   2  -1  14    0.20    2.20
   2  -1  14    0.30    2.00
  -3   1 -14   21.60    4.40
   3  -1  14   12.20    3.40
   3  -1  14   10.50    3.90
   3  -1  14   27.30    4.00
   2   0 -14   10.10    3.70
  -2   0  14    6.20    3.60
  -2   0  14    8.50    2.90
   1   0 -14    1.50    2.50
  -1   0  14    4.80    2.50
  -1   0  14    2.10    1.90
  -1   0  14    2.20    2.90
   0   0 -14   62.39    7.00
   0   0  14   58.99    5.60
   0   0  14   63.79    8.80
   0   0  14   60.99    4.50
  -1   0 -14   39.10    5.60
   1   0  14   30.90    6.00
   1   0  14   38.40    4.30
  -2   0 -14    0.90    2.20
   2   0  14    1.90    1.80
   2   0  14   -1.40    2.20
  -3   0 -14    3.10    3.10
   3   0  14    6.50    3.40
   3   0  14    6.90    2.10
   3   0  14   11.50    2.90
  -4   0 -14   50.59    5.80
   4   0  14   48.00    7.50
   4   0  14   39.70    4.80
   4   0  14   48.90    4.20
   2  -1 -14    0.30    2.20
  -2   1  14    0.40    2.70
  -2   1  14   -0.50    1.90
   1  -1 -14   -1.80    2.00
  -1   1  14    4.10    2.50
  -1   1  14    1.00    2.50
  -1   1  14    3.90    2.20
   0  -1 -14   59.39    6.90
   0   1  14   62.59    8.60
  -1  -1 -14    5.90    3.00
   1   1  14    5.90    3.30
  -2  -1 -14   15.70    3.80
   2   1  14   16.20    4.60
  -3  -1 -14   45.80    5.70
   3   1  14   50.19    7.30
   4   1  14   22.00    5.00
   4   1  14   20.90    3.40
   4   1  14   23.00    3.90
   2  -2 -14    4.90    2.80
  -2   2  14    3.00    2.90
  -2   2  14    4.90    2.20
   1  -2 -14   88.29    7.50
  -1   2  14   70.29    8.80
   0  -2 -14   22.00    4.80
   0   2  14   27.10    5.90
  -1  -2 -14   23.10    4.50
   1   2  14   27.90    5.90
  -2  -2 -14   71.49    7.60
   2   2  14   73.39    8.70
  -3  -2 -14   77.59    6.40
   3   2  14   88.29    9.50
  -4  -2 -14   28.60    4.50
   4   2  14   51.29    7.50
  -5  -2 -14   25.00    4.30
   2  -3 -14   14.60    4.10
  -2   3  14    9.30    4.30
   1  -3 -14   35.80    6.20
  -1   3  14   43.80    7.20
   0  -3 -14  201.78   11.00
   0   3  14  202.08   12.10
  -1  -3 -14    2.00    2.30
   1   3  14   -1.00    2.10
  -2  -3 -14   17.10    4.20
   2   3  14   18.90    4.90
  -3  -3 -14   93.19    7.20
   3   3  14   86.29    7.70
  -4  -3 -14    6.50    2.80
   4   3  14    4.70    2.90
  -5  -3 -14   14.00    3.80
   5   3  14   10.50    3.60
   2  -4 -14   -0.90    2.40
  -2   4  14    0.00    2.70
   1  -4 -14   38.70    6.30
  -1   4  14   46.20    7.40
   0  -4 -14    8.20    3.30
   0   4  14   10.50    4.20
  -1  -4 -14    4.40    2.60
   1   4  14    5.00    3.40
  -2  -4 -14   74.49    8.00
   2   4  14   95.79    8.20
  -3  -4 -14   12.80    3.80
   3   4  14    8.20    3.40
  -4  -4 -14    5.30    3.00
   4   4  14    1.60    2.60
  -5  -4 -14   49.60    6.30
   5   4  14   42.30    6.20
   2  -5 -14   17.80    5.00
  -2   5  14    9.40    4.00
   1  -5 -14   30.00    5.50
  -1   5  14   28.10    5.90
   0  -5 -14    6.40    3.10
   0   5  14   11.40    4.30
  -1  -5 -14   50.29    6.40
   1   5  14   61.89    8.30
  -2  -5 -14   12.00    3.50
   2   5  14    6.50    3.40
  -3  -5 -14   14.30    4.00
   3   5  14   25.60    5.50
  -4  -5 -14   25.20    4.80
   4   5  14   23.20    5.20
  -5  -5 -14    7.90    3.20
   5   5  14    4.10    2.80
   1  -6 -14   12.10    4.10
  -1   6  14    1.20    2.70
   0  -6 -14   -2.10    1.60
   0   6  14    0.30    2.90
  -1  -6 -14   64.09    7.70
   1   6  14   81.09    9.50
  -2  -6 -14    9.70    3.50
   2   6  14    4.80    2.70
  -3  -6 -14    2.70    2.80
   3   6  14    4.00    3.00
  -4  -6 -14   75.49    8.10
   4   6  14   80.99    7.20
   1  -7 -14   20.80    4.80
  -1   7  14   20.00    5.70
   0  -7 -14   97.29    8.10
   0   7  14   90.19    8.30
  -1  -7 -14    9.00    3.30
   1   7  14   22.90    5.10
  -2  -7 -14   30.50    5.30
   2   7  14   33.70    5.80
  -3  -7 -14   58.39    7.60
   3   7  14   51.29    6.90
  -4  -7 -14   12.30    3.80
   4   7  14   10.80    3.80
   0  -8 -14   31.30    5.40
   0   8  14   48.90    7.90
  -1  -8 -14  112.59    8.80
   1   8  14  113.69    9.10
  -2  -8 -14   -0.40    2.30
   2   8  14    2.80    2.70
  -3  -8 -14   -2.10    2.00
   3   8  14    0.30    2.30
  -1   0 -15    3.30    2.50
   1   0  15    3.30    2.20
   0  -1 -15    1.50    2.70
   0   1  15    0.60    2.90
  -1  -1 -15   16.30    4.10
   1   1  15   17.60    4.90
  -2  -1 -15   71.89    7.60
   2   1  15   64.09    8.70
   0  -2 -15    0.20    2.40
   0   2  15    0.70    2.80
  -1  -2 -15   54.09    7.40
   1   2  15   48.70    8.00
  -2  -2 -15   34.60    5.80
   2   2  15   42.20    7.40
  -3  -2 -15    4.30    2.60
   3   2  15    0.40    2.50
   0  -3 -15   10.70    3.90
   0   3  15    5.30    3.70
  -1  -3 -15   67.69    8.10
   1   3  15   56.09    8.50
  -2  -3 -15   46.60    6.30
   2   3  15   58.69    8.40
  -3  -3 -15    4.70    2.60
   3   3  15    2.50    2.60
   0  -4 -15    1.30    2.70
   0   4  15    2.50    2.90
  -1  -4 -15   67.59    7.70
   1   4  15   79.19    9.80
  -2  -4 -15    2.60    2.50
   2   4  15    2.30    2.70
  -3  -4 -15    8.00    3.30
   3   4  15    3.90    2.70
  -1  -5 -15   19.80    4.40
   1   5  15   16.30    4.50
  -2  -5 -15   -3.20    1.60
   2   5  15    0.80    2.10
  -2  -6 -15   27.00    5.60
   2   6  15   18.70    5.10
   0   0   0    0.00    0.00

_computing_structure_solution     'SHELXT 2018/2 (Sheldrick, 2018)'
;
_shelx_hkl_checksum   35246

