 
data_pvl264Se_auto_a
 
_audit_creation_method            'SHELXL-2018/3'
_shelx_SHELXL_version_number      '2018/3'
_chemical_name_systematic         ?
_chemical_name_common             ?
_chemical_melting_point           ?
_chemical_formula_moiety          ?
_chemical_formula_sum
 'C3.50 H2 N2 O0.50 Se0.25 Zn0.12' 
_chemical_formula_weight          107.98

loop_
 _atom_type_symbol
 _atom_type_description
 _atom_type_scat_dispersion_real
 _atom_type_scat_dispersion_imag
 _atom_type_scat_source
 'C'  'C'   0.0033   0.0016
 'International Tables Vol C Tables 4.2.6.8 and 6.1.1.4'
 'H'  'H'   0.0000   0.0000
 'International Tables Vol C Tables 4.2.6.8 and 6.1.1.4'
 'N'  'N'   0.0061   0.0033
 'International Tables Vol C Tables 4.2.6.8 and 6.1.1.4'
 'O'  'O'   0.0106   0.0060
 'International Tables Vol C Tables 4.2.6.8 and 6.1.1.4'
 'Zn'  'Zn'   0.2839   1.4301
 'International Tables Vol C Tables 4.2.6.8 and 6.1.1.4'
 'Se'  'Se'  -0.0929   2.2259
 'International Tables Vol C Tables 4.2.6.8 and 6.1.1.4'
 
_space_group_crystal_system       monoclinic
_space_group_IT_number            15
_space_group_name_H-M_alt         'I 2/a'
_space_group_name_Hall            '-I 2ya'
 
_shelx_space_group_comment
;
The symmetry employed for this shelxl refinement is uniquely defined
by the following loop, which should always be used as a source of
symmetry information in preference to the above space-group names.
They are only intended as comments.
;
 
loop_
 _space_group_symop_operation_xyz
 'x, y, z'
 '-x+1/2, y, -z'
 'x+1/2, y+1/2, z+1/2'
 '-x+1, y+1/2, -z+1/2'
 '-x, -y, -z'
 'x-1/2, -y, z'
 '-x+1/2, -y+1/2, -z+1/2'
 'x, -y+1/2, z+1/2'
 
_cell_length_a                    20.1491(10)
_cell_length_b                    5.4500(3)
_cell_length_c                    27.5532(14)
_cell_angle_alpha                 90
_cell_angle_beta                  107.858(5)
_cell_angle_gamma                 90
_cell_volume                      2879.9(3)
_cell_formula_units_Z             32
_cell_measurement_temperature     293(2)
_cell_measurement_reflns_used     ?
_cell_measurement_theta_min       ?
_cell_measurement_theta_max       ?
 
_exptl_crystal_description        ?
_exptl_crystal_colour             ?
_exptl_crystal_density_meas       ?
_exptl_crystal_density_method     ?
_exptl_crystal_density_diffrn     1.992          
_exptl_crystal_F_000              1704
_exptl_transmission_factor_min    ?
_exptl_transmission_factor_max    ?
_exptl_crystal_size_max           ?
_exptl_crystal_size_mid           ?
_exptl_crystal_size_min           ?
_exptl_absorpt_coefficient_mu     3.452
_shelx_estimated_absorpt_T_min    ?
_shelx_estimated_absorpt_T_max    ?
_exptl_absorpt_correction_type    ?
_exptl_absorpt_correction_T_min   ?
_exptl_absorpt_correction_T_max   ?
_exptl_absorpt_process_details    ?
_exptl_absorpt_special_details    ?
_diffrn_ambient_temperature       293(2)
_diffrn_radiation_wavelength      0.71073
_diffrn_radiation_type            MoK\a
_diffrn_source                    ?
_diffrn_measurement_device_type   ?
_diffrn_measurement_method        ?
_diffrn_detector_area_resol_mean  ?
_diffrn_reflns_number             6420
_diffrn_reflns_av_unetI/netI      0.0515
_diffrn_reflns_av_R_equivalents   0.0307
_diffrn_reflns_limit_h_min        -17
_diffrn_reflns_limit_h_max        27
_diffrn_reflns_limit_k_min        -5
_diffrn_reflns_limit_k_max        7
_diffrn_reflns_limit_l_min        -34
_diffrn_reflns_limit_l_max        37
_diffrn_reflns_theta_min          2.124
_diffrn_reflns_theta_max          29.127
_diffrn_reflns_theta_full         25.242
_diffrn_measured_fraction_theta_max   0.820
_diffrn_measured_fraction_theta_full  1.000
_diffrn_reflns_Laue_measured_fraction_max    0.820
_diffrn_reflns_Laue_measured_fraction_full   1.000
_diffrn_reflns_point_group_measured_fraction_max   0.820
_diffrn_reflns_point_group_measured_fraction_full  1.000
_reflns_number_total              3185
_reflns_number_gt                 2409
_reflns_threshold_expression      'I > 2\s(I)'
_reflns_Friedel_coverage          0.000
_reflns_Friedel_fraction_max      .
_reflns_Friedel_fraction_full     .
 
_reflns_special_details
;
 Reflections were merged by SHELXL according to the crystal
 class for the calculation of statistics and refinement.
 
 _reflns_Friedel_fraction is defined as the number of unique
 Friedel pairs measured divided by the number that would be
 possible theoretically, ignoring centric projections and
 systematic absences.
;
 
_computing_data_collection        ?
_computing_cell_refinement        ?
_computing_data_reduction         ?
_computing_structure_solution     'SHELXT 2018/2 (Sheldrick, 2018)'
_computing_structure_refinement 'SHELXL-2018/3 (Sheldrick, 2018)'
_computing_molecular_graphics     ?
_computing_publication_material   ?
_refine_special_details           ?
_refine_ls_structure_factor_coef  Fsqd
_refine_ls_matrix_type            full
_refine_ls_weighting_scheme       calc
_refine_ls_weighting_details
'w=1/[\s^2^(Fo^2^)+(0.0303P)^2^+0.5488P] where P=(Fo^2^+2Fc^2^)/3'
_atom_sites_solution_primary      ?
_atom_sites_solution_secondary    ?
_atom_sites_solution_hydrogens    geom
_refine_ls_hydrogen_treatment     constr
_refine_ls_extinction_method      none
_refine_ls_extinction_coef        .
_refine_ls_number_reflns          3185
_refine_ls_number_parameters      231
_refine_ls_number_restraints      0
_refine_ls_R_factor_all           0.0570
_refine_ls_R_factor_gt            0.0373
_refine_ls_wR_factor_ref          0.0798
_refine_ls_wR_factor_gt           0.0734
_refine_ls_goodness_of_fit_ref    1.009
_refine_ls_restrained_S_all       1.009
_refine_ls_shift/su_max           0.001
_refine_ls_shift/su_mean          0.000
 
loop_
 _atom_site_label
 _atom_site_type_symbol
 _atom_site_fract_x
 _atom_site_fract_y
 _atom_site_fract_z
 _atom_site_U_iso_or_equiv
 _atom_site_adp_type
 _atom_site_occupancy
 _atom_site_site_symmetry_order  
 _atom_site_calc_flag
 _atom_site_refinement_flags_posn
 _atom_site_refinement_flags_adp
 _atom_site_refinement_flags_occupancy
 _atom_site_disorder_assembly
 _atom_site_disorder_group
Se1 Se 0.39958(2) 0.84958(6) 0.36720(2) 0.02940(11) Uani 1 1 d . . . . .
Zn1 Zn 0.750000 0.65051(9) 0.500000 0.02539(14) Uani 1 2 d S T P . .
O1 O 0.81835(10) 0.8741(4) 0.48809(9) 0.0349(6) Uani 1 1 d . . . . .
O2 O 0.85433(11) 0.5736(4) 0.44744(9) 0.0421(6) Uani 1 1 d . . . . .
N1 N 0.36052(12) 0.6769(4) 0.31064(9) 0.0264(6) Uani 1 1 d . . . . .
N2 N 0.23312(14) 0.4140(5) 0.16966(10) 0.0398(7) Uani 1 1 d . . . . .
N3 N 0.48068(12) 0.6909(5) 0.38175(9) 0.0277(6) Uani 1 1 d . . . . .
N5 N 0.68790(12) 0.4585(5) 0.44121(9) 0.0262(6) Uani 1 1 d . . . . .
N6 N 0.64002(14) 0.1664(5) 0.38418(10) 0.0341(7) Uani 1 1 d . . . . .
N7 N 0.59422(12) 0.3554(4) 0.38123(9) 0.0237(6) Uani 1 1 d . . . . .
N8 N 0.33241(13) 0.3275(5) 0.22662(9) 0.0271(6) Uani 1 1 d . . . . .
N9 N 0.31680(14) 0.1264(5) 0.19502(10) 0.0381(7) Uani 1 1 d . . . . .
C1 C 0.93409(14) 0.8921(5) 0.48511(10) 0.0236(7) Uani 1 1 d . . . . .
C2 C 1.01071(15) 1.2174(6) 0.52706(11) 0.0274(7) Uani 1 1 d . . . . .
H2 H 1.017853 1.363062 0.545521 0.033 Uiso 1 1 calc R U . . .
C3 C 0.94548(16) 1.1113(6) 0.51194(12) 0.0295(7) Uani 1 1 d . . . . .
H3 H 0.908766 1.187434 0.519801 0.035 Uiso 1 1 calc R U . . .
C4 C 0.86451(15) 0.7680(6) 0.47126(11) 0.0276(7) Uani 1 1 d . . . . .
C5 C 0.69533(16) 0.2386(6) 0.42060(12) 0.0319(8) Uani 1 1 d . . . . .
H5 H 0.736141 0.146771 0.431346 0.038 Uiso 1 1 calc R U . . .
C6 C 0.62378(15) 0.5274(6) 0.41523(10) 0.0268(7) Uani 1 1 d . . . . .
H6 H 0.602717 0.673434 0.420019 0.032 Uiso 1 1 calc R U . . .
C7 C 0.52700(15) 0.3496(5) 0.34414(10) 0.0236(7) Uani 1 1 d . . . . .
C8 C 0.51279(16) 0.1765(6) 0.30704(11) 0.0280(7) Uani 1 1 d . . . . .
H8 H 0.546495 0.060274 0.306856 0.034 Uiso 1 1 calc R U . . .
C9 C 0.44717(16) 0.1701(5) 0.26844(11) 0.0279(7) Uani 1 1 d . . . . .
H9 H 0.439002 0.049061 0.243496 0.033 Uiso 1 1 calc R U . . .
C10 C 0.39604(15) 0.3348(5) 0.26681(10) 0.0239(7) Uani 1 1 d . . . . .
C11 C 0.40733(15) 0.5149(6) 0.30605(10) 0.0243(7) Uani 1 1 d . . . . .
C12 C 0.47496(14) 0.5224(5) 0.34591(10) 0.0224(6) Uani 1 1 d . . . . .
C13 C 0.25725(17) 0.1905(6) 0.16237(12) 0.0367(8) Uani 1 1 d . . . . .
H13 H 0.233044 0.088463 0.135777 0.044 Uiso 1 1 calc R U . . .
C14 C 0.28223(16) 0.4934(7) 0.21022(11) 0.0386(9) Uani 1 1 d . . . . .
H14 H 0.281800 0.645663 0.225367 0.046 Uiso 1 1 calc R U . . .
 
loop_
 _atom_site_aniso_label
 _atom_site_aniso_U_11
 _atom_site_aniso_U_22
 _atom_site_aniso_U_33
 _atom_site_aniso_U_23
 _atom_site_aniso_U_13
 _atom_site_aniso_U_12
Se1 0.02370(19) 0.0350(2) 0.02420(17) -0.00828(14) -0.00042(13) 0.00389(14)
Zn1 0.0122(2) 0.0308(3) 0.0294(3) 0.000 0.0007(2) 0.000
O1 0.0166(11) 0.0364(13) 0.0521(14) 0.0055(11) 0.0109(10) 0.0004(10)
O2 0.0273(13) 0.0412(15) 0.0517(15) -0.0107(12) 0.0033(11) -0.0066(11)
N1 0.0198(13) 0.0310(15) 0.0240(13) -0.0061(11) 0.0002(10) 0.0012(12)
N2 0.0281(15) 0.0492(19) 0.0316(15) -0.0134(14) -0.0063(12) 0.0073(14)
N3 0.0198(13) 0.0338(16) 0.0244(13) -0.0039(12) -0.0006(10) 0.0024(12)
N5 0.0154(12) 0.0327(15) 0.0273(13) 0.0005(12) 0.0017(10) -0.0004(12)
N6 0.0240(14) 0.0355(16) 0.0364(15) -0.0028(13) -0.0002(12) 0.0086(13)
N7 0.0177(13) 0.0268(14) 0.0234(12) 0.0009(11) 0.0017(10) 0.0028(11)
N8 0.0212(13) 0.0318(15) 0.0217(12) -0.0072(11) -0.0031(10) 0.0008(12)
N9 0.0341(16) 0.0387(17) 0.0317(15) -0.0160(13) -0.0046(13) 0.0010(14)
C1 0.0178(15) 0.0308(17) 0.0201(14) 0.0050(13) 0.0029(12) -0.0004(13)
C2 0.0253(17) 0.0262(17) 0.0296(16) -0.0052(14) 0.0070(13) 0.0002(14)
C3 0.0202(16) 0.0332(18) 0.0377(17) -0.0009(14) 0.0126(14) 0.0045(14)
C4 0.0168(16) 0.0341(18) 0.0284(16) 0.0094(15) 0.0016(13) 0.0022(15)
C5 0.0203(16) 0.0338(19) 0.0367(18) 0.0033(16) 0.0017(14) 0.0072(15)
C6 0.0195(15) 0.0301(17) 0.0255(15) -0.0011(14) -0.0007(13) -0.0025(14)
C7 0.0191(15) 0.0293(17) 0.0194(14) 0.0025(13) 0.0014(12) -0.0010(14)
C8 0.0249(17) 0.0291(17) 0.0285(16) 0.0009(14) 0.0058(13) 0.0029(14)
C9 0.0297(17) 0.0283(17) 0.0232(15) -0.0056(14) 0.0045(13) -0.0036(15)
C10 0.0200(15) 0.0274(16) 0.0201(14) -0.0012(13) 0.0000(12) -0.0021(14)
C11 0.0222(16) 0.0261(16) 0.0212(14) 0.0010(13) 0.0015(12) 0.0017(14)
C12 0.0190(15) 0.0249(16) 0.0209(14) 0.0020(13) 0.0026(12) -0.0005(14)
C13 0.0290(19) 0.047(2) 0.0277(17) -0.0122(16) -0.0015(14) -0.0058(17)
C14 0.0295(19) 0.040(2) 0.0352(18) -0.0136(16) -0.0060(15) 0.0067(17)
 
_geom_special_details
;
 All esds (except the esd in the dihedral angle between two l.s. planes)
 are estimated using the full covariance matrix.  The cell esds are taken
 into account individually in the estimation of esds in distances, angles
 and torsion angles; correlations between esds in cell parameters are only
 used when they are defined by crystal symmetry.  An approximate (isotropic)
 treatment of cell esds is used for estimating esds involving l.s. planes.
;
 
loop_
 _geom_bond_atom_site_label_1
 _geom_bond_atom_site_label_2
 _geom_bond_distance
 _geom_bond_site_symmetry_2
 _geom_bond_publ_flag
Se1 N3 1.782(2) . ?
Se1 N1 1.784(2) . ?
Zn1 O1 1.941(2) 2_656 ?
Zn1 O1 1.941(2) . ?
Zn1 N5 2.010(2) . ?
Zn1 N5 2.010(2) 2_656 ?
O1 C4 1.296(4) . ?
O2 C4 1.230(4) . ?
N1 C11 1.326(4) . ?
N2 C14 1.318(4) . ?
N2 C13 1.349(4) . ?
N3 C12 1.327(4) . ?
N5 C6 1.325(3) . ?
N5 C5 1.354(4) . ?
N6 C5 1.311(4) . ?
N6 N7 1.369(3) . ?
N7 C6 1.330(4) . ?
N7 C7 1.425(3) . ?
N8 C14 1.328(4) . ?
N8 N9 1.375(3) . ?
N8 C10 1.415(3) . ?
N9 C13 1.307(4) . ?
C1 C3 1.386(4) . ?
C1 C2 1.391(4) 5_776 ?
C1 C4 1.497(4) . ?
C2 C3 1.378(4) . ?
C2 H2 0.9300 . ?
C3 H3 0.9300 . ?
C5 H5 0.9300 . ?
C6 H6 0.9300 . ?
C7 C8 1.355(4) . ?
C7 C12 1.421(4) . ?
C8 C9 1.421(4) . ?
C8 H8 0.9300 . ?
C9 C10 1.357(4) . ?
C9 H9 0.9300 . ?
C10 C11 1.426(4) . ?
C11 C12 1.465(4) . ?
C13 H13 0.9300 . ?
C14 H14 0.9300 . ?
 
loop_
 _geom_angle_atom_site_label_1
 _geom_angle_atom_site_label_2
 _geom_angle_atom_site_label_3
 _geom_angle
 _geom_angle_site_symmetry_1
 _geom_angle_site_symmetry_3
 _geom_angle_publ_flag
N3 Se1 N1 93.96(11) . . ?
O1 Zn1 O1 102.22(13) 2_656 . ?
O1 Zn1 N5 99.47(9) 2_656 . ?
O1 Zn1 N5 119.29(10) . . ?
O1 Zn1 N5 119.29(10) 2_656 2_656 ?
O1 Zn1 N5 99.47(9) . 2_656 ?
N5 Zn1 N5 117.26(14) . 2_656 ?
C4 O1 Zn1 113.9(2) . . ?
C11 N1 Se1 107.37(18) . . ?
C14 N2 C13 102.2(3) . . ?
C12 N3 Se1 107.69(18) . . ?
C6 N5 C5 103.8(2) . . ?
C6 N5 Zn1 123.4(2) . . ?
C5 N5 Zn1 132.6(2) . . ?
C5 N6 N7 102.6(3) . . ?
C6 N7 N6 109.9(2) . . ?
C6 N7 C7 130.0(2) . . ?
N6 N7 C7 120.1(2) . . ?
C14 N8 N9 109.0(2) . . ?
C14 N8 C10 131.3(3) . . ?
N9 N8 C10 119.7(2) . . ?
C13 N9 N8 101.9(2) . . ?
C3 C1 C2 119.0(3) . 5_776 ?
C3 C1 C4 121.0(3) . . ?
C2 C1 C4 120.0(3) 5_776 . ?
C3 C2 C1 120.4(3) . 5_776 ?
C3 C2 H2 119.8 . . ?
C1 C2 H2 119.8 5_776 . ?
C2 C3 C1 120.6(3) . . ?
C2 C3 H3 119.7 . . ?
C1 C3 H3 119.7 . . ?
O2 C4 O1 123.7(3) . . ?
O2 C4 C1 121.0(3) . . ?
O1 C4 C1 115.2(3) . . ?
N6 C5 N5 114.2(3) . . ?
N6 C5 H5 122.9 . . ?
N5 C5 H5 122.9 . . ?
N5 C6 N7 109.4(3) . . ?
N5 C6 H6 125.3 . . ?
N7 C6 H6 125.3 . . ?
C8 C7 C12 120.0(3) . . ?
C8 C7 N7 119.4(3) . . ?
C12 C7 N7 120.6(3) . . ?
C7 C8 C9 121.0(3) . . ?
C7 C8 H8 119.5 . . ?
C9 C8 H8 119.5 . . ?
C10 C9 C8 122.1(3) . . ?
C10 C9 H9 119.0 . . ?
C8 C9 H9 119.0 . . ?
C9 C10 N8 120.3(3) . . ?
C9 C10 C11 119.2(3) . . ?
N8 C10 C11 120.6(3) . . ?
N1 C11 C10 125.3(3) . . ?
N1 C11 C12 115.8(3) . . ?
C10 C11 C12 118.9(3) . . ?
N3 C12 C7 126.0(2) . . ?
N3 C12 C11 115.2(3) . . ?
C7 C12 C11 118.8(3) . . ?
N9 C13 N2 115.8(3) . . ?
N9 C13 H13 122.1 . . ?
N2 C13 H13 122.1 . . ?
N2 C14 N8 111.1(3) . . ?
N2 C14 H14 124.5 . . ?
N8 C14 H14 124.5 . . ?
 
_refine_diff_density_max    0.477
_refine_diff_density_min   -0.516
_refine_diff_density_rms    0.089

_shelx_res_file
;
TITL pvl264Se_auto_a.res in I2/a
    pvl264Se_auto_a.res
    created by SHELXL-2018/3 at 12:16:43 on 31-Aug-2022
REM Old TITL pvl264Se_auto in I2/a
REM SHELXT solution in I2/a: R1 0.129, Rweak 0.020, Alpha 0.034
REM <I/s>   0.395 for  321 systematic absences,  Orientation as input
REM Formula found by SHELXT:  C36 N8 O4 Zn Se2
CELL  0.71073  20.1491   5.4500  27.5532   90.000  107.858   90.000
ZERR   32.000   0.0010   0.0003   0.0014    0.000    0.005    0.000
LATT  2
SYMM 1/2-X, Y, -Z
SFAC C H N O ZN SE
UNIT 112 64 64 16 4 8
L.S. 10
BOND $H

OMIT 0

ACTA

LIST 4
FMAP 2
PLAN 20
WGHT    0.030300    0.548800
FVAR       0.22904
SE1   6    0.399585    0.849578    0.367197    11.00000    0.02370    0.03504 =
         0.02420   -0.00828   -0.00042    0.00389
ZN1   5    0.750000    0.650510    0.500000    10.50000    0.01216    0.03077 =
         0.02939    0.00000    0.00070    0.00000
O1    4    0.818354    0.874061    0.488085    11.00000    0.01658    0.03637 =
         0.05206    0.00548    0.01095    0.00043
O2    4    0.854326    0.573631    0.447439    11.00000    0.02729    0.04121 =
         0.05170   -0.01072    0.00329   -0.00661
N1    3    0.360516    0.676889    0.310643    11.00000    0.01984    0.03100 =
         0.02404   -0.00613    0.00021    0.00122
N2    3    0.233118    0.413951    0.169665    11.00000    0.02806    0.04923 =
         0.03160   -0.01338   -0.00628    0.00734
N3    3    0.480683    0.690863    0.381752    11.00000    0.01980    0.03381 =
         0.02442   -0.00393   -0.00063    0.00242
N5    3    0.687902    0.458478    0.441213    11.00000    0.01542    0.03268 =
         0.02727    0.00046    0.00174   -0.00044
N6    3    0.640024    0.166367    0.384181    11.00000    0.02404    0.03551 =
         0.03640   -0.00279   -0.00023    0.00858
N7    3    0.594221    0.355401    0.381230    11.00000    0.01769    0.02681 =
         0.02341    0.00091    0.00171    0.00285
N8    3    0.332406    0.327460    0.226619    11.00000    0.02120    0.03181 =
         0.02167   -0.00721   -0.00307    0.00084
N9    3    0.316799    0.126354    0.195021    11.00000    0.03409    0.03868 =
         0.03171   -0.01602   -0.00456    0.00100
C1    1    0.934093    0.892122    0.485110    11.00000    0.01784    0.03079 =
         0.02011    0.00503    0.00292   -0.00038
C2    1    1.010707    1.217372    0.527064    11.00000    0.02529    0.02622 =
         0.02964   -0.00520    0.00700    0.00017
AFIX  43
H2    2    1.017853    1.363062    0.545521    11.00000   -1.20000
AFIX   0
C3    1    0.945484    1.111282    0.511937    11.00000    0.02024    0.03320 =
         0.03769   -0.00094    0.01262    0.00454
AFIX  43
H3    2    0.908766    1.187434    0.519801    11.00000   -1.20000
AFIX   0
C4    1    0.864506    0.767957    0.471259    11.00000    0.01685    0.03406 =
         0.02837    0.00938    0.00165    0.00217
C5    1    0.695332    0.238591    0.420598    11.00000    0.02029    0.03384 =
         0.03667    0.00326    0.00170    0.00720
AFIX  43
H5    2    0.736141    0.146771    0.431346    11.00000   -1.20000
AFIX   0
C6    1    0.623779    0.527446    0.415229    11.00000    0.01952    0.03014 =
         0.02554   -0.00105   -0.00068   -0.00254
AFIX  43
H6    2    0.602717    0.673434    0.420019    11.00000   -1.20000
AFIX   0
C7    1    0.527002    0.349599    0.344145    11.00000    0.01914    0.02926 =
         0.01939    0.00255    0.00136   -0.00098
C8    1    0.512787    0.176529    0.307043    11.00000    0.02494    0.02908 =
         0.02845    0.00091    0.00582    0.00286
AFIX  43
H8    2    0.546495    0.060274    0.306856    11.00000   -1.20000
AFIX   0
C9    1    0.447174    0.170058    0.268440    11.00000    0.02966    0.02832 =
         0.02324   -0.00563    0.00452   -0.00357
AFIX  43
H9    2    0.439002    0.049061    0.243496    11.00000   -1.20000
AFIX   0
C10   1    0.396041    0.334837    0.266806    11.00000    0.01998    0.02738 =
         0.02011   -0.00117    0.00000   -0.00208
C11   1    0.407330    0.514864    0.306046    11.00000    0.02219    0.02608 =
         0.02122    0.00105    0.00146    0.00168
C12   1    0.474955    0.522359    0.345912    11.00000    0.01899    0.02490 =
         0.02085    0.00199    0.00255   -0.00049
C13   1    0.257253    0.190500    0.162371    11.00000    0.02899    0.04661 =
         0.02768   -0.01220   -0.00149   -0.00585
AFIX  43
H13   2    0.233044    0.088463    0.135777    11.00000   -1.20000
AFIX   0
C14   1    0.282227    0.493414    0.210222    11.00000    0.02945    0.04036 =
         0.03521   -0.01360   -0.00596    0.00673
AFIX  43
H14   2    0.281800    0.645663    0.225367    11.00000   -1.20000
AFIX   0
HKLF 4




REM  pvl264Se_auto_a.res in I2/a
REM wR2 = 0.0798, GooF = S = 1.009, Restrained GooF = 1.009 for all data
REM R1 = 0.0373 for 2409 Fo > 4sig(Fo) and 0.0570 for all 3185 data
REM 231 parameters refined using 0 restraints

END

WGHT      0.0314      0.0000

REM Highest difference peak  0.477,  deepest hole -0.516,  1-sigma level  0.089
Q1    1   0.3708  0.7001  0.3665  11.00000  0.05    0.48
Q2    1   0.4422  0.7566  0.3783  11.00000  0.05    0.46
Q3    1   0.4310  0.6799  0.3728  11.00000  0.05    0.44
Q4    1   0.7724  0.8384  0.4997  11.00000  0.05    0.43
Q5    1   0.3832  1.0355  0.3617  11.00000  0.05    0.39
Q6    1   0.4180  1.0478  0.3672  11.00000  0.05    0.36
Q7    1   0.9676  0.8400  0.4909  11.00000  0.05    0.36
Q8    1   0.8351  0.8874  0.4736  11.00000  0.05    0.35
Q9    1   0.4512 -0.1406  0.2668  11.00000  0.05    0.34
Q10   1   0.7500  1.0277  0.5000  10.50000  0.05    0.34
Q11   1   0.8989  0.8534  0.4835  11.00000  0.05    0.34
Q12   1   0.8356  0.8107  0.5103  11.00000  0.05    0.33
Q13   1   0.4012  0.1919  0.2739  11.00000  0.05    0.33
Q14   1   0.7500  0.2724  0.5000  10.50000  0.05    0.31
Q15   1   0.7837  0.5305  0.5141  11.00000  0.05    0.31
Q16   1   0.5579  0.3704  0.3633  11.00000  0.05    0.31
Q17   1   0.1918  0.4696  0.1536  11.00000  0.05    0.30
Q18   1   0.3895  0.4564  0.3680  11.00000  0.05    0.30
Q19   1   0.9755  1.1724  0.5048  11.00000  0.05    0.30
Q20   1   0.9504  0.8664  0.4639  11.00000  0.05    0.29
;
_shelx_res_checksum   28969

_shelx_hkl_file
;
   0   0   4   78.86    4.88
   0   0  -4   69.15    4.63
   0   0   6 5341.07  120.68
   0   0  -6 5421.18  120.86
   0   0   6 5532.15  119.05
   0   0   8 4053.19   96.39
   0   0   8 4187.13   94.26
   0   0  -8 4097.34   96.27
   0   0  10  238.08   13.66
   0   0 -10  242.72   13.95
   0   0  10  242.40   12.43
   0   0  12  439.01   18.99
   0   0 -12  450.31   20.87
   0   0  12  414.70   20.53
   0   0  14 1598.81   47.47
   0   0  14 1574.21   50.71
   0   0  16 2426.21   67.81
   0   0  16 2435.15   72.01
   0   0  18   29.02    6.19
   0   0  18   26.75    6.69
   0   0  20  146.68   15.09
   0   0  20  131.37   12.84
   0   0  22  530.42   28.06
   0   0  24  113.60   13.22
   0   0  26   16.36    6.04
   0   0  28  269.73   22.52
   0   0  30  287.58   24.19
   0   0  32   35.47    9.60
   0   0  34   48.20   12.00
   0   1  -1   63.98    3.54
   0   1   1   66.67    4.67
   0   1   3   80.70    6.00
   0   1   5   34.10    4.79
   0   1  -5   27.95    3.78
   0  -1   5   41.51    4.14
   0  -1   7 1222.32   28.90
   0   1   7 1231.18   37.08
   0   1  -7 1302.35   34.93
   0  -1   7 1237.90   35.02
   0  -1   9 1177.45   35.26
   0  -1   9 1125.93   29.09
   0   1  -9 1147.09   34.36
   0   1   9 1176.02   36.99
   0  -1  11  658.01   25.47
   0  -1  11  625.97   20.04
   0   1  11  631.27   27.26
   0   1 -11  628.24   24.35
   0   1  11  681.34   26.86
   0   1  13    7.48    3.38
   0   1 -13    9.85    3.50
   0   1  13    7.41    4.12
   0  -1  13    7.40    2.51
   0  -1  13    6.57    3.35
   0  -1  15   15.30    3.43
   0   1  15   11.55    4.70
   0  -1  15   10.98    4.42
   0   1 -15   13.10    4.43
   0   1  15   24.19    5.91
   0  -1  17  104.35   11.61
   0   1  17  106.73   12.25
   0   1  17   99.11   11.24
   0   1 -17   92.75   10.72
   0  -1  17  108.68    9.15
   0  -1  19  831.81   37.14
   0  -1  19  813.42   30.58
   0   1 -19  759.03   34.47
   0   1  19  796.37   38.53
   0   1  19  769.98   35.65
   0   1  21  160.64   16.05
   0   1 -21  149.39   14.91
   0  -1  21  149.78   12.58
   0  -1  21  177.32   16.89
   0  -1  23  181.31   14.68
   0   1  23  215.75   19.49
   0  -1  25  361.44   22.33
   0   1  25  370.07   26.73
   0   1  27  176.02   19.47
   0  -1  27  196.86   17.10
   0   1  29  109.82   15.65
   0  -1  29  112.34   13.34
   0   1  31    5.03    6.37
   0   1  33  182.32   22.21
   0   1  35   30.35   10.96
   0   2   0 1216.23   33.63
   0   2  -2    8.20    2.26
   0   2   2    9.09    3.07
   0   2  -4   28.77    2.68
   0   2   4   37.85    5.79
   0   2  -6   50.63    6.09
   0   2   6   46.97    6.32
   0   2   8 1654.15   50.46
   0   2  -8 1638.65   46.63
   0   2  10   46.28    7.64
   0   2 -10   37.81    5.59
   0   2 -12   61.67    7.46
   0   2  12   87.19   10.36
   0   2 -14   14.93    4.41
   0   2  14   15.33    5.71
   0  -2  14   18.05    5.43
   0  -2  14   13.58    2.09
   0   2 -16  104.74   10.79
   0  -2  16  111.86   11.86
   0   2  16  102.91   12.64
   0   2  16   88.25   12.07
   0  -2  16   97.52    6.42
   0   2  18   26.65    7.58
   0   2 -18   30.48    6.49
   0  -2  18   36.73    7.42
   0  -2  18   28.01    4.12
   0   2  20  320.37   24.19
   0  -2  20  341.90   23.49
   0   2 -20  328.12   21.53
   0  -2  20  346.88   15.93
   0  -2  22   43.15    9.31
   0   2  22   26.79    7.91
   0   2 -22   60.38   10.00
   0  -2  22   45.21    5.92
   0   2 -24   10.31    5.69
   0  -2  24    7.25    3.70
   0   2  24   11.10    7.06
   0  -2  26   46.51    7.33
   0   2 -26   43.23    9.76
   0   2  26   37.93   10.42
   0   2  28   -9.44    8.13
   0   2  30   57.21   13.01
   0   2  32   15.61    7.84
   0   3   1  527.93   21.98
   0   3  -1  507.74   20.36
   0   3  -3  437.46   17.09
   0   3   3  452.72   21.43
   0   3   5  584.86   26.08
   0   3  -5  550.29   17.95
   0   3   7   72.79    9.31
   0   3  -9   -0.88    3.46
   0   3   9    4.96    4.15
   0   3  11 1600.74   55.91
   0   3 -11 1605.09   50.35
   0   3 -13   63.34    8.19
   0   3  13   60.44    9.90
   0   3  15  170.73   17.17
   0   3 -15  163.84   13.85
   0   3 -17  131.49   12.92
   0   3  17  177.45   18.14
   0   3  19 1181.06   52.55
   0   3 -19 1206.19   45.63
   0   3  21    9.74    8.77
   0   3 -21   -2.19    4.34
   0   3  23   67.21   13.06
   0   3 -23   71.27   10.74
   0   3  25  312.12   28.32
   0   3 -25  279.19   22.25
   0   3 -27  271.31   22.87
   0   3  27  289.35   28.24
   0   3  29   -3.43    6.93
   0   4   0 1745.92   53.20
   0   4  -2   42.91    6.29
   0   4   2   33.08    6.45
   0   4  -4   35.18    5.29
   0   4   4   26.77    6.21
   0   4   6  592.04   29.94
   0   4  -6  595.86   20.79
   0   4   8 1459.41   54.07
   0   4  10    5.00    4.34
   0   4 -10    7.66    4.36
   0   4 -12   26.24    6.21
   0   4  12   17.66    7.32
   0   4 -14  308.06   20.45
   0   4  14  285.68   24.11
   0   4  16  538.96   34.61
   0   4 -16  606.05   30.03
   0   4 -18    5.61    3.69
   0   4  18    0.75    6.49
   0   4 -20   -2.06    3.59
   0   4  20   -3.10    6.89
   0   4  22  334.15   29.97
   0   4 -22  346.09   23.91
   0   4 -24    9.31    5.68
   0   4  24   -3.92    5.99
   0   5   1   17.28    5.18
   0   5  -1   23.76    5.89
   0   5   3    7.74    4.59
   0   5  -3    3.32    3.22
   0   5  -5   10.25    3.74
   0   5   5   12.30    5.59
   0   5  -7   76.82    6.66
   0   5   7   75.70   11.63
   0   5  -9   17.06    6.90
   0   5   9   20.97    7.73
   0   5 -11   53.12    9.71
   0   5  11   21.66    7.57
   0   5  13   51.81   11.57
   0   5 -13   52.78    9.73
   0   5  15    4.23    5.96
   0   5 -15    3.06    3.99
   0   5 -17    2.78    3.97
   0   5  17   -2.54    6.45
   0   5  19    9.40    6.53
   0   5  21    6.36    6.94
   0   6   0  759.59   36.62
   0   6   2   83.70   12.40
   0   6  -2   55.10    8.72
   0   6   4   55.92   10.76
   0   6   6   29.36    8.59
   0   6   8  268.29   24.46
   0   6  10   10.24    6.92
   0   6 -10    6.48    4.56
   0   6  12   58.38   12.84
   0   6  14   72.53   14.66
   0   6  16  152.55   21.05
   0   7   9    0.35    6.81
   0   7  11  119.83   19.02
  -1   0  33   20.71    8.24
  -1   0  31   -1.63    5.26
  -1   0  29    3.42    4.42
  -1   0  27    1.35    4.05
  -1   0  25    0.79    4.67
  -1   0  23    1.11    4.01
  -1   0  21    4.41    4.95
  -1   0  21   -0.18    3.54
  -1   0  19   -2.52    3.96
  -1   0  19   -1.76    4.12
  -1   0  17   -1.09    3.09
  -1   0  17   -0.43    3.68
  -1   0  15   -4.84    3.02
   1   0 -15    1.06    3.20
  -1   0  15    0.18    3.35
   1   0 -13    2.25    3.93
  -1   0  13    1.51    2.32
  -1   0  13   -2.65    3.27
   1   0 -11   -2.24    2.88
  -1   0  11   -0.68    2.44
  -1   0   9    1.71    2.09
   1   0  -9   -0.75    3.18
   1   0  -7    0.88    2.68
  -1   0   7    1.55    2.20
   1   0  -5    1.40    2.08
  -1   0   5    1.59    1.41
   1   0  -3   -0.67    1.27
   1   0   3    0.62    1.15
  -1   0  -3   -0.76    1.13
   1   0   5    3.82    1.60
  -1   0  -5    6.80    1.85
   1   0   5    1.43    1.59
   1   0   7    0.74    2.28
  -1   0  -7    0.94    1.69
   1   0   7   -0.62    1.71
   1   0   9   -0.23    2.19
   1   0   9    4.25    2.45
   1   0  11    0.63    2.27
   1   0  11    1.70    2.32
   1   0  13   -1.37    3.31
   1   0  13   -1.21    2.98
   1   0  15    1.02    3.21
   1   0  15   -0.45    3.41
   1   0  17   -2.22    3.54
   1   0  17    2.85    3.60
   1   0  19   -3.99    3.45
   1   0  19    1.66    3.76
   1   0  21   -2.69    3.73
   1   0  21   -5.81    5.85
   1   0  23    6.06    5.25
   1   0  25    3.03    3.92
   1   0  27    5.37    4.30
   1   0  29    2.19    5.58
   1   0  31    6.71    6.27
   1   0  33    3.68    5.99
  -1   1  34   81.73   15.43
  -1   1  32  119.17   17.74
  -1  -1  30    0.87    4.16
  -1   1  30   -2.59    6.30
  -1  -1  28   49.40    9.01
  -1   1  28   52.44   11.50
  -1   1  26  211.29   20.15
  -1  -1  26  223.03   17.45
  -1  -1  24  286.68   18.91
  -1   1  24  246.65   21.19
   1   1 -24  286.45   22.47
   1   1 -22  132.85   14.70
  -1  -1  22  137.57   12.24
  -1  -1  22  140.57   15.68
  -1   1  22  146.49   15.22
  -1  -1  20    6.97    3.15
  -1  -1  20    8.38    4.68
   1   1 -20    6.34    4.29
  -1   1  20    8.77    4.90
  -1  -1  18 1150.72   37.68
  -1   1  18 1300.76   49.05
  -1   1  18 1194.37   44.72
  -1  -1  18 1151.40   44.94
   1   1 -18 1074.30   42.49
  -1   1  16    0.38    3.54
   1   1 -16    1.04    3.65
  -1  -1  16    0.74    2.83
  -1   1  16    3.74    3.57
  -1  -1  16    6.45    3.35
  -1   1  14 1073.83   39.13
  -1   1  14 1127.13   41.69
  -1  -1  14 1101.67   32.93
  -1  -1  14 1124.67   39.94
   1   1 -14 1110.86   38.67
   1   1 -12  434.16   20.29
  -1   1  12  457.78   21.58
  -1  -1  12  441.11   16.13
  -1  -1  12  442.99   21.09
  -1   1  12  415.17   21.73
  -1  -1  10  366.21   17.58
   1   1 -10  381.56   17.50
  -1   1  10  356.92   18.75
  -1   1   8   61.96    7.00
   1   1  -8   74.03    6.94
  -1  -1   8   71.55    6.72
   1   1  -6  555.02   19.64
  -1  -1   6  565.35   20.15
   1   1  -4 3400.16   78.90
  -1  -1   2  816.40   20.58
   1   1  -2  830.56   20.95
  -1  -1   0  279.45   10.37
   1   1   0  290.37   10.54
  -1  -1  -2    5.81    2.02
   1   1   2    3.05    2.10
  -1   1  -4 9965.72  208.32
   1   1   4 9758.62  212.95
  -1  -1  -4 9783.55  212.92
   1  -1   6 6594.69  138.90
   1  -1   6 6519.68  143.65
  -1  -1  -6 6525.19  147.99
   1   1   6 6719.17  148.48
  -1   1  -6 6605.82  143.20
   1  -1   8   27.95    2.96
   1   1   8   30.72    5.32
   1  -1   8   34.34    4.43
  -1   1  -8   31.45    4.16
   1  -1  10   95.97    6.33
   1   1  10   93.38    9.08
  -1   1 -10  116.02    8.64
   1  -1  10  103.69    8.38
  -1   1 -12 3300.25   82.28
   1   1  12 3298.31   86.08
   1  -1  12 3294.54   83.61
   1   1  12 3324.43   87.98
   1  -1  12 3199.90   77.27
   1   1  14 1391.98   46.85
   1  -1  14 1353.52   39.45
   1  -1  14 1349.33   44.78
  -1   1 -14 1337.51   43.55
   1   1  14 1447.31   49.33
   1  -1  16  639.26   29.41
  -1   1 -16  653.64   28.61
   1   1  16  642.39   30.43
   1   1  16  655.59   31.87
   1  -1  16  684.54   25.45
   1  -1  18  341.06   18.20
   1  -1  18  357.49   22.30
  -1   1 -18  355.40   21.30
   1   1  18  393.18   25.08
   1   1  18  333.00   21.84
   1  -1  20 1065.98   38.11
   1   1  20 1059.60   44.16
   1  -1  20 1019.42   43.61
   1  -1  22  185.79   14.63
   1  -1  22  165.51   16.68
   1   1  22  123.48   15.15
   1  -1  24  295.18   19.77
   1   1  24  271.74   22.63
   1   1  26   79.89   13.65
   1  -1  26   92.35   11.56
   1   1  28  203.21   20.73
   1  -1  28  157.02   15.84
   1   1  30    3.73    6.83
   1  -1  30   13.96    5.21
   1   1  32   43.32   12.33
   1   1  34   61.55   14.29
  -1   2  31    7.84    6.93
  -1   2  29  477.67   35.55
  -1   2  27   60.16   12.80
  -1  -2  27   47.96    7.79
   1   2 -27   44.95   10.21
   1   2 -25   39.35    8.40
  -1   2  25   57.07   11.61
  -1  -2  25   42.06    6.34
  -1   2  23  203.40   20.10
   1   2 -23  229.17   19.43
  -1  -2  23  231.25   14.00
   1   2 -21 1410.27   52.87
  -1  -2  21 1456.40   56.34
  -1  -2  21 1444.83   42.12
  -1   2  21 1454.72   57.53
  -1  -2  19    6.80    3.74
  -1  -2  19    1.46    2.04
   1   2 -19    9.91    5.50
  -1   2  19    9.48    5.43
   1   2 -17    6.83    4.47
  -1  -2  17    2.55    1.77
  -1   2  17   -2.55    4.67
  -1  -2  17   -3.08    4.61
  -1   2  17   -1.24    4.64
  -1  -2  15 1480.07   36.77
  -1   2  15 1479.13   54.43
  -1   2  15 1437.33   52.07
  -1  -2  15 1453.99   50.63
   1   2 -15 1503.67   49.04
  -1   2  13 2389.55   71.82
  -1  -2  13 2261.68   51.23
  -1  -2  13 2300.72   51.99
   1   2 -13 2318.24   65.33
  -1   2  13 2257.13   69.31
   1   2 -11   96.68    9.38
  -1   2  11   87.44    9.77
   1   2  -9  249.55   14.62
  -1   2   9  229.78   15.25
  -1   2   7 2904.06   76.69
   1   2  -7 2938.33   75.03
   1   2  -5  425.90   13.42
  -1   2   5  439.03   19.39
  -1  -2   5  450.79   12.86
  -1  -2   3  632.62   18.86
   1   2  -3  645.31   19.49
  -1  -2   1  278.10   12.11
   1   2  -1  302.86   12.88
  -1   2  -1 2103.56   50.21
   1   2   1 2044.49   53.66
   1   2   3  256.65   13.73
  -1   2  -3  245.52    9.08
   1   2   5 1407.15   43.01
   1   2   7   15.44    4.49
  -1   2  -7   16.71    3.61
  -1   2  -9 2543.23   64.72
   1   2   9 2521.13   71.32
   1   2  11  494.46   25.60
  -1   2 -11  541.76   21.95
   1  -2  13 1066.05   37.60
   1  -2  13 1039.16   26.33
  -1   2 -13 1073.66   35.91
   1   2  13 1111.56   42.25
   1   2  15  840.30   37.53
  -1   2 -15  823.00   31.94
   1  -2  15  827.11   33.61
   1  -2  15  831.32   23.87
  -1   2 -17  165.30   13.48
   1  -2  17  149.17    8.98
   1   2  17  157.42   15.66
   1  -2  17  157.49   14.12
  -1   2 -19   52.18    8.55
   1  -2  19   45.83    5.47
   1  -2  19   45.42    8.55
   1   2  19   54.54   10.31
   1  -2  21   13.39    5.46
   1   2  21   16.92    6.67
  -1   2 -21   15.79    5.22
   1  -2  21    9.92    2.73
   1  -2  23  451.90   20.93
  -1   2 -23  391.29   25.42
   1  -2  23  433.47   28.40
   1   2  23  402.14   29.30
   1  -2  25  426.45   21.62
   1   2  25  431.34   31.76
   1   2  27  167.18   20.60
   1   2  29   20.82    9.61
   1   2  31  197.97   23.93
   1   3 -30   16.05    7.64
  -1   3  28   28.45    8.84
   1   3 -28   39.88    9.43
   1   3 -26    0.15    4.23
  -1   3  26    0.65    6.96
  -1   3  24   31.40    9.41
   1   3 -24   23.24    7.14
  -1   3  22   19.23    7.72
   1   3 -22    8.42    4.94
  -1   3  20  116.94   16.06
   1   3 -20  113.23   13.03
  -1   3  18   14.36    6.64
   1   3 -18    8.52    4.53
  -1   3  16  122.98   14.91
   1   3 -16  141.63   13.62
  -1   3  14    5.53    5.18
   1   3 -14   -3.19    3.60
   1   3 -12   59.14    8.13
  -1   3  12   57.72    9.63
   1   3 -10  237.14   16.34
  -1   3  10  227.54   17.28
   1   3  -8   21.99    5.65
  -1   3   8   18.82    5.24
  -1   3   6   -0.75    3.50
   1   3  -6    2.59    1.77
  -1   3   4   26.43    4.93
   1   3  -4   18.79    3.26
  -1   3   2  161.35   11.47
   1   3  -2  125.91    9.28
   1   3   0  161.68   11.31
  -1   3   0  144.94   10.16
   1   3   2    6.67    3.61
  -1   3  -2    4.85    2.52
   1   3   4  333.39   18.94
  -1   3  -4  336.09   13.10
  -1   3  -6   91.26    4.73
   1   3   6  128.44   12.48
  -1   3  -8   47.41    6.58
   1   3   8   60.87    8.72
   1   3  10  131.38   13.74
  -1   3 -10  131.56   10.99
   1   3  12  277.47   20.70
  -1   3 -12  284.09   16.82
   1   3  14   19.50    7.16
  -1   3 -14   13.73    4.92
  -1   3 -16   28.69    6.10
   1   3  16   32.36    8.71
   1   3  18   72.82   12.71
  -1   3 -18  100.29   11.23
  -1   3 -20  284.99   19.74
   1   3  20  268.36   24.56
   1   3  22   24.90    8.62
  -1   3 -22   21.83    5.90
  -1   3 -24   49.45    9.42
   1   3  24   27.50    8.91
   1   3  26   69.57   14.67
  -1   3 -26   82.33   12.34
   1   3  28   37.29   11.48
   1   4 -25   43.30    9.58
  -1   4  25   33.28   11.13
   1   4 -23   42.97    9.89
  -1   4  23   48.25   11.69
   1   4 -21   58.24   10.28
  -1   4  21   41.14   11.32
  -1   4  19    9.61    7.96
   1   4 -19   -2.62    4.02
   1   4 -17   -5.16    5.11
  -1   4  17    7.48    6.28
  -1   4  15   36.87    9.46
   1   4 -15   28.86    7.10
   1   4 -13  192.61   16.46
  -1   4  13  175.42   18.03
   1   4 -11   26.13    7.02
  -1   4  11   24.81    7.37
   1   4  -9   42.76    8.10
  -1   4   9   44.36    8.73
   1   4  -7  719.19   23.76
  -1   4   7  779.88   35.05
   1   4  -5  187.99   11.65
  -1   4   5  194.20   15.90
  -1   4   3   53.26    7.90
   1   4  -3   49.04    6.49
   1   4  -1   66.48    8.05
  -1   4   1   68.55    8.27
   1   4   1  420.65   22.48
  -1   4  -1  426.78   20.37
  -1   4  -3    2.29    1.98
   1   4   3   -0.95    3.57
   1   4   5  163.80   15.12
  -1   4  -5  194.89   10.62
  -1   4  -7   75.52    4.82
   1   4   7   70.54   10.54
   1   4   9  287.62   22.06
  -1   4  -9  308.93   19.26
   1   4  11   10.04    6.74
  -1   4 -11    1.66    3.23
  -1   4 -13   10.55    4.32
   1   4  13    8.73    6.69
  -1   4 -15  317.43   20.22
   1   4  15  343.47   26.80
  -1   4 -17  204.15   16.24
   1   4  17  185.35   20.40
  -1   4 -19    4.19    4.18
   1   4  19   14.25    8.24
   1   4  21   25.29    8.60
  -1   4 -21   36.90    7.56
   1   4  23   75.56   14.47
  -1   4 -23   89.67   11.98
   1   4  25  135.57   20.39
  -1   5  20   -5.46    7.77
   1   5 -20  -10.22    6.08
   1   5 -18  294.77   23.04
  -1   5  18  336.61   29.74
  -1   5  16  109.78   16.88
   1   5 -16   94.82   12.69
   1   5 -14   73.16   11.53
  -1   5  14   83.73   13.84
   1   5 -12  166.78   16.71
  -1   5  12  161.05   18.69
   1   5 -10  449.97   28.58
  -1   5  10  491.12   31.36
   1   5  -8    8.31    2.42
  -1   5   8   13.68    6.69
   1   5  -6   40.05    5.93
  -1   5   6   53.90    9.74
   1   5  -4  807.73   31.88
  -1   5   4  727.24   35.64
   1   5  -2  301.51   19.44
  -1   5   2  349.64   22.00
  -1   5   0    2.43    4.07
   1   5   0    5.17    3.65
  -1   5  -2    4.92    2.74
   1   5   2   14.31    5.70
  -1   5  -4  572.30   24.49
   1   5   4  593.60   32.18
  -1   5  -6  172.13   10.58
   1   5   6  159.84   16.93
  -1   5  -8  108.54   12.96
   1   5   8  101.48   13.99
  -1   5 -10    6.83    4.64
   1   5  10   10.14    5.36
   1   5  12  594.05   37.44
  -1   5 -12  650.89   32.05
  -1   5 -14  336.29   22.26
   1   5  14  321.17   27.83
  -1   5 -16   57.37    9.34
   1   5  16   67.72   13.63
   1   5  18   27.50    9.15
   1   5  20  347.91   32.09
  -1   6  17   15.71    9.75
  -1   6  15   33.71   10.90
   1   6 -13   44.30   10.34
  -1   6  13   27.07    9.78
  -1   6  11    7.47    6.57
   1   6 -11   16.52    6.50
   1   6  -9   12.13    6.19
  -1   6   9   16.82    8.10
  -1   6   7   50.17   11.23
  -1   6   5  161.21   17.51
  -1   6   3   54.15   10.06
  -1   6   1   15.88    6.09
   1   6  -1   14.86    5.83
  -1   6  -1  215.45   17.56
   1   6   1  222.92   19.57
   1   6   3    1.45    5.06
   1   6   5   28.61    7.91
   1   6   7    0.81    6.68
   1   6   9   94.11   15.09
  -1   6  -9   83.63   12.43
   1   6  11   14.95    8.20
   1   6  13   30.67    9.61
   1   6  15   61.60   13.58
  -1   7  12   95.61   17.55
  -1   7  10   11.72   16.20
   1   7   8    0.88    7.13
   1   7  10    7.90    8.39
  -2   0  34   62.97   12.88
  -2   0  32  218.42   21.67
  -2   0  30   50.64    9.91
  -2   0  28 1187.42   50.44
  -2   0  26   -0.88    4.33
  -2   0  24   66.81   10.27
  -2   0  22   89.21   10.87
  -2   0  20 2284.04   68.91
  -2   0  20 2483.59   77.01
   2   0 -20 2260.24   73.48
   2   0 -18   56.05    9.03
  -2   0  18   60.99    9.25
  -2   0  18   54.76    7.76
   2   0 -16  163.07   14.11
  -2   0  16  201.77   15.89
   2   0 -14 1902.13   57.96
  -2   0  14 1979.66   59.36
   2   0 -12 2786.20   74.78
  -2   0  12 2881.92   76.40
   2   0 -10  413.45   18.86
  -2   0  10  413.89   19.04
  -2   0   8 7818.73  171.80
   2   0  -8 7662.80  171.48
   2   0  -6  345.49   14.27
  -2   0   6  364.85   14.55
  -2   0   4 4476.85   99.40
   2   0  -4 4516.10   99.35
   2   0  -2  188.33    7.43
  -2   0   2  193.23    7.37
  -2   0   0    9.03    1.81
  -2   0  -2 3397.98   75.75
   2   0   2 3404.36   75.88
   2   0   4  529.86   17.16
  -2   0  -4  521.43   16.91
  -2   0  -6   32.94    4.03
   2   0   6   34.94    4.31
   2   0   8  626.89   22.84
   2   0   8  651.26   22.66
  -2   0  -8  660.98   22.65
   2   0  10 4902.97  117.18
   2   0  10 5134.46  116.61
  -2   0 -10 4917.43  115.86
   2   0  12  533.39   22.50
   2   0  12  508.30   23.16
   2   0  14   42.68    7.09
   2   0  14   44.11    6.64
   2   0  16  893.74   36.72
   2   0  16  886.95   34.29
   2   0  18 2686.66   77.21
   2   0  18 2706.22   80.84
   2   0  20  243.19   17.98
   2   0  20  209.94   18.20
   2   0  22   40.41    8.09
   2   0  24 1149.51   48.01
   2   0  26   59.21   10.74
   2   0  28   69.99   12.06
   2   0  30   11.68    7.89
   2   0  32  318.62   27.54
  -2   1  35    0.25    5.89
  -2   1  33   -7.51    7.39
  -2   1  31  113.62   16.62
  -2  -1  31  124.17   14.75
  -2   1  29   -9.57    7.24
  -2  -1  29    1.45    4.04
  -2   1  27   76.69   12.60
  -2  -1  27   82.02   10.85
   2   1 -25  172.76   18.02
  -2  -1  25  167.54   14.67
  -2   1  25  150.45   16.74
  -2  -1  23   92.40   10.33
  -2   1  23   99.70   13.03
   2   1 -23   84.47   12.00
  -2   1  21   -2.64    4.88
  -2  -1  21    3.28    4.47
  -2  -1  21   -0.15    2.81
   2   1 -21    2.69    4.31
  -2  -1  19   13.58    4.25
  -2   1  19   12.36    4.48
  -2  -1  19    9.19    4.46
   2   1 -19   12.05    5.65
  -2   1  19   16.43    5.16
  -2   1  17 1245.47   47.45
  -2  -1  17 1195.49   45.38
   2   1 -17 1184.84   44.03
  -2  -1  17 1196.52   37.56
  -2   1  17 1169.44   43.64
  -2   1  15 1239.97   45.79
   2   1 -15 1185.12   42.56
  -2  -1  15 1287.05   44.97
  -2  -1  13  107.23   10.48
   2   1 -13  132.91   11.22
  -2   1  13  112.85   11.14
  -2  -1  11   44.19    6.23
   2   1 -11   56.81    7.09
  -2   1  11   57.85    7.64
  -2  -1   9 1502.72   44.09
  -2   1   9 1456.19   44.15
   2   1  -9 1472.79   43.28
  -2   1   7   71.25    6.93
   2   1  -7   63.28    7.01
  -2  -1   7   70.32    6.93
  -2   1   5  205.07   10.68
  -2  -1   5  197.81    8.25
   2   1  -5  215.58   11.29
   2   1  -3 5074.52  110.73
  -2  -1   3 5088.72  110.20
   2   1  -1  952.98   25.94
  -2  -1   1  921.69   25.39
  -2  -1  -1   81.24    5.94
   2   1   1   78.23    6.00
  -2   1  -3    5.90    1.45
  -2   1  -3    4.70    1.21
  -2  -1  -3    8.32    2.52
   2   1   3    5.82    3.14
   2  -1   5 1165.10   29.05
  -2   1  -5 1169.28   28.39
  -2   1  -5 1186.26   29.31
   2   1   5 1154.20   35.49
   2  -1   5 1174.77   29.72
  -2  -1  -5 1168.68   35.00
   2  -1   7  688.14   19.71
  -2   1  -7  665.57   20.75
  -2   1  -7  673.17   19.11
   2  -1   7  692.85   21.39
   2   1   7  670.94   25.70
  -2  -1  -7  671.64   25.23
   2   1   9  214.73   13.92
   2  -1   9  207.18    9.78
  -2  -1  -9  203.58   13.25
  -2   1  -9  204.54   10.83
  -2   1  -9  195.63    9.29
   2  -1   9  216.33   11.48
  -2   1 -11   25.20    4.64
   2  -1  11   14.58    3.75
   2  -1  11   16.74    3.12
   2   1  11   15.61    4.68
   2  -1  13  174.11   12.53
   2  -1  13  188.06   11.08
   2   1  13  174.91   14.16
  -2   1 -13  185.25   12.34
   2   1  13  185.92   14.93
   2  -1  15  197.91   14.51
   2   1  15  213.16   17.01
   2   1  15  185.77   15.31
   2  -1  15  216.26   12.87
   2   1  17  171.63   15.83
   2  -1  17  153.65   11.56
   2  -1  17  149.29   13.51
   2   1  17  141.71   14.38
   2  -1  19   10.83    4.13
   2  -1  19    7.04    4.25
   2   1  19    9.33    4.85
   2   1  19   18.15    6.27
   2   1  21  757.27   37.51
   2  -1  21  770.83   32.54
   2  -1  21  768.07   37.17
   2  -1  23   11.71    4.65
   2   1  23   26.19    7.11
   2   1  25  261.11   23.05
   2  -1  25  268.60   19.89
   2   1  27   32.01    8.85
   2  -1  27   23.16    6.25
   2  -1  29  119.59   14.75
   2   1  29  109.41   16.30
   2   1  31   -8.72    7.37
   2   1  33   10.99    7.70
  -2   2  32   -6.03    8.93
   2   2 -30   -8.81    6.02
  -2   2  30   -0.68    6.82
   2   2 -28  140.48   17.13
  -2   2  28  156.90   19.44
  -2  -2  26   20.54    4.99
   2   2 -26   29.95    8.47
  -2   2  26   40.58   10.53
   2   2 -24   16.32    6.98
  -2   2  24   16.98    7.57
  -2  -2  24   15.14    4.10
  -2  -2  22  103.01   14.08
  -2  -2  22  100.25    8.79
   2   2 -22  102.16   12.85
  -2   2  22   83.44   12.51
  -2   2  20  268.91   21.64
  -2  -2  20  289.60   21.90
   2   2 -20  266.92   19.88
  -2  -2  20  268.39   13.57
  -2   2  18   41.72    9.23
  -2  -2  18   35.61    7.65
   2   2 -18   40.15    7.85
  -2  -2  18   37.88    4.55
   2   2 -16   88.71   10.50
  -2   2  16  105.73   12.40
  -2  -2  16  120.23    7.15
  -2   2  16   99.47   12.33
  -2  -2  16  118.51   12.70
  -2  -2  14  125.85   12.28
  -2  -2  14  120.25    6.40
  -2  -2  14  121.78    6.97
  -2   2  14  115.53   12.00
  -2   2  14  132.76   13.46
   2   2 -14  125.18   11.81
  -2  -2  12  623.49   18.48
  -2   2  12  673.73   30.31
   2   2 -12  671.74   28.12
  -2  -2  10   73.43    4.19
   2   2 -10   78.98    8.66
   2   2  -8    4.32    3.47
  -2  -2   8    0.66    1.08
   2   2  -6  160.55    7.74
  -2  -2   6  157.76    7.07
  -2  -2   4   -0.70    1.38
   2   2  -4   -0.26    1.63
   2   2  -2   37.81    4.65
  -2  -2   2   33.47    4.16
   2   2   0  108.33    8.34
  -2  -2   0  102.52    7.72
  -2  -2  -2  198.02   11.95
   2   2   2  211.10   12.57
   2   2   4   64.53    7.51
  -2  -2  -4   61.55    6.83
  -2   2  -6   30.24    3.92
  -2  -2  -6   22.01    4.79
   2   2   6   24.67    5.27
   2   2   8   19.04    5.20
  -2   2  -8   16.20    3.30
   2   2  10  289.00   18.66
  -2   2 -10  291.35   14.18
   2  -2  12  349.37   17.94
   2  -2  12  324.12   11.05
   2   2  12  342.30   21.41
  -2   2 -12  358.61   16.92
   2  -2  14    4.21    3.15
   2   2  14   14.11    4.93
  -2   2 -14   11.79    3.72
   2  -2  14    7.95    2.20
  -2   2 -16   27.61    5.63
   2   2  16   19.81    6.88
   2  -2  16   22.87    3.57
   2  -2  16   35.47    6.87
   2  -2  18  118.94   12.24
   2   2  18   84.62   12.37
   2  -2  18   78.52    7.07
  -2   2 -18   76.51    9.52
  -2   2 -20   -0.01    3.32
   2   2  20   -1.53    5.45
   2  -2  20   -3.26    3.90
   2  -2  20    2.35    2.76
   2   2  22   13.28    7.21
   2  -2  22   24.53    7.18
   2  -2  22   11.82    3.85
   2   2  24   45.85   10.42
   2  -2  24   35.06    6.17
   2   2  26   78.86   14.27
   2   2  28   26.45    8.88
   2   2  30    6.24    7.00
   2   3 -31  286.95   26.42
  -2   3  29   13.11    8.58
   2   3 -29    8.52    6.20
  -2   3  27   46.72   12.23
   2   3 -27   41.82    9.78
   2   3 -25  412.30   28.71
  -2   3  25  422.50   32.66
   2   3 -23   97.10   13.19
  -2   3  23  107.35   15.96
  -2   3  21    7.90    5.84
   2   3 -21    5.75    4.39
   2   3 -19   15.78    5.75
  -2   3  19   -3.17    6.28
   2   3 -17  584.76   30.17
  -2   3  17  595.36   33.45
  -2   3  15  414.42   26.48
   2   3 -15  409.49   23.97
   2   3 -13  234.71   17.39
  -2   3  13  252.60   19.43
  -2   3  11  602.38   30.32
   2   3 -11  631.21   29.35
   2   3  -9 1935.89   60.34
  -2   3   9 1940.93   61.33
   2   3  -7  289.00   12.45
  -2   3   7  299.29   18.44
  -2   3   5   13.62    4.35
   2   3  -5    9.96    2.55
   2   3  -3  299.72   15.10
  -2   3   3  323.28   17.05
  -2   3   1 1555.65   45.49
   2   3  -1 1615.31   46.85
  -2   3  -1    2.81    2.20
   2   3   1    7.55    3.63
   2   3   3  363.45   19.88
  -2   3  -3  370.12   14.54
   2   3   5 3966.04  102.94
  -2   3  -5 3937.62   87.29
   2   3   7  453.78   24.47
  -2   3  -7  403.61   18.78
  -2   3  -9  364.82   17.53
   2   3   9  355.35   22.61
  -2   3 -11    8.88    3.58
   2   3  11    0.08    4.00
  -2   3 -13 1028.03   35.58
   2   3  13 1046.27   45.08
   2   3  15  303.03   23.65
  -2   3 -15  343.30   18.72
  -2   3 -17  513.99   24.95
   2   3  17  519.27   32.78
  -2   3 -19   28.28    6.55
   2   3  19   39.76    9.37
   2   3  21  585.08   37.37
  -2   3 -21  595.32   29.72
  -2   3 -23   45.46    8.75
   2   3  23   54.19   12.18
   2   3  25   83.68   15.72
   2   3  27   43.05   12.24
  -2   4  26   17.13    8.97
   2   4 -26    9.32    5.64
   2   4 -24  206.43   20.05
  -2   4  24  214.02   24.03
   2   4 -22   30.75    7.66
  -2   4  22   23.50    9.28
   2   4 -20  352.70   24.90
  -2   4  20  376.41   30.07
  -2   4  18    4.80    5.92
   2   4 -18   -2.40    4.44
  -2   4  16   80.16   13.12
   2   4 -16   83.40   11.65
  -2   4  14   17.65    6.73
   2   4 -14   11.23    5.77
  -2   4  12  841.02   40.41
   2   4 -12  861.02   38.76
   2   4 -10    2.68    3.52
  -2   4  10   -5.26    4.37
  -2   4   8   21.43    6.65
   2   4  -8   17.33    3.21
  -2   4   6  746.09   33.34
   2   4  -6  718.22   26.44
   2   4  -4  155.22   11.70
  -2   4   4  154.96   13.53
   2   4  -2   78.81    8.78
  -2   4   2   62.89    8.28
  -2   4   0   -2.73    3.08
   2   4   0   -1.70    3.72
  -2   4  -2  632.98   24.72
   2   4   2  648.73   30.08
  -2   4  -4  335.39   15.19
   2   4   4  335.25   21.58
  -2   4  -6    6.21    2.17
   2   4   6    5.55    4.78
  -2   4  -8   41.58    7.03
   2   4   8   45.16    8.56
  -2   4 -10  456.61   22.93
   2   4  10  489.17   30.02
   2   4  12   14.04    6.88
  -2   4 -12   12.60    4.16
  -2   4 -14   24.58    5.79
   2   4  14   27.96    9.03
  -2   4 -16  317.20   19.46
   2   4  16  325.18   26.88
   2   4  18  369.63   29.54
  -2   4 -18  294.00   19.46
  -2   4 -20   14.24    5.57
   2   4  20   17.09    8.79
   2   4  22   14.47    9.30
   2   4  24  315.55   30.83
   2   5 -21    2.20    5.79
  -2   5  21   23.06    9.56
  -2   5  19    5.21    7.20
   2   5 -19    5.64    5.18
  -2   5  17   -6.79    6.19
   2   5 -17    4.24    5.34
  -2   5  15   40.91   10.58
   2   5 -15   21.95    7.40
  -2   5  13   16.47    7.81
   2   5 -13    0.27    4.76
  -2   5  11   11.76    6.10
   2   5 -11   12.54    7.85
   2   5  -9    4.82    2.37
  -2   5   9   -0.08    4.73
  -2   5   7    5.76    4.30
   2   5  -7    2.98    2.62
   2   5  -5   26.02    5.74
  -2   5   5   40.01    8.11
  -2   5   3   42.64    8.00
   2   5  -3   57.65    8.35
  -2   5   1   69.17    9.63
   2   5  -1   84.12   10.51
   2   5   1   32.06    8.00
  -2   5  -1   29.99    6.24
   2   5   3    5.25    4.33
  -2   5  -3   12.70    4.33
  -2   5  -5    1.74    2.12
   2   5   5    8.48    5.53
   2   5   7   18.74    6.78
  -2   5  -7    3.83    1.52
  -2   5  -7    7.36    1.86
  -2   5  -9   47.44    8.23
   2   5   9   43.35   10.55
  -2   5 -11   39.95    8.18
   2   5  11   19.43    7.62
   2   5  13   -4.16    6.45
  -2   5 -13    2.24    3.76
   2   5  15    9.97    7.44
  -2   5 -15    5.74    3.83
   2   5  17   24.13   10.08
   2   5  19   21.50   10.75
  -2   6  16   22.25    7.61
  -2   6  14   83.47   14.95
   2   6 -14   81.70   13.67
  -2   6  12   96.70   15.59
   2   6 -12  106.59   15.50
  -2   6  10    0.97    5.18
   2   6 -10  -10.48    7.47
  -2   6   8   -7.53    7.31
  -2   6   6  147.84   16.88
  -2   6   4  330.84   24.48
   2   6  -2   -1.04    5.07
  -2   6   2    4.53    6.79
  -2   6   0    6.22    4.53
   2   6   0   17.61    6.02
   2   6   2  245.38   21.66
   2   6   4   38.13    9.60
   2   6   6    4.24    6.33
   2   6   8   20.33   11.20
   2   6  10  130.44   18.67
   2   6  12    3.19    6.14
   2   6  14   11.80    5.88
  -2   7  11   34.09   11.19
  -2   7   9  124.81   18.72
   2   7   7   63.07   13.44
   2   7   9   21.79   11.29
  -3   0  35    7.48    6.61
  -3   0  33    2.26    5.87
  -3   0  31    0.98    4.40
  -3   0  29    4.36    5.20
  -3   0  27   -4.64    5.89
  -3   0  25    0.31    3.83
  -3   0  23    1.22    4.27
  -3   0  21    5.82    4.31
  -3   0  21   -2.41    3.83
   3   0 -21    5.01    5.59
  -3   0  19    1.75    3.19
   3   0 -19   -0.72    4.15
   3   0 -17   -1.35    4.24
  -3   0  17    0.68    3.03
   3   0 -15    5.59    4.36
  -3   0  15   -3.83    3.45
   3   0 -13   -0.07    3.04
  -3   0  13    1.28    3.24
   3   0 -11    2.41    3.48
  -3   0  11    1.69    2.80
   3   0  -9   -4.78    3.58
  -3   0   9    2.52    2.84
   3   0  -7    1.48    2.98
  -3   0   7    0.50    2.36
  -3   0   5   -0.31    1.74
   3   0  -5    0.20    2.22
  -3   0   3    4.36    1.70
   3   0  -3    5.05    2.12
   3   0  -1    1.04    1.90
  -3   0   1    4.56    1.83
  -3   0  -1    3.66    1.89
   3   0   1    0.67    1.94
   3   0   3   -0.05    2.15
  -3   0  -3    1.47    2.07
   3   0   5   -3.16    2.91
  -3   0  -5    1.99    1.90
   3   0   7    3.15    2.39
  -3   0  -7    1.93    2.10
  -3   0  -9   -1.32    2.47
   3   0   9   -3.74    3.32
   3   0   9   -0.02    2.46
   3   0  11    0.61    2.48
   3   0  11    2.03    2.97
  -3   0 -11    1.79    2.93
   3   0  13    2.25    2.56
   3   0  13   -0.29    3.30
   3   0  15   -2.16    3.61
   3   0  15    0.13    2.81
   3   0  17    2.28    3.54
   3   0  17   -0.01    3.46
   3   0  19   -1.94    3.65
   3   0  19    5.85    4.04
   3   0  21   10.09    5.74
   3   0  21   -2.70    4.59
   3   0  23   -1.61    4.23
   3   0  25   -0.38    4.44
   3   0  27    9.82    6.78
   3   0  29   -1.74    5.03
   3   0  31   -2.38    5.64
  -3   1  36   10.87   10.45
  -3   1  34   65.54   13.12
  -3   1  32  291.12   26.86
  -3  -1  32  354.45   25.21
  -3  -1  30   43.26    8.72
  -3   1  30   45.95   11.28
  -3  -1  28   13.37    5.77
  -3   1  28    2.87    5.30
   3   1 -28    1.32    4.98
  -3  -1  26   61.42    9.22
   3   1 -26   51.49   10.87
  -3   1  26   49.89   10.43
   3   1 -24  610.94   34.33
  -3   1  24  578.40   32.90
  -3  -1  24  607.38   28.65
  -3  -1  22  581.99   26.70
  -3   1  22  575.52   31.16
   3   1 -22  524.39   30.40
  -3  -1  20  274.91   16.41
  -3   1  20  262.61   19.47
   3   1 -20  293.91   21.05
  -3   1  20  260.57   21.07
  -3  -1  20  275.56   21.22
  -3   1  18    3.75    3.78
   3   1 -18   -0.34    3.93
  -3  -1  18    5.96    4.42
  -3   1  16 2838.75   81.77
   3   1 -16 2739.70   78.35
  -3  -1  16 2703.76   80.00
   3   1 -14  463.45   23.44
  -3  -1  14  528.47   25.41
  -3   1  14  469.84   24.76
   3   1 -12  368.50   19.35
  -3   1  12  359.57   19.82
  -3  -1  12  349.88   19.47
  -3  -1  10  231.19   14.24
   3   1 -10  208.62   13.47
  -3   1  10  219.93   14.03
   3   1  -8 3148.38   78.68
  -3  -1   8 3092.76   79.06
  -3   1   8 3127.43   78.11
  -3  -1   6 6661.42  145.29
  -3   1   6 6671.19  148.61
   3   1  -6 6651.20  150.38
  -3  -1   4 9667.76  214.85
   3   1  -4 9999.00  215.30
  -3  -1   2  178.92    9.16
  -3   1   2  178.09    7.68
   3   1  -2  180.10    9.42
   3   1   0 5776.11  128.03
  -3  -1   0 5667.05  127.19
   3   1   2   -0.57    2.88
  -3   1  -2    3.14    1.60
  -3  -1  -2    1.54    2.32
   3   1   4   36.47    5.47
   3  -1   4   50.91    3.09
  -3  -1  -4   39.50    5.14
  -3   1  -4   44.17    3.95
   3  -1   4   49.44    4.31
  -3   1  -4   48.68    2.89
   3  -1   6 1733.77   44.06
  -3   1  -6 1746.23   42.00
   3  -1   6 1757.17   42.50
  -3   1  -6 1740.43   43.08
  -3  -1  -6 1842.43   50.22
   3   1   6 1784.23   50.31
   3  -1   8 2114.37   54.29
   3   1   8 2242.06   61.66
   3  -1   8 2226.72   54.68
  -3  -1  -8 2281.77   61.53
  -3   1  -8 2197.29   53.65
  -3   1  -8 2221.22   53.98
   3   1  10   77.47    8.98
  -3  -1 -10   71.88    8.40
   3  -1  10   63.48    5.98
   3  -1  10   67.99    6.51
  -3   1 -10   56.52    5.35
   3  -1  12  101.42    8.16
  -3   1 -12  105.71    7.94
  -3  -1 -12  113.86   11.15
   3   1  12  103.94   10.80
   3  -1  12   95.78    8.75
   3  -1  14  666.37   27.69
   3   1  14  643.11   30.93
   3   1  14  645.86   30.28
   3  -1  14  684.46   25.81
   3   1  16  685.38   32.67
   3   1  16  761.61   35.32
   3  -1  16  681.83   30.26
   3  -1  16  705.89   28.03
   3  -1  18    1.46    2.66
   3   1  18    4.89    5.02
   3   1  18    8.86    5.36
   3  -1  18   10.40    4.49
   3   1  20  232.36   19.88
   3  -1  20  248.73   19.53
   3  -1  20  261.92   17.60
   3   1  22  166.17   17.43
   3  -1  22  157.57   14.42
   3  -1  22  137.17   15.10
   3  -1  24  222.70   17.83
   3   1  24  192.96   19.71
   3   1  26   21.85    8.37
   3  -1  26   26.32    6.66
   3   1  28    6.60    5.43
   3  -1  28   16.28    6.09
   3   1  30  331.36   29.22
   3   1  32    8.99    8.09
  -3   2  33  138.00   20.23
   3   2 -31   30.20   10.42
  -3   2  31   14.87    7.46
  -3   2  29    5.97    6.72
   3   2 -29    4.19    5.62
   3   2 -27  547.81   34.71
  -3  -2  27  627.95   27.43
  -3   2  27  592.72   37.51
  -3   2  25  177.32   19.61
  -3  -2  25  188.92   13.41
   3   2 -25  203.19   19.51
   3   2 -23  459.25   28.95
  -3  -2  23  472.55   21.22
  -3   2  23  487.58   31.09
  -3  -2  21  145.28   16.16
   3   2 -21  104.50   12.97
  -3   2  21  121.82   14.85
  -3  -2  21  108.50    8.92
  -3   2  19  792.70   38.10
   3   2 -19  784.99   36.29
  -3  -2  19  812.84   38.90
  -3  -2  19  811.36   26.85
  -3   2  17   76.34   11.35
  -3  -2  17   80.62   10.93
   3   2 -17   76.91   10.59
   3   2 -15   96.28   10.96
  -3  -2  15  113.44    7.72
  -3   2  15  116.04   12.96
  -3  -2  15  111.08   12.29
   3   2 -13 1174.17   42.23
  -3   2  13 1224.98   44.85
  -3  -2  13 1159.89   32.62
  -3  -2  11 2088.28   51.66
  -3   2  11 2234.12   65.01
   3   2 -11 2117.33   62.26
  -3  -2   9  123.00    6.92
  -3   2   9  116.11   10.66
   3   2  -9  135.27   11.48
   3   2  -7   30.46    3.59
  -3  -2   7   35.37    3.79
  -3  -2   5  614.38   19.77
   3   2  -5  581.18   20.66
   3   2  -3  992.17   30.28
  -3  -2   3  985.16   29.37
   3   2  -1  255.64   13.50
  -3  -2   1  271.67   13.38
  -3  -2  -1   29.04    4.45
   3   2   1   19.00    4.39
   3   2   3 1950.62   55.35
  -3  -2  -3 1953.07   55.05
  -3   2  -5 2120.09   48.93
   3   2   5 2131.77   59.45
  -3   2  -5 1915.20   47.51
  -3  -2  -5 2073.36   58.63
  -3  -2  -7  570.29   25.75
  -3   2  -7  567.60   18.24
  -3   2  -7  533.23   14.93
   3   2   7  549.25   25.52
  -3   2  -9  813.86   20.54
  -3   2  -9  809.89   25.27
   3   2   9  790.26   33.78
  -3  -2  -9  819.30   33.68
   3  -2  11 1744.71   49.44
   3  -2  11 1734.51   42.63
   3   2  11 1807.09   58.75
  -3   2 -11 1848.57   48.34
  -3   2 -13   59.38    6.75
   3  -2  13   57.28    5.09
   3  -2  13   60.29    7.27
   3   2  13   50.82    8.37
   3  -2  15  251.52   16.28
   3   2  15  247.66   19.82
   3  -2  15  271.51   12.87
  -3   2 -15  254.42   15.32
   3  -2  17  163.10   10.50
   3  -2  17  159.83   13.70
   3   2  17  171.22   17.08
  -3   2 -17  156.49   12.66
   3  -2  19 1303.03   39.98
   3   2  19 1271.03   53.48
   3  -2  19 1235.98   47.16
   3   2  21   86.85   13.53
   3  -2  21   92.95    9.10
   3  -2  21   77.25   10.94
   3   2  23   61.51   12.43
   3  -2  23   54.05    7.42
   3  -2  23   48.57    9.62
   3  -2  25  464.47   23.86
   3   2  25  427.93   32.49
   3   2  27  237.90   25.04
   3   2  29  170.84   22.07
   3   3 -32    2.56    6.11
  -3   3  30   89.16   16.78
   3   3 -30   43.19   10.41
  -3   3  28   27.70    9.14
   3   3 -28   42.98   10.67
   3   3 -26   12.49    6.34
  -3   3  26  -10.59    7.63
   3   3 -24    2.50    4.49
  -3   3  24    9.51    6.53
   3   3 -22    5.84    6.48
  -3   3  22    1.68    5.94
   3   3 -20   48.23    9.40
  -3   3  20   42.24   10.15
  -3   3  18   30.08    8.96
   3   3 -18   27.98    7.19
   3   3 -16  202.27   17.11
  -3   3  16  187.76   17.97
  -3   3  14   87.91   11.76
   3   3 -14  101.43   12.05
  -3   3  14   91.52   12.10
   3   3 -12   15.70    5.53
  -3   3  12    8.82    4.33
  -3  -3  10   18.92    2.38
   3   3 -10    9.20    3.95
  -3  -3   8   45.07    4.33
   3   3  -8   45.51    4.82
  -3  -3   6   42.67    4.66
   3   3  -6   35.59    4.67
  -3  -3   4  120.51    8.76
   3   3  -4  119.68    9.30
  -3  -3   2    2.16    2.22
   3   3  -2    4.45    2.80
   3   3   0  513.45   23.57
  -3  -3   0  518.82   22.64
   3   3   2    6.90    5.22
  -3  -3  -2    9.21    5.21
   3   3   4   -1.65    3.37
  -3  -3  -4    2.40    3.42
  -3   3  -6  582.10   16.22
  -3   3  -6  570.86   17.10
   3   3   6  582.53   28.70
  -3   3  -6  575.22   21.78
  -3   3  -8  382.81   16.84
   3   3   8  390.13   23.72
   3   3  10   23.66    6.62
  -3   3 -10   -0.14    2.03
   3   3  12   24.49    7.16
  -3   3 -12   22.91    4.81
   3   3  14   32.01    8.77
  -3   3 -14   37.72    5.78
   3   3  16   16.48    7.55
  -3   3 -16    6.87    3.76
   3   3  18   20.70    7.48
  -3   3 -18   25.48    5.43
   3   3  20   24.27    8.53
  -3   3 -20    9.79    4.57
   3   3  22  121.48   17.48
   3   3  24   17.49    8.48
   3   3  26   27.46   11.86
   3   4 -27   77.30   13.41
   3   4 -25   18.40    7.54
  -3   4  25   34.08   11.04
   3   4 -23   18.60    6.48
  -3   4  23    5.52    6.95
  -3   4  21  103.72   16.09
   3   4 -21   93.56   13.69
  -3   4  19  175.29   20.07
   3   4 -19  189.75   18.34
  -3   4  17   -6.20    7.37
   3   4 -17   -8.07    5.69
  -3   4  15  113.61   14.98
   3   4 -15  111.04   13.81
  -3   4  13  146.91   16.18
   3   4 -13  145.73   15.46
  -3   4  11  123.51   14.32
   3   4 -11  148.38   15.43
   3   4  -9   93.01    7.20
  -3   4   9   80.18   11.09
  -3   4   7   33.77    7.06
   3   4  -7   26.85    4.84
  -3   4   5  403.21   22.75
   3   4  -5  332.06   18.14
   3   4  -3  430.33   21.92
  -3   4   3  411.47   22.15
  -3   4   1   -1.65    2.64
   3   4  -1    1.37    3.00
  -3   4  -1  117.18    9.78
   3   4   1   98.18   11.04
  -3   4  -3   74.66    7.04
   3   4   3   67.15    9.91
   3   4   5  151.40   15.33
  -3   4  -5  140.46    8.55
  -3   4  -7  245.89    8.71
   3   4   7  275.77   21.30
  -3   4  -7  243.01    8.29
  -3   4  -7  277.27   16.39
   3   4   9   -6.48    5.33
  -3   4  -9    3.79    2.62
  -3   4 -11  611.04   25.61
   3   4  11  584.20   34.36
  -3   4 -13   75.20    8.48
   3   4  13   49.06   10.20
  -3   4 -15   56.87    7.65
   3   4  15   58.42   12.17
  -3   4 -17   73.50    9.00
   3   4  17   75.83   14.11
  -3   4 -19  234.20   16.65
   3   4  19  264.93   26.11
   3   4  21   74.56   15.71
   3   4  23   20.72   10.18
   3   5 -22  178.32   19.46
  -3   5  22  199.53   24.07
   3   5 -20   47.09   10.87
  -3   5  20   63.79   13.01
   3   5 -18   24.13    7.30
  -3   5  18    8.95    7.23
   3   5 -16  430.52   29.56
  -3   5  16  449.52   32.81
   3   5 -14  123.63   15.73
  -3   5  14   89.40   14.70
  -3   5  12  209.43   20.60
   3   5 -12  192.17   19.78
  -3   5  10    9.86    6.43
   3   5 -10    0.25    5.59
   3   5 -10    6.61    2.27
   3   5  -8  786.21   29.44
  -3   5   8  762.88   38.60
   3   5  -6  279.75   17.55
  -3   5   6  263.15   20.64
   3   5  -4  328.57   20.60
  -3   5   4  362.89   23.27
   3   5  -2  641.71   31.50
  -3   5   2  649.30   30.79
   3   5   0 1082.96   44.45
  -3   5   0 1051.23   39.74
  -3   5  -2    4.49    3.55
   3   5   2    0.61    4.27
   3   5   4   85.99   12.56
  -3   5  -4   80.68    8.08
   3   5   6  136.78   16.15
  -3   5  -6  133.97    8.31
  -3   5  -8  318.96   20.20
   3   5   8  299.88   24.97
   3   5  10    2.64    7.42
  -3   5 -10    8.46    4.46
   3   5  12   -7.25    6.75
  -3   5 -12   -3.09    3.49
   3   5  14  308.37   27.93
   3   5  16  224.04   24.29
   3   5  18   53.33   13.25
  -3   6  17   16.44    9.23
   3   6 -15   22.70    8.30
  -3   6  15   32.29   10.86
   3   6 -13   -0.56    5.17
  -3   6  13   11.92    7.07
   3   6 -11   52.24   11.43
  -3   6  11   79.80   14.15
  -3   6   9   11.25    7.04
  -3   6   7    0.32    4.83
  -3   6   5   30.68    8.36
  -3   6   3  100.18   13.13
   3   6  -3   85.59   11.65
  -3   6   1   -0.91    3.82
   3   6  -1    3.02    4.91
   3   6   1    5.19    4.58
   3   6   3   71.81   12.39
   3   6   5   -2.03    5.79
   3   6   7   76.48   14.24
   3   6   9   12.51    7.57
   3   6  11   74.21   14.52
   3   6  13   -5.20    6.44
   3   6  15   -1.41    7.87
  -3   7  12   19.15    9.61
  -3   7  10   -5.48    7.17
   3   7   8   18.66    9.99
   3   7  10   11.59    9.92
  -4   0  36    4.13    6.54
  -4   0  34   50.53   12.23
  -4   0  32  255.42   23.31
  -4   0  30   91.60   13.23
  -4   0  28    5.86    5.23
  -4   0  26  473.92   28.47
  -4   0  24  222.18   18.13
   4   0 -24  208.95   19.93
   4   0 -22  584.17   32.86
  -4   0  20  112.16   13.75
   4   0 -20   88.37   11.87
  -4   0  18 3143.50   89.46
   4   0 -18 2863.33   86.07
   4   0 -16  112.03   11.90
  -4   0  16   97.96   11.09
  -4   0  14  195.69   15.00
   4   0 -14  202.33   15.11
  -4   0  12  877.19   33.10
   4   0 -12  873.12   32.95
   4   0 -10 2651.84   70.39
  -4   0  10 2715.89   71.27
  -4   0   8 1990.18   54.28
   4   0  -8 2007.70   53.89
  -4   0   6 2585.30   64.92
   4   0  -6 2672.07   65.16
   4   0  -4 1020.33   29.34
  -4   0   4 1045.16   29.67
   4   0  -2 4097.49   94.80
  -4   0   2 4216.94   95.37
   4   0  -2 4135.80   92.94
  -4   0   0  602.06   20.98
   4   0   0  623.44   21.17
  -4   0  -2 1577.49   42.52
   4   0   2 1635.63   43.54
   4   0   4 4520.71  104.67
  -4   0  -4 4489.50  104.05
  -4   0  -6 2767.67   69.90
   4   0   6 2824.88   70.66
   4   0   8   56.55    6.72
  -4   0  -8   48.95    6.17
   4   0  10   33.33    5.49
  -4   0 -10   33.08    6.09
   4   0  10   25.75    4.78
   4   0  12 8127.76  184.25
  -4   0 -12 7883.13  182.91
   4   0  12 7967.34  183.61
  -4   0 -14  369.49   20.35
   4   0  14  383.10   21.27
   4   0  14  385.52   21.14
   4   0  16  908.37   36.74
   4   0  16  895.45   37.42
   4   0  18  586.69   29.45
   4   0  18  587.12   30.56
   4   0  20 1880.11   63.50
   4   0  20 1874.36   65.48
   4   0  22  203.10   18.24
   4   0  24   -0.88    5.54
   4   0  26  293.15   24.15
   4   0  28  372.64   28.76
   4   0  30   -4.78    6.78
   4   0  32    5.99    7.30
  -4   1  35   16.71    9.36
  -4   1  33    3.72    7.17
  -4   1  31   26.60    9.05
  -4  -1  31   28.98    7.48
  -4   1  29   85.13   13.76
  -4  -1  29  105.99   12.71
   4   1 -29  105.74   16.16
  -4   1  27   49.08   10.78
   4   1 -27   27.22    8.54
  -4  -1  27   36.36    7.76
  -4  -1  25   68.99    9.74
  -4   1  25   58.39   10.57
   4   1 -25   49.79   10.11
  -4  -1  23  147.12   13.10
  -4   1  23  162.34   16.15
   4   1 -23  137.25   15.93
  -4  -1  21  498.60   30.09
   4   1 -21  463.38   28.13
   4   1 -19   -3.27    4.18
  -4  -1  19    7.55    5.54
  -4   1  19    2.63    3.18
  -4  -1  17   10.75    4.42
   4   1 -17   13.97    5.68
  -4   1  17   13.46    4.93
   4   1 -15  310.58   19.59
  -4   1  15  325.59   20.52
  -4  -1  15  321.38   20.53
   4   1 -13 1264.48   43.66
  -4   1  13 1270.04   44.44
  -4  -1  13 1287.00   44.71
   4  -1 -13 1258.16   44.14
   4   1 -11  488.29   22.82
   4  -1 -11  489.40   22.68
  -4  -1  11  464.50   23.03
  -4   1  11  434.24   21.79
   4   1  -9    0.28    3.59
  -4   1   9    3.96    3.14
  -4  -1   9   -1.08    2.61
   4  -1  -9    1.07    3.44
  -4  -1   7 9147.14  200.85
   4  -1  -7 9271.68  203.38
  -4   1   7 9389.22  203.32
   4   1  -7 9185.02  205.79
  -4   1   5   21.13    3.48
   4  -1  -5   25.58    4.00
  -4  -1   5   20.16    3.70
   4   1  -5   14.41    3.39
  -4   1   3   29.04    3.37
   4   1  -3   30.67    4.47
   4  -1  -3   39.35    3.93
  -4  -1   3   35.03    4.53
   4   1  -1   18.49    4.23
  -4   1   1   24.64    2.34
  -4  -1   1   25.27    4.26
  -4   1  -1  595.90   20.17
  -4  -1  -1  592.08   22.10
   4   1   1  655.40   23.59
  -4   1  -3   17.07    3.27
   4   1   3   14.65    4.23
  -4  -1  -3    9.26    3.51
   4  -1   3   16.84    2.97
   4   1   5  483.05   21.29
   4  -1   5  454.27   17.35
  -4   1  -5  469.47   16.96
  -4  -1  -5  498.03   21.21
   4  -1   5  456.30   13.54
  -4   1  -7 1111.42   31.88
   4  -1   7 1104.63   32.96
   4  -1   7 1106.65   30.03
  -4  -1  -7 1147.09   37.73
   4   1   7 1144.09   38.32
  -4   1  -9 1770.79   46.93
   4   1   9 1806.83   54.45
   4  -1   9 1840.52   48.42
   4  -1   9 1691.78   46.07
  -4  -1  -9 1722.98   53.47
  -4  -1 -11  122.28   11.65
   4  -1  11  120.40    9.19
   4   1  11  119.55   12.16
   4  -1  11  129.02    9.51
  -4   1 -11  133.89    9.27
   4   1  13   -2.98    3.97
  -4  -1 -13    0.29    3.58
  -4   1 -13    1.12    1.99
   4  -1  13    2.73    2.99
   4  -1  13    1.20    2.52
   4  -1  15  495.59   22.87
   4   1  15  530.68   28.17
   4  -1  15  461.02   23.06
   4   1  15  475.61   26.55
   4   1  17   49.29    8.59
   4  -1  17   38.07    6.55
   4  -1  17   41.76    7.10
   4   1  17   52.82    9.28
   4  -1  19    5.67    4.19
   4  -1  19    4.18    3.52
   4   1  19    7.08    5.75
   4   1  21   84.90   13.14
   4  -1  21   92.40   11.86
   4  -1  21  102.37   11.69
   4  -1  23  162.55   15.47
   4   1  23  157.85   17.73
   4   1  25   32.21    9.65
   4  -1  25   50.49    9.64
   4   1  27    5.61    5.55
   4  -1  27   37.99    8.40
   4   1  29   43.86   10.87
   4   1  31  129.51   19.12
   4   1  33   -7.12    9.39
  -4   2  32   10.99    7.61
   4   2 -32    2.18    6.28
  -4   2  30   -3.54    7.75
   4   2 -30    7.54    7.15
   4   2 -28    1.50    5.69
  -4   2  28   -3.47    6.30
  -4  -2  28   -4.15    4.13
  -4   2  26   92.41   14.43
   4   2 -26  113.64   15.35
  -4  -2  26   91.11    9.63
   4   2 -24   13.29    6.39
  -4   2  24    9.21    5.98
  -4  -2  24   23.09    5.19
  -4  -2  22   87.80    8.33
   4   2 -22   56.43   10.21
  -4   2  22   72.99   12.08
  -4  -2  20   -0.55    3.90
   4   2 -20    5.05    4.37
  -4   2  18  239.18   20.11
  -4  -2  18  250.63   20.21
   4   2 -18  253.30   19.39
   4   2 -16   19.35    6.34
  -4  -2  16   12.01    3.22
  -4   2  16   13.20    5.25
  -4   2  14   31.99    7.04
  -4  -2  14   32.45    4.42
   4   2 -14   33.07    7.13
   4   2 -12   68.35    8.97
  -4   2  12   73.27    9.06
  -4  -2  12   61.08    5.82
  -4   2  10  534.81   24.58
  -4  -2  10  466.04   18.07
   4   2 -10  536.25   25.37
   4   2  -8  338.08   19.38
  -4  -2   8  331.62   14.25
  -4   2   8  349.10   18.17
   4   2  -8  346.15   14.51
   4   2  -6  236.01   12.59
  -4   2   6  245.39   13.95
  -4  -2   6  244.05   12.08
   4   2  -4  338.61   15.82
  -4  -2   4  314.04   14.60
   4   2  -2  599.07   23.04
  -4  -2   2  586.52   22.36
   4   2   0    1.91    3.35
  -4  -2   0    2.87    2.58
   4   2   2  166.53   12.20
  -4  -2  -2  170.75   12.01
   4   2   4   37.54    6.52
  -4   2  -4   35.21    3.01
  -4  -2  -4   33.60    6.18
  -4   2  -4   41.30    4.49
  -4   2  -6  117.40    6.90
   4   2   6  135.94   12.10
  -4   2  -6  124.22    6.10
  -4  -2  -6  130.76   11.48
  -4   2  -8   24.39    2.99
   4   2   8   29.17    6.81
  -4   2  -8   29.77    3.42
  -4  -2  -8   33.43    6.61
  -4   2 -10   -0.86    1.54
  -4   2 -10    0.96    1.48
  -4  -2 -10   13.42    5.35
   4  -2  10    1.02    1.60
   4   2  10   14.20    5.43
  -4  -2 -12  426.33   25.32
  -4   2 -12  438.76   18.18
   4  -2  12  446.30   17.15
   4   2  12  475.21   26.68
   4  -2  12  439.31   19.51
   4   2  14   30.27    8.10
   4  -2  14   19.54    4.78
   4  -2  14   26.06    4.18
   4   2  16    5.75    4.76
   4  -2  16   16.37    4.54
   4  -2  16   14.99    3.68
   4   2  18   27.57    7.75
   4  -2  18   27.33    5.20
   4  -2  18   40.60    7.60
   4  -2  20  251.35   19.11
   4   2  20  276.49   23.74
   4  -2  20  273.06   16.43
   4   2  22   46.08   10.70
   4  -2  22   36.76    6.34
   4  -2  22   33.91    7.70
   4   2  24   11.86    7.33
   4  -2  24    5.57    3.13
   4   2  26   16.42    7.67
   4   2  28   -6.96    8.14
   4   2  30   16.23    8.65
   4   3 -33   36.13   11.22
   4   3 -31   43.45   11.56
   4   3 -29  295.46   26.51
  -4   3  29  313.52   29.40
   4   3 -27   33.79   10.16
  -4   3  27   29.50   10.25
  -4   3  25   15.00    8.13
   4   3 -25    0.40    5.87
  -4   3  23  390.79   29.84
  -4  -3  23  386.05   12.99
   4   3 -23  381.79   27.12
  -4   3  21  248.13   22.49
  -4  -3  21  236.76    9.31
   4   3 -21  245.85   20.94
  -4  -3  21  238.07    8.89
   4   3 -19    7.75    5.50
  -4  -3  19    3.32    1.14
  -4   3  19   -4.03    5.98
  -4  -3  19    5.74    1.56
  -4   3  17   -3.25    5.68
  -4  -3  17   -0.69    1.19
   4   3 -17   -5.14    5.16
   4   3 -15  976.96   41.29
  -4  -3  15  903.65   24.03
  -4   3  15 1019.88   43.69
  -4  -3  13  816.29   22.93
   4   3 -13  814.05   36.78
  -4   3  13  877.34   38.76
   4   3 -11   38.96    8.24
  -4  -3  11   46.34    4.38
  -4   3  11   46.96    8.07
   4   3  -9   43.90    5.00
  -4  -3   9   44.29    4.71
  -4  -3   7 2614.49   64.78
   4   3  -7 2562.08   67.11
  -4  -3   5   59.96    6.42
   4   3  -5   51.51    6.59
   4   3  -3  430.81   20.61
  -4  -3   3  435.67   19.71
   4   3  -1  222.97   15.06
  -4  -3   1  228.70   14.47
   4   3   1 4169.57  106.84
  -4  -3  -1 4185.07  105.33
  -4  -3  -3   39.86    6.96
   4   3   3   51.75    8.10
  -4  -3  -5  467.68   25.21
  -4   3  -5  504.93   17.81
   4   3   5  515.45   26.61
  -4   3  -5  507.72   18.80
  -4  -3  -7  660.87   31.29
  -4   3  -7  653.50   21.67
  -4   3  -7  611.05   17.84
   4   3   7  644.18   31.63
  -4   3  -9 1721.52   45.77
   4   3   9 1747.47   60.69
   4   3  11  132.92   15.10
  -4   3 -11  170.76   10.17
  -4   3 -13   67.22    6.99
   4   3  13   73.88   12.04
  -4   3 -15  646.64   25.30
   4   3  15  646.79   36.74
   4   3  17  202.35   20.70
  -4   3 -17  225.80   14.68
   4   3  19   12.57    7.16
   4   3  21   81.44   14.58
   4   3  23  754.59   46.07
   4   3  25   27.76   10.62
   4   3  27   33.78   11.05
   4   4 -30    0.79    5.54
   4   4 -28   10.00    6.37
  -4   4  26  119.65   19.13
   4   4 -26  100.44   15.12
  -4   4  24  101.71   17.16
   4   4 -24  113.26   15.90
   4   4 -22   16.67    6.79
  -4   4  22   16.91    8.04
   4   4 -20    0.60    4.39
  -4   4  20   -3.83    5.58
  -4   4  18  263.14   24.00
   4   4 -18  279.65   22.90
  -4   4  16   -0.54    6.13
   4   4 -16    9.38    5.97
  -4   4  14  126.41   15.51
   4   4 -14  120.94   14.53
   4   4 -12  239.20   20.37
  -4   4  12  258.33   21.04
  -4   4  10  777.91   36.93
   4   4 -10  787.77   26.12
   4   4  -8  104.89    9.48
  -4   4   8  123.49   13.42
  -4   4   6   20.71    5.85
   4   4  -6   12.71    3.98
  -4   4   4  398.86   22.33
   4   4  -4  409.66   21.76
  -4   4   2  264.10   16.73
   4   4  -2  258.75   17.74
  -4   4   0  105.49    9.81
   4   4   0  108.59   12.05
  -4   4  -2   80.79    7.83
   4   4   2   95.65   11.44
   4   4   4 1049.95   43.13
  -4   4  -4  934.33   29.87
   4   4   6  272.03   21.22
  -4   4  -6  257.55   11.80
  -4   4  -6  269.17   11.17
  -4   4  -6  257.05   15.12
   4   4   8  132.79   15.19
  -4   4  -8  139.99   10.43
   4   4  10   17.55    6.96
  -4   4 -10   15.91    3.78
  -4   4 -12  877.58   30.53
   4   4  12  831.85   43.54
   4   4  14   10.80    7.27
  -4   4 -14    6.79    2.69
   4   4  16   21.29    8.40
  -4   4 -16   24.54    5.00
   4   4  18   63.40   13.65
  -4   4 -18   45.22    6.81
   4   4  20  508.82   37.75
   4   4  22   -3.84    6.80
   4   5 -23   14.32    7.46
   4   5 -21   16.93    6.67
  -4   5  21   32.85   10.56
  -4   5  19   10.69    7.44
   4   5 -19    9.33    7.74
  -4   5  17   40.27   11.63
   4   5 -17   46.66    9.98
  -4   5  15   37.13   10.47
   4   5 -15   25.49    8.00
   4   5 -13    2.40    4.95
  -4   5  13   -1.72    6.26
  -4   5  11   44.69    9.36
   4   5 -11   39.92    9.71
  -4   5   9   -1.10    4.13
   4   5  -9   -0.52    2.43
   4   5  -7   63.61    8.68
  -4   5   7   83.59   12.11
   4   5  -5   67.90    9.30
  -4   5   5   78.31   10.74
  -4   5   3    8.94    4.72
   4   5  -3   10.94    4.89
  -4   5   1   -2.50    3.43
   4   5  -1   -3.24    5.45
   4   5   1   10.31    4.91
  -4   5  -1   17.12    4.68
   4   5   3   20.06    7.71
  -4   5  -3   36.37    5.92
   4   5   5   17.93    7.82
  -4   5  -5    9.14    3.10
   4   5   7   36.98    9.83
  -4   5  -7   27.56    5.81
   4   5   9    5.05    5.16
  -4   5  -9    8.32    4.20
   4   5  11   -1.66    6.90
  -4   5 -11    1.28    2.86
   4   5  13  -14.70    8.69
   4   5  15   14.27    8.79
   4   5  17   46.41   12.98
   4   5  19   53.28   13.40
  -4   6  18  171.58   23.00
   4   6 -18  122.13   17.79
   4   6 -16   19.85    8.78
  -4   6  16   16.28    7.67
  -4   6  14    6.46    7.96
   4   6 -14   -7.38    6.49
   4   6 -12   10.68    5.81
  -4   6  12   38.05   10.38
  -4   6  10  152.79   18.66
   4   6 -10  143.59   18.91
  -4   6   8   27.15    8.52
  -4   6   6    7.81    5.34
   4   6  -4   96.47   12.74
  -4   6   4   79.73   12.25
   4   6  -2  213.94   19.66
  -4   6   2  239.73   19.64
  -4   6   0   25.73    6.54
   4   6   0   33.10    8.69
   4   6   2   -1.93    5.65
   4   6   4  299.13   26.05
   4   6   6   45.99   11.51
   4   6   8   30.47    9.52
   4   6  10   20.19    9.19
   4   6  12  237.51   26.13
   4   6  14   15.21    9.24
  -4   7  11   26.18   10.29
   4   7  -9    0.73    6.70
   4   7   7   58.19   14.71
   4   7   9   57.20   14.06
  -5   0  35   -1.79    6.02
  -5   0  33   11.93    6.69
  -5   0  31   -0.59    4.70
  -5   0  29   -4.86    5.78
  -5   0  27    2.72    4.93
   5   0 -25   -1.67    4.80
   5   0 -23    8.24    6.26
   5   0 -21    4.59    5.83
   5   0 -19    0.02    4.64
  -5   0  19   -3.00    4.12
   5   0 -17    1.92    4.52
  -5   0  17   -0.47    3.24
  -5   0  15    2.46    3.25
   5   0 -15   -2.37    3.80
  -5   0  13    1.16    3.20
   5   0 -13   -0.01    3.31
  -5   0  11    0.05    2.59
   5   0 -11   -0.15    3.27
  -5   0   9    3.09    2.69
   5   0  -9    3.22    3.59
  -5   0   7    0.19    2.35
   5   0  -7    2.86    3.30
  -5   0   5    3.58    2.63
   5   0  -5    4.33    2.91
  -5   0   3    1.37    2.26
   5   0  -3   -0.30    2.35
   5   0  -3    2.37    2.80
  -5   0   1    0.53    2.46
   5   0  -1   -0.13    2.85
  -5   0  -1   -0.47    2.13
   5   0   1    7.51    3.70
  -5   0  -3   -1.19    2.10
   5   0   3    4.45    3.38
  -5   0  -5    3.10    2.74
   5   0   5    3.88    3.04
  -5   0  -7    3.53    3.16
   5   0   7   -3.31    3.18
  -5   0  -9    2.06    2.59
   5   0   9   -7.14    4.11
   5   0  11    3.42    2.56
   5   0  11   -3.84    3.90
  -5   0 -11    3.56    2.59
   5   0  13   -1.03    3.15
   5   0  13   -0.36    2.94
  -5   0 -13   -1.52    3.92
   5   0  15   -4.37    4.03
  -5   0 -15    3.76    3.49
   5   0  15   -4.57    4.50
   5   0  17   -1.08    3.89
   5   0  17    0.39    3.72
   5   0  19    5.77    4.59
   5   0  19    2.24    4.14
   5   0  21    0.94    3.93
   5   0  23   -1.52    4.49
   5   0  25   -1.60    5.16
   5   0  27  -15.36    7.57
   5   0  29   -0.32    5.76
   5   0  31   -4.01    6.14
  -5   1  36  215.98   24.52
  -5   1  34   17.89    9.39
  -5   1  32   88.14   14.75
  -5  -1  32  105.32   13.47
  -5  -1  30   59.95   10.11
  -5   1  30   59.29   12.37
   5   1 -30   62.39   13.14
  -5  -1  28  461.13   26.80
   5   1 -28  423.45   31.27
  -5   1  28  431.71   30.22
   5   1 -26   -4.83    5.32
  -5   1  26    1.91    4.68
  -5  -1  26    9.11    4.59
   5   1 -24  122.37   15.26
   5   1 -22  301.76   23.28
  -5  -1  20  873.22   40.64
   5   1 -20  756.82   37.01
   5   1 -18    2.49    3.97
  -5  -1  18    2.06    3.30
   5  -1 -18    0.07    4.29
  -5   1  18    9.45    4.54
  -5   1  16  370.51   22.98
   5  -1 -16  404.27   23.84
  -5  -1  16  409.01   24.10
   5   1 -16  384.71   23.04
  -5   1  14  568.87   27.32
   5  -1 -14  527.22   26.55
  -5  -1  14  544.17   27.43
   5   1 -14  526.49   26.37
  -5   1  12 1175.55   41.42
   5  -1 -12 1187.26   41.80
  -5  -1  12 1218.34   42.86
   5   1 -12 1189.07   42.00
   5   1 -10  139.65   11.82
   5  -1 -10  133.04   11.01
  -5  -1  10  158.97   10.38
  -5   1  10  137.42   11.04
  -5  -1  10  138.55   11.76
   5   1  -8  220.81   14.65
  -5  -1   8  227.78   12.62
  -5   1   8  240.23   13.53
   5  -1  -8  220.56   13.17
  -5  -1   6 1441.17   42.61
   5  -1  -6 1543.10   41.89
   5   1  -6 1487.20   42.22
  -5   1   6 1522.14   41.79
   5   1  -6 1512.29   45.58
   5  -1  -4   22.67    3.50
   5   1  -4   15.71    4.05
  -5  -1   4   26.17    4.56
  -5   1   4   19.97    3.31
  -5   1   2 1233.49   31.00
   5   1  -2 1256.89   38.10
   5  -1  -2 1236.50   30.86
  -5  -1   2 1147.03   36.45
  -5   1   0  168.30   10.16
  -5  -1   0  167.01   11.17
   5   1   0  173.37   11.76
   5  -1   2 1646.50   45.51
   5   1   2 1746.88   50.02
  -5   1  -2 1739.93   46.73
  -5  -1  -2 1732.48   49.22
  -5  -1  -4   35.58    5.55
   5  -1   4   21.74    4.00
  -5   1  -4   20.22    3.76
   5   1   4   27.71    5.64
   5   1   6    6.50    4.26
  -5  -1  -6    3.93    2.32
   5  -1   6    6.04    1.69
  -5   1  -6    6.03    2.30
   5  -1   6    4.07    2.62
   5  -1   8 1328.91   39.81
   5   1   8 1361.85   44.93
   5  -1   8 1272.16   35.00
  -5   1  -8 1299.86   38.13
  -5  -1  -8 1297.94   43.73
  -5   1 -10  399.78   18.21
   5   1  10  432.60   23.14
   5  -1  10  426.43   17.47
  -5  -1 -10  409.43   22.31
   5  -1  10  439.52   19.82
  -5  -1 -12   36.12    6.77
   5   1  12   33.97    6.87
   5  -1  12   41.68    6.32
  -5   1 -12   35.74    5.64
   5  -1  12   34.56    5.51
  -5   1 -14   98.04    9.25
   5   1  14   98.45   11.78
  -5  -1 -14   90.66   11.05
   5  -1  14  114.72   10.42
   5  -1  14   97.78    9.58
   5  -1  16 1764.70   55.71
   5   1  16 1888.42   63.50
   5   1  16 1829.04   62.63
   5  -1  16 1757.80   55.91
   5  -1  18  422.66   23.61
   5   1  18  418.37   27.10
   5  -1  18  416.40   23.86
   5   1  18  457.88   28.38
   5  -1  20  143.56   14.50
   5  -1  20  179.94   15.67
   5   1  20  183.98   18.20
   5   1  22   -1.88    4.63
   5  -1  22    3.08    4.80
   5  -1  22    1.93    4.18
   5   1  24  566.38   36.04
   5  -1  24  608.03   32.60
   5  -1  26   76.46   12.03
   5   1  26   48.45   12.13
   5   1  28   90.30   15.46
   5  -1  28   81.10   12.39
   5   1  30   26.67    9.65
   5   1  32  115.74   18.16
  -5   2  33   59.18   13.50
   5   2 -33   66.13   14.18
   5   2 -31  308.16   28.08
  -5   2  31  315.19   28.91
  -5   2  29   36.32   10.25
   5   2 -29   39.29   10.53
   5   2 -27    8.97    6.66
  -5  -2  27    6.07    3.28
  -5   2  27    4.05    5.73
  -5  -2  25  322.87   18.54
  -5   2  25  295.18   25.12
   5   2 -25  321.91   25.67
   5   2 -23  180.85   18.48
   5   2 -21   59.26   10.85
  -5  -2  19   47.07    9.69
  -5  -2  19   25.29    5.18
   5   2 -19   27.93    7.26
  -5  -2  17 1677.11   48.88
  -5   2  17 1741.93   61.24
   5   2 -17 1657.34   58.59
  -5  -2  15   95.90    8.53
  -5   2  15   94.35   11.39
   5   2 -15   82.66   11.09
  -5   2  13   94.81   11.07
   5   2 -13   76.57   10.28
  -5  -2  13   77.73    7.34
   5   2 -11 2026.10   62.14
  -5  -2  11 1915.49   53.21
  -5   2  11 2024.54   60.34
   5   2  -9 2876.69   80.47
  -5  -2   9 2749.55   70.95
  -5   2   9 2939.99   76.53
  -5  -2   7    3.26    2.62
  -5   2   7   11.66    4.14
   5   2  -7    0.56    2.34
  -5  -2   5   25.28    4.52
   5   2  -5   25.28    5.08
  -5   2   5   21.29    4.12
   5   2  -3 2646.69   69.85
  -5  -2   3 2603.75   68.16
  -5   2   3 2639.22   64.01
   5   2  -1 2937.35   75.60
  -5   2   1 2785.43   65.49
  -5  -2   1 2889.99   74.43
   5   2   1 1127.32   39.13
  -5  -2  -1 1159.87   38.64
  -5   2  -3   55.97    5.74
  -5  -2  -3   51.20    7.25
   5   2   3   44.95    7.36
  -5   2  -5 4492.02  106.75
   5   2   5 4890.07  119.11
  -5  -2  -5 4817.58  117.45
  -5  -2  -7  994.25   38.10
  -5   2  -7  913.13   27.85
   5   2   7  987.93   38.64
  -5  -2  -9  219.48   16.91
   5  -2   9  212.06   10.98
  -5   2  -9  199.28   10.20
   5   2   9  212.64   17.01
  -5  -2 -11   14.59    4.85
   5   2  11   15.59    6.23
   5  -2  11    7.88    2.48
  -5   2 -11    6.38    1.94
   5  -2  11    8.02    2.46
  -5   2 -13 1770.15   46.94
   5  -2  13 1757.21   49.22
   5  -2  13 1735.93   49.99
  -5  -2 -13 1836.35   62.61
   5   2  13 1786.80   62.48
   5  -2  15  534.93   22.62
   5  -2  15  551.19   24.14
   5   2  15  525.20   31.15
   5  -2  17  454.54   21.61
   5  -2  17  457.60   23.43
   5   2  17  484.68   30.54
   5   2  19   61.51   12.13
   5  -2  19   65.45    9.30
   5  -2  19   82.85    9.07
   5   2  21  945.51   47.95
   5  -2  21  977.40   36.90
   5  -2  21  888.97   39.34
   5   2  23   31.74   11.00
   5  -2  23   28.13    6.88
   5   2  25  101.35   16.57
   5   2  27  111.88   17.64
   5   2  29  304.63   30.40
   5   3 -34   20.04   10.86
   5   3 -32   -8.11    8.39
   5   3 -30    0.40    5.53
  -5   3  30  -10.14    8.04
   5   3 -28  106.78   16.05
  -5   3  28  104.22   17.43
   5   3 -26   -3.59    5.29
  -5   3  26   -5.22    6.52
   5   3 -24   43.74    9.91
  -5   3  24   48.94   11.46
  -5  -3  22   -0.57    1.71
   5   3 -22   -3.04    4.76
  -5  -3  22   -2.93    2.10
  -5   3  22    5.83    5.18
  -5   3  20   13.15    6.93
   5   3 -20    7.16    4.37
  -5  -3  20    3.26    2.02
   5   3 -18    0.81    4.24
  -5  -3  18   -0.29    1.76
  -5  -3  16    3.36    1.89
   5   3 -16    5.07    4.56
  -5   3  14    4.30    3.89
   5   3 -14    4.60    4.42
  -5  -3  14    6.90    2.19
  -5   3  12  184.08   15.84
   5   3 -12  189.22   16.87
  -5  -3  12  180.17   10.23
  -5  -3  10    1.39    2.05
   5   3 -10    3.26    2.24
  -5   3  10    5.26    3.81
   5   3 -10   -6.95    5.16
  -5  -3   8    6.65    2.82
  -5   3   8    1.56    2.58
   5   3  -8    2.23    2.28
  -5  -3   6  194.62   12.12
   5   3  -6  177.23   12.84
  -5  -3   4   34.53    5.70
   5   3  -4   41.22    6.56
  -5  -3   2   68.44    8.03
   5   3  -2   77.44    9.18
  -5  -3   0    8.87    3.65
   5   3   0    6.20    4.24
   5   3   2  109.16   11.48
  -5  -3  -2  106.38   11.05
   5   3   4    5.05    5.06
  -5   3  -4    6.07    2.53
  -5  -3  -4    0.89    2.98
  -5   3  -6   32.51    3.61
  -5  -3  -6   27.15    6.40
   5   3   6   19.14    6.94
  -5   3  -6   23.89    3.77
  -5  -3  -8  239.18   18.78
  -5   3  -8  220.75    9.31
  -5   3  -8  220.65    9.85
   5   3   8  206.80   18.02
   5   3  10   99.47   13.07
  -5   3 -10   82.47    6.13
  -5   3 -12   26.20    3.95
   5   3  12   51.14   10.76
   5   3  14   30.04    7.94
  -5   3 -14   40.97    5.38
   5   3  16   23.64    8.33
   5   3  18   25.95    8.67
   5   3  20   75.45   14.88
   5   3  22    7.03    8.54
   5   3  24   78.15   15.59
   5   3  26   -3.73    6.62
   5   4 -31   18.49    9.90
   5   4 -29   33.37   10.21
   5   4 -27    0.63    5.61
  -5   4  25   83.03   15.35
   5   4 -25   72.84   13.64
   5   4 -23   32.88    9.80
  -5   4  23   21.61    8.28
   5   4 -21   17.77    8.01
  -5   4  21   15.50    8.16
  -5   4  19   63.58   12.83
   5   4 -19   35.08    9.36
  -5   4  17  319.65   26.04
   5   4 -17  315.08   24.85
  -5   4  15    9.95    5.58
   5   4 -15    8.95    6.56
   5   4 -13   31.47    8.16
  -5  -4  13   28.56    3.47
  -5   4  13   29.60    8.09
   5   4 -11  378.73   26.47
  -5  -4  11  364.63   15.65
  -5   4  11  390.29   25.02
  -5  -4   9   59.46    6.58
   5   4  -9   62.90    7.64
  -5  -4   7   40.99    6.01
   5   4  -7   43.54    7.00
  -5  -4   5   74.65    8.45
   5   4  -5   74.21    9.23
  -5  -4   3  363.72   20.25
   5   4  -3  371.79   21.98
  -5  -4   1  706.02   31.42
   5   4  -1  702.94   32.97
  -5  -4  -1   36.74    7.19
   5   4   1   40.86    8.21
   5   4   3   75.31   11.08
  -5  -4  -3   85.03   10.90
  -5   4  -5  585.01   21.81
  -5   4  -5  569.83   22.63
   5   4   5  596.12   32.44
  -5   4  -5  554.45   20.18
   5   4   7   92.23   13.62
  -5   4  -7  123.08    8.94
  -5   4  -7  112.83    6.78
  -5   4  -7  117.94    6.24
   5   4   9  169.09   18.54
  -5   4  -9  179.95   10.54
   5   4  11   -7.27    7.92
  -5   4 -11   -0.65    1.84
   5   4  13  341.18   27.54
  -5   4 -13  344.74   15.73
   5   4  15   90.18   15.67
  -5   4 -15   80.96    7.53
   5   4  17  163.73   20.63
   5   4  19   -4.17    8.49
   5   4  21  215.93   24.87
   5   5 -26   20.82    9.64
   5   5 -24   43.10   10.54
   5   5 -22  105.52   16.10
  -5   5  22  103.31   17.39
   5   5 -20  220.62   22.49
  -5   5  20  199.75   23.50
  -5   5  18   11.53    8.14
   5   5 -18   11.01    7.66
   5   5 -16   48.73   11.13
  -5   5  16   50.15   11.86
  -5   5  14  178.79   19.60
   5   5 -14  143.73   18.06
  -5   5  12  183.96   19.13
   5   5 -12  176.13   19.78
   5   5 -10   42.40    6.14
  -5   5  10   39.64    9.15
  -5   5   8   35.37    8.62
   5   5  -8   53.87    7.88
  -5   5   6  578.45   31.48
   5   5  -6  587.98   29.58
  -5   5   4  200.77   17.04
   5   5  -4  195.63   17.02
   5   5  -2   13.59    5.68
  -5   5   2   15.68    5.26
   5   5   0  119.90   14.05
  -5   5   0   85.67    9.82
   5   5   2  502.10   31.25
  -5   5  -2  520.38   23.75
  -5   5  -4    1.05    2.21
   5   5   4    0.85    4.32
   5   5   6  104.23   15.57
  -5   5  -6  124.30    7.82
  -5   5  -6  142.81   12.01
  -5   5  -8  372.62   18.84
   5   5   8  376.89   29.29
   5   5  10  390.13   30.67
   5   5  12   15.03    7.71
   5   5  14   42.20   11.99
   5   5  16  380.32   33.60
   5   5  18   57.22   13.83
   5   6 -19    5.61    6.53
   5   6 -17  116.52   17.46
  -5   6  17   92.86   16.80
   5   6 -15    3.34    6.01
  -5   6  15    8.22    6.30
   5   6 -13   -1.94    5.89
  -5   6  13   22.45    8.02
  -5   6  11   19.49    8.42
   5   6 -11   19.56    9.64
  -5   6   9   56.11   11.89
  -5   6   7    4.98    4.46
  -5   6   5   17.67    7.22
  -5   6   3   67.77   10.84
   5   6  -3   68.10   11.50
   5   6  -1  147.64   17.06
  -5   6   1  130.87   14.01
   5   6   1   -0.41    4.75
   5   6   3    8.42    6.20
   5   6   5   37.11   10.24
   5   6   7   39.44   10.88
   5   6   9   -3.84    7.45
   5   6  11    6.99    8.38
   5   6  13  144.43   21.56
   5   7 -10   -9.44    9.07
   5   7   6   14.94    8.82
   5   7   8    1.55    7.28
  -6   0  36   78.87   14.83
  -6   0  34   53.22   11.91
  -6   0  32  108.43   15.16
  -6   0  30  301.96   24.68
  -6   0  28   94.36   13.48
   6   0 -28   98.86   15.61
   6   0 -26  141.23   17.72
   6   0 -24 1307.12   55.50
   6   0 -22 1009.48   45.47
  -6   0  20  705.99   36.08
   6   0 -20  667.49   34.46
   6   0 -18    9.77    4.70
  -6   0  18   16.12    6.05
  -6   0  16 3139.19   87.87
   6   0 -16 2911.75   85.83
   6   0 -14    4.27    3.81
  -6   0  14    6.56    3.96
  -6   0  12  121.13   11.38
   6   0 -12   99.51   10.62
   6   0 -10   67.55    8.13
  -6   0  10   64.80    7.87
   6   0  -8 6422.52  150.26
  -6   0   8 6686.35  150.99
   6   0  -6 3859.59   92.74
  -6   0   6 3861.07   93.05
  -6   0   4 1674.55   47.66
   6   0  -4 1636.90   45.10
  -6   0   2 1134.09   35.95
   6   0  -2 1076.43   34.86
  -6   0   0  983.36   33.29
   6   0   0 1052.47   34.39
  -6   0  -2 1063.24   34.96
   6   0   2 1089.16   36.22
   6   0   4   44.35    6.72
  -6   0  -4   29.52    5.00
   6   0   6  270.99   16.34
  -6   0  -6  285.77   16.10
   6   0   8 2758.58   74.95
  -6   0  -8 2737.54   73.90
  -6   0 -10   14.83    4.25
   6   0  10   15.55    4.43
   6   0  12  487.85   23.51
   6   0  12  489.47   25.21
  -6   0 -12  491.67   24.41
  -6   0 -14 3392.04   92.09
   6   0  14 3283.03   90.81
   6   0  14 3443.08   93.98
   6   0  16   63.37    9.37
  -6   0 -16   74.87    9.91
   6   0  16   63.40    9.56
   6   0  18   55.81    9.15
   6   0  18   56.17    9.24
   6   0  20  165.87   16.54
   6   0  20  163.29   16.72
   6   0  22  571.19   33.58
   6   0  24   93.06   14.37
   6   0  26  118.74   15.95
   6   0  28  229.16   23.51
   6   0  30  542.07   37.82
  -6   1  35   71.59   13.96
  -6   1  33   -5.19    6.29
  -6  -1  33   17.02    7.24
   6   1 -33   13.59    9.23
  -6  -1  31    9.04    6.49
  -6   1  31   -7.84    8.30
   6   1 -31   -5.19    6.79
  -6  -1  29    8.96    5.01
  -6   1  29   -4.33    6.56
   6   1 -29    8.59    7.11
   6   1 -27  401.89   29.80
   6   1 -25   15.30    6.86
   6   1 -23    2.10    5.06
   6   1 -21  222.63   19.59
  -6  -1  19  376.98   25.28
   6   1 -19  325.07   22.77
   6  -1 -19  335.95   23.60
  -6   1  19  372.42   24.83
   6   1 -17    1.49    3.91
  -6  -1  17    5.85    4.21
   6  -1 -17    4.51    5.26
  -6   1  17    5.75    5.42
   6  -1 -15  513.57   27.15
  -6  -1  15  531.69   28.22
  -6   1  15  525.15   27.39
   6   1 -15  564.92   28.09
   6  -1 -13  424.45   23.40
  -6  -1  13  466.96   24.91
  -6   1  13  455.12   23.76
   6   1 -13  475.43   24.49
   6   1 -11  587.55   26.89
  -6   1  11  590.53   25.82
   6  -1 -11  552.90   25.13
  -6  -1  11  596.94   24.07
  -6  -1  11  591.38   27.76
  -6   1   9  447.90   20.33
  -6  -1   9  416.39   19.51
   6   1  -9  429.93   22.05
   6  -1  -9  448.47   20.51
   6   1  -7  296.66   17.25
   6  -1  -7  301.69   15.28
  -6   1   7  302.34   15.08
  -6  -1   7  327.84   16.72
   6   1  -5 1865.32   54.18
  -6  -1   5 1914.14   54.96
  -6   1   5 2053.90   51.25
   6  -1  -5 1986.21   50.78
  -6   1   3  298.68   12.06
   6   1  -3  275.91   15.82
  -6  -1   3  290.41   15.71
   6  -1  -3  298.86   11.94
   6   1  -1  275.68   16.44
  -6  -1   1  290.03   15.91
  -6   1   1  310.19   15.49
   6  -1  -1  296.45   10.31
  -6  -1  -1   71.87    7.89
  -6   1  -1   85.59    7.88
   6   1   1   78.21    8.56
   6  -1   3 1371.57   41.71
   6   1   3 1531.98   46.54
  -6   1  -3 1444.31   42.41
  -6  -1  -3 1406.38   45.03
   6  -1   5    3.30    1.16
   6  -1   5    4.40    2.90
  -6  -1  -5    0.94    2.97
  -6   1  -5    2.14    2.20
   6   1   5    2.16    3.89
   6  -1   7  557.12   18.28
   6  -1   7  582.76   24.27
   6   1   7  625.69   27.96
  -6   1  -7  573.10   22.91
  -6  -1  -7  566.71   26.24
   6   1   9  981.06   38.96
  -6   1  -9  989.33   33.38
  -6  -1  -9 1069.19   39.48
   6  -1   9 1009.08   35.13
   6  -1   9  975.68   29.85
   6   1  11 1327.40   48.04
   6  -1  11 1325.56   43.12
   6  -1  11 1251.59   38.10
  -6   1 -11 1261.61   40.74
  -6  -1 -11 1264.26   46.55
   6   1  13   14.78    5.65
  -6   1 -13   13.63    3.54
  -6  -1 -13   21.80    6.57
   6  -1  13   26.80    5.05
   6  -1  13   17.50    4.33
   6   1  15    6.77    4.97
  -6   1 -15   14.67    4.35
  -6  -1 -15   13.03    6.19
   6  -1  15   10.41    3.64
   6  -1  15   20.38    5.52
   6   1  17  301.41   22.84
  -6   1 -17  303.68   18.86
   6   1  17  324.46   23.34
   6  -1  17  324.56   20.67
   6  -1  17  318.24   19.82
   6   1  19   15.54    6.57
   6  -1  19   23.99    6.25
   6  -1  19   26.80    6.72
   6   1  21   82.40   12.89
   6  -1  21   63.87   10.43
   6  -1  21   66.76   10.62
   6   1  23   39.25    9.06
   6  -1  23   54.70    9.80
   6  -1  25  363.51   25.87
   6   1  25  423.28   31.70
   6   1  27   65.12   13.61
   6  -1  27   67.21   11.02
   6   1  29  -13.63   10.41
   6   1  31   -1.78    8.28
   6   2 -34   -5.06    5.73
  -6   2  32   57.40   12.43
   6   2 -32   55.56   12.55
   6   2 -30   -1.60    5.97
  -6   2  30    4.82    7.15
   6   2 -28    8.72    7.01
  -6  -2  28    0.30    3.05
  -6   2  28    0.37    6.19
  -6   2  26    7.06    5.88
  -6  -2  26    8.20    4.04
   6   2 -26    3.32    5.36
   6   2 -24   32.90    8.82
  -6  -2  22   -1.00    3.21
   6   2 -22    9.60    5.64
  -6  -2  20   47.79    7.19
   6   2 -20   29.68    8.23
   6   2 -18  142.71   15.22
  -6   2  18  159.51   16.17
  -6  -2  18  145.51   11.59
   6   2 -16  414.94   25.15
  -6  -2  16  379.28   19.19
  -6   2  16  382.00   24.41
   6   2 -14  628.35   31.92
  -6  -2  14  667.15   26.56
  -6   2  14  726.35   32.86
  -6  -2  12    8.94    3.59
   6   2 -12   11.07    5.60
  -6   2  12    1.20    3.14
  -6  -2  10  553.38   23.26
   6   2 -10  552.03   28.04
  -6   2  10  614.78   26.44
   6   2  -8  494.40   21.36
  -6  -2   8  487.22   21.21
  -6   2   8  513.19   22.61
  -6  -2   6  106.15    9.24
  -6   2   6  102.28    8.60
   6   2  -6  106.15    9.76
   6   2  -4  175.60   13.15
  -6  -2   4  194.48   12.80
  -6   2   4  172.99   10.03
   6   2  -2  659.23   27.55
  -6   2   2  639.61   19.86
  -6  -2   2  606.94   25.76
  -6  -2   0    4.56    3.03
  -6   2   0    1.79    0.96
   6   2   0    1.20    3.22
  -6  -2  -2   -1.87    2.97
  -6   2  -2    2.07    1.92
   6   2   2   -1.13    3.38
  -6  -2  -4    6.31    3.22
  -6   2  -4   10.48    3.33
   6   2   4    6.32    4.37
  -6   2  -6  134.54    9.30
   6   2   6  135.73   13.23
  -6  -2  -6  146.27   13.33
   6   2   8   36.83    7.95
  -6  -2  -8   22.90    5.88
  -6   2  -8   29.80    4.34
   6   2  10   40.65    8.26
  -6  -2 -10   64.74    9.67
  -6   2 -10   60.16    6.07
   6  -2  10   55.70    6.25
   6   2  12    8.78    4.38
  -6   2 -12    3.63    1.91
  -6  -2 -12   12.05    5.12
   6  -2  12   10.28    3.38
   6  -2  12   12.89    3.34
   6  -2  14    8.04    3.76
  -6   2 -14    9.08    2.97
   6  -2  14    6.19    3.10
   6   2  16    2.63    5.25
   6  -2  16    7.86    4.11
   6  -2  16    6.22    3.90
   6   2  18   31.67    9.39
   6  -2  18   30.90    6.27
   6  -2  18   30.60    6.35
   6   2  20  199.82   21.23
   6  -2  20  180.77   15.83
   6  -2  20  206.11   15.76
   6   2  22  127.39   17.77
   6  -2  22  115.25   12.18
   6   2  24   50.78   12.52
   6   2  26   31.78   10.41
   6   2  28   -2.96    8.05
   6   3 -33   25.08    9.73
   6   3 -31   33.94   10.34
  -6   3  29   43.47   12.56
   6   3 -29   18.89    8.70
  -6   3  27  544.75   37.89
   6   3 -27  470.37   33.90
  -6   3  25    1.09    5.66
   6   3 -25   14.84    7.02
  -6   3  23   52.56   11.38
   6   3 -23   51.94   10.14
   6   3 -21  118.79   15.47
  -6  -3  21  111.25    8.92
  -6  -3  19  685.02   25.10
   6   3 -19  719.16   38.03
   6   3 -17   15.20    6.77
  -6  -3  17    5.80    2.67
   6   3 -15   30.57    7.79
  -6   3  15   35.24    8.13
  -6  -3  15   31.21    4.67
  -6  -3  13 1798.92   49.99
   6   3 -13 1825.14   64.04
  -6   3  13 1821.96   61.53
  -6  -3  11  293.52   15.10
  -6   3  11  275.36   18.80
   6   3 -11  272.97   21.18
  -6  -3   9   34.05    5.25
   6   3  -9   38.35    6.07
  -6   3   9   42.43    7.13
  -6  -3   7    2.20    2.51
   6   3  -7    1.91    3.06
  -6   3   7    7.71    2.89
   6   3  -5 1437.54   47.81
  -6   3   5 1418.15   44.08
  -6  -3   5 1463.35   45.59
  -6   3   3  246.12   13.39
   6   3  -3  249.09   16.88
  -6  -3   3  238.17   15.63
  -6  -3   1  102.68   10.55
   6   3  -1  107.62   11.36
  -6  -3  -1   24.77    5.84
   6   3   1   20.58    6.07
   6   3   3 2740.43   81.43
  -6   3  -3 2760.22   70.97
  -6  -3  -3 2760.65   80.00
  -6   3  -5  177.01   11.07
   6   3   5  160.07   15.40
  -6   3  -5  161.49    6.33
  -6  -3  -5  152.20   14.45
  -6  -3  -7  243.34   18.95
   6   3   7  220.29   18.77
  -6   3  -7  217.14   11.37
  -6   3  -9  590.91   19.27
   6   3   9  608.55   33.40
   6   3  11  872.57   41.78
  -6   3 -11  763.66   21.71
   6   3  13    7.15    6.36
   6   3  15  448.81   31.37
   6   3  17  705.05   41.32
   6   3  19  634.36   40.63
   6   3  21  117.48   18.34
   6   3  23   -3.67    7.53
   6   3  25  427.42   36.33
   6   4 -30   19.02    8.78
   6   4 -28  -10.33    7.06
  -6   4  26   29.16   10.53
   6   4 -26   15.36    8.25
  -6   4  24  186.61   22.12
   6   4 -24  131.67   17.83
   6   4 -22  196.26   20.85
  -6   4  22  177.64   21.37
   6   4 -20  236.49   22.52
  -6   4  20  275.21   25.16
  -6   4  18   10.31    6.69
   6   4 -18   -2.61    5.14
   6   4 -16  333.68   26.10
  -6  -4  16  348.96   12.63
   6   4 -14   99.55   14.06
  -6  -4  14  105.52    7.47
   6   4 -12  131.49   15.97
  -6  -4  12  113.00    8.66
  -6   4  12  107.09   13.67
  -6  -4  10    4.05    2.69
   6   4 -10    0.78    2.44
  -6   4  10    3.08    3.62
  -6  -4   8 1236.73   41.00
  -6   4   8 1336.02   47.84
   6   4  -8 1245.02   44.21
  -6  -4   6    3.13    3.06
   6   4  -6    3.86    3.86
   6   4  -4  247.28   18.11
  -6  -4   4  239.37   16.58
  -6  -4   2  623.77   29.39
   6   4  -2  632.84   31.31
   6   4   0  711.43   34.77
  -6  -4   0  730.81   33.61
  -6  -4  -2   16.43    5.58
   6   4   2   11.36    6.14
  -6  -4  -4    6.00    4.72
   6   4   4   -4.51    6.32
  -6   4  -4    4.75    2.77
  -6   4  -6  588.58   19.80
  -6   4  -6  554.43   21.55
   6   4   6  589.32   33.92
  -6   4  -8  394.78   12.66
  -6   4  -8  380.35   13.04
   6   4   8  452.65   30.06
  -6   4  -8  416.92   14.66
   6   4  10   51.30   10.76
  -6   4 -10   66.99    4.97
   6   4  12   48.77   11.27
  -6   4 -12   53.72    4.53
   6   4  14  273.63   26.15
   6   4  16    9.27    8.62
   6   4  18    5.21    6.48
   6   4  20   22.76   10.73
   6   5 -27    3.91    7.11
   6   5 -25   49.10   12.45
   6   5 -23   -9.01    8.08
  -6   5  21   14.01    8.68
   6   5 -21   -0.03    5.94
  -6   5  19    9.57    8.21
   6   5 -19    7.10    6.81
   6   5 -17   15.52    8.03
  -6   5  17   15.86    7.35
  -6   5  15    8.67    5.37
   6   5 -15   15.92    7.74
  -6   5  13    9.96    7.18
   6   5 -13   -0.64    6.28
  -6   5  11    4.69    5.23
   6   5 -11    4.47    3.33
   6   5 -11    2.00    6.27
  -6   5   9   -1.92    4.58
   6   5  -9   -1.79    2.99
  -6   5   7    9.30    5.76
   6   5  -7    0.14    3.79
  -6   5   5   83.29   11.67
   6   5  -5   67.67   10.77
  -6   5   3   15.96    5.46
   6   5  -3   26.44    7.46
  -6   5   1    2.71    3.27
   6   5  -1   10.20    5.65
  -6   5  -1   65.07    8.40
   6   5   1   62.39   11.49
  -6   5  -3   10.29    3.69
   6   5   3   25.57    8.44
  -6   5  -5   38.35    6.11
  -6   5  -5   37.63    5.15
   6   5   5   44.58   10.66
   6   5   7    4.69    5.98
   6   5   9   -2.43    6.17
   6   5  11   16.72    8.69
   6   5  13   -7.94    8.16
   6   5  15   12.24    6.35
   6   5  17    9.57    8.39
   6   6 -20   24.26    9.19
  -6   6  18   -7.00    6.25
   6   6 -18   10.69    8.19
   6   6 -16  145.11   20.26
  -6   6  16  181.97   22.34
   6   6 -14    1.67    7.15
  -6   6  14    0.91    6.83
   6   6 -12   15.93    8.46
  -6   6  12   29.76    9.29
  -6   6  10   10.36    6.73
  -6   6   8  180.65   19.07
  -6   6   6   23.44    8.16
  -6   6   4  104.63   13.51
   6   6  -4   89.55   12.91
  -6   6   2   98.95   12.37
   6   6  -2  121.04   15.80
   6   6   0  149.89   18.42
   6   6   2    4.00    5.83
   6   6   4   57.08   12.37
   6   6   6   32.64    9.92
   6   6   8   66.00   13.76
   6   6  10    7.25    6.46
   6   6  12    8.52   10.49
   6   7 -11   44.77   12.84
  -7   0  37    6.36    7.13
  -7   0  35   -9.35    8.17
  -7   0  33    8.71    6.50
  -7   0  31   -7.28    6.64
   7   0 -29   -0.70    6.17
   7   0 -27    1.84    5.74
   7   0 -25    2.73    4.91
   7   0 -23    3.96    5.42
   7   0 -21    2.72    5.09
   7   0 -19   -0.56    4.28
  -7   0  19   -2.52    4.40
  -7   0  17   -7.01    4.49
   7   0 -17    4.84    4.95
   7   0 -15   -3.14    4.43
  -7   0  15   -2.07    3.48
   7   0 -13    2.06    3.22
  -7   0  13    2.42    3.58
   7   0 -11   -1.69    3.96
  -7   0  11    0.17    2.84
   7   0  -9    1.00    3.57
  -7   0   9   -2.30    3.15
   7   0  -7    3.46    3.76
  -7   0   7    1.31    2.43
  -7   0   7    4.63    3.10
  -7   0   5    6.05    3.62
   7   0  -5   -1.31    2.80
   7   0  -3    1.49    3.73
  -7   0   3    5.34    3.70
   7   0  -3    0.55    2.40
   7   0  -1   -3.33    3.60
  -7   0   1    1.08    2.65
  -7   0  -1    5.31    3.37
   7   0   1    4.29    4.26
   7   0   3    1.49    3.27
  -7   0  -3   -0.05    2.27
  -7   0  -5    1.96    2.84
   7   0   5    0.29    3.39
  -7   0  -7    0.02    3.15
   7   0   7    0.75    3.54
   7   0   9    2.47    3.62
  -7   0  -9    2.34    2.95
  -7   0 -11    1.54    2.83
   7   0  11   -2.00    3.64
  -7   0 -13    0.11    2.92
   7   0  13    1.24    3.14
   7   0  13   -1.05    3.90
  -7   0 -15   -0.50    3.36
   7   0  15   -1.86    4.36
   7   0  15    0.54    3.66
   7   0  17    2.36    3.77
  -7   0 -17   -0.50    4.36
   7   0  17    1.99    4.01
   7   0  19    1.39    3.37
   7   0  19    0.35    4.71
   7   0  21   -0.47    4.83
   7   0  23    9.55    6.73
   7   0  25   -0.05    5.45
   7   0  27    9.48    8.32
   7   0  29   -1.57    5.96
  -7   1  36   17.42    8.14
  -7   1  34  128.44   18.95
   7   1 -34  137.61   20.08
  -7  -1  32   35.21    8.62
   7   1 -32   18.30    8.90
  -7   1  32   20.49    9.39
  -7  -1  30  106.79   13.46
  -7   1  30  100.44   15.51
   7   1 -30   92.75   15.66
   7   1 -28   10.07    6.90
   7   1 -26  351.06   27.82
   7   1 -24   10.72    7.00
   7  -1 -22  309.34   24.20
   7   1 -22  292.36   23.53
  -7  -1  20  344.17   25.02
   7   1 -20  292.64   22.38
   7  -1 -20  304.56   22.97
  -7  -1  18  438.83   27.40
   7  -1 -18  404.92   25.87
   7   1 -18  427.26   26.18
  -7   1  18  458.33   27.38
   7  -1 -16   61.93    9.65
  -7  -1  16   56.38    9.51
  -7   1  16   39.90    7.76
   7   1 -16   51.03    9.32
   7  -1 -14  233.20   17.31
  -7  -1  14  278.80   19.97
  -7   1  14  277.01   18.94
   7   1 -14  240.20   17.95
  -7  -1  12 2575.97   75.54
   7   1 -12 2492.96   73.80
  -7  -1  12 2650.15   70.52
   7  -1 -12 2455.18   71.52
  -7   1  12 2567.33   72.53
  -7  -1  10  718.32   28.45
   7   1 -10  667.37   29.71
   7  -1 -10  702.14   28.35
  -7   1  10  722.06   28.60
   7   1  -8   15.89    5.25
  -7   1   8   20.19    4.54
   7  -1  -8   17.89    4.41
  -7  -1   8   18.85    4.62
   7   1  -6    7.88    4.31
   7  -1  -6    3.04    2.49
  -7   1   6    7.56    2.76
  -7  -1   6    9.09    3.61
   7   1  -6   12.48    5.02
   7   1  -4 1261.27   42.56
  -7  -1   4 1311.96   42.69
  -7   1   4 1341.81   36.88
   7  -1  -4 1329.72   36.47
  -7   1   2  601.46   19.09
  -7   1   2  613.48   24.76
  -7  -1   2  586.44   25.42
   7   1  -2  614.35   26.66
   7  -1  -2  581.80   18.62
   7  -1   0  180.30    7.58
   7   1   0  174.28   13.56
  -7   1   0  175.66   12.31
  -7  -1   0  174.08   13.01
  -7   1  -2  147.76   11.28
   7  -1   2  137.38   10.62
   7   1   2  128.43   11.93
  -7  -1  -2  141.02   11.95
   7  -1   2  132.24    5.85
   7   1   4  576.39   26.83
  -7   1  -4  511.36   22.79
   7  -1   4  574.65   24.36
  -7  -1  -4  581.64   26.34
   7  -1   6  241.99   15.19
  -7   1  -6  224.91   14.00
   7  -1   6  223.27    9.64
   7   1   6  239.18   17.09
  -7  -1  -6  242.05   16.59
   7  -1   8 1320.52   44.10
   7  -1   8 1301.53   35.88
  -7   1  -8 1316.38   42.18
   7   1   8 1339.64   48.06
  -7  -1  -8 1348.60   47.03
   7  -1  10   46.60    5.42
  -7   1 -10   55.00    7.24
  -7  -1 -10   52.14    8.59
   7   1  10   73.71   10.04
   7  -1  10   57.63    8.22
   7   1  12 2056.02   67.03
   7  -1  12 1978.12   55.53
   7  -1  12 2148.38   62.62
  -7   1 -12 1934.57   58.85
  -7  -1 -12 1997.98   65.44
  -7   1 -14   41.80    6.64
  -7  -1 -14   57.78    9.38
   7  -1  14   40.17    6.34
   7  -1  14   47.51    8.17
   7   1  14   39.30    8.70
  -7   1 -16  219.31   15.97
   7   1  16  194.84   18.38
   7  -1  16  175.15   15.44
   7  -1  16  198.26   14.94
  -7   1 -18  943.64   38.52
   7  -1  18  981.76   41.17
   7  -1  18  908.41   38.14
   7   1  18  995.62   46.18
   7   1  20  564.45   35.21
   7  -1  20  574.21   31.10
   7  -1  20  531.11   29.19
   7  -1  22   53.76   10.06
   7  -1  22   55.08   10.10
   7   1  22   64.39   12.85
   7  -1  24   25.30    7.50
   7   1  24    1.42    6.80
   7   1  26  419.79   33.48
   7  -1  26  405.21   28.75
   7   1  28  186.43   23.35
   7   1  30   -1.79    8.06
   7   2 -33   20.85    8.41
  -7   2  33   27.44    9.80
  -7   2  31  241.46   25.38
   7   2 -31  283.61   27.41
  -7  -2  29  209.28   16.33
   7   2 -29  181.95   21.42
  -7   2  29  190.39   22.11
   7   2 -27   11.13    6.88
  -7  -2  25   -1.33    3.56
   7   2 -25   -3.86    5.15
  -7  -2  23  779.34   33.70
   7   2 -23  755.11   40.55
  -7  -2  21  556.09   26.70
   7   2 -21  507.14   31.59
   7   2 -19    7.76    5.53
  -7  -2  19   14.06    4.75
  -7   2  17   12.61    5.05
   7   2 -17   -3.16    4.57
  -7  -2  17    7.08    3.78
   7   2 -15 1691.18   59.83
  -7  -2  15 1677.76   52.35
  -7   2  15 1770.60   59.34
  -7   2  13 2246.80   66.45
  -7  -2  13 2058.70   60.69
   7   2 -13 2054.09   68.11
  -7  -2  11 1656.16   51.96
   7   2 -11 1732.90   58.76
  -7   2  11 1853.48   55.47
   7   2  -9  967.71   34.30
  -7  -2   9  955.87   34.51
  -7   2   9  998.01   34.88
   7   2  -9  931.80   39.38
   7   2  -7 4339.69  109.79
  -7   2   7 4497.90  106.24
  -7  -2   7 4396.71  108.93
   7   2  -5  608.79   27.18
  -7  -2   5  596.15   25.95
  -7   2   5  637.93   22.60
   7   2  -3  288.06   18.13
  -7  -2   3  282.81   17.02
  -7   2   3  278.97   12.20
   7   2  -1 1699.25   54.35
  -7  -2   1 1690.74   53.06
  -7   2   1 1702.31   40.69
  -7  -2  -1 3546.81   94.31
  -7   2  -1 3565.27   89.72
   7   2   1 3599.05   96.46
  -7  -2  -3   74.33    9.57
  -7   2  -3   56.64    6.96
   7   2   3   64.94    9.69
  -7   2  -5  398.47   18.88
   7   2   5  405.48   24.17
  -7  -2  -5  441.59   24.24
  -7   2  -7  919.25   31.74
   7   2   7 1015.78   41.89
  -7  -2  -7  988.08   40.31
   7   2   9 1031.10   43.55
  -7   2  -9  929.30   31.98
   7  -2   9  951.36   32.96
  -7  -2  -9 1046.50   42.55
   7  -2  11  156.86   11.75
   7   2  11  169.58   16.88
   7  -2  11  157.81    8.87
  -7   2 -11  159.05   11.00
  -7  -2 -11  180.37   16.56
   7  -2  13  245.04   15.66
   7  -2  13  237.13   12.93
   7   2  13  239.29   20.79
  -7   2 -13  238.33   14.04
  -7   2 -15  267.61   15.26
   7  -2  15  248.82   16.36
   7  -2  15  236.78   14.43
   7   2  15  248.60   22.09
   7  -2  17  454.76   23.66
   7  -2  17  445.93   22.14
   7   2  17  408.87   29.78
   7   2  19  217.03   22.20
   7  -2  19  245.98   17.69
   7  -2  19  238.62   17.01
   7   2  21   26.54    9.41
   7  -2  21   18.63    5.15
   7   2  23  260.03   26.40
   7   2  25   12.36    8.79
   7   2  27   55.04   13.67
   7   3 -32   38.30   11.02
  -7   3  30   -5.11    7.08
   7   3 -30    6.85    6.75
  -7   3  28    1.14    7.06
   7   3 -28    5.40    6.82
   7   3 -26   30.48   10.49
  -7   3  26   -5.54    7.96
   7   3 -24    7.17    6.54
   7   3 -22    8.05    6.12
  -7  -3  22    3.53    3.57
  -7  -3  20    6.22    2.73
   7   3 -20    6.01    6.15
  -7  -3  18   94.07    8.91
   7   3 -18  100.37   14.23
  -7  -3  16   30.93    5.20
   7   3 -16   33.83    8.06
  -7  -3  14  231.22   14.21
   7   3 -14  237.28   20.76
  -7   3  14  257.75   19.73
  -7   3  12    1.08    3.79
   7   3 -12   -6.71    6.22
  -7  -3  12    3.03    2.15
   7   3 -10   22.48    7.24
  -7  -3  10   20.10    4.64
  -7   3  10   13.46    4.69
   7   3 -10   11.53    4.55
  -7   3   8  224.58   15.13
  -7  -3   8  204.82   14.03
   7   3  -8  207.34   15.20
  -7   3   6   12.83    3.66
  -7  -3   6   16.50    4.82
   7   3  -6   11.43    4.23
   7   3  -4  147.32   13.55
  -7   3   4  121.91    9.30
  -7  -3   4  132.78   11.87
  -7   3   2   39.34    4.60
  -7  -3   2   46.65    7.26
   7   3  -2   39.37    7.32
  -7   3   0   43.96    4.23
  -7  -3   0   45.61    7.44
   7   3   0   55.39    8.79
  -7   3  -2    5.03    2.86
  -7  -3  -2   -3.21    4.26
  -7   3  -2    2.82    1.23
   7   3   2   -2.07    5.47
  -7  -3  -4  136.06   14.23
   7   3   4  146.44   14.99
  -7   3  -4  144.85   11.07
  -7  -3  -6   32.57    7.76
  -7   3  -6   29.56    4.97
   7   3   6   37.79    8.61
   7   3   8    1.15    5.01
  -7   3  -8    2.52    2.19
   7   3  10   18.07    7.17
  -7   3 -10   23.69    3.85
   7   3  12  502.28   32.30
  -7   3 -12  468.76   16.99
   7   3  14   54.43   11.56
   7   3  16  -11.43    7.26
   7   3  18  138.72   18.60
   7   3  20   68.46   14.34
   7   3  22    6.34    7.20
   7   3  24   -7.77    7.75
   7   4 -31   70.45   14.81
   7   4 -29   31.83   10.60
   7   4 -27   48.96   12.44
  -7   4  25   17.91    9.22
   7   4 -25    8.93    8.40
   7   4 -23  134.60   18.21
  -7   4  23  143.10   19.50
   7   4 -21   -4.22    6.33
  -7   4  21   10.54    8.20
   7   4 -19   54.05   11.54
   7   4 -17   11.36    7.51
  -7  -4  17    7.01    2.33
   7   4 -15  228.00   22.32
  -7  -4  15  288.23   14.37
  -7  -4  13   66.93    7.43
   7   4 -13   45.79   10.51
   7   4 -11  547.89   34.31
  -7   4  11  617.11   31.20
   7   4 -11  541.95   25.09
  -7  -4  11  545.18   23.77
   7   4  -9  182.85   14.96
  -7   4   9  187.31   16.06
  -7  -4   9  191.44   13.79
   7   4  -7  206.87   16.79
  -7   4   7  200.88   15.50
  -7  -4   7  211.34   15.31
   7   4  -5   90.16   11.09
  -7  -4   5   87.93   10.44
  -7   4   5   82.15    9.34
   7   4  -3  310.12   21.72
  -7   4   3  327.93   17.62
  -7  -4   3  323.22   20.69
  -7  -4   1   62.09    9.46
  -7   4   1   71.32    7.27
   7   4  -1   72.83   10.93
  -7  -4  -1  631.45   32.18
   7   4   1  646.41   34.30
  -7   4  -3    8.22    4.06
   7   4   3    6.67    5.34
  -7   4  -5   -1.46    2.75
  -7   4  -5    1.08    1.29
  -7   4  -7  473.11   18.92
   7   4   7  493.80   32.09
   7   4   9  392.86   29.05
  -7   4  -9  316.61   11.27
   7   4  11   -4.24    5.91
   7   4  13   24.32    9.49
   7   4  15    6.22    7.41
   7   4  17  293.27   28.34
   7   4  19   20.99    9.30
   7   4  21   -2.83    8.18
   7   5 -26  239.32   25.90
   7   5 -24    5.04    6.68
  -7   5  22   61.65   14.27
   7   5 -22   49.99   12.16
  -7   5  20  174.88   22.13
   7   5 -20  162.25   20.51
   7   5 -18  174.75   20.75
  -7   5  18  193.55   22.01
  -7   5  16    0.38    5.52
   7   5 -16   -8.87    8.27
  -7   5  14   59.61   11.89
   7   5 -14   67.72   13.71
  -7   5  12  198.07   20.23
   7   5 -12  217.12   23.07
   7   5 -10   92.75   10.95
  -7   5  10   99.27   13.63
   7   5  -8   34.08    7.46
  -7  -5   8   37.73    6.73
  -7   5   8   36.75    8.16
  -7   5   8   41.37    8.13
   7   5  -6   15.03    5.82
  -7  -5   6   18.98    5.68
  -7   5   6   29.17    7.26
  -7  -5   4  515.66   28.08
   7   5  -4  516.26   30.79
  -7   5   4  533.95   26.98
  -7  -5   2  164.33   15.89
  -7   5   2  177.21   15.27
   7   5  -2  180.32   18.05
  -7   5   0  247.70   17.32
   7   5   0  275.95   23.04
  -7   5  -2   -0.14    3.01
   7   5   2   -3.09    5.65
  -7   5  -4  645.36   25.67
   7   5   4  691.07   39.82
  -7   5  -4  674.51   25.04
   7   5   6  278.50   25.39
   7   5   8   26.03    9.56
   7   5  10  224.53   24.46
   7   5  12  506.75   37.75
   7   5  14   -6.95    6.85
   7   5  16   80.64   16.49
   7   6 -21   71.72   14.44
   7   6 -19    9.65    9.87
  -7   6  17   -3.19    6.22
   7   6 -17   -3.25    7.59
  -7   6  15  119.54   17.83
   7   6 -15  112.05   17.99
  -7   6  13   54.71   12.33
   7   6 -13  103.37   17.60
   7   6 -11    2.51    7.45
  -7   6  11    0.89    5.68
  -7   6   9   16.61    6.86
  -7   6   7  193.20   19.53
  -7   6   5   37.88    8.62
   7   6  -5   44.89   10.13
  -7   6   3   -4.49    3.79
   7   6  -3   -2.20    5.08
   7   6  -1   30.91    9.20
   7   6   1   44.71   11.18
   7   6   3   -4.45    7.51
   7   6   5    6.50    7.17
   7   6   7   40.87   12.86
   7   6   9   16.29    7.46
   7   6  11   14.82    8.38
  -8   0  36  337.45   28.89
  -8   0  34   55.87   11.59
  -8   0  32   76.38   13.14
   8   0 -30  147.49   19.59
   8   0 -28  543.80   36.69
   8   0 -26    2.00    5.41
   8   0 -24    0.02    4.98
   8   0 -22  265.21   22.27
   8   0 -20  929.53   42.70
  -8   0  18  380.10   25.00
   8   0 -18  348.97   23.86
   8   0 -16   57.98    9.04
  -8   0  16   63.93    9.91
  -8   0  14  246.09   18.04
   8   0 -14  242.14   17.83
  -8   0  12  441.14   23.07
   8   0 -12  364.29   21.33
  -8   0  10  552.36   25.76
   8   0 -10  556.28   25.38
   8   0  -8  170.99   12.58
  -8   0   8  164.35   12.90
  -8   0   8  163.49   12.40
   8   0  -6 4379.76  109.93
  -8   0   6 4824.03  114.56
   8   0  -4   15.81    5.26
   8   0  -4   15.43    3.87
  -8   0   4   20.94    5.52
   8   0  -2  441.21   22.05
  -8   0   2  481.06   23.29
   8   0   0 1834.43   56.09
  -8   0   0 1776.08   54.72
   8   0   2 1434.05   47.55
  -8   0  -2 1356.30   45.32
   8   0   4 3574.90   93.67
  -8   0  -4 3345.47   90.55
  -8   0  -6   45.11    7.48
   8   0   6   46.56    7.73
   8   0   8  919.60   37.24
  -8   0  -8  873.36   35.32
   8   0  10  688.15   32.17
  -8   0 -10  666.47   30.60
   8   0  12  383.58   23.57
  -8   0 -12  337.93   21.54
   8   0  14  135.45   12.89
   8   0  14  131.39   13.89
  -8   0 -14  117.24   12.92
  -8   0 -16  785.27   36.76
   8   0  16  856.99   39.33
   8   0  16  727.44   34.48
   8   0  18  447.21   28.39
   8   0  18  371.96   24.61
   8   0  20  428.15   28.97
   8   0  22   44.53   10.61
   8   0  24 1047.88   51.26
   8   0  26  110.50   16.32
   8   0  28   90.53   16.25
  -8   1  35   19.31    7.68
  -8  -1  33   34.77    9.34
  -8   1  33   34.16   11.09
   8   1 -33   43.40   12.75
   8   1 -31   -1.94    7.31
   8   1 -29   48.78   12.04
   8   1 -27   24.28   10.24
   8  -1 -25  348.80   27.77
   8   1 -25  359.94   28.14
   8   1 -23   87.48   13.46
   8  -1 -23   87.63   13.31
   8   1 -21   46.99    9.33
   8  -1 -21   46.62    9.65
  -8  -1  19  205.21   19.01
   8   1 -19  176.28   17.25
   8  -1 -19  201.32   18.36
  -8   1  19  195.19   18.35
   8  -1 -17  293.07   21.37
  -8  -1  17  307.74   22.80
   8   1 -17  338.72   22.97
  -8   1  17  357.57   23.28
   8  -1 -15  109.40   11.90
  -8   1  15  118.14   12.49
   8   1 -15   97.08   11.70
  -8  -1  15  105.45   12.62
  -8  -1  15  124.09   11.76
   8  -1 -13   75.65    9.90
  -8   1  13   71.99    9.42
  -8  -1  13   88.53    9.71
  -8  -1  13   94.92   11.63
   8   1 -13   67.06    9.98
   8   1 -11  425.74   23.96
  -8  -1  11  475.63   23.46
   8  -1 -11  446.74   22.61
  -8   1  11  471.71   23.35
  -8   1   9 2890.36   75.17
   8  -1  -9 2784.85   74.22
   8   1  -9 2668.29   78.46
  -8  -1   9 2850.84   77.89
   8   1  -7   52.99    8.12
   8   1  -7   50.69    7.61
   8  -1  -7   45.39    6.03
  -8  -1   7   59.27    7.93
  -8   1   7   45.99    6.00
   8   1  -5   17.13    5.30
  -8   1   5   15.86    3.33
  -8  -1   5    5.42    3.18
   8  -1  -5   17.68    3.69
   8   1  -3 4356.84  110.73
  -8   1   3 4572.96  109.26
  -8  -1   3 4226.31  109.45
   8  -1  -3 4309.24   99.34
   8  -1  -1 1863.01   46.47
  -8   1   1 1963.69   57.47
   8   1  -1 1957.34   59.62
  -8  -1   1 1870.47   57.32
   8  -1   1    7.88    4.19
   8  -1   1    2.87    1.65
  -8   1  -1    9.74    3.75
   8   1   1    6.76    3.45
  -8  -1  -1    4.80    3.34
  -8  -1  -3    9.31    3.71
   8  -1   3    8.10    4.59
  -8   1  -3    3.68    2.71
   8   1   3   15.92    7.50
   8  -1   5 2099.55   61.51
   8   1   5 2170.82   65.73
  -8   1  -5 1929.71   58.70
  -8  -1  -5 2055.70   63.66
   8  -1   7  418.85   22.25
   8   1   7  417.08   24.21
   8  -1   7  387.28   14.90
  -8   1  -7  401.50   20.60
  -8  -1  -7  387.68   22.90
   8  -1   9   32.31    4.34
  -8   1  -9   26.54    5.64
  -8  -1  -9   36.62    7.44
   8  -1   9   32.55    6.41
   8   1   9   43.18    8.62
   8  -1  11  296.32   19.57
   8   1  11  315.74   22.37
   8  -1  11  306.21   15.42
  -8   1 -11  275.41   17.55
  -8  -1 -11  320.28   21.79
   8  -1  13 1355.24   48.39
   8   1  13 1366.72   53.14
   8  -1  13 1263.17   41.31
  -8   1 -13 1273.58   45.15
  -8  -1 -13 1282.67   50.56
   8  -1  15   28.50    6.07
   8  -1  15   29.63    7.25
  -8   1 -15   23.68    5.90
   8   1  15   30.65    8.14
  -8   1 -17   26.18    6.39
   8  -1  17   31.46    6.64
   8  -1  17   25.05    6.62
   8   1  17   11.74    5.84
  -8   1 -19   26.79    6.49
   8  -1  19   13.29    5.57
   8  -1  19   19.61    5.63
   8   1  19   16.88    6.99
   8  -1  21  243.38   20.97
   8   1  21  255.52   23.98
   8  -1  21  239.34   19.61
   8  -1  23    6.97    5.98
   8   1  23   -2.83    6.16
   8  -1  25    2.53    5.80
   8   1  25   11.24    8.88
   8   1  27   63.30   14.73
   8   1  29    2.08    7.50
   8   2 -32   25.20   10.69
  -8   2  32   11.10    7.30
   8   2 -30   39.34   12.34
  -8   2  30   19.68    8.48
   8   2 -28    4.27    5.34
  -8  -2  26   24.01    6.45
   8   2 -26   13.81    7.25
  -8  -2  24   73.94   10.73
   8   2 -24   77.05   13.20
  -8  -2  22    5.79    3.62
   8   2 -22  -12.09    6.90
   8   2 -20    1.10    4.67
  -8  -2  20    7.51    4.73
   8   2 -18    7.58    5.50
  -8  -2  18    5.77    4.11
  -8   2  18    5.98    4.34
  -8  -2  16  123.52   11.95
   8   2 -16  119.26   14.21
  -8   2  16  136.25   14.51
   8   2 -14   10.34    5.28
  -8  -2  14    1.68    3.10
  -8   2  14    6.49    4.58
  -8  -2  12   74.05    8.96
   8   2 -12   73.82   10.92
  -8   2  12   69.13    8.90
  -8  -2  10   46.10    7.19
  -8   2  10   50.89    7.36
   8   2 -10   45.66    8.67
  -8  -2   8  103.53   10.43
   8   2  -8  105.05   10.52
  -8   2   8  107.09    9.58
   8   2  -6  873.12   34.90
  -8  -2   6  824.66   33.20
  -8   2   6  874.03   29.34
  -8  -2   4  130.98   12.08
   8   2  -4  124.20   12.32
  -8   2   4  138.13    8.75
  -8  -2   2    0.47    3.43
  -8   2   2    2.06    1.42
   8   2  -2    4.35    3.54
   8   2   0  459.84   25.04
  -8  -2   0  415.02   23.08
  -8   2   0  437.83   21.62
   8   2   2  349.61   21.98
  -8  -2  -2  325.88   20.57
  -8   2  -2  335.11   18.63
  -8  -2  -4    1.60    3.04
  -8   2  -4    4.44    3.32
   8   2   4    2.05    3.78
  -8  -2  -6   97.93   11.76
  -8   2  -6   80.84    8.50
   8   2   6   83.84   11.63
  -8  -2  -8   89.15   11.47
   8   2   8  102.16   12.87
  -8   2  -8   80.06    8.35
   8  -2   8  100.12    9.60
   8  -2  10  173.85   13.12
  -8   2 -10  175.26   12.54
  -8  -2 -10  206.16   18.46
   8   2  10  158.44   16.65
   8  -2  12  547.36   25.66
   8   2  12  562.73   33.16
   8  -2  12  554.25   19.41
  -8   2 -12  525.89   23.53
   8  -2  14   22.76    5.87
  -8   2 -14   22.36    4.73
   8  -2  14   27.82    4.51
   8   2  14   19.68    7.84
  -8   2 -16  114.32   10.68
   8  -2  16  123.90   10.43
   8  -2  16  123.33   12.53
   8   2  16  131.66   16.79
   8  -2  18    0.13    3.06
   8  -2  18    5.17    4.29
   8  -2  20   -5.74    5.00
   8   2  20    1.12    6.43
   8  -2  22   16.54    5.98
   8   2  22   21.89    8.61
   8   2  24   13.35    7.67
   8   2  26   -7.50    8.32
   8   3 -31   58.11   13.72
   8   3 -29   48.40   12.47
  -8   3  29   31.25   10.80
   8   3 -27    2.06    6.21
   8   3 -25  343.86   28.51
   8   3 -23    7.97    6.43
   8   3 -21  124.27   15.80
  -8  -3  21  116.49   10.97
   8   3 -19  355.55   26.91
  -8  -3  19  317.35   18.47
   8   3 -17 1995.73   72.57
  -8  -3  17 2039.89   59.66
   8   3 -15  178.20   18.31
  -8  -3  15  177.25   13.40
  -8   3  15  217.18   18.43
   8   3 -13   15.13    6.74
  -8   3  13    9.06    4.62
  -8  -3  13   19.53    4.59
  -8  -3  11 1461.26   48.19
   8   3 -11 1490.67   48.93
  -8   3  11 1600.35   52.64
   8   3 -11 1526.65   58.87
  -8  -3   9  617.82   27.59
  -8   3   9  633.56   28.03
   8   3  -9  599.22   28.44
  -8  -3   7   81.02    9.50
  -8   3   7   71.74    8.15
   8   3  -7   77.44    9.87
  -8  -3   5    2.86    2.91
  -8   3   5    0.66    2.09
   8   3  -5    7.08    4.85
   8   3  -3 1791.46   59.40
  -8   3   3 1722.49   46.41
  -8  -3   3 1659.37   55.64
   8   3  -1 1750.39   60.15
  -8   3   1 1755.88   44.02
  -8  -3   1 1775.75   58.32
  -8   3  -1  330.16   18.80
   8   3   1  364.67   23.76
  -8  -3  -1  296.28   20.68
  -8  -3  -3   33.76    7.51
  -8   3  -3   42.80    6.52
   8   3   3   21.28    6.18
   8   3   5 2591.55   82.04
  -8   3  -5 2441.66   68.66
  -8  -3  -5 2566.41   79.95
  -8   3  -7  366.96   18.19
   8   3   7  432.51   28.30
   8   3   9    1.53    5.05
  -8   3  -9    6.92    2.46
  -8   3 -11   60.86    6.41
   8   3  11   43.75   10.26
   8   3  13 2045.02   76.83
  -8   3 -13 1995.61   52.63
   8   3  15   85.30   14.44
  -8   3 -15   88.95    7.28
   8   3  17   12.08    6.75
   8   3  19  127.45   19.32
   8   3  21  391.88   33.69
   8   3  23    2.91    6.23
   8   4 -30   14.65    7.84
   8   4 -28  224.20   24.97
   8   4 -26    3.72    6.39
  -8   4  26    7.87    7.95
   8   4 -24   -2.77    7.00
  -8   4  24   -0.83    5.67
   8   4 -22  190.24   21.34
   8   4 -20  192.53   21.42
   8   4 -18    9.77    7.31
  -8  -4  16   -0.20    2.20
   8   4 -16    4.07    5.05
   8   4 -14   83.02   13.83
  -8  -4  14  114.93    9.95
  -8   4  12  253.81   20.18
  -8  -4  12  240.36   15.58
   8   4 -12  230.79   16.12
   8   4 -12  255.77   23.36
   8   4 -10  248.85   17.84
  -8   4  10  241.79   18.45
  -8  -4  10  237.11   16.10
  -8   4   8   22.68    5.34
   8   4  -8   21.28    6.13
  -8  -4   8   36.90    6.94
   8   4  -6  228.39   18.76
  -8   4   6  264.31   16.92
  -8  -4   6  233.19   17.27
  -8   4   4    4.19    2.95
  -8  -4   4   -0.54    3.39
   8   4  -4    1.77    4.00
   8   4  -2  450.65   27.94
  -8   4   2  419.37   18.81
  -8  -4   2  420.99   25.31
  -8   4   0   29.67    4.17
  -8  -4   0   39.39    8.20
   8   4   0   32.64    8.06
  -8   4  -2  454.97   23.46
  -8   4  -2  465.17   15.51
   8   4   2  466.45   29.70
   8   4   4  194.48   19.33
  -8   4  -4  171.84   13.27
  -8   4  -6  138.71   11.01
   8   4   6  163.82   18.66
  -8   4  -8  236.86   12.47
   8   4   8  266.43   24.44
   8   4  10  204.47   22.16
   8   4  12   83.98   14.91
   8   4  14   29.97   10.55
   8   4  16  522.42   38.98
   8   4  18   74.92   15.12
   8   4  20   -1.39   10.54
   8   5 -27   48.72   12.47
   8   5 -25   19.49   10.07
   8   5 -23   -4.43    7.08
  -8   5  21    6.23    8.83
   8   5 -21   12.56    8.35
  -8   5  19   19.39    8.91
   8   5 -19   26.91   10.09
  -8   5  17   -0.89    5.78
   8   5 -17   -3.87    6.69
  -8   5  15   45.41   11.50
   8   5 -15   21.98    9.50
   8   5 -13   18.05    8.20
   8   5 -11    2.39    3.79
  -8   5   9   10.27    5.04
  -8  -5   9   11.42    4.54
   8   5  -9   22.04    7.50
  -8   5   7  140.54   13.91
  -8  -5   7  108.89   12.09
   8   5  -7  125.06   14.53
  -8  -5   5   55.65    8.93
   8   5  -5   47.96    9.79
  -8   5   5   63.16    8.81
   8   5  -3   60.59   11.15
  -8   5   3   77.54    9.26
   8   5  -1   10.87    5.46
   8   5   1   21.64    8.67
   8   5   3  123.37   16.71
   8   5   5   -3.53    6.89
   8   5   7  -11.47    9.22
   8   5   9   22.37    9.98
   8   5  11    9.79    7.89
   8   5  13   -6.99    8.10
   8   5  15   -6.40    9.79
   8   6 -20   92.91   17.44
   8   6 -18   25.12   10.01
  -8   6  16    0.79    6.34
   8   6 -16   28.22    9.43
   8   6 -14  138.73   20.82
  -8   6  14  149.43   19.68
  -8   6  12   67.57   13.71
   8   6 -12   65.72   15.29
  -8   6  10   -8.58    6.18
  -8   6   8   37.91    9.87
  -8   6   6  120.15   15.24
  -8   6   4    3.50    4.48
   8   6  -4   -3.68    5.31
   8   6  -2   26.17    8.43
   8   6   0  124.00   17.79
   8   6   2  181.18   21.99
   8   6   4    2.95    6.00
   8   6   6   10.96    8.74
   8   6   8   87.01   16.41
   8   6  10  209.48   25.70
  -9   0  37   -7.05    6.59
  -9   0  35    2.24    5.77
   9   0 -33  -17.02    8.74
   9   0 -31   -6.60    8.55
   9   0 -29   -1.49    5.89
   9   0 -27   -4.57    7.66
   9   0 -25   15.15    7.58
   9   0 -23   -3.90    5.27
   9   0 -21   -6.52    4.60
   9   0 -19    5.38    5.35
  -9   0  19    1.72    4.25
  -9   0  17   -3.31    4.88
   9   0 -17   -0.59    4.14
  -9   0  15   -3.01    3.64
   9   0 -15    3.22    4.60
   9   0 -13    0.97    4.51
  -9   0  13   -0.87    3.19
  -9   0  11    2.69    3.48
   9   0 -11   -4.61    3.79
  -9   0   9    1.74    3.03
  -9   0   9   -2.01    3.33
   9   0  -9   -0.43    3.43
  -9   0   7    0.99    3.25
   9   0  -7   -1.73    3.44
  -9   0   5   -3.34    3.21
   9   0  -5    0.77    3.06
   9   0  -3   -3.93    4.49
   9   0  -3   -0.07    2.73
  -9   0   3   -2.66    4.12
   9   0  -1    0.32    4.08
  -9   0   1    0.87    3.29
   9   0   1    3.34    3.47
  -9   0  -1   -3.71    4.30
   9   0   3   -0.97    3.91
  -9   0  -3    1.28    2.72
   9   0   5   -6.40    4.53
  -9   0  -5   -1.17    2.85
  -9   0  -7    0.98    3.71
   9   0   7    2.65    3.44
  -9   0  -9    6.74    4.36
   9   0   9    1.17    4.28
  -9   0 -11   -0.08    3.15
   9   0  11    5.58    4.38
   9   0  13   -0.43    3.86
  -9   0 -13    5.08    3.48
  -9   0 -15   -2.92    4.45
   9   0  15   -2.54    4.82
   9   0  15    5.98    4.71
   9   0  17   -4.69    4.60
   9   0  17   -6.05    4.92
   9   0  19   -4.87    4.32
   9   0  19    2.00    4.67
   9   0  21   -0.48    6.03
   9   0  23    0.62    5.34
   9   0  25   -3.62    6.41
   9   0  27   -6.89    9.10
   9   0  29    6.92    8.10
  -9   1  36  -10.48    8.45
  -9  -1  34   21.50    7.56
  -9   1  34    9.05    6.07
   9   1 -34    2.58    6.51
   9   1 -32  150.12   20.80
   9   1 -30  287.17   27.74
   9   1 -28    6.38    6.50
   9  -1 -26    0.03    5.98
   9   1 -26    1.11    5.56
   9  -1 -24 1164.72   53.36
   9   1 -24 1121.97   52.04
   9   1 -22  134.43   15.88
   9  -1 -22  170.03   18.27
   9  -1 -20   85.77   12.55
   9   1 -20  115.76   14.72
  -9  -1  18  227.05   19.81
   9  -1 -18  186.78   17.35
   9   1 -18  180.48   17.65
  -9   1  18  255.53   20.55
  -9   1  16  831.57   37.48
   9  -1 -16  718.14   35.19
  -9  -1  16  810.26   34.95
   9   1 -16  782.88   37.28
  -9  -1  16  872.94   39.96
  -9  -1  14   58.31    9.52
   9  -1 -14   75.57   10.04
  -9   1  14   61.33    9.07
   9   1 -14   51.33    8.92
  -9  -1  14   67.73    9.45
   9  -1 -12   65.89    8.85
  -9   1  12   65.08    8.77
  -9  -1  12   75.50    9.49
   9   1 -12   67.17    9.47
   9   1 -10  111.99   12.04
  -9  -1  10   95.88   10.71
   9  -1 -10  105.19   10.33
  -9   1  10   90.64    9.61
  -9   1   8 1507.28   45.28
  -9  -1   8 1459.68   49.73
   9  -1  -8 1408.38   44.20
   9   1  -8 1371.58   48.72
  -9   1   6  625.70   28.11
   9   1  -6  511.95   26.34
  -9   1   6  634.00   24.10
   9  -1  -6  604.46   23.55
  -9  -1   6  622.52   29.08
   9   1  -4   57.08    8.85
  -9   1   4   94.12   10.23
  -9  -1   4   74.36    9.24
   9  -1  -4   75.33    6.91
   9   1  -2 2714.74   79.86
  -9  -1   2 2721.82   78.25
  -9   1   2 2911.27   78.92
   9  -1  -2 2771.89   66.96
   9  -1   0  722.74   22.21
  -9   1   0  723.36   31.25
   9   1   0  769.31   34.08
  -9  -1   0  738.65   32.11
   9  -1   2   49.79    7.35
   9  -1   2   44.10    4.20
  -9   1  -2   53.84    8.01
   9   1   2   46.87    8.40
  -9  -1  -2   50.37    8.04
  -9  -1  -4   36.44    7.04
   9  -1   4   41.90    7.57
   9   1   4   33.98    7.58
  -9   1  -4   22.11    5.28
   9  -1   6 1661.01   53.88
   9   1   6 1641.14   57.03
  -9   1  -6 1536.44   51.15
  -9  -1  -6 1603.76   55.27
  -9   1  -8   69.55    8.84
  -9  -1  -8   73.62   10.44
   9  -1   8   70.69    6.30
   9  -1   8   55.39    8.97
   9   1   8   66.32   10.66
   9  -1  10  655.59   31.77
   9   1  10  727.36   35.58
   9  -1  10  634.54   24.04
  -9   1 -10  665.80   29.92
  -9  -1 -10  663.39   33.34
   9  -1  12  159.22   15.24
   9   1  12  165.95   17.48
   9  -1  12  160.47   11.52
  -9   1 -12  146.49   13.39
  -9  -1 -12  161.41   16.05
   9  -1  14 1028.21   43.07
   9   1  14 1080.33   47.54
   9  -1  14  944.18   35.13
  -9   1 -14  930.67   38.84
  -9   1 -16   34.07    7.07
   9  -1  16   51.00    7.92
   9  -1  16   67.46   11.02
   9   1  16   48.22   10.74
  -9   1 -18  123.28   13.58
   9  -1  18  145.95   15.93
   9  -1  18  121.34   12.58
   9   1  18  120.14   16.34
  -9   1 -20   16.63    6.81
   9  -1  20   22.07    8.53
   9  -1  20    8.74    4.95
   9   1  20    1.97    5.73
   9  -1  22  299.41   24.51
   9   1  22  295.59   27.08
   9  -1  24    0.63    5.04
   9   1  24   16.97    8.41
   9   1  26  165.82   21.52
   9   1  28  179.36   23.25
  -9   2  33   -5.63    5.94
   9   2 -33   -5.52    6.00
   9   2 -31  148.00   20.37
   9   2 -29   29.10    9.17
   9   2 -27  144.32   18.83
  -9  -2  25   23.03    6.89
   9   2 -25   17.53    7.91
  -9  -2  23  118.83   13.21
   9   2 -23  101.40   15.10
   9   2 -21  155.66   17.80
  -9  -2  21  190.36   16.39
  -9  -2  19  678.15   32.17
   9   2 -19  653.27   36.94
   9   2 -17   70.01   12.07
  -9  -2  17   75.93    9.84
  -9   2  17   97.04   12.48
  -9  -2  15    2.38    3.15
   9   2 -15   15.14    5.96
  -9   2  15   16.21    5.76
  -9  -2  13  831.07   35.12
   9   2 -13  778.06   37.90
  -9   2  13  851.27   35.79
  -9  -2  11  121.89   12.20
   9   2 -11  132.88   14.43
  -9   2  11  156.78   13.09
   9   2  -9  319.83   20.15
  -9  -2   9  379.74   21.71
   9   2  -9  365.64   23.99
  -9   2   9  380.52   19.81
  -9  -2   7  250.96   17.43
  -9   2   7  257.89   14.76
   9   2  -7  271.96   18.57
  -9   2   5 1288.39   37.35
   9   2  -5 1236.67   46.34
  -9  -2   5 1216.66   44.48
  -9   2   3 1265.44   44.03
   9   2  -3 1204.04   46.70
  -9   2   3 1235.27   34.01
  -9  -2   3 1184.23   44.40
  -9  -2   1   21.61    5.73
  -9   2   1   10.26    4.11
   9   2  -1   18.14    5.85
   9   2   1 1176.06   46.39
  -9   2  -1 1199.13   42.53
  -9  -2  -1 1143.57   44.44
   9   2   3 3452.45   97.31
  -9   2  -3 3231.69   89.16
  -9  -2  -3 3385.23   95.46
  -9  -2  -5    3.11    3.09
  -9   2  -5   -0.64    2.85
   9   2   5   -1.83    4.02
  -9   2  -7  200.65   14.34
   9   2   7  222.66   19.21
  -9  -2  -7  215.43   18.36
   9  -2   9 1703.95   53.92
   9   2   9 1819.41   65.15
  -9   2  -9 1708.75   53.15
   9   2  11 1489.50   58.39
   9  -2  11 1350.05   34.14
  -9   2 -11 1333.80   44.81
   9  -2  11 1379.94   46.93
  -9   2 -13   33.74    6.28
   9  -2  13   30.54    4.07
   9  -2  13   29.97    6.57
   9   2  13   33.16    9.00
   9  -2  15   23.45    4.57
  -9   2 -15   12.11    4.08
   9  -2  15   10.20    4.29
   9   2  15   13.39    6.77
  -9   2 -17 1566.38   51.32
   9  -2  17 1579.66   55.14
   9  -2  17 1493.76   47.43
   9   2  17 1606.97   66.97
   9  -2  19  505.74   28.19
   9   2  19  471.02   34.81
   9  -2  21   62.55   10.82
   9   2  21   82.71   15.63
   9   2  23   61.90   13.29
   9   2  25  316.87   31.22
   9   3 -32  -23.47    9.99
   9   3 -30   32.21   11.04
  -9   3  30   20.49    9.85
   9   3 -28   -5.75    6.73
   9   3 -26   10.30    8.18
   9   3 -24  119.72   17.12
  -9  -3  22  189.71   15.49
   9   3 -22  198.95   21.35
   9   3 -20    7.19    6.15
  -9  -3  20   -2.12    3.01
  -9  -3  18  127.54   12.15
   9   3 -18  141.19   17.53
   9   3 -16  698.30   38.76
  -9  -3  16  667.90   29.99
  -9   3  16  768.74   37.21
  -9   3  14   51.87    9.03
   9   3 -14   63.23   11.85
  -9  -3  14   55.35    8.20
  -9   3  12   60.18    8.72
   9   3 -12   55.09   10.54
  -9  -3  12   41.20    7.01
   9   3 -10   38.59    7.37
  -9   3  10   41.73    7.03
  -9  -3  10   31.47    6.15
  -9  -3   8   98.54   11.23
   9   3  -8  100.10   12.00
  -9   3   8  105.90   10.19
  -9  -3   6    1.30    3.07
  -9   3   6    2.85    2.68
   9   3  -6   -0.34    3.65
  -9  -3   4    4.30    3.76
   9   3  -4   -2.38    3.96
  -9   3   4    0.13    2.03
  -9   3   2   37.62    4.30
  -9  -3   2   20.97    5.94
   9   3  -2   33.37    7.80
  -9  -3   0   54.62    9.18
  -9   3   0   52.60    3.16
  -9   3   0   51.49    7.75
   9   3   0   55.02    9.78
  -9  -3  -2   25.90    6.98
  -9   3  -2   27.89    5.79
   9   3   2   32.69    9.04
  -9   3  -4  205.75   15.27
   9   3   4  223.82   20.00
  -9  -3  -4  231.13   19.42
  -9   3  -6   10.94    4.15
   9   3   6   22.57    8.18
  -9   3  -8   17.58    4.16
   9   3   8   12.11    6.31
  -9   3 -10  144.96   10.91
   9   3  10  141.99   17.87
  -9   3 -12   19.22    4.36
   9   3  12    7.11    6.99
  -9   3 -14   12.99    3.78
   9   3  14    2.28    9.61
   9   3  16    1.32    6.62
   9   3  18   -2.41    7.18
   9   3  20   43.47   11.67
   9   3  22   13.13    7.42
   9   4 -29   88.43   16.30
   9   4 -27   38.45   11.57
   9   4 -25   -7.70    6.77
   9   4 -23   -6.08    7.51
   9   4 -21   97.76   16.19
   9   4 -19  187.31   21.33
  -9  -4  17   23.49    5.15
   9   4 -17    7.40    6.12
  -9  -4  15    3.21    3.40
   9   4 -15   10.82    7.18
  -9   4  13  391.01   25.19
  -9  -4  13  309.57   18.91
   9   4 -13  303.86   26.57
   9   4 -11  257.92   18.74
  -9   4  11  259.14   19.50
  -9  -4  11  222.49   16.51
  -9  -4   9    8.57    4.53
  -9   4   9    9.55    4.68
   9   4  -9   17.25    5.68
  -9   4   7  230.24   16.03
  -9  -4   7  246.08   18.32
   9   4  -7  237.77   19.68
   9   4  -5  262.01   21.35
  -9   4   5  292.32   16.66
  -9  -4   5  252.79   19.32
  -9  -4   3    1.61    3.09
  -9   4   3    2.90    2.19
   9   4  -3    4.97    4.43
   9   4  -1  197.71   19.12
  -9   4   1  214.57   11.17
  -9  -4   1  200.35   17.98
  -9   4  -1   13.21    4.33
   9   4   1   21.66    6.97
  -9   4  -1   11.59    1.81
  -9   4  -3  182.26   14.75
   9   4   3  214.18   20.73
  -9   4  -5    3.12    2.91
   9   4   5    0.41    5.18
  -9   4  -7    7.12    2.98
   9   4   7    1.00    5.11
   9   4   9  167.96   20.13
   9   4  11   92.77   16.23
   9   4  13    2.98    6.64
   9   4  15   44.62   11.80
   9   4  17   84.52   16.17
   9   4  19  132.39   20.72
   9   5 -26    2.54    6.34
   9   5 -24  254.93   27.68
   9   5 -22   29.92   10.64
  -9   5  22   38.19   11.07
  -9   5  20   33.38   10.60
   9   5 -20   28.36   10.15
   9   5 -18   78.17   15.90
   9   5 -16  341.60   30.71
   9   5 -14   55.91   12.54
   9   5 -12   28.75    7.11
   9   5 -12   15.57    7.07
   9   5 -10  172.62   16.41
  -9  -5   8  943.22   40.24
   9   5  -8  970.30   44.58
  -9   5   8 1018.58   41.67
  -9  -5   6   13.59    6.01
   9   5  -6   14.16    5.94
   9   5  -4   18.16    7.81
   9   5  -2  198.31   20.74
   9   5   0   21.13    7.91
   9   5   2   63.19   13.42
   9   5   4   10.01    6.33
   9   5   6  603.61   40.14
   9   5   8  106.33   17.23
   9   5  10   85.04   16.38
   9   5  12   13.29    8.96
   9   5  14  258.91   28.63
   9   6 -19   20.89   10.36
  -9   6  17   19.45   10.23
   9   6 -17   10.14    9.83
   9   6 -15   23.13   10.34
  -9   6  15   48.13   11.85
   9   6 -13   17.76   10.10
  -9   6  13   16.44    7.57
  -9   6  11   20.82    8.63
  -9   6   9    4.92    4.91
  -9   6   7    6.47    5.97
   9   6  -5   52.68   11.94
  -9   6   5   46.28    9.72
   9   6  -3   13.61    7.46
   9   6  -1   23.20    9.46
   9   6   1   99.88   16.65
   9   6   3  226.70   25.14
   9   6   5    8.95    7.40
   9   6   7   25.52   11.02
   9   6   9  175.83   23.72
 -10   0  36   -3.77    5.68
  10   0 -32   17.06    8.36
  10   0 -30   23.73    9.86
  10   0 -28  177.34   20.97
  10   0 -26  782.34   44.14
  10   0 -24   19.50    7.13
  10   0 -22    2.48    4.94
  10   0 -20  883.42   42.29
 -10   0  18 1847.04   64.31
  10   0 -18 1566.40   59.93
 -10   0  16    2.89    3.55
  10   0 -16    8.71    5.80
  10   0 -14    0.84    3.72
 -10   0  14    0.27    3.57
 -10   0  12 3833.41  101.56
  10   0 -12 3572.57   98.93
 -10   0  10  317.90   19.69
  10   0 -10  324.96   19.70
 -10   0  10  312.81   20.24
  10   0  -8  327.06   19.05
 -10   0   8  345.50   21.18
 -10   0   6  248.70   17.97
  10   0  -6  234.64   15.43
 -10   0   4 4006.17  104.67
  10   0  -4 3816.67  102.18
  10   0  -4 3769.23   96.68
  10   0  -2  134.97   13.01
 -10   0   2  147.41   14.20
  10   0   0  395.42   23.56
 -10   0   0  399.34   23.03
  10   0   2 1230.18   46.30
 -10   0  -2 1174.42   44.40
  10   0   4 3490.38   96.63
 -10   0  -4 3266.07   92.91
  10   0   6  452.13   26.68
 -10   0  -6  418.28   24.49
 -10   0  -8   65.60    9.70
  10   0   8   63.47   10.00
  10   0  10  635.67   33.14
 -10   0 -10  585.02   30.63
  10   0  12 1564.86   59.44
 -10   0 -12 1605.46   57.67
  10   0  14  257.25   21.74
  10   0  14  237.44   17.83
 -10   0 -14  256.89   20.32
  10   0  16  518.85   32.30
  10   0  16  514.40   28.55
  10   0  18 1547.50   58.07
  10   0  18 1661.15   64.92
  10   0  20  281.72   25.22
  10   0  22   47.40   11.58
  10   0  24    3.11    5.73
  10   0  26  176.44   22.26
  10   0  28   20.60    9.14
 -10   1  35   49.65   13.69
  10   1 -33    5.01    7.70
  10   1 -31  109.01   17.74
  10   1 -29  103.86   16.81
  10   1 -27   28.44   10.24
  10  -1 -27   29.92    9.96
  10   1 -25   10.93    7.80
  10  -1 -25    6.93    8.12
  10  -1 -23  327.79   25.89
  10   1 -23  308.82   25.27
  10  -1 -21   -3.37    5.71
  10   1 -21   11.54    6.38
  10   1 -19   69.49   11.59
  10  -1 -19   47.92    9.75
 -10  -1  19   47.35    8.84
  10  -1 -17   67.55   10.24
  10   1 -17   56.97   10.04
 -10  -1  17   58.59    9.37
 -10   1  17   57.66   10.16
 -10  -1  17   58.17   10.90
  10   1 -15  810.32   38.71
 -10   1  15  927.01   39.23
 -10  -1  15  927.20   38.68
  10  -1 -15  864.30   38.12
  10   1 -13  228.40   18.37
 -10   1  13  202.16   16.13
 -10  -1  13  229.50   17.77
  10  -1 -13  216.63   16.65
  10   1 -11  520.81   28.32
 -10   1  11  524.35   25.48
 -10  -1  11  539.22   28.02
  10  -1 -11  474.32   24.60
 -10  -1   9    2.68    3.12
  10  -1  -9    1.20    2.80
  10   1  -9   -4.17    3.99
 -10   1   7  705.49   31.32
 -10  -1   7  688.62   32.14
 -10   1   7  673.30   26.64
  10  -1  -7  655.64   26.42
  10   1  -7  614.85   30.04
  10   1  -7  632.48   30.19
 -10   1   5   46.38    7.80
  10  -1  -5   43.30    5.83
 -10  -1   5   40.66    7.31
  10   1  -5   41.72    7.95
  10  -1  -3   29.76    4.43
 -10   1   3   25.39    6.41
  10   1  -3   13.25    4.74
 -10  -1   3   24.48    6.51
  10  -1  -1   93.94    7.12
 -10   1   1   99.45   11.05
  10   1  -1   80.36   10.93
 -10  -1   1   88.14   10.97
  10   1   1  654.11   32.89
 -10   1  -1  689.69   31.19
 -10  -1  -1  627.56   30.75
  10  -1   1  625.78   29.34
  10  -1   1  627.24   20.89
 -10  -1  -3    3.77    3.13
  10  -1   3    0.53    3.97
  10   1   3    0.37    5.34
 -10   1  -3    0.97    3.60
 -10  -1  -5    8.33    4.61
  10  -1   5   15.74    5.70
  10   1   5   11.00    5.68
 -10   1  -5    1.43    2.78
  10   1   7  994.54   43.51
  10  -1   7  947.17   39.74
 -10   1  -7  881.66   37.16
 -10  -1  -7 1039.55   42.67
 -10   1  -9   76.74    9.93
 -10  -1  -9   68.83   10.36
  10  -1   9   79.94    7.14
  10  -1   9   79.48   10.97
  10   1   9   87.96   12.93
  10  -1  11    5.65    2.77
 -10   1 -11    9.08    4.09
  10  -1  11   -5.42    5.38
  10   1  11    2.26    5.39
  10  -1  13    5.60    3.05
 -10   1 -13    3.61    3.73
  10  -1  13    5.97    5.30
  10   1  13    2.14    5.88
  10  -1  15  401.53   26.36
  10   1  15  335.32   26.40
  10  -1  15  328.16   19.27
 -10   1 -15  317.21   21.75
 -10   1 -17    8.53    5.45
  10  -1  17    9.23    4.21
  10  -1  17    4.46    4.14
  10   1  17    3.85    4.86
  10  -1  19   -4.55    4.61
  10   1  19   -4.37    5.81
  10  -1  21  299.01   25.32
  10   1  21  342.18   29.25
  10  -1  23  351.99   27.99
  10   1  23  341.15   30.40
  10  -1  25    4.90    7.02
  10   1  25   32.45   11.20
  10   1  27   -0.64    7.26
  10   2 -32    6.78    7.14
  10   2 -30    6.79    6.82
  10   2 -28   12.00    8.36
 -10  -2  26   52.08    9.90
  10   2 -26   57.78   13.43
 -10  -2  24   25.20    7.05
  10   2 -24   31.88    9.88
  10   2 -22   12.48    6.32
 -10  -2  22   15.45    5.84
 -10  -2  20  358.04   23.47
  10   2 -20  300.74   24.88
  10   2 -18   25.01    8.03
 -10  -2  18   12.45    5.40
 -10   2  16   83.12   11.89
 -10  -2  16   67.03   10.11
  10   2 -16   46.48    9.81
 -10   2  14   -0.25    3.44
  10   2 -14    0.90    4.61
 -10  -2  14    2.62    3.23
  10  -2 -14    1.18    3.46
 -10   2  12    5.70    3.73
 -10  -2  12    1.14    3.32
  10  -2 -12    3.34    3.91
  10   2 -12    3.81    4.99
  10   2 -10   -0.40    4.26
 -10   2  10    4.33    3.17
  10   2 -10   -1.21    4.10
 -10  -2  10    3.22    3.05
  10  -2 -10    6.83    4.13
  10   2  -8   13.87    5.30
 -10   2   8    9.97    3.50
 -10  -2   8    5.40    4.05
  10  -2  -8   10.17    3.75
  10   2  -6    2.45    4.17
 -10   2   6   -1.43    2.25
  10  -2  -6    0.17    2.11
 -10  -2   6   -2.30    3.10
 -10   2   4  159.04   14.22
 -10   2   4  155.71    9.65
 -10  -2   4  147.18   14.12
  10   2  -4  124.38   14.00
 -10   2   2   46.19    7.70
  10   2  -2   39.75    8.46
 -10  -2   2   48.59    8.55
 -10  -2   0   14.42    4.67
 -10   2   0   12.41    4.56
  10   2   0   15.76    6.35
 -10  -2  -2    4.57    4.29
 -10   2  -2    1.28    3.50
  10   2   2   -0.83    4.91
 -10   2  -4  300.33   19.37
  10   2   4  311.96   23.13
 -10  -2  -4  326.35   22.43
 -10  -2  -6  129.47   14.34
 -10   2  -6  116.80   11.70
  10   2   6  125.59   15.55
  10  -2   8  291.67   18.70
  10   2   8  307.68   23.88
 -10   2  -8  253.78   17.36
  10  -2  10  309.72   19.80
  10   2  10  303.26   24.72
 -10   2 -10  287.56   18.53
  10  -2  12  235.12   17.91
  10  -2  12  250.73   10.30
  10   2  12  261.11   23.45
 -10   2 -12  236.77   16.87
 -10   2 -14    8.49    4.82
  10  -2  14    0.21    2.00
  10  -2  14   -1.21    4.31
  10   2  14   12.31    7.90
 -10   2 -16    5.04    4.04
  10  -2  16    5.23    4.57
  10   2  16   -4.58    6.99
  10  -2  18  135.45   14.42
  10   2  18  145.03   19.10
  10  -2  20   24.12    6.51
  10   2  20   21.99    9.19
  10   2  22   68.98   15.31
  10   2  24   10.96    7.02
  10   3 -31  234.44   26.48
  10   3 -29   64.14   14.31
  10   3 -27  165.43   21.45
  10   3 -25   15.22    9.96
  10   3 -23  351.44   29.29
 -10  -3  21  194.49   16.29
  10   3 -21  206.96   22.07
  10   3 -19   97.07   14.79
 -10  -3  19   95.94   11.21
  10   3 -17  112.07   15.68
 -10  -3  17  139.71   13.56
 -10  -3  15 2174.02   68.17
  10   3 -15 2233.58   79.64
 -10   3  15 2308.90   73.59
  10   3 -13   -0.73    6.14
 -10   3  13    4.07    4.31
 -10  -3  13    8.80    5.24
  10   3 -11  184.96   19.10
  10   3 -11  183.74   15.78
 -10  -3  11  183.73   15.28
 -10   3  11  186.86   15.21
  10   3  -9  160.73   15.58
 -10  -3   9  141.33   13.59
 -10   3   9  138.82   12.23
  10   3  -7 1482.39   55.72
 -10  -3   7 1494.37   53.34
 -10   3   7 1550.77   47.21
 -10  -3   5   52.55    9.10
 -10   3   5   36.95    5.26
  10   3  -5   48.88    9.09
 -10   3   3  165.27    9.49
  10   3  -3  144.60   15.92
 -10  -3   3  153.21   15.21
 -10   3   1  793.95   34.87
  10   3  -1  792.54   39.40
 -10   3   1  810.19   21.21
 -10  -3   1  797.67   37.53
 -10   3  -1  919.37   37.57
  10   3   1  832.41   41.76
 -10  -3  -1  915.90   41.26
 -10   3  -3   24.62    5.78
  10   3   3   28.67    8.60
 -10   3  -5    6.70    3.58
  10   3   5   15.17    6.44
 -10   3  -7  811.98   32.69
  10   3   7  818.23   42.92
  10   3   9   17.43    6.92
 -10   3  -9   10.21    3.56
 -10   3 -11   99.80    9.62
  10   3  11   82.13   14.08
  10   3  13   55.10   15.17
  10   3  15  534.21   38.03
  10   3  17   91.77   15.68
  10   3  19   77.00   15.61
  10   3  21  100.65   17.92
  10   4 -28   20.75    9.64
  10   4 -26   97.89   17.29
  10   4 -24    8.23    7.61
  10   4 -22    1.70    6.56
  10   4 -20  153.92   20.21
  10   4 -18  262.37   25.51
 -10  -4  16   -2.07    3.83
  10   4 -16   -1.45    5.55
 -10  -4  14   29.18    6.54
  10   4 -14   41.77   10.62
  10   4 -12  433.04   25.71
  10   4 -12  442.35   32.59
 -10  -4  12  414.98   23.95
 -10   4  12  443.96   26.29
  10   4 -10  482.83   28.55
 -10  -4  10  459.52   26.10
 -10   4  10  517.79   26.84
 -10  -4   8   -7.32    5.27
  10   4  -8    0.90    4.06
 -10   4   8    4.03    3.26
 -10  -4   6    0.76    3.85
 -10   4   6    2.03    2.45
  10   4  -6    2.40    4.64
  10   4  -4 1089.62   49.58
 -10   4   4 1125.15   35.99
 -10  -4   4 1102.19   46.20
  10   4  -2  183.24   19.07
 -10   4   2  184.94   10.42
 -10   4   0   16.09    6.12
 -10   4   0    7.22    1.40
  10   4   0    1.11    5.02
 -10   4  -2  130.31   13.24
  10   4   2  134.17   17.24
 -10   4  -4  397.51   22.94
  10   4   4  414.98   30.85
 -10   4  -6    9.50    3.87
  10   4   6   24.08    9.00
  10   4   8  449.86   33.43
  10   4  10  125.34   18.71
  10   4  12  410.37   34.21
  10   4  14   32.66   11.37
  10   4  16   27.40   11.22
  10   5 -25   10.31    6.48
  10   5 -23   -2.86    6.30
  10   5 -21   45.50   12.62
  10   5 -19    0.63    6.21
  10   5 -17    1.22    7.17
  10   5 -15   45.35   12.60
  10   5 -13    1.61    7.00
  10   5 -11   54.24    9.69
  10   5  -9    0.11    4.99
  10   5  -7    0.52    4.52
  10   5  -5   49.44   11.03
  10   5  -3    9.40    6.80
  10   5  -1   -3.95    5.33
  10   5   1   18.19    8.16
  10   5   3   -5.88    7.06
  10   5   5    1.99    6.22
  10   5   7    1.92    8.63
  10   5   9   -4.95    6.82
  10   5  11   15.79    9.31
  10   5  13    6.04    7.07
  10   6 -18   18.10   10.54
 -10   6  16   26.57   10.14
  10   6 -16   20.30    9.00
 -10   6  14  -13.70    9.14
  10   6 -14   -6.53    7.81
  10   6 -12  182.29   24.53
 -10   6  12  221.14   23.03
 -10   6  10   14.85    6.92
 -10   6   8   -1.89    6.37
 -10   6   6   -5.09    5.03
  10   6  -4  128.27   18.42
  10   6  -2   21.87    9.61
  10   6   0   22.25    9.80
  10   6   2   23.84   11.44
  10   6   4  125.12   19.45
  10   6   6   27.87   12.01
  10   6   8   17.27    8.24
 -11   0  37    3.11    7.24
  11   0 -33    3.38    6.64
  11   0 -31  -16.32    9.69
  11   0 -29   -9.03    8.03
  11   0 -27    0.17    5.95
  11   0 -25   -7.00    6.25
  11   0 -23   -4.88    5.67
  11   0 -21   -1.83    5.10
  11   0 -19   -1.44    5.14
 -11   0  17    6.36    5.37
  11   0 -17   -1.23    4.20
 -11   0  15    2.33    3.72
  11   0 -15   -2.64    4.23
  11   0 -13    0.11    3.55
 -11   0  13   -1.80    4.17
 -11   0  13    0.11    3.22
 -11   0  11   -3.76    4.18
  11   0 -11    0.48    4.07
 -11   0  11    0.04    3.25
 -11   0   9    0.69    3.86
  11   0  -9    2.36    3.66
  11   0  -7   -3.97    4.22
 -11   0   7    0.37    3.71
 -11   0   5   -3.70    4.21
  11   0  -5    0.33    2.98
  11   0  -3    1.51    2.97
 -11   0   3    2.43    3.64
  11   0  -1   -4.22    5.60
 -11   0   1    1.77    3.29
  11   0   1    0.27    3.91
 -11   0  -1   -2.71    3.37
  11   0   3    4.04    4.63
 -11   0  -3    1.23    3.15
  11   0   5    4.26    4.56
 -11   0  -5   -4.02    3.92
 -11   0  -7   -2.70    3.94
  11   0   7    1.99    4.39
 -11   0  -9    2.18    3.57
  11   0   9    4.10    5.70
 -11   0 -11   -1.87    3.82
  11   0  11   -0.33    5.03
  11   0  13    1.81    5.51
  11   0  15    3.18    5.00
  11   0  15   -0.65    3.43
  11   0  17    3.57    5.58
  11   0  17   -1.00    3.62
  11   0  19    2.73    5.53
  11   0  21  -15.02    9.43
  11   0  23    1.37    6.00
  11   0  25   -1.79    6.85
  11   0  27    2.55    6.55
  11   1 -32   12.84    5.79
  11   1 -30   80.47   15.61
  11   1 -28   83.56   15.24
  11  -1 -28   97.08   15.78
  11   1 -26    3.45    7.20
  11  -1 -26    8.15    8.07
  11   1 -24   -5.71    6.15
  11  -1 -24    3.78    5.31
 -11  -1  22  454.81   28.70
  11  -1 -22  451.38   30.54
  11   1 -22  430.20   30.29
  11  -1 -20  117.93   14.77
 -11  -1  20  143.92   15.09
  11   1 -20  109.29   14.59
  11  -1 -18    6.06    5.76
  11   1 -18    3.71    5.09
 -11  -1  18    3.75    4.04
 -11   1  18    4.30    4.83
 -11   1  16  255.64   19.82
 -11  -1  16  242.70   19.42
  11  -1 -16  242.69   19.41
  11   1 -16  221.08   19.48
  11   1 -14 1403.93   54.32
 -11   1  14 1504.08   52.91
 -11  -1  14 1517.85   54.80
  11  -1 -14 1417.73   51.54
 -11  -1  12  306.79   21.90
  11   1 -12  277.33   21.30
 -11   1  12  380.19   22.10
  11  -1 -12  343.88   20.97
 -11  -1  10  471.09   27.05
  11   1 -10  451.60   26.41
 -11   1  10  492.83   24.62
  11  -1 -10  477.77   23.84
 -11   1   8  517.13   27.54
 -11  -1   8  508.39   28.30
  11   1  -8  421.81   24.94
  11  -1  -8  463.51   22.38
 -11   1   8  478.13   22.99
  11   1  -8  470.40   26.49
  11   1  -6 1722.43   59.64
 -11   1   6 1890.99   60.77
 -11  -1   6 1893.88   62.55
  11  -1  -6 1726.79   51.66
  11  -1  -4   46.66    6.16
  11   1  -4   41.38    8.57
 -11   1   4   53.05    8.76
 -11  -1   4   55.57    9.14
  11  -1  -2  259.28   13.54
 -11   1   2  294.18   20.39
  11   1  -2  284.52   20.91
 -11  -1   2  305.28   20.88
  11   1   0 2576.87   80.93
 -11   1   0 2736.96   79.06
  11  -1   0 2498.05   63.19
 -11  -1   0 2578.78   78.20
  11  -1   0 2464.96   75.17
  11  -1   2  767.72   34.72
  11   1   2  777.41   38.11
 -11   1  -2  787.99   35.04
 -11  -1  -2  798.45   36.64
  11  -1   2  781.52   25.20
  11   1   4  276.06   21.90
 -11   1  -4  259.06   18.71
 -11  -1  -4  239.07   19.22
  11  -1   4  250.79   18.87
 -11  -1  -6    8.84    5.76
  11  -1   6    9.70    5.20
  11   1   6    4.77    4.29
 -11   1  -6    4.02    3.57
  11  -1   8 1002.71   43.30
 -11   1  -8 1019.67   41.71
  11   1   8 1129.05   48.85
 -11  -1  -8  992.07   44.39
  11  -1  10  557.33   31.16
  11   1  10  581.31   34.52
  11  -1  10  536.18   22.07
 -11   1 -10  566.51   29.47
 -11   1 -12  103.11   12.52
  11  -1  12  126.50   14.78
  11  -1  12  116.95   10.05
  11   1  12  132.07   16.21
 -11   1 -14   57.10    9.52
  11  -1  14   53.90    7.52
  11  -1  14   62.52   10.79
  11   1  14   68.87   12.66
  11  -1  16  500.86   31.46
  11   1  16  457.47   32.88
  11  -1  16  443.23   23.57
 -11   1 -16  428.54   26.98
  11  -1  18  127.41   16.49
  11   1  18  133.58   17.89
  11  -1  20   63.45   12.17
  11   1  20   69.32   14.10
  11  -1  22   10.12    5.19
  11   1  22   19.78    9.85
  11  -1  24  334.31   28.96
  11   1  24  314.13   30.72
  11   1  26   15.63    9.79
  11   2 -31   31.20   11.41
  11   2 -29   79.80   15.61
  11   2 -27   80.03   14.73
 -11  -2  25  551.34   32.43
  11   2 -25  512.05   35.75
  11   2 -23    9.11    8.66
 -11  -2  23    3.84    5.08
 -11  -2  21  359.85   25.11
  11   2 -21  363.46   28.29
  11   2 -19 1409.76   60.08
 -11  -2  19 1539.98   56.72
  11   2 -17  535.84   33.78
 -11  -2  17  598.50   31.94
  11  -2 -17  609.42   32.66
 -11   2  17  618.55   33.32
  11   2 -15   47.60   10.39
 -11   2  15   64.34   10.12
 -11  -2  15   45.75    8.77
  11  -2 -15   56.58    9.65
 -11   2  13   55.25    8.87
  11   2 -13   54.74   10.64
 -11  -2  13   66.02   10.53
  11  -2 -13   58.97    9.23
 -11   2  11  937.11   36.45
 -11  -2  11  888.23   39.12
  11  -2 -11  882.97   35.75
  11   2 -11  848.57   41.23
 -11   2   9  612.82   26.79
  11   2  -9  590.69   30.52
 -11  -2   9  576.20   30.61
  11  -2  -9  636.31   27.12
  11   2  -9  581.48   32.70
 -11   2   7  133.60   10.61
  11   2  -7  124.71   14.36
  11  -2  -7  131.95   10.47
 -11  -2   7  132.30   13.51
 -11   2   5  115.51   12.83
  11   2  -5  108.02   13.36
  11  -2  -5  105.44    8.44
 -11   2   5  114.44    8.93
 -11  -2   5  121.11   13.19
 -11   2   3 1800.93   59.75
  11   2  -3 1840.10   64.11
  11  -2  -3 1725.97   45.54
 -11  -2   3 1739.56   60.74
 -11   2   1 1440.42   51.75
  11   2  -1 1348.07   54.53
 -11  -2   1 1366.61   52.28
 -11   2  -1  419.38   24.74
  11   2   1  422.53   27.90
 -11  -2  -1  428.55   26.44
 -11   2  -3  156.48   14.42
  11   2   3  177.86   17.72
 -11  -2  -3  176.02   17.00
  11   2   5 1281.26   53.10
 -11   2  -5 1125.96   43.98
  11   2   7  581.60   34.87
 -11   2  -7  584.09   28.73
  11  -2   9  508.94   27.10
 -11   2  -9  500.52   26.29
  11   2   9  538.43   34.12
  11  -2  11  406.43   24.20
  11   2  11  398.60   29.78
 -11   2 -11  367.48   22.41
  11  -2  13  512.45   28.61
  11   2  13  569.97   36.80
  11  -2  13  534.81   17.49
 -11   2 -13  569.49   28.28
 -11   2 -15    9.51    5.06
  11  -2  15    4.86    4.98
  11   2  15   14.16    7.81
  11  -2  17   12.57    5.99
  11   2  17   24.26    9.60
  11  -2  19  400.76   26.86
  11   2  19  344.78   31.52
  11   2  21  233.46   25.96
  11   2  23   50.11   13.80
  11   3 -30   -0.72    7.37
  11   3 -28   29.79   10.15
  11   3 -26   10.69    7.34
  11   3 -24   18.30    7.53
  11   3 -22   -3.81    7.19
 -11  -3  22    7.78    5.21
  11   3 -20   71.25   13.38
 -11  -3  20   81.07   10.92
 -11  -3  18   -2.42    4.16
  11   3 -18   -2.70    5.17
  11   3 -16    8.48    5.85
 -11  -3  16    3.14    3.68
 -11   3  16   16.80    6.63
 -11   3  14   89.85   11.87
 -11  -3  14   66.91    9.94
  11   3 -14   73.08   13.09
 -11   3  12    4.79    4.14
  11   3 -12    8.55    5.94
  11   3 -12    4.76    4.86
 -11  -3  12    2.76    3.25
 -11   3  10   15.13    4.83
  11   3 -10    4.09    4.61
 -11  -3  10    9.48    4.61
 -11   3   8    0.75    2.32
 -11  -3   8   -5.65    4.86
 -11   3   6  158.24   11.17
  11   3  -6  137.28   15.54
 -11  -3   6  143.47   14.85
 -11  -3   4  121.43   13.79
 -11   3   4  105.35    8.00
 -11   3   4  106.82   12.60
  11   3  -4  134.21   16.29
 -11  -3   2   16.40    5.83
 -11   3   2   16.47    4.94
  11   3  -2   42.18    9.90
 -11   3   2   18.69    2.57
 -11   3   0  116.37   13.01
  11   3   0  120.72   15.51
 -11   3  -2  286.26   20.23
  11   3   2  307.08   24.90
 -11   3  -4   21.27    5.88
  11   3   4   18.73    7.48
 -11   3  -6   47.24    7.88
  11   3   6   51.67   11.40
  11   3   8  110.89   16.46
 -11   3  -8  100.37   11.00
 -11   3 -10   14.77    4.66
  11   3  10   26.18    9.55
  11   3  12   16.01    7.85
  11   3  14   -5.07    7.62
  11   3  16   58.62   14.22
  11   3  18    6.01    7.78
  11   3  20   14.41    9.49
  11   4 -27   55.89   14.20
  11   4 -25   59.99   13.97
  11   4 -23    3.78    7.52
  11   4 -21  153.29   20.42
  11   4 -19  175.98   21.79
  11   4 -17   29.49    9.84
  11   4 -15   73.06   14.20
 -11  -4  15   71.75    9.81
 -11  -4  13   37.70    7.48
  11   4 -13   40.77   11.33
 -11   4  13   39.62    8.13
  11   4 -11  497.97   29.53
 -11  -4  11  516.33   28.39
 -11   4  11  532.17   28.11
 -11  -4   9  115.97   13.33
  11   4  -9  126.13   14.90
 -11   4   9  124.85   12.35
 -11  -4   7    9.56    5.95
  11   4  -7    5.00    5.38
 -11   4   7   -0.50    2.57
 -11   4   5   -0.20    2.51
  11   4  -5   -3.89    5.15
  11   4  -3  166.37   18.86
 -11   4   3  183.42   10.61
  11   4  -1  199.15   20.85
 -11   4   1  200.97   17.51
 -11   4  -1   79.42   10.85
  11   4   1   78.78   13.17
 -11   4  -3  101.54   11.92
  11   4   3  109.90   16.24
 -11   4  -5  112.15   11.75
  11   4   5  118.15   17.07
  11   4   7  156.83   20.34
  11   4   9   65.35   14.12
  11   4  11   71.31   14.44
  11   4  13  140.61   21.25
  11   4  15    0.07    6.90
  11   5 -24    3.40    7.88
  11   5 -22  166.58   22.76
  11   5 -20   37.46   12.28
  11   5 -18   46.99   12.54
  11   5 -16   -2.22    5.97
  11   5 -14  227.65   25.91
  11   5 -12  100.78   18.08
  11   5 -12   89.27   12.41
  11   5 -10   13.88    6.54
  11   5  -8  273.94   23.64
  11   5  -6  559.46   36.02
  11   5  -4    2.78    4.90
  11   5  -2   64.05   13.39
  11   5   0  304.33   28.27
  11   5   2  293.75   27.69
  11   5   4    2.43    6.72
  11   5   6   -1.83    7.75
  11   5   8  258.76   27.80
  11   5  10  155.19   23.38
  11   5  12  116.22   20.47
  11   6 -15    5.16    8.09
 -11   6  15   -8.48    7.66
  11   6 -13    1.94    8.66
 -11   6  13   13.47    8.19
 -11   6  11   90.77   15.06
  11   6  -5    8.88    7.61
  11   6  -3   96.34   17.16
  11   6  -1    8.76    7.36
  11   6   1   39.93   13.04
  11   6   3    5.00    9.29
  11   6   5  117.85   19.72
  12   0 -32  272.98   28.68
  12   0 -30  224.05   24.56
  12   0 -28  101.15   17.16
  12   0 -26   68.04   14.00
  12   0 -24  471.96   33.13
  12   0 -22   11.48    6.51
  12   0 -20   43.00    9.58
  12   0 -18  655.09   35.01
 -12   0  16 2183.70   71.36
  12   0 -16 1858.86   67.02
  12   0 -14   16.61    5.67
 -12   0  14   28.57    7.64
 -12   0  14   32.44    7.96
  12   0 -12   95.26   11.57
 -12   0  12  104.15   12.86
  12   0 -10 3931.61  108.86
 -12   0  10 4453.49  116.57
  12   0  -8 1352.57   47.88
 -12   0   8 1490.12   54.61
 -12   0   6  432.26   26.29
  12   0  -6  368.00   21.34
  12   0  -4    4.11    4.08
 -12   0   4    9.76    4.94
  12   0  -4    1.62    3.25
 -12   0   2 1223.91   48.26
  12   0  -2 1164.60   46.94
 -12   0   0  919.50   40.42
  12   0   0  866.16   40.22
  12   0   2  143.53   15.56
 -12   0  -2  120.48   13.51
  12   0   4  351.93   24.85
 -12   0  -4  335.64   23.08
  12   0   6 4843.07  132.54
 -12   0  -6 4718.42  128.46
  12   0   8  246.84   21.59
 -12   0  -8  251.84   20.38
  12   0  10  889.47   43.99
 -12   0 -10  837.69   40.26
  12   0  12  271.60   23.62
  12   0  14  573.73   35.93
  12   0  16    8.85    6.51
  12   0  16    0.64    3.68
  12   0  18    1.03    5.52
  12   0  20  202.04   22.86
  12   0  22  434.97   34.48
  12   0  24   53.68   13.21
  12   0  26   17.96   10.62
  12   1 -31   -5.41    7.58
  12  -1 -31   -7.68    7.47
  12   1 -29   44.39   12.36
  12  -1 -29   37.01   10.70
  12   1 -27  115.62   17.77
  12  -1 -27  140.23   19.31
  12   1 -25   22.83    7.68
  12  -1 -25   25.82    8.91
  12  -1 -23   61.31   11.97
  12   1 -23   57.96   11.41
  12  -1 -21   68.09   12.05
 -12  -1  21   69.87   11.13
  12   1 -21   69.05   12.32
  12   1 -19  130.58   16.31
  12  -1 -19  133.35   15.52
 -12  -1  19  167.68   16.97
 -12   1  17   52.43    9.46
  12  -1 -17   44.25    8.42
  12   1 -17   18.94    6.20
 -12  -1  17   51.61    9.64
 -12  -1  15  158.43   16.13
 -12   1  15  143.14   15.13
  12   1 -15  141.60   15.44
  12  -1 -15  141.29   14.61
 -12  -1  13  686.21   34.95
  12   1 -13  568.07   32.10
 -12   1  13  680.49   32.27
  12  -1 -13  658.22   31.36
  12   1 -11    2.54    4.78
 -12  -1  11   -0.51    4.86
  12  -1 -11    0.53    3.37
 -12   1  11    1.85    2.99
  12   1  -9   12.82    6.03
 -12   1   9    4.73    3.74
 -12   1   9    8.11    4.72
 -12  -1   9   -1.07    4.15
  12  -1  -9    9.57    4.27
  12  -1  -7   39.17    6.34
  12   1  -7   22.62    7.53
 -12   1   7   39.51    7.79
 -12  -1   7   31.18    8.09
  12   1  -7   50.57    8.76
  12   1  -5  395.66   25.94
 -12   1   5  452.69   26.71
 -12  -1   5  403.41   25.73
  12  -1  -5  416.02   19.88
  12  -1  -3  181.83   11.94
 -12   1   3  203.59   17.63
 -12  -1   3  188.75   17.07
  12   1  -3  187.94   17.86
  12  -1  -1  124.36    9.28
 -12  -1   1  146.97   15.02
  12   1  -1  137.47   15.15
 -12   1   1  124.25   14.26
  12  -1   1  321.56   21.82
  12   1   1  328.05   24.27
 -12   1  -1  309.43   21.90
 -12  -1  -1  328.32   23.03
  12  -1   1  315.06   14.86
  12  -1   3 1002.34   42.06
  12   1   3 1020.12   46.53
 -12   1  -3  979.86   41.69
 -12  -1  -3  941.07   42.79
 -12  -1  -5   81.82   11.57
  12  -1   5   66.38   10.64
  12   1   5   71.54   12.54
 -12   1  -5   78.70   10.52
  12  -1   7    6.59    5.36
  12   1   7    3.48    6.01
 -12   1  -7    2.68    4.07
  12  -1   9  563.30   31.91
  12   1   9  564.75   34.49
  12  -1   9  497.42   20.79
 -12   1  -9  456.20   27.52
  12  -1  11  291.52   23.20
  12   1  11  261.07   23.48
  12  -1  11  275.11   15.49
 -12   1 -11  289.43   21.28
  12  -1  13  480.99   30.76
  12  -1  13  451.73   21.97
 -12   1 -13  457.28   27.84
  12   1  13  502.07   33.92
  12  -1  15    5.32    3.63
  12  -1  15    2.23    5.22
  12   1  15    9.79    6.63
  12  -1  17  407.23   30.11
  12   1  17  446.72   33.76
  12  -1  19   60.75   12.36
  12   1  19   57.24   13.20
  12  -1  21   12.82    7.57
  12   1  21   15.82    8.60
  12  -1  23   19.64    8.46
  12   1  23   15.38    7.61
  12   1  25  243.01   28.19
  12   2 -32    2.62    6.70
  12   2 -30    1.27    6.10
  12   2 -28   38.16   11.10
  12   2 -26   15.51    8.00
  12   2 -24  203.88   22.13
 -12  -2  24  189.45   19.49
  12   2 -22    3.41    5.95
 -12  -2  22    4.95    4.09
  12   2 -20   18.01    7.73
 -12  -2  20   21.69    7.07
  12  -2 -20   12.25    6.58
  12   2 -18  194.78   21.11
 -12  -2  18  229.09   19.75
  12  -2 -18  196.95   18.61
 -12   2  16   36.67    8.25
 -12  -2  16   38.86    8.48
  12  -2 -16   43.38    8.78
  12   2 -16   42.06    9.97
  12   2 -14   16.19    6.92
 -12   2  14   12.08    4.96
 -12  -2  14   11.61    5.52
  12  -2 -14   13.91    6.00
  12   2 -12   17.56    6.06
 -12  -2  12   17.13    5.93
 -12   2  12   20.76    5.32
  12  -2 -12   19.88    5.86
  12   2 -10  244.44   19.75
 -12   2  10  272.48   17.60
 -12  -2  10  267.80   20.77
  12  -2 -10  244.99   16.79
  12   2 -10  253.96   21.56
  12   2  -8  165.87   16.41
 -12  -2   8  181.30   16.74
 -12   2   8  191.15   13.59
  12  -2  -8  190.02   13.37
  12   2  -6  103.44   13.63
  12  -2  -6   97.44    8.93
 -12   2   6  119.91    9.87
 -12   2   6  105.14   12.90
 -12  -2   6  128.01   13.94
 -12   2   4  179.72   16.82
  12   2  -4  198.53   18.71
 -12  -2   4  188.51   17.29
  12  -2  -4  170.73   10.49
 -12   2   2  149.42   15.24
  12  -2  -2  145.17    8.25
  12   2  -2  168.63   17.68
 -12  -2   2  141.46   15.06
 -12  -2   0  119.52   13.94
 -12   2   0  125.10   13.76
  12   2   0  117.22   15.12
 -12  -2  -2   23.08    7.06
 -12   2  -2   23.55    6.49
  12   2   2   35.57    9.40
  12   2   4   46.35   10.54
 -12   2  -4   43.14    7.98
  12   2   6  219.04   21.59
 -12   2  -6  181.04   16.22
  12  -2   8    0.91    3.66
  12   2   8    9.46    5.28
 -12   2  -8    1.88    3.39
 -12   2 -10   61.83    9.17
  12  -2  10   68.93   10.56
  12   2  10   75.07   12.95
 -12   2 -12   64.10    9.73
  12  -2  12   74.30   11.11
  12   2  12   78.39   14.04
  12  -2  14  227.65   19.46
  12   2  14  236.78   24.68
 -12   2 -14  205.38   17.26
  12  -2  16    5.33    5.84
  12   2  16    5.09    6.82
  12  -2  18   28.05    7.44
  12   2  18   10.02    7.69
  12   2  20   95.66   19.33
  12   2  22   62.10   15.37
  12   3 -29   49.83   12.81
  12   3 -27   73.30   15.26
  12   3 -25   -8.75    8.15
  12   3 -23   15.39    9.06
  12   3 -21  158.75   20.10
 -12  -3  21  147.70   15.50
  12   3 -19  264.48   25.56
 -12  -3  19  274.74   21.22
  12   3 -17   93.27   15.07
 -12  -3  17   85.41   11.71
 -12   3  15   -2.15    3.50
  12   3 -15    7.76    6.95
 -12  -3  15    3.42    3.73
 -12  -3  13  794.84   37.75
  12   3 -13  770.64   43.21
 -12   3  13  838.73   37.00
  12   3 -11   43.65   10.20
 -12   3  11   30.57    6.60
  12   3 -11   31.98    7.69
 -12  -3  11   20.04    6.37
 -12   3   9  142.80   12.40
  12   3  -9  127.99   15.52
 -12  -3   9  160.49   15.87
 -12   3   7  232.25   14.67
  12   3  -7  245.46   21.39
 -12  -3   7  196.20   18.33
 -12   3   5 1206.48   48.51
  12   3  -5 1055.11   49.09
 -12   3   5 1158.50   35.59
 -12  -3   5 1083.44   47.24
 -12  -3   3    3.13    3.48
 -12   3   3    4.92    3.75
  12   3  -3    9.09    5.79
 -12   3   1   75.32   10.86
  12   3  -1   70.92   12.61
 -12   3  -1  746.78   36.19
  12   3   1  767.39   41.73
 -12   3  -3 1142.29   46.18
  12   3   3 1105.01   52.95
 -12   3  -5  618.71   31.41
  12   3   5  705.70   41.09
  12   3   7   41.65   11.11
 -12   3  -7   20.41    5.44
  12   3   9  628.20   40.53
 -12   3  -9  609.36   29.53
  12   3  11  484.63   36.02
  12   3  13   15.52    9.75
  12   3  15    1.36    6.75
  12   3  17  837.36   52.03
  12   3  19   21.55   11.07
  12   4 -26   -6.64    6.76
  12   4 -24  383.31   33.81
  12   4 -22   14.00    7.70
  12   4 -20   71.45   14.30
  12   4 -18   93.03   16.72
  12   4 -16  258.44   26.59
 -12  -4  16  265.28   19.96
 -12  -4  14   42.48    8.57
  12   4 -14   29.67    9.43
 -12   4  14   37.35    8.51
 -12  -4  12   24.44    6.84
  12   4 -12   24.88    9.48
  12   4 -12   46.33    9.31
 -12   4  12   54.95    9.12
  12   4 -10  367.06   26.64
 -12  -4  10  369.69   24.95
 -12   4  10  374.30   22.37
  12   4  -8  244.10   22.48
 -12   4   8  254.34   16.75
  12   4  -6   52.52   11.17
 -12   4   6   68.50    7.70
 -12   4   4   76.81   11.42
  12   4  -4   77.45   13.67
 -12   4   4   66.79    6.55
 -12   4   2  378.26   25.28
  12   4  -2  351.31   28.91
 -12   4   0  290.87   21.93
  12   4   0  263.32   25.22
 -12   4  -2    2.71    4.99
  12   4   2    6.94    6.43
 -12   4  -4   20.22    5.62
  12   4   4   22.11    9.04
  12   4   6  380.88   32.10
  12   4   8   26.31    9.48
  12   4  10   59.95   14.20
  12   4  12  137.16   20.96
  12   4  14  237.38   27.55
  12   5 -21    5.05    7.03
  12   5 -19   -4.50    6.31
  12   5 -17   17.10   11.02
  12   5 -15   16.57    9.86
  12   5 -13   -6.89    5.03
  12   5 -13    9.08    7.81
  12   5 -11    9.59    5.75
  12   5  -9    9.93    7.03
  12   5  -7    6.46    5.93
  12   5  -5    0.56    6.79
  12   5  -3    4.05    6.40
  12   5  -1    7.07    6.40
  12   5   1   13.55    8.37
  12   5   3   19.46    9.47
  12   5   5    0.51    6.97
  12   5   7    2.79    7.09
  12   5   9   12.88   12.61
 -12   6  16   74.42   15.25
  12   6  -6   -2.30    6.78
  12   6  -4    9.98    8.37
  12   6  -2  204.56   24.61
  12   6   0   28.64   10.38
  12   6   2   36.28   11.90
  12   6   4    6.09    7.34
  13   0 -31   10.16    8.93
  13   0 -29    4.79    8.00
  13   0 -27   -3.88    5.79
  13   0 -25    6.85    7.17
  13   0 -23   -4.82    5.79
  13   0 -21    6.86    6.48
  13   0 -19   -8.62    6.78
  13   0 -17   -7.48    5.51
  13   0 -15   -1.85    4.67
 -13   0  15    1.15    4.52
 -13   0  15    5.80    5.18
  13   0 -13   -1.95    4.43
 -13   0  13  -15.96    5.93
 -13   0  11    1.49    4.42
  13   0 -11   -1.39    4.39
 -13   0   9    1.26    3.72
  13   0  -9    0.26    3.48
  13   0  -7   -3.23    3.56
 -13   0   7   -4.04    4.71
 -13   0   5    1.42    3.43
  13   0  -5   -0.13    3.18
  13   0  -3   -3.07    4.12
 -13   0   3    0.91    4.42
  13   0  -3    2.63    3.26
  13   0  -1   -1.73    5.31
 -13   0   1   -4.54    5.10
  13   0   1    0.49    4.52
 -13   0  -1    1.06    4.06
  13   0   3   -2.65    4.46
 -13   0  -3   -0.36    4.21
  13   0   5   -6.97    6.09
 -13   0  -5    2.02    5.25
 -13   0  -7   -2.35    4.29
  13   0   7  -10.82    6.45
  13   0   9   -7.78    6.73
  13   0  11    0.02    5.17
  13   0  13    1.69    5.49
  13   0  15   -3.49    5.63
  13   0  15    3.32    3.93
  13   0  17    3.08    6.03
  13   0  19    5.77    6.92
  13   0  21    2.02    7.11
  13   0  23  -13.11   10.41
  13   0  25   -4.16    8.11
  13   1 -32   -5.66    8.56
  13  -1 -32   14.36   10.17
  13   1 -30    7.15    7.71
  13  -1 -30   -9.46    8.30
  13   1 -28  202.37   23.49
  13  -1 -28  212.13   23.74
  13  -1 -26  261.38   25.47
  13   1 -26  261.65   25.96
  13  -1 -24   46.24   11.46
  13   1 -24   39.79   10.67
  13  -1 -22   13.97    7.35
  13   1 -22   17.04    8.08
  13  -1 -20  486.62   30.88
  13   1 -20  387.43   29.13
 -13  -1  18  405.55   27.69
  13  -1 -18  388.04   26.76
  13   1 -18  375.02   27.62
  13  -1 -16   87.86   12.00
 -13   1  16  106.04   13.23
 -13  -1  16   98.63   13.79
  13   1 -16   91.35   13.69
  13   1 -14  236.57   20.57
 -13  -1  14  259.69   21.64
 -13   1  14  278.35   20.71
  13  -1 -14  264.76   19.65
 -13   1  12 1084.21   46.50
 -13  -1  12 1055.53   46.27
  13   1 -12  958.47   43.79
  13  -1 -12  925.28   39.43
 -13   1  12 1111.00   42.93
 -13   1  10  373.57   25.03
  13   1 -10  318.46   23.27
  13  -1 -10  329.25   20.14
 -13  -1  10  343.51   24.91
 -13   1  10  327.81   20.63
  13   1  -8  316.75   23.28
 -13   1   8  419.08   26.33
 -13  -1   8  395.75   26.51
  13  -1  -8  344.57   19.89
  13   1  -8  346.87   23.69
  13   1  -6  311.13   23.16
 -13   1   6  366.16   24.87
 -13  -1   6  400.47   26.00
  13  -1  -6  335.80   18.73
  13  -1  -4 2055.12   59.32
  13   1  -4 2047.67   72.02
 -13   1   4 2301.62   73.65
 -13  -1   4 2175.71   72.56
  13   1  -2   -3.25    5.23
 -13   1   2    0.59    4.25
  13  -1  -2    2.21    3.08
 -13  -1   2   -1.04    4.38
  13  -1   0   58.57    6.45
  13   1   0   82.31   12.81
 -13   1   0   47.40    9.18
 -13  -1   0   64.23   10.72
  13  -1   2  385.79   25.26
  13   1   2  462.21   30.13
 -13   1  -2  386.49   25.52
 -13  -1  -2  366.80   25.63
  13  -1   2  375.17   17.29
  13  -1   4 1673.08   60.14
  13   1   4 1633.34   64.57
 -13   1  -4 1546.86   58.19
  13   1   6   -2.42    5.18
 -13   1  -6   -3.63    5.23
 -13   1  -8   17.43    5.47
  13  -1   8   29.60    8.00
  13   1   8   23.04    9.01
  13  -1  10  870.64   43.16
  13   1  10  879.50   46.24
  13  -1  10  846.98   30.35
 -13   1 -10  804.99   39.41
  13  -1  12 1076.00   49.63
  13   1  12 1128.12   54.23
  13  -1  12 1007.15   35.89
  13  -1  14  144.87   17.74
  13  -1  14  121.46   11.29
  13   1  14  160.66   20.24
  13  -1  16   -5.97    6.51
  13   1  16    2.85    6.14
  13  -1  18  446.35   32.68
  13   1  18  407.86   33.93
  13  -1  20  104.64   16.92
  13   1  20   95.18   16.87
  13  -1  22   11.68    7.59
  13   1  22   17.85    9.77
  13   1  24   -5.84    9.01
  13   2 -31  238.83   27.28
  13   2 -29   74.27   15.32
  13   2 -27  125.61   18.93
  13   2 -25   -0.12    6.72
  13   2 -23  335.49   28.98
 -13  -2  21  221.75   20.71
  13   2 -21  221.79   22.87
  13  -2 -21  253.18   22.78
  13   2 -19  258.94   24.31
 -13  -2  19  276.77   22.85
  13  -2 -19  273.12   23.08
 -13  -2  17   73.05   11.90
  13   2 -17   65.17   12.61
  13  -2 -17   65.65   10.78
 -13   2  15  803.82   37.52
 -13  -2  15  828.01   40.79
  13   2 -15  706.71   40.05
  13  -2 -15  773.24   36.82
 -13  -2  13   17.20    5.30
  13   2 -13   16.78    7.69
 -13   2  13   19.09    6.03
  13  -2 -13   17.17    5.68
  13  -2 -11   80.27   10.24
 -13   2  11   93.55   10.88
  13   2 -11   78.57   12.56
 -13  -2  11   96.36   13.23
 -13   2   9  497.71   29.76
  13   2  -9  430.01   27.70
 -13  -2   9  399.43   26.85
  13  -2  -9  433.68   22.19
 -13   2   9  453.67   23.16
  13   2  -9  387.10   27.89
 -13   2   7  622.09   33.45
  13   2  -7  569.63   33.17
 -13  -2   7  619.76   33.89
  13  -2  -7  573.34   24.78
 -13   2   7  611.65   25.91
  13  -2  -5   13.52    3.44
 -13   2   5   19.67    5.69
  13   2  -5   29.06    8.88
 -13  -2   5   18.67    6.13
 -13   2   3   46.33    9.44
  13   2  -3   19.42    7.32
 -13  -2   3   23.40    6.92
  13  -2  -3   25.99    3.99
 -13   2   1  782.88   38.35
  13   2  -1  776.47   41.40
  13  -2  -1  757.33   22.03
 -13   2  -1   69.82   11.00
  13   2   1   69.54   12.58
  13   2   3  220.14   21.87
 -13   2  -3  190.98   17.65
  13   2   5  502.26   34.08
 -13   2  -5  475.25   28.12
  13   2   7  588.46   37.17
 -13   2  -7  477.64   28.14
 -13   2  -9   12.78    5.53
  13  -2   9   24.16    6.38
  13   2   9   14.26    8.35
 -13   2 -11    9.83    4.89
  13  -2  11   22.91    6.84
  13   2  11   28.09   11.05
 -13   2 -13  107.60   12.97
  13  -2  13   94.16   13.19
  13   2  13   87.98   15.54
  13  -2  15  804.68   40.35
  13   2  15  794.34   48.56
  13  -2  17   19.48    7.24
  13   2  17   -3.06    6.25
  13   2  19  233.61   26.63
  13   2  21  393.33   36.25
  13   3 -28   -8.75    8.25
  13   3 -26   10.77    8.17
  13   3 -24    4.02    6.18
  13   3 -22   -6.06    8.76
 -13  -3  20   19.26    6.21
  13   3 -20   22.03    9.82
  13   3 -18   57.59   12.93
 -13  -3  18   52.18    9.93
  13   3 -16   -3.18    5.88
 -13  -3  16   12.70    6.07
  13   3 -14   19.29    7.47
 -13   3  14    9.12    4.58
 -13  -3  14   17.52    6.11
  13   3 -12   66.59   12.97
  13   3 -12   64.89   11.08
 -13   3  12   92.82   11.17
 -13  -3  12   77.91   11.50
 -13   3  10  342.75   20.41
  13   3 -10  314.04   24.19
 -13  -3  10  310.34   23.54
 -13   3   8    1.06    2.64
  13   3  -8   -0.79    4.60
 -13  -3   8    3.21    5.21
 -13   3   6   26.24    6.46
  13   3  -6   29.34    8.47
 -13   3   6   20.17    4.41
 -13   3   4  243.42   20.51
  13   3  -4  246.48   22.86
 -13   3   2   -1.49    4.72
  13   3  -2    8.67    7.54
 -13   3   0   24.27    6.57
  13   3   0   51.21   11.94
 -13   3  -2  133.47   14.98
  13   3   2  102.01   15.52
 -13   3  -4  129.31   14.29
  13   3   4  163.31   19.78
  13   3   6   18.89    9.22
 -13   3  -6    7.08    4.49
  13   3   8   -0.54    6.17
 -13   3  -8    1.54    3.69
  13   3  10   22.86   10.16
  13   3  12   33.85   11.00
  13   3  14   10.28    8.30
  13   3  16    8.98    7.98
  13   4 -25   27.31    9.47
  13   4 -23   34.63   12.10
  13   4 -21   72.66   15.26
  13   4 -19   96.57   17.22
  13   4 -17   36.59   11.55
  13   4 -15  181.03   22.95
 -13   4  13   -3.83    3.55
  13   4 -13    9.40    8.11
  13   4 -13   -3.10    4.23
 -13   4  11   11.31    5.53
  13   4 -11   12.24    5.87
 -13   4   9   39.61    7.04
  13   4  -9   38.03    9.93
  13   4  -7   50.06   11.31
 -13   4   7   57.71    7.57
  13   4  -5   12.42    7.39
 -13   4   3   12.66    6.82
  13   4  -3   -4.50    6.77
 -13   4   1  360.61   26.04
  13   4  -1  464.59   34.48
 -13   4  -1   39.01    8.46
  13   4   1   75.49   14.75
 -13   4  -3   65.98   10.46
  13   4   3   51.88   12.85
  13   4   5  134.63   19.77
  13   4   7   71.70   15.16
  13   4   9   10.89    9.93
  13   4  11   -2.27    8.16
  13   4  13   83.06   17.71
  13   5 -20  139.42   21.45
  13   5 -18   83.94   17.06
  13   5 -16   37.25   11.31
  13   5 -14   49.58   13.12
  13   5 -12  266.89   23.47
  13   5 -12  348.31   33.35
  13   5 -10  103.46   15.69
  13   5  -8   31.99    9.79
  13   5  -6   78.29   14.21
  13   5  -4  498.42   37.04
  13   5  -2   33.37   12.06
  13   5   0    1.13    7.22
  13   5   2  196.43   24.55
  13   5   4  557.18   42.03
  13   5   6  -12.88    9.49
  13   5   8   55.56   14.69
  13   6  -5   27.90   10.84
  13   6  -3   16.19    8.58
  13   6  -1   58.38   14.60
  13   6   1   36.53   11.23
  13   6   3   25.69   11.93
  14   0 -32   -2.57    8.08
  14   0 -30  275.71   28.21
  14   0 -28   64.21   14.74
  14   0 -26   22.48    8.35
  14   0 -24   10.59    7.58
  14   0 -22  778.16   42.56
  14   0 -20  125.00   16.05
  14   0 -18   22.30    8.07
  14   0 -16   98.50   13.34
 -14   0  14 2535.61   82.64
  14   0 -14 2337.75   77.35
  14   0 -12  161.90   16.05
 -14   0  12  215.31   19.87
 -14   0  10   24.09    8.16
  14   0 -10   18.30    5.86
  14   0  -8 1129.14   44.26
 -14   0   8 1205.88   51.12
 -14   0   6 1788.83   65.18
  14   0  -6 1599.92   55.39
  14   0  -4  394.06   26.64
 -14   0   4  441.93   28.77
  14   0  -4  376.18   22.51
  14   0  -2  477.94   29.65
 -14   0   2  512.07   30.59
  14   0  -2  482.04   25.41
  14   0   0 2041.99   72.24
 -14   0   0 2047.57   71.41
  14   0   2  869.55   43.49
 -14   0  -2  860.84   41.54
  14   0   4   31.28    8.03
 -14   0  -4   34.77    8.74
  14   0   6   24.50    7.73
  14   0   8 1905.10   73.08
  14   0  10   -1.09    6.12
  14   0  12   -0.79    5.36
  14   0  14  208.63   22.95
  14   0  16  909.31   50.96
  14   0  18   71.00   14.73
  14   0  20   26.85   10.93
  14   0  22  176.70   23.35
  14   0  24  205.20   25.88
  14   1 -31   28.41    9.54
  14  -1 -31   22.36    9.53
  14   1 -29   24.85   10.53
  14  -1 -29   10.74    7.99
  14   1 -27   -2.50    7.60
  14  -1 -27   10.86    8.56
  14  -1 -25  345.89   29.45
  14   1 -25  360.48   30.41
  14  -1 -23  110.61   16.13
  14   1 -23  117.36   17.51
  14   1 -21   67.72   13.51
  14  -1 -21   71.39   12.83
  14  -1 -19  428.14   28.81
  14   1 -19  393.46   29.26
  14  -1 -17  100.67   13.35
  14   1 -17   83.69   13.35
 -14   1  15   36.26    8.04
 -14  -1  15   35.19    8.85
  14  -1 -15   36.20    8.00
  14   1 -15   34.95    8.92
 -14  -1  13   36.17    8.56
  14  -1 -13   38.06    8.14
 -14   1  13   41.21    8.39
  14   1 -13   34.91    8.82
 -14  -1  11  480.51   30.65
 -14   1  11  450.61   29.19
  14   1 -11  434.76   27.95
 -14   1  11  427.45   25.31
  14  -1 -11  468.64   25.63
 -14   1   9  505.92   31.09
 -14  -1   9  556.88   32.97
  14   1  -9  425.31   27.61
  14  -1  -9  480.05   25.06
  14  -1  -7   77.01    9.15
  14   1  -7   82.96   13.00
  14   1  -7   56.98   10.28
 -14   1   7   92.04   13.17
 -14  -1   7   99.42   13.41
  14  -1  -5    1.37    2.76
  14   1  -5   10.03    4.92
 -14   1   5    0.18    5.18
 -14  -1   5    4.11    3.92
  14  -1  -3  252.01   15.40
  14   1  -3  262.68   22.64
 -14   1   3  274.26   22.69
 -14  -1   3  286.30   22.60
  14  -1  -1    6.31    2.85
  14   1  -1    2.37    4.95
 -14   1   1   -0.60    3.68
 -14  -1   1   11.04    5.97
  14  -1   1    9.59    6.60
  14   1   1   12.50    7.39
  14  -1   1   18.34    4.37
 -14   1  -1   12.62    6.65
  14  -1   3   17.78    4.35
  14  -1   3    7.82    4.52
  14   1   3   24.98    8.87
 -14   1  -3   12.22    4.89
  14  -1   5 1010.40   46.19
  14   1   5 1099.84   52.28
 -14   1  -5  986.42   45.09
  14  -1   7    1.60    4.63
  14   1   7    0.63    5.56
 -14   1  -7    1.83    4.76
  14  -1   9   50.60   10.40
  14   1   9   59.63   11.97
  14  -1  11  267.27   24.02
  14   1  11  240.51   24.55
  14  -1  11  225.08   14.47
  14  -1  13   86.47   14.33
  14   1  13   93.05   16.05
  14  -1  15   -7.17    7.65
  14   1  15    4.54    7.13
  14  -1  17   -5.33    6.65
  14   1  17   17.41    9.16
  14  -1  19  105.01   16.53
  14   1  19  139.49   21.15
  14  -1  21   33.48   10.74
  14   1  21   24.37    9.04
  14   1  23   49.54   13.46
  14   2 -30   -4.66    9.05
  14   2 -28    8.38    7.09
  14   2 -26    1.24    7.14
  14   2 -24   14.56    7.41
  14  -2 -24   17.72    7.49
  14  -2 -22  273.43   24.86
  14   2 -22  264.16   25.81
  14   2 -20   18.82    8.27
  14  -2 -20    2.79    5.95
  14   2 -18    5.74    6.11
  14  -2 -18    3.06    5.36
 -14   2  16   11.20    5.39
  14   2 -16   21.06    8.56
 -14  -2  16   11.52    6.17
  14  -2 -16   16.64    6.02
 -14  -2  14  266.82   22.68
 -14   2  14  282.72   20.78
  14   2 -14  229.92   22.10
  14  -2 -14  236.09   18.93
  14  -2 -12   -0.37    3.24
  14   2 -12    6.10    5.20
 -14   2  12    1.88    3.18
 -14  -2  12    2.62    4.70
  14  -2 -10   69.24    9.06
 -14   2  10   45.50    7.45
  14   2 -10   57.82   11.19
  14   2 -10   69.99   11.88
 -14  -2  10   73.54   11.57
 -14   2   8  212.59   15.20
  14   2  -8  171.92   18.19
 -14  -2   8  242.88   21.02
  14  -2  -8  216.85   14.83
 -14   2   6  161.31   17.17
  14   2  -6  125.84   16.23
  14  -2  -6  149.84   11.18
  14  -2  -4   52.85    5.91
 -14   2   4   64.81   10.82
  14   2  -4   47.83   10.30
  14  -2  -2   17.63    3.06
  14   2  -2   17.46    7.60
 -14   2   2    8.14    5.13
  14  -2   0   89.97    4.98
  14   2   0   88.67   14.38
 -14   2   0   88.31   12.93
  14   2   2   36.29   10.45
 -14   2  -2   14.91    6.30
  14   2   4    8.07    5.64
 -14   2  -4   30.55    8.58
  14   2   6   58.18   12.67
 -14   2  -6   38.31    7.60
  14   2   8  103.37   16.29
 -14   2  -8  106.93   13.48
 -14   2 -10   40.04    8.48
  14  -2  10   34.49    8.56
  14   2  10   28.87    9.80
  14  -2  12   -0.29    4.16
  14   2  12   -1.62    6.59
  14  -2  14   24.39    8.38
  14   2  14   29.74   11.34
  14  -2  16   57.07   10.98
  14   2  16   52.76   14.55
  14   2  18   64.80   15.81
  14   3 -27   92.51   17.28
  14   3 -25  407.77   34.92
  14   3 -23   94.67   17.53
  14   3 -21   -1.44    6.30
  14   3 -19  225.28   24.54
  14   3 -17  351.21   30.47
 -14   3  15  102.60   13.00
  14   3 -15  123.13   17.91
  14   3 -13    5.49    7.13
 -14   3  13   -2.48    3.50
  14   3 -11  448.05   33.14
 -14   3  11  481.88   25.64
  14   3 -11  456.63   30.45
 -14   3   9  165.30   13.37
  14   3  -9  158.90   18.07
 -14   3   7    7.05    3.10
  14   3  -7    3.91    5.15
  14   3  -5   11.53    6.21
 -14   3   3 1389.92   56.67
  14   3  -3 1321.65   60.42
 -14   3   1  102.87   13.87
  14   3  -1  109.75   17.43
 -14   3  -1  112.23   14.67
  14   3   1   93.87   15.69
  14   3   3   54.52   12.33
 -14   3  -3   27.67    7.37
  14   3   5  843.71   48.40
 -14   3  -5  752.71   37.68
  14   3   7    4.46    7.94
 -14   3  -7    0.14    4.05
  14   3   9    5.33    8.30
  14   3  11  477.75   38.23
  14   3  13  248.63   28.07
  14   3  15  159.59   22.89
  14   4 -24    6.06    7.13
  14   4 -22  141.63   21.23
  14   4 -20   18.05    9.24
  14   4 -18   36.99   11.75
  14   4 -16   11.66    6.22
  14   4 -14  374.35   32.96
  14   4 -12   -0.10    7.00
  14   4 -12   11.87    7.15
  14   4 -10   33.48   10.20
  14   4  -8  168.19   19.96
  14   4  -6  361.73   30.19
  14   4  -4    5.39    6.45
  14   4  -2    7.70    6.20
  14   4   0  497.90   37.49
  14   4   2   43.21   12.13
  14   4   4    7.69    6.69
  14   4   6    9.36    6.90
  14   4   8  520.70   40.69
  14   4  10  111.32   19.49
  14   4  12   34.91   10.49
  14   5 -17    0.86    6.25
  14   5 -15   15.99    9.11
  14   5 -13    3.29    5.57
  14   5 -13   17.08   10.52
  14   5 -11    0.23    4.85
  14   5  -9  -10.51   10.11
  14   5  -7    4.21    6.87
  14   5  -5   12.69    7.72
  14   5  -3    4.10    6.83
  14   5  -1    7.40    8.87
  14   5   1   64.69   14.25
  14   5   3   10.10   10.64
  14   5   5   -2.02    6.89
  14   5   7   -8.14   10.93
  14   6  -6  144.13   20.92
  14   6  -4   15.73   11.18
  14   6  -2   18.53   10.76
  14   6   0  196.07   26.34
  15   0 -31   -5.64    6.55
  15   0 -29   -4.09    6.55
  15   0 -27   -2.43    7.28
  15   0 -25    7.43    8.17
  15   0 -23    5.98    6.47
  15   0 -21   -7.69    6.24
  15   0 -19    2.27    6.19
  15   0 -17   -3.29    6.12
  15   0 -15   -0.90    4.71
  15   0 -13    1.80    4.11
  15   0 -11   -6.97    5.94
  15   0  -9    0.51    4.25
  15   0  -7   -0.55    4.02
 -15   0   7    4.31    5.45
 -15   0   5    0.88    4.79
  15   0  -5    1.39    3.76
  15   0  -3    2.08    4.83
  15   0  -3    4.32    6.26
 -15   0   3   -0.20    4.76
  15   0  -1    6.52    6.31
  15   0   1   -3.18    5.93
  15   0   3   -0.67    5.98
  15   0   5    3.82    6.76
  15   0   7    5.46    5.79
  15   0   9   -2.30    5.51
  15   0  11   -1.31    6.60
  15   0  13  -11.66    8.95
  15   0  15   -6.80    8.51
  15   0  17    5.02    6.55
  15   0  19   -4.34    9.24
  15   0  21   17.56   11.84
  15   0  23   17.98   10.72
  15   1 -30    4.20    6.03
  15  -1 -30   12.34    8.59
  15   1 -28  103.56   17.50
  15  -1 -28  119.26   18.58
  15  -1 -26  241.11   25.33
  15   1 -26  307.82   28.76
  15  -1 -24  247.19   24.39
  15   1 -24  247.29   25.29
  15   1 -22    9.63    5.31
  15  -1 -22   28.25    9.31
  15   1 -20   14.63    7.33
  15  -1 -20   -2.19    4.62
  15  -1 -18  565.85   33.21
  15   1 -18  518.27   33.95
  15   1 -16  837.72   43.63
  15  -1 -16  840.85   40.69
 -15   1  16  977.66   44.24
 -15   1  14   18.60    5.87
  15  -1 -14   11.29    5.24
  15   1 -14   17.24    7.43
  15   1 -12    7.33    6.21
  15  -1 -12    5.77    4.12
  15   1 -10 1777.99   65.57
  15  -1 -10 1774.56   58.62
  15   1  -8  564.48   33.88
  15   1  -8  534.51   31.84
  15  -1  -8  595.39   28.20
  15  -1  -6   -0.74    3.59
  15   1  -6    5.26    5.35
  15   1  -6    1.60    5.61
 -15   1   6    5.08    5.26
  15  -1  -4  146.79   12.23
  15   1  -4  157.46   17.76
 -15   1   4  134.07   16.27
  15  -1  -2  547.71   24.35
  15   1  -2  540.06   34.65
 -15   1   2  598.00   35.09
  15   1   0  596.56   36.88
 -15   1   0  589.76   34.28
  15  -1   0  540.55   23.69
  15  -1   2  594.32   34.54
  15   1   2  613.33   37.86
  15  -1   2  597.17   24.63
  15  -1   4    2.08    5.04
  15   1   4   14.68    8.19
  15  -1   4    8.12    3.11
  15  -1   6  770.71   40.87
  15   1   6  749.31   44.45
  15  -1   8   24.26    9.09
  15   1   8   22.43    9.92
  15  -1  10   57.92   12.00
  15   1  10   52.04   13.01
  15  -1  10   30.94    5.36
  15  -1  12  212.77   22.13
  15   1  12  231.90   25.53
  15  -1  14  171.95   20.46
  15   1  14  199.95   24.21
  15  -1  16    0.90    6.21
  15   1  16   21.67    9.56
  15  -1  18   -0.42    6.86
  15   1  18   -7.85    9.95
  15  -1  20  221.49   24.84
  15   1  20  227.69   27.78
  15   2 -29  108.46   19.07
  15   2 -27   29.19   10.62
  15   2 -25    5.36    8.61
  15  -2 -25    6.65    7.77
  15   2 -23    4.66    7.41
  15  -2 -23   16.98    9.50
  15  -2 -21  372.07   28.64
  15   2 -21  403.78   32.15
  15   2 -19   27.25    9.83
  15  -2 -19   36.46    9.22
  15   2 -17  268.51   25.48
  15  -2 -17  296.55   23.03
  15  -2 -15   61.64   10.50
  15   2 -15   56.98   11.90
 -15   2  15   45.98    8.66
  15   2 -13  603.75   37.91
  15  -2 -13  705.41   33.87
 -15   2  13  759.47   35.34
  15  -2 -11    5.58    3.99
  15   2 -11    0.12    5.01
 -15   2  11   -1.59    3.21
  15   2  -9  181.96   19.55
  15   2  -9  171.26   18.59
  15  -2  -9  174.19   14.12
  15   2  -7  925.20   46.14
  15  -2  -7  922.27   34.18
  15   2  -5  767.08   42.42
  15  -2  -5  762.00   28.25
  15   2  -3  121.38   16.52
  15  -2  -3  112.60    8.43
 -15   2   1  187.79   19.45
  15   2  -1  207.53   22.21
  15  -2  -1  177.25    9.01
  15   2   1 1472.04   64.36
 -15   2  -1 1383.12   57.53
 -15   2  -3  182.45   18.46
  15   2   3  219.75   23.28
  15   2   5   58.38   13.33
 -15   2  -5   41.84    8.99
  15   2   7    1.85    6.34
  15   2   9 1054.50   56.67
  15  -2  11  547.17   33.80
  15   2  11  534.96   40.00
  15  -2  13  112.19   15.30
  15   2  13  108.71   18.72
  15  -2  15   70.56   12.44
  15   2  15   78.22   17.12
  15   2  17  429.37   38.05
  15   3 -26    7.90    8.29
  15   3 -24  150.92   22.42
  15   3 -22   47.52   12.59
  15   3 -20    1.33    7.82
  15   3 -18   13.40    9.16
  15   3 -16   29.81   10.00
  15   3 -14   30.76   10.77
 -15   3  14   11.25    4.84
  15   3 -12    5.72    5.55
 -15   3  12    1.07    3.76
  15   3 -12   -0.19    4.79
  15   3 -10  173.15   20.78
  15   3 -10  127.06   16.83
 -15   3  10  173.88   14.55
  15   3  -8   77.08   13.86
 -15   3   8   86.99    9.47
  15   3  -6   -9.04    7.10
  15   3  -4   -3.83    7.17
  15   3  -2   17.78    8.85
  15   3   0   26.62   10.58
  15   3   2  -11.75    7.63
 -15   3  -2   -0.73    5.53
  15   3   4   14.83    7.99
 -15   3  -4   31.50    7.99
  15   3   6   92.18   17.10
  15   3   8    4.37    9.39
  15   3  10    2.66    7.48
  15   3  12   87.93   17.37
  15   3  14  103.91   19.45
  15   4 -23   12.20    7.89
  15   4 -21   80.15   16.77
  15   4 -19    7.70    7.45
  15   4 -17    1.09    8.84
  15   4 -15  103.95   17.89
  15   4 -13  129.43   20.38
  15   4 -13  129.09   16.99
  15   4 -11    4.62    4.87
  15   4 -11    6.45    8.90
  15   4  -9   69.25   13.59
  15   4  -7   92.76   16.22
  15   4  -5   76.41   14.77
  15   4  -3   -8.98    8.09
  15   4  -1   33.75   11.31
  15   4   1  666.63   45.33
  15   4   3   73.88   16.06
  15   4   5    7.23    6.87
  15   4   7   14.10    8.62
  15   4   9   86.67   17.85
  15   5 -16  166.15   23.96
  15   5 -14   32.75   12.62
  15   5 -12    7.71    7.67
  15   5 -12    3.30    5.50
  15   5 -10  248.23   25.17
  15   5  -8   50.36   12.41
  15   5  -6   70.78   15.66
  15   5  -4   32.02   10.98
  15   5  -2  264.13   28.55
  15   5   0  263.84   29.82
  15   5   2    6.01    7.53
  15   5   4  169.50   24.59
  15   6  -5   91.43   18.26
  15   6  -3    8.95    8.43
  15   6  -1   16.78    9.63
  16   0 -30   50.79   12.69
  16   0 -28  218.03   25.10
  16   0 -26   17.06    7.31
  16   0 -24   51.17   11.32
  16   0 -22    6.94    6.61
  16   0 -20  591.88   36.56
  16   0 -18   30.15    8.04
  16   0 -16   27.44    8.29
  16   0 -14   85.86   12.50
  16   0 -12 2543.71   81.72
  16   0 -10  349.00   23.70
  16   0  -8   21.00    6.20
  16   0  -6 1036.53   43.02
  16   0  -4 2821.14   93.12
  16   0  -4 2878.47   84.58
  16   0  -2  386.53   28.62
  16   0  -2  366.76   23.23
  16   0   0   -8.72    7.49
  16   0   2 1861.87   72.66
  16   0   4 1209.26   56.85
  16   0   6  192.23   21.48
  16   0   8   69.40   14.20
  16   0  10  866.03   49.14
  16   0  12  410.18   33.76
  16   0  14   30.96   10.05
  16   0  16   27.37   11.87
  16   0  18  367.86   34.27
  16   0  20    3.52    6.86
  16   0  22   37.16   13.64
  16  -1 -31   62.26   14.54
  16   1 -29   94.75   17.31
  16  -1 -29   60.59   14.65
  16  -1 -27   12.43    7.80
  16   1 -27    1.66    7.35
  16  -1 -25   13.26    8.46
  16   1 -25   17.35    9.16
  16  -1 -23  275.02   25.78
  16   1 -23  275.95   26.75
  16   1 -21   10.53    6.03
  16  -1 -21   -0.64    5.75
  16   1 -19   36.15   10.65
  16  -1 -19   36.75    9.54
  16   1 -17   77.75   13.43
  16  -1 -17   62.91   11.68
 -16   1  15  115.78   14.44
  16  -1 -15  121.79   14.28
  16   1 -15  109.43   15.53
  16   1 -13    7.17    6.10
  16  -1 -13   12.42    5.46
  16   1 -11    9.58    5.39
  16  -1 -11   14.26    5.44
  16  -1  -9  121.26   12.46
  16   1  -9  101.33   13.67
  16  -1  -7   24.00    5.66
  16   1  -7   29.25    8.24
  16   1  -7   33.47    8.65
  16   1  -5  249.56   22.87
  16  -1  -5  246.56   16.98
  16   1  -3   20.74    7.65
  16  -1  -3   41.25    7.02
  16  -1  -1  583.57   25.70
  16   1  -1  633.64   38.87
  16  -1   1   20.59    7.23
  16  -1   1   23.13    4.91
  16   1   1   13.77    7.41
  16  -1   3  159.41   17.87
  16   1   3  153.47   19.38
  16  -1   3  159.13   11.99
  16  -1   5   60.05    7.54
  16  -1   5   55.56   11.50
  16   1   5   57.64   12.25
  16  -1   7   13.08    7.85
  16   1   7    9.13    7.64
  16  -1   9    8.92    6.06
  16   1   9    2.42    6.50
  16  -1  11   34.01   11.34
  16   1  11   28.98   10.87
  16  -1  13  131.73   18.46
  16   1  13  148.91   21.79
  16  -1  15  344.38   30.41
  16   1  15  323.19   32.21
  16  -1  17   10.47    8.37
  16   1  17   31.08   11.82
  16  -1  19    9.31    8.37
  16   1  19   -4.92    7.28
  16   2 -28    3.41    6.93
  16   2 -26    6.93    6.15
  16  -2 -26  -13.06    7.52
  16   2 -24   14.56    9.27
  16  -2 -24    8.40    6.28
  16   2 -22   27.38   10.50
  16  -2 -22   18.76    8.29
  16   2 -20   70.13   14.01
  16  -2 -20   94.83   14.41
  16   2 -18    9.04    7.16
  16  -2 -18    6.28    5.06
  16  -2 -16   69.79   11.37
  16   2 -16   73.55   13.86
  16  -2 -14   24.76    7.31
 -16   2  14   17.77    5.55
  16   2 -14   16.63    8.00
  16   2 -12  188.19   20.71
  16  -2 -12  176.50   15.86
 -16   2  12  169.32   15.74
  16  -2 -10   22.09    5.87
  16   2 -10   26.53    8.72
  16   2 -10   48.35   11.58
  16  -2  -8    2.31    3.25
  16   2  -8   10.82    7.96
  16   2  -8    1.35    5.17
  16   2  -6  235.18   22.93
  16  -2  -6  216.96   14.42
  16   2  -4  108.85   16.39
  16  -2  -4   83.87    7.94
  16  -2  -2   37.38    4.59
  16   2  -2   58.05   12.57
  16   2   0   -2.62    6.56
  16  -2   0    4.27    1.55
  16   2   2   23.06    8.61
  16   2   4  104.30   17.03
  16   2   6   -4.33    8.41
  16   2   8   28.42   10.87
  16   2  10   32.82   11.11
  16  -2  12    1.20    5.54
  16   2  12    0.07    6.95
  16  -2  14   11.99    7.42
  16   2  14   -2.46    8.25
  16  -2  16    3.23    6.84
  16   2  16    5.64    6.71
  16   3 -25   41.08   12.70
  16   3 -23  216.11   25.93
  16   3 -21   17.20    8.44
  16   3 -19    4.95    6.23
  16   3 -17  319.31   29.88
 -16   3  15  114.76   14.05
  16   3 -15   82.20   15.86
  16   3 -13   54.61   14.50
 -16   3  13   31.45    7.10
 -16   3  11   19.96    5.82
  16   3 -11   42.47   10.90
  16   3 -11   35.08   10.82
 -16   3   9  157.81   13.47
  16   3  -9  175.77   20.31
  16   3  -7  249.72   24.70
  16   3  -5   96.74   16.60
  16   3  -3    4.92    6.59
  16   3  -1  526.83   38.36
  16   3   1    1.64    8.08
  16   3   3  229.93   26.19
  16   3   5  438.28   37.23
  16   3   7  755.79   49.97
  16   3   9   -0.59    7.43
  16   3  11   64.15   16.21
  16   3  13  141.19   22.26
  16   4 -22   -1.85    7.37
  16   4 -20  279.61   29.90
  16   4 -18   82.58   16.85
  16   4 -16   10.90    7.38
  16   4 -14   -3.13    7.17
  16   4 -12  236.90   23.76
  16   4 -12  239.86   27.41
  16   4 -10   54.10   12.40
  16   4  -8   98.08   16.18
  16   4  -6  287.08   28.27
  16   4  -4  625.36   43.17
  16   4  -2   34.83   12.60
  16   4   0   13.69    6.96
  16   4   2  217.00   27.43
  16   4   4  414.86   37.47
  16   4   6    1.69    7.91
  16   4   8   44.13   15.24
  16   5 -13    3.06    6.41
  16   5 -11   11.12    7.39
  16   5 -11   19.09   10.09
  16   5  -9    6.10    6.58
  16   5  -7   -1.78    6.75
  16   5  -5   11.22    8.63
  16   5  -3   54.60   14.93
  16   5  -1   24.81    9.76
  16   5   1   -1.95    7.55
  16   5   3   11.23    8.86
  16   6  -4   45.44   14.24
  17   0 -29   13.80    8.27
  17   0 -27   -5.96    7.01
  17   0 -25    7.71    8.39
  17   0 -23    4.72    7.11
  17   0 -21   -4.49    5.28
  17   0 -19    4.89    7.45
  17   0 -17    3.94    5.40
  17   0 -15    7.26    5.96
  17   0 -13   -1.59    4.38
  17   0 -11    1.31    4.10
  17   0  -9   -2.31    4.03
  17   0  -7    3.53    4.72
  17   0  -5   -6.41    5.31
  17   0  -3   -3.11    5.43
  17   0  -3    4.57    4.93
  17   0  -1    2.45    4.51
  17   0  -1   -8.08    7.04
  17   0   1   -1.88    6.20
  17   0   3    8.53    6.76
  17   0   5   -1.20    5.72
  17   0   7   -0.90    7.46
  17   0   9   -7.38    7.65
  17   0  11    1.93    7.20
  17   0  13    4.85    7.50
  17   0  15    7.20    8.06
  17   0  17    4.14    8.03
  17   0  19  -10.57    9.37
  17  -1 -30   88.20   16.61
  17  -1 -28   61.01   13.81
  17   1 -28   46.39   11.84
  17  -1 -26  186.93   22.76
  17   1 -26  163.39   22.17
  17  -1 -24   26.13    8.88
  17   1 -24   25.91    9.79
  17   1 -22   48.45   12.43
  17  -1 -22   60.42   12.92
  17   1 -20   12.01    6.49
  17  -1 -20    3.34    5.01
  17  -1 -18  213.72   20.70
  17   1 -18  206.99   22.23
  17  -1 -16   39.83    9.26
  17   1 -16   48.59   11.15
  17   1 -14  236.49   22.84
  17  -1 -14  275.96   21.69
  17   1 -12   93.31   14.46
  17  -1 -12   87.35   12.01
  17   1 -10   34.97    9.23
  17  -1 -10   35.66    7.54
  17   1  -8  633.24   36.04
  17  -1  -8  615.58   30.38
  17   1  -6  587.48   37.56
  17  -1  -6  603.97   29.16
  17   1  -6  651.72   36.11
  17   1  -4   -1.74    5.50
  17  -1  -4    1.77    2.80
  17  -1  -2  392.15   21.28
  17   1  -2  387.53   30.81
  17   1   0  585.27   39.04
  17  -1   0  552.19   25.37
  17  -1   2  400.77   29.66
  17   1   2  381.61   31.45
  17  -1   2  360.84   19.68
  17  -1   4   32.40    5.96
  17  -1   4   47.47   10.93
  17   1   4   47.39   13.12
  17  -1   6  501.03   23.12
  17  -1   6  469.30   33.37
  17   1   6  453.79   35.96
  17  -1   8  754.09   44.11
  17   1   8  839.27   50.26
  17  -1  10   19.27    8.35
  17   1  10   10.93    6.83
  17  -1  12    7.96    6.21
  17   1  12    9.80    9.60
  17  -1  14  138.32   20.01
  17   1  14  153.47   22.60
  17  -1  16  225.26   25.30
  17   1  16  179.81   25.12
  17  -1  18    1.27    7.16
  17   1  18  -13.90    9.59
  17  -2 -27  349.82   31.51
  17   2 -27  367.40   33.86
  17  -2 -25  412.14   33.94
  17   2 -25  453.01   37.07
  17   2 -23    3.41    7.03
  17  -2 -23    1.97    5.81
  17   2 -21   12.97    8.92
  17  -2 -21   13.62    6.48
  17   2 -19  698.77   44.11
  17  -2 -19  693.59   39.19
  17   2 -17  258.54   25.69
  17  -2 -17  258.17   22.31
  17  -2 -15   12.79    5.08
  17   2 -15   -3.09    8.16
 -17   2  15   -1.01    4.01
  17  -2 -13   90.90   12.36
  17   2 -13  109.21   17.08
 -17   2  13  104.82   12.91
  17  -2 -11  786.09   35.34
  17   2 -11  743.85   43.66
  17   2  -9  169.14   20.29
  17   2  -9  189.24   20.94
  17  -2  -9  176.37   14.75
  17  -2  -7   42.54    6.89
  17   2  -7   40.74   11.24
  17   2  -5  179.63   21.22
  17  -2  -5  210.32   13.71
  17   2  -3  650.34   41.87
  17  -2  -3  617.32   23.35
  17  -2  -1    9.76    2.74
  17   2  -1    8.65    6.09
  17   2   1  221.25   25.06
  17   2   3  106.23   17.50
  17   2   5  444.20   36.80
  17   2   7  215.37   26.94
  17   2   9   19.23   11.05
  17   2  11  590.24   45.08
  17  -2  13   36.12    9.83
  17   2  13   35.12   11.41
  17  -2  15  131.74   17.75
  17   3 -24    7.52    7.28
  17   3 -22   29.48   10.64
  17   3 -20   11.00    6.60
  17   3 -18   35.87   10.50
  17   3 -16   14.98    8.55
  17   3 -14   26.05   11.00
  17   3 -12   -1.76    6.93
  17   3 -12   -5.15    8.23
 -17   3  12    6.02    4.95
  17   3 -10   13.58    7.91
  17   3 -10    6.54    7.67
  17   3  -8   15.75    8.75
  17   3  -6   29.97    9.13
  17   3  -4   -3.87    9.83
  17   3  -2    5.98    9.10
  17   3   0   84.87   16.62
  17   3   2   23.38   10.88
  17   3   4   49.68   15.28
  17   3   6   -3.65    8.86
  17   3   8  179.00   24.99
  17   3  10   42.26   13.61
  17   4 -19  117.71   20.00
  17   4 -17   22.32   11.99
  17   4 -15  -13.81    8.70
  17   4 -13   35.80   10.05
  17   4 -13   56.69   15.42
  17   4 -11   78.02   14.65
  17   4 -11   50.26   14.31
  17   4  -9   13.26    9.28
  17   4  -7    5.36    6.99
  17   4  -5   44.75   12.80
  17   4  -3   82.38   16.98
  17   4  -1   -3.45    6.98
  17   4   1   10.17   10.00
  17   4   3  139.69   22.76
  17   4   5  177.94   25.11
  17   5 -12    5.54    7.51
  17   5 -10   10.42    8.21
  17   5  -8  212.25   25.57
  17   5  -6   54.34   14.67
  17   5  -4   92.85   18.27
  17   5  -2   68.48   15.83
  17   5   0  185.54   25.74
  18   0 -28   38.78   11.85
  18   0 -26  347.37   31.57
  18   0 -24  289.42   27.51
  18   0 -22   36.98   10.24
  18   0 -20   27.83    9.25
  18   0 -18  258.52   24.01
  18   0 -16  335.16   26.62
  18   0 -14  403.26   28.48
  18   0 -12   53.09   10.57
  18   0 -10  177.02   17.76
  18   0  -8   44.36    9.02
  18   0  -6   15.47    6.71
  18   0  -4   30.52    7.07
  18   0  -2 1629.76   68.19
  18   0  -2 1572.33   57.88
  18   0   0  196.06   17.72
  18   0   0  217.11   22.96
  18   0   2    7.77    7.56
  18   0   4  166.61   21.11
  18   0   6  517.96   38.19
  18   0   8    3.34    7.41
  18   0  10   31.87   12.92
  18   0  12  747.05   48.79
  18   0  14  274.59   29.61
  18   0  16    6.06    8.09
  18   0  18   23.38   10.48
  18  -1 -29   18.42    9.40
  18  -1 -27   26.18    8.16
  18   1 -27   32.24   11.24
  18  -1 -25   -9.41    9.50
  18   1 -25   -2.44    5.90
  18   1 -23   19.18    9.39
  18  -1 -23   -0.82    5.54
  18  -1 -21  319.35   27.10
  18   1 -21  281.46   27.37
  18   1 -19   93.58   16.02
  18  -1 -19   82.68   13.56
  18   1 -17   14.58    7.03
  18  -1 -17    2.22    4.79
  18   1 -15  226.61   22.79
  18  -1 -15  221.28   20.65
  18   1 -13  425.39   30.87
  18  -1 -13  493.44   29.41
  18   1 -11    2.29    5.27
  18  -1 -11    8.11    4.63
  18  -1  -9  117.12   13.27
  18   1  -9  102.08   14.26
  18   1  -7  506.18   35.35
  18   1  -7  489.69   32.25
  18  -1  -7  533.05   28.09
  18   1  -5  910.63   44.91
  18   1  -5  925.87   49.39
  18  -1  -5  869.16   36.67
  18   1  -3   37.29   11.39
  18  -1  -3   43.34    7.77
  18  -1  -1  247.21   16.68
  18   1  -1  206.82   23.16
  18   1   1  455.45   35.43
  18  -1   1  447.59   22.74
  18  -1   3   16.85    7.30
  18   1   3   28.15   11.52
  18  -1   3   18.27    5.01
  18  -1   5   14.42    4.05
  18  -1   5   16.99    9.17
  18   1   5    5.51    9.37
  18  -1   7   17.27    9.30
  18   1   7   23.18   10.56
  18  -1   9  277.66   26.88
  18   1   9  310.52   31.22
  18  -1  11    9.13    8.33
  18   1  11    5.90    7.20
  18  -1  13   17.61    9.48
  18   1  13   15.43    8.40
  18  -1  15   15.64   10.43
  18   1  15   12.01    6.94
  18  -1  17   91.82   18.17
  18  -2 -28   11.46    7.20
  18   2 -26   30.24   11.60
  18  -2 -26   23.37    8.15
  18   2 -24   65.50   15.24
  18  -2 -24   90.95   15.39
  18   2 -22   15.49    9.25
  18  -2 -22   21.91    9.69
  18   2 -20   -4.01    9.41
  18  -2 -20    5.73    6.60
  18  -2 -18    3.65    4.60
  18   2 -18    5.75    6.60
  18  -2 -16   -1.72    4.19
  18   2 -16   -0.89    6.75
  18  -2 -14   -4.10    4.80
  18   2 -14   -0.58    8.04
  18  -2 -12   -2.91    4.61
  18   2 -12   -6.92    8.17
  18   2 -10  179.31   21.17
  18  -2 -10  179.67   15.82
  18   2 -10  203.96   22.57
  18   2  -8    7.80    6.14
  18  -2  -8    9.19    2.79
  18   2  -8   13.73    8.76
  18  -2  -6    6.59    3.73
  18   2  -6    8.32    6.90
  18  -2  -4   34.59    5.57
  18   2  -4   42.76   11.58
  18  -2  -2   53.01    5.77
  18   2  -2   53.42   12.29
  18   2   0   11.12    6.95
  18   2   2   17.90   10.18
  18   2   4  151.92   21.69
  18   2   6   95.63   18.19
  18   2   8    1.46    7.05
  18   2  10   22.47   11.00
  18   2  12   77.99   18.16
  18  -2  14   -3.35    6.70
  18   3 -23   67.64   14.68
  18   3 -21  317.55   31.68
  18   3 -19    2.18    6.53
  18   3 -17   36.25   13.15
  18   3 -15  266.52   28.51
  18   3 -13  785.84   49.23
  18   3 -11   13.63    7.26
  18   3 -11    8.94    7.56
  18   3  -9   31.29   11.90
  18   3  -9    9.77    7.23
  18   3  -7  690.40   44.71
  18   3  -5  564.24   41.02
  18   3  -3  153.98   21.36
  18   3  -1    8.05    7.64
  18   3   1  766.20   50.50
  18   3   3  146.57   22.38
  18   3   5   36.80   14.20
  18   3   7   24.07   12.37
  18   4 -18   84.02   17.43
  18   4 -16   86.84   18.12
  18   4 -14   54.71   14.82
  18   4 -12   15.39    8.36
  18   4 -12   19.39    9.92
  18   4 -10  271.64   27.88
  18   4 -10  277.39   30.45
  18   4  -8   32.01   10.76
  18   4  -6   10.50   10.41
  18   4  -4   -5.39    8.50
  18   4  -2  190.00   25.54
  18   4   0    2.25    6.83
  18   4   2   19.23   12.25
  18   4   4   61.48   15.18
  18   5 -13   -2.05    7.95
  18   5 -11   26.14   11.08
  18   5  -9   -4.18    7.08
  18   5  -7  -19.07    9.60
  18   5  -5    3.25    7.49
  18   5  -3   23.26    9.67
  19   0 -29  -11.60    9.51
  19   0 -27    1.34    8.61
  19   0 -25   -2.23    5.81
  19   0 -23    3.37    7.24
  19   0 -21    4.99    7.06
  19   0 -19    0.08    5.77
  19   0 -17   -2.51    6.11
  19   0 -15    9.59    7.54
  19   0 -13    3.31    4.74
  19   0 -11    3.50    4.69
  19   0  -9   -0.37    4.36
  19   0  -7   -0.91    3.84
  19   0  -5   -2.98    3.88
  19   0  -3   14.61    7.96
  19   0  -3   -2.84    4.77
  19   0  -1   -8.43    7.89
  19   0  -1   -0.95    4.75
  19   0   1   -4.30    4.41
  19   0   1    5.26    6.03
  19   0   3   -1.38    7.75
  19   0   5   -3.42    7.97
  19   0   7   -1.85    6.65
  19   0   9    3.23    7.93
  19   0  11    4.44    8.54
  19   0  13  -12.68    8.46
  19   0  15  -10.74    9.70
  19  -1 -28  158.06   21.72
  19   1 -28  139.11   21.75
  19  -1 -26   50.84   12.98
  19   1 -26   48.18   13.87
  19  -1 -24   15.92    7.14
  19   1 -24   21.02    7.18
  19   1 -22   54.15   14.68
  19  -1 -22   69.05   13.35
  19  -1 -20  358.57   29.17
  19   1 -20  382.84   31.85
  19   1 -18   66.98   13.86
  19  -1 -18   65.28   12.39
  19  -1 -16   70.26   12.09
  19   1 -16   38.32    9.99
  19  -1 -14  114.35   14.77
  19   1 -14   80.32   13.86
  19   1 -12  400.96   30.69
  19  -1 -12  378.99   25.84
  19  -1 -10    0.77    4.69
  19   1 -10   10.45    7.05
  19  -1  -8  146.63   14.78
  19   1  -8  152.15   18.18
  19   1  -6  477.26   35.24
  19   1  -6  450.62   31.33
  19  -1  -6  463.31   26.26
  19  -1  -4  172.00   14.99
  19   1  -4  220.70   21.63
  19   1  -4  184.87   22.06
  19   1  -2   23.64    9.22
  19  -1  -2   43.99    7.97
  19   1   0   39.30   11.90
  19  -1   0   60.49    8.61
  19   1   2  449.23   36.79
  19  -1   2  409.89   21.91
  19  -1   4  308.35   28.24
  19   1   4  309.37   30.89
  19  -1   4  317.67   18.59
  19  -1   6   36.71   10.30
  19   1   6   62.20   14.68
  19  -1   8   38.79    9.97
  19   1   8   73.82   17.00
  19  -1  10  229.53   25.63
  19   1  10  270.35   30.15
  19  -1  12   22.49    9.63
  19   1  12   24.32    9.72
  19  -1  14   20.66   10.88
  19  -1  16   93.47   17.14
  19  -2 -27   18.76    9.86
  19   2 -25   60.08   14.96
  19  -2 -25   71.16   15.44
  19   2 -23  236.25   26.91
  19  -2 -23  259.62   25.71
  19   2 -21   23.10    9.95
  19  -2 -21   34.27   10.11
  19  -2 -19   -0.51    5.76
  19   2 -19    5.51    6.25
  19   2 -17  447.77   35.92
  19  -2 -17  475.02   31.05
  19  -2 -15   89.73   12.99
  19   2 -15   71.38   15.10
  19  -2 -13   -2.13    5.38
  19   2 -13    4.26    7.08
  19   2 -11   12.65    8.00
  19  -2 -11   12.11    4.21
  19   2  -9  682.09   43.65
  19  -2  -9  677.61   31.38
  19   2  -9  614.54   40.79
  19   2  -7  222.87   24.76
  19  -2  -7  193.79   14.94
  19   2  -7  152.08   20.05
  19  -2  -5   71.08    8.31
  19   2  -5   73.94   14.77
  19   2  -3  198.39   24.35
  19  -2  -3  193.81   12.13
  19   2  -1 1296.50   66.51
  19   2   1    1.42    8.31
  19   2   3   -3.37    8.06
  19   2   5  378.78   35.76
  19   2   7  551.94   43.90
  19   2   9   -1.44    6.84
  19   3 -22   -0.15    7.38
  19   3 -20   12.75    8.08
  19   3 -18    0.04    7.14
  19   3 -16  -15.59    9.26
  19   3 -14   11.56    7.47
  19   3 -12   78.70   15.96
  19   3 -10    3.75    6.29
  19   3 -10  -11.74   10.30
  19   3  -8   51.78   13.48
  19   3  -6   14.17    9.80
  19   3  -4  112.83   19.91
  19   3  -2   25.94   11.61
  19   3   0   16.58   10.94
  19   3   2   64.92   15.52
  19   3   4   27.99   11.82
  19   3   6   24.34   11.63
  19   4 -13   18.37   10.18
  19   4 -11   18.08    9.99
  19   4 -11   26.42   10.46
  19   4  -9  199.17   25.00
  19   4  -7    6.21    9.15
  19   4  -5   34.96   11.18
  19   4  -3   33.12   12.03
  19   4  -1  186.37   25.94
  19   4   1   -5.40    8.96
  19   5 -12  211.12   25.24
  19   5 -10   13.45    9.30
  19   5  -8   52.72   13.66
  19   5  -6  192.18   26.37
  20   0 -28  -11.64    7.16
  20   0 -26   21.02    7.92
  20   0 -24   31.44   10.66
  20   0 -22  272.81   26.75
  20   0 -20    4.51    7.80
  20   0 -18    2.76    7.87
  20   0 -16  490.21   33.69
  20   0 -14  208.82   21.19
  20   0 -12  182.53   19.43
  20   0 -10   26.66    8.09
  20   0  -8  749.73   39.25
  20   0  -6   -1.62    4.35
  20   0  -4   18.62    7.33
  20   0  -2  158.90   16.71
  20   0  -2  198.03   23.52
  20   0   0  899.34   51.55
  20   0   0  867.81   41.50
  20   0   2   12.20    8.00
  20   0   2   24.37    6.58
  20   0   4  146.58   21.06
  20   0   6  312.33   31.13
  20   0   8  498.69   40.26
  20   0  10    9.36    8.87
  20   0  12   22.48   10.11
  20   0  14  179.50   25.81
  20  -1 -27   35.66   11.53
  20  -1 -25   35.64   11.71
  20   1 -25   21.47   10.54
  20   1 -23   -0.47    8.83
  20  -1 -23   11.50    6.62
  20   1 -21   14.54    7.98
  20  -1 -21   13.27    7.04
  20  -1 -19  275.96   25.39
  20   1 -19  270.69   26.77
  20   1 -17   53.53   12.23
  20  -1 -17   67.90   13.21
  20  -1 -15   -2.15    5.41
  20   1 -15    1.24    6.07
  20  -1 -13    0.38    4.09
  20   1 -13    4.21    6.61
  20   1 -11  178.91   20.30
  20  -1 -11  148.66   16.06
  20  -1  -9   20.31    7.15
  20   1  -9   30.11    9.26
  20   1  -7   43.08   10.30
  20  -1  -7   40.41    8.54
  20   1  -5  296.75   28.76
  20   1  -5  273.06   24.81
  20  -1  -5  250.07   19.09
  20  -1  -3  290.43   19.79
  20   1  -3  268.51   24.75
  20   1  -3  243.91   26.36
  20   1  -1   15.91    9.06
  20  -1  -1    7.61    3.99
  20   1   1    2.08    8.00
  20  -1   1   33.26    6.70
  20   1   3  308.55   31.42
  20  -1   5  198.34   24.15
  20   1   5  218.93   27.00
  20  -1   7   64.55   14.15
  20   1   7   69.72   16.56
  20  -1   9   15.68    9.68
  20   1   9    8.59    8.34
  20  -1  11  156.50   22.06
  20   1  11  191.45   27.12
  20  -1  13   22.31   11.26
  20  -1  15   -2.87    9.43
  20  -2 -28    6.24    8.02
  20  -2 -26   11.37    8.60
  20   2 -24   37.53   13.02
  20  -2 -24    6.59    7.47
  20   2 -22    0.90    6.80
  20  -2 -22    0.77    5.98
  20  -2 -20    5.58    6.91
  20   2 -20    5.34    8.31
  20  -2 -18    0.92    5.51
  20   2 -18    4.34    9.32
  20   2 -16    4.46    6.45
  20  -2 -16   12.01    6.32
  20  -2 -14   74.04   11.68
  20   2 -14   61.26   14.54
  20  -2 -12    0.82    4.13
  20   2 -12    4.02    7.30
  20  -2 -10    3.43    3.37
  20   2 -10   14.18    8.71
  20  -2  -8   49.98    8.58
  20   2  -8   42.43   12.46
  20   2  -8   64.08   14.42
  20  -2  -6   -0.32    2.87
  20   2  -6  -14.02   10.28
  20   2  -6   -0.72    6.28
  20   2  -4   41.27   13.04
  20   2  -2   32.48   10.91
  20   2   0  167.50   23.53
  20   2   2   11.14    7.15
  20   2   4    1.94    7.17
  20   2   6   36.03   12.03
  20   2   8   61.00   16.85
  20   3 -19  229.68   27.51
  20   3 -17   19.36    8.47
  20   3 -15   67.54   15.83
  20   3 -13  204.29   25.56
  20   3 -11  484.11   38.00
  20   3 -11  460.04   38.52
  20   3  -9   27.91   11.58
  20   3  -9   -3.49    7.70
  20   3  -7    3.12    8.33
  20   3  -5  158.42   23.12
  20   3  -3  301.42   31.83
  20   3  -1    5.88    9.61
  20   3   1   11.97    8.63
  20   3   3  522.57   44.02
  20   4 -12    4.62    6.52
  20   4 -10    6.99    6.31
  20   4  -8  144.35   21.98
  20   4  -6   45.39   14.40
  20   4  -4   46.17   13.98
  20   4  -2   25.23   11.93
  20   5 -11   -4.05    7.54
  21   0 -27   16.57    9.78
  21   0 -25   -5.25    7.63
  21   0 -23    5.06    6.43
  21   0 -21   -6.46    6.45
  21   0 -19   -8.28    8.58
  21   0 -17    8.52    7.23
  21   0 -15    3.36    6.12
  21   0 -13    2.73    5.18
  21   0 -11   -3.61    4.56
  21   0  -9    0.23    5.85
  21   0  -7    1.48    5.72
  21   0  -5   -2.26    4.99
  21   0  -3    6.55    6.08
  21   0  -1   -3.22    5.76
  21   0  -1    6.34    7.80
  21   0   1   18.55   10.49
  21   0   1    8.38    5.44
  21   0   3   -1.17    4.24
  21   0   3    1.94    7.79
  21   0   5   -2.29    6.87
  21   0   7    4.07    7.72
  21   0   9    0.12    6.75
  21   0  11   22.46   12.45
  21  -1 -26   90.75   16.88
  21  -1 -24   28.52   10.09
  21   1 -24   46.85   13.10
  21   1 -22    5.11    6.25
  21  -1 -22   15.37    8.73
  21   1 -20   -3.41    8.07
  21  -1 -20    6.61    6.48
  21   1 -18  167.07   21.55
  21  -1 -18  140.79   18.22
  21   1 -16   68.63   14.68
  21  -1 -16   60.95   11.84
  21  -1 -14   77.82   12.78
  21   1 -14   82.53   14.96
  21   1 -12   96.48   15.76
  21  -1 -12  103.56   13.56
  21   1 -10   43.76   10.86
  21  -1 -10   34.19    8.98
  21  -1  -8   74.73   11.34
  21   1  -8   86.20   14.81
  21  -1  -6   41.90    8.72
  21   1  -6   34.20   10.05
  21   1  -6   47.36   13.50
  21   1  -4   56.16   12.30
  21  -1  -4   66.16    9.79
  21   1  -4   60.45   13.70
  21   1  -2   91.85   17.00
  21  -1  -2  118.98   12.52
  21   1  -2  127.30   17.10
  21   1   0   32.74   12.39
  21   1   2   -0.15    8.29
  21   1   4  612.32   45.93
  21  -1   6   96.02   17.17
  21   1   6  140.31   22.29
  21  -1   8   44.07   13.32
  21   1   8   90.87   19.12
  21  -1  10    4.43    6.66
  21  -1  12  168.67   23.70
  21  -1  14   67.27   17.04
  21  -2 -27   11.83    5.92
  21  -2 -25   37.59   11.46
  21   2 -23   87.49   18.05
  21  -2 -23   65.71   13.12
  21   2 -21  204.37   25.68
  21  -2 -21  251.93   24.90
  21  -2 -19    8.59    6.24
  21   2 -19   36.50   11.93
  21  -2 -17    2.91    4.47
  21   2 -17    2.66    7.37
  21   2 -15  385.85   34.08
  21  -2 -15  351.57   26.14
  21   2 -13  547.40   40.56
  21  -2 -13  571.86   32.23
  21  -2 -11    2.81    5.39
  21   2 -11   -2.99    7.72
  21  -2  -9    8.04    5.11
  21   2  -9   -5.30    7.51
  21   2  -9   -1.27    6.73
  21   2  -7  709.96   47.26
  21   2  -7  645.96   43.46
  21   2  -5  262.74   28.52
  21   2  -3  141.22   21.85
  21   2  -1  162.03   23.54
  21   2   1  476.84   40.83
  21   2   3  182.95   26.21
  21   2   5   13.61    9.56
  21   3 -18   14.86    8.03
  21   3 -16   62.44   14.24
  21   3 -14    0.95    6.48
  21   3 -12  -12.46   10.43
  21   3 -10   65.94   15.77
  21   3 -10   42.56   12.89
  21   3  -8   -4.04    7.03
  21   3  -8   -6.48    7.06
  21   3  -6   29.75   11.09
  21   3  -4   -3.85    8.77
  21   3  -2   28.12   11.99
  21   3   0    6.47    7.66
  21   4 -11    9.78    9.57
  21   4  -9   16.93    9.83
  21   4  -7  135.05   22.35
  22   0 -26   43.72   13.22
  22   0 -24   -6.01   10.04
  22   0 -22  107.80   17.89
  22   0 -20  453.44   35.59
  22   0 -18   15.34    8.05
  22   0 -16   44.81   11.69
  22   0 -14  249.03   24.25
  22   0 -12  835.50   45.19
  22   0 -10  193.51   20.72
  22   0  -8   40.40    9.71
  22   0  -6  243.98   22.06
  22   0  -4  172.97   18.08
  22   0  -2  100.45   14.07
  22   0   0   -5.42    5.53
  22   0   0   17.06    8.06
  22   0   2  601.90   44.88
  22   0   2  626.98   35.32
  22   0   4    3.48    6.92
  22   0   6   10.35    9.35
  22   0   8   86.49   17.72
  22  -1 -25   60.52   14.83
  22   1 -23   41.52   12.03
  22  -1 -23   70.91   14.68
  22   1 -21   -1.17    6.94
  22  -1 -21   15.24    8.42
  22   1 -19   31.34   11.28
  22  -1 -19   34.53   10.73
  22   1 -17   31.57   11.55
  22  -1 -17   53.48   12.26
  22  -1 -15   -0.70    6.27
  22   1 -15   10.55    8.20
  22  -1 -13    3.24    5.90
  22   1 -13   -0.41    6.63
  22   1 -11   -8.29    7.25
  22  -1 -11    2.32    4.02
  22   1  -9  253.43   25.01
  22  -1  -9  246.77   20.70
  22  -1  -7  112.57   13.78
  22   1  -7  107.09   16.40
  22  -1  -5   39.44    8.89
  22   1  -5   31.10   11.04
  22   1  -5   41.90   11.11
  22   1  -3   17.23    8.32
  22   1  -3    7.87    6.94
  22   1  -1  196.38   21.94
  22   1  -1  244.32   28.05
  22   1   1   12.25   10.97
  22   1   3   -7.13    7.09
  22   1   5  115.11   21.71
  22  -1   7  192.29   24.94
  22  -1   9    9.45    7.85
  22  -2 -26   15.43    6.66
  22  -2 -24   21.52   10.65
  22  -2 -22    3.64    8.10
  22  -2 -20   26.18    9.12
  22   2 -20   35.06   12.53
  22  -2 -18   -0.70    5.00
  22   2 -18   -1.63    8.12
  22  -2 -16   32.39    9.40
  22   2 -16   38.13   13.15
  22  -2 -14   37.76    9.42
  22   2 -14   22.98    7.11
  22  -2 -12   28.33    7.61
  22   2 -12   29.66   11.44
  22   2 -10   46.37   12.95
  22   2  -8   24.69    9.16
  22   2  -8   22.28    9.63
  22   2  -6   25.51    9.68
  22   2  -6   19.75   10.39
  22   2  -4    9.93    8.23
  22   2  -2   -1.88    7.64
  22   2   0   15.34   10.50
  22   3 -13    8.67   10.37
  22   3 -11   20.67    9.45
  22   3  -9  372.77   35.43
  22   3  -9  412.24   37.17
  22   3  -7   20.52   10.26
  22   3  -7    9.87    9.01
  22   3  -5    9.24   10.23
  23   0 -23  -14.32    8.08
  23   0 -21   10.82    8.71
  23   0 -19  -11.28    8.57
  23   0 -17    9.12    6.28
  23   0 -15    3.47    6.64
  23   0 -13    0.43    5.63
  23   0 -11   -0.83    4.95
  23   0  -9    2.17    6.00
  23   0  -7   -0.60    5.02
  23   0  -5    7.30    5.95
  23   0  -3    2.32    5.57
  23   0  -1    6.43    5.35
  23   0   1   -0.46    7.88
  23   0   3   -1.84    7.75
  23  -1 -24   54.69   13.00
  23   1 -22   37.62   11.70
  23  -1 -22   36.67   10.89
  23   1 -20   -2.17    8.25
  23  -1 -20    7.11    7.19
  23   1 -18    8.30    7.58
  23  -1 -18   20.66    8.38
  23   1 -16  389.86   33.50
  23  -1 -16  358.24   28.84
  23  -1 -14   33.09    9.40
  23   1 -14   35.90   11.08
  23  -1 -12   31.27    9.67
  23   1 -12   11.52    8.03
  23   1 -10  191.18   22.96
  23  -1 -10  203.84   19.27
  23   1  -8  397.03   32.30
  23  -1  -8  391.16   26.75
  23   1  -6   -3.61    6.97
  23   1  -4   67.77   16.02
  23   1  -4   94.88   15.73
  23   1  -2   40.74   11.05
  23   1  -2   55.71   14.35
  23   1   0  306.32   28.01
  23   1   0  320.64   33.30
  23  -2 -25   27.96   11.04
  23  -2 -23   15.71    7.73
  23  -2 -21   17.01    8.97
  23  -2 -19  255.43   24.67
  23   2 -19  268.75   30.26
  23  -2 -17   19.75    8.72
  23   2 -17   35.39   13.38
  23   2 -15   13.65    8.76
  23  -2 -15   22.31    7.69
  23   2 -13  153.48   21.93
  23   2 -11  383.50   34.46
  23   2  -9   -9.56   10.22
  23   2  -7   14.73    7.08
  23   2  -7   -1.75    6.94
  23   2  -5  198.28   26.51
  23   2  -5  175.79   23.40
  23   3  -6    5.10    8.63
  24   0 -22   -1.66    8.15
  24   0 -20   -4.99    7.65
  24   0 -18  160.95   21.44
  24   0 -16   -0.78    6.67
  24   0 -14   13.23    8.54
  24   0 -12  162.24   20.26
  24   0 -10  329.87   27.87
  24   0  -8   10.72    6.92
  24   0  -6   -2.78    4.93
  24   0  -4  369.77   28.04
  24  -1 -23   67.00   14.72
  24   1 -21   64.21   15.38
  24  -1 -21   40.23   11.11
  24   1 -19   15.78    9.64
  24  -1 -19   13.37    6.42
  24   1 -17    8.40    7.16
  24  -1 -17    3.23    7.64
  24   1 -15   94.29   17.69
  24  -1 -15   89.24   14.78
  24  -1 -13   80.89   13.73
  24   1 -13   57.12   13.54
  24  -1 -11   41.03    9.58
  24   1 -11   50.18   12.72
  24   1  -9    5.24    6.69
  24   1  -7  330.57   29.66
  24   1  -5   22.76    9.55
  24   1  -3    5.51    6.27
  24   1  -1   65.79   13.83
  24   1   1   86.43   15.46
  24  -2 -24   15.50   10.01
  24  -2 -22   -0.34    8.06
  24  -2 -20   43.40   11.39
  24   2 -16  -10.79    7.89
  24   2 -14   53.65   13.78
  24   2 -12    9.96    8.18
  24   2 -10    7.92    9.22
  24   2  -8   13.92    8.85
  24   2  -6   18.05    9.95
  24   2  -4   73.07   15.47
  24   2  -2   99.08   18.02
  25   0 -21    0.45    5.99
  25   0 -19   -7.53    8.22
  25   0 -17  -12.26    8.55
  25   0 -15   11.07    8.19
  25   0 -13   -3.36    5.97
  25   0 -11   -9.60    7.98
  25   0  -9    2.91    5.83
  25   0  -7    0.52    6.67
  25  -1 -22   84.06   16.32
  25  -1 -20   86.91   16.03
  25   1 -18    3.71    7.80
  25  -1 -18   -5.49    6.45
  25   1 -16   47.24   12.78
  25  -1 -16   65.51   13.17
  25   1 -14  328.22   30.93
  25  -1 -14  303.90   26.64
  25   1 -12  103.16   17.97
  25   1 -10   -5.09    8.59
  25   1  -8   16.67    9.10
  25   1  -6  235.83   25.41
  25   1  -4   62.69   13.93
  25   1  -2   -5.80    8.57
  25   2 -11   53.10   13.18
  25   2  -9  139.12   21.51
  25   2  -7   43.09   13.24
  25   2  -5   11.89    9.82
  25   2  -3  203.02   25.47
  25   2  -1  215.24   26.47
  26   0 -20   18.36    9.53
  26   0 -18   41.74   12.56
  26   0 -16  381.19   33.23
  26   0 -14   60.25   14.02
  26   0 -12   59.35   14.21
  26  -1 -21    3.63    7.91
  26  -1 -19   11.28    8.64
  26   1 -15   14.85    8.38
  26   1 -13   27.18   10.24
  26   1 -11   17.35    8.72
  26   1  -9   18.43    9.52
  26   1  -7   11.48    8.85
  26   1  -5   51.32   13.01
  27   0 -17    0.44    7.12
  27   0 -15    3.14    7.23
  27   1 -14   19.69   10.50
  27   1 -12   62.47   15.19
  27   1 -10  105.70   18.81
   0   0   0    0.00    0.00


TITL pvl264Se_auto in I2/a
REM I2/a (#15 in standard setting)
CELL 0.71073  20.149055   5.449957  27.553174  90.0000 107.8578  90.0000
ZERR   32.00   0.001047   0.000288   0.001403   0.0000   0.0055   0.0000
LATT  2
SYMM -x+1/2, y,-z
SFAC C H N O Zn Se
UNIT 32.00 32.00 32.00 32.00 32.00 32.00
TREF
HKLF 4
END
_computing_structure_solution     'SHELXT 2018/2 (Sheldrick, 2018)'
;
_shelx_hkl_checksum   97912

