 
data_aP_a
 
_audit_creation_method            'SHELXL-2018/3'
_shelx_SHELXL_version_number      '2018/3'
_chemical_name_systematic         ?
_chemical_name_common             ?
_chemical_melting_point           ?
_chemical_formula_moiety          ?
_chemical_formula_sum
 'C4.44 H3.56 N1.11 O1.11 S0.11 Zn0.22' 
_chemical_formula_weight          108.39

loop_
 _atom_type_symbol
 _atom_type_description
 _atom_type_scat_dispersion_real
 _atom_type_scat_dispersion_imag
 _atom_type_scat_source
 'C'  'C'   0.0033   0.0016
 'International Tables Vol C Tables 4.2.6.8 and 6.1.1.4'
 'H'  'H'   0.0000   0.0000
 'International Tables Vol C Tables 4.2.6.8 and 6.1.1.4'
 'N'  'N'   0.0061   0.0033
 'International Tables Vol C Tables 4.2.6.8 and 6.1.1.4'
 'O'  'O'   0.0106   0.0060
 'International Tables Vol C Tables 4.2.6.8 and 6.1.1.4'
 'S'  'S'   0.1246   0.1234
 'International Tables Vol C Tables 4.2.6.8 and 6.1.1.4'
 'Zn'  'Zn'   0.2839   1.4301
 'International Tables Vol C Tables 4.2.6.8 and 6.1.1.4'
 
_space_group_crystal_system       triclinic
_space_group_IT_number            2
_space_group_name_H-M_alt         'P -1'
_space_group_name_Hall            '-P 1'
 
_shelx_space_group_comment
;
The symmetry employed for this shelxl refinement is uniquely defined
by the following loop, which should always be used as a source of
symmetry information in preference to the above space-group names.
They are only intended as comments.
;
 
loop_
 _space_group_symop_operation_xyz
 'x, y, z'
 '-x, -y, -z'
 
_cell_length_a                    12.465(2)
_cell_length_b                    13.092(2)
_cell_length_c                    13.153(2)
_cell_angle_alpha                 82.815(7)
_cell_angle_beta                  67.235(6)
_cell_angle_gamma                 86.540(7)
_cell_volume                      1963.6(6)
_cell_formula_units_Z             18
_cell_measurement_temperature     150(2)
_cell_measurement_reflns_used     ?
_cell_measurement_theta_min       ?
_cell_measurement_theta_max       ?
 
_exptl_crystal_description        ?
_exptl_crystal_colour             ?
_exptl_crystal_density_meas       ?
_exptl_crystal_density_method     ?
_exptl_crystal_density_diffrn     1.650          
_exptl_crystal_F_000              996
_exptl_transmission_factor_min    ?
_exptl_transmission_factor_max    ?
_exptl_crystal_size_max           ?
_exptl_crystal_size_mid           ?
_exptl_crystal_size_min           ?
_exptl_absorpt_coefficient_mu     1.350
_shelx_estimated_absorpt_T_min    ?
_shelx_estimated_absorpt_T_max    ?
_exptl_absorpt_correction_type    ?
_exptl_absorpt_correction_T_min   ?
_exptl_absorpt_correction_T_max   ?
_exptl_absorpt_process_details    ?
_exptl_absorpt_special_details    ?
_diffrn_ambient_temperature       150(2)
_diffrn_radiation_wavelength      0.71073
_diffrn_radiation_type            MoK\a
_diffrn_source                    ?
_diffrn_measurement_device_type   ?
_diffrn_measurement_method        ?
_diffrn_detector_area_resol_mean  ?
_diffrn_reflns_number             27418
_diffrn_reflns_av_unetI/netI      0.1336
_diffrn_reflns_av_R_equivalents   0.1179
_diffrn_reflns_limit_h_min        -14
_diffrn_reflns_limit_h_max        14
_diffrn_reflns_limit_k_min        -15
_diffrn_reflns_limit_k_max        15
_diffrn_reflns_limit_l_min        -15
_diffrn_reflns_limit_l_max        15
_diffrn_reflns_theta_min          1.568
_diffrn_reflns_theta_max          25.087
_diffrn_reflns_theta_full         25.087
_diffrn_measured_fraction_theta_max   0.994
_diffrn_measured_fraction_theta_full  0.994
_diffrn_reflns_Laue_measured_fraction_max    0.994
_diffrn_reflns_Laue_measured_fraction_full   0.994
_diffrn_reflns_point_group_measured_fraction_max   0.994
_diffrn_reflns_point_group_measured_fraction_full  0.994
_reflns_number_total              6952
_reflns_number_gt                 3889
_reflns_threshold_expression      'I > 2\s(I)'
_reflns_Friedel_coverage          0.000
_reflns_Friedel_fraction_max      .
_reflns_Friedel_fraction_full     .
 
_reflns_special_details
;
 Reflections were merged by SHELXL according to the crystal
 class for the calculation of statistics and refinement.
 
 _reflns_Friedel_fraction is defined as the number of unique
 Friedel pairs measured divided by the number that would be
 possible theoretically, ignoring centric projections and
 systematic absences.
;
 
_computing_data_collection        ?
_computing_cell_refinement        ?
_computing_data_reduction         ?
_computing_structure_solution     'SHELXT 2018/2 (Sheldrick, 2018)'
_computing_structure_refinement 'SHELXL-2018/3 (Sheldrick, 2018)'
_computing_molecular_graphics     ?
_computing_publication_material   ?
_refine_special_details           ?
_refine_ls_structure_factor_coef  Fsqd
_refine_ls_matrix_type            full
_refine_ls_weighting_scheme       calc
_refine_ls_weighting_details
'w=1/[\s^2^(Fo^2^)+(0.1428P)^2^+0.0855P] where P=(Fo^2^+2Fc^2^)/3'
_atom_sites_solution_primary      ?
_atom_sites_solution_secondary    ?
_atom_sites_solution_hydrogens    geom
_refine_ls_hydrogen_treatment     constr
_refine_ls_extinction_method      none
_refine_ls_extinction_coef        .
_refine_ls_number_reflns          6952
_refine_ls_number_parameters      572
_refine_ls_number_restraints      0
_refine_ls_R_factor_all           0.1560
_refine_ls_R_factor_gt            0.0885
_refine_ls_wR_factor_ref          0.2641
_refine_ls_wR_factor_gt           0.2204
_refine_ls_goodness_of_fit_ref    1.036
_refine_ls_restrained_S_all       1.036
_refine_ls_shift/su_max           0.002
_refine_ls_shift/su_mean          0.000
 
loop_
 _atom_site_label
 _atom_site_type_symbol
 _atom_site_fract_x
 _atom_site_fract_y
 _atom_site_fract_z
 _atom_site_U_iso_or_equiv
 _atom_site_adp_type
 _atom_site_occupancy
 _atom_site_site_symmetry_order  
 _atom_site_calc_flag
 _atom_site_refinement_flags_posn
 _atom_site_refinement_flags_adp
 _atom_site_refinement_flags_occupancy
 _atom_site_disorder_assembly
 _atom_site_disorder_group
Zn01 Zn 0.65288(9) 0.66131(7) 0.79175(9) 0.0349(3) Uani 1 1 d . . . . .
Zn02 Zn 0.90990(9) 0.64162(7) 0.67842(9) 0.0347(3) Uani 1 1 d . . . . .
S003 S 0.3367(3) 1.0984(2) 0.9899(3) 0.0909(13) Uani 1 1 d . . . . .
O004 O 0.6663(6) 0.5088(4) 0.7900(5) 0.0435(16) Uani 1 1 d . . . . .
O005 O 0.8861(6) -0.2021(4) 0.6764(5) 0.0426(16) Uani 1 1 d . . . . .
O006 O 0.6923(6) -0.1874(5) 0.7673(6) 0.0495(17) Uani 1 1 d . . . . .
O007 O 0.8625(6) 0.4927(4) 0.7112(6) 0.0484(17) Uani 1 1 d . . . . .
O008 O 0.8693(6) 0.6495(5) 0.5418(6) 0.0492(17) Uani 1 1 d . . . . .
O009 O 1.0807(6) 0.6315(5) 0.6118(6) 0.0491(17) Uani 1 1 d . . . . .
O00A O 0.8906(6) 0.6386(5) -0.1576(5) 0.0431(16) Uani 1 1 d . . . . .
O00B O 0.6762(6) 0.6720(5) 0.6280(6) 0.0524(17) Uani 1 1 d . . . . .
O00C O 0.6968(6) 0.6484(5) -0.0722(5) 0.0505(17) Uani 1 1 d . . . . .
N00D N 0.4787(7) 0.6801(5) 0.8750(6) 0.0393(18) Uani 1 1 d . . . . .
N00E N 0.3160(7) 0.7563(5) 0.9660(7) 0.045(2) Uani 1 1 d . . . . .
C00G C 0.7610(10) 0.4573(7) 0.7493(8) 0.042(2) Uani 1 1 d . . . . .
C00I C 0.7476(8) 0.3441(6) 0.7471(8) 0.038(2) Uani 1 1 d . . . . .
C00K C 0.8302(8) 0.1785(7) 0.6895(8) 0.041(2) Uani 1 1 d . . . . .
C00L C 0.7978(9) 0.6396(6) -0.0715(8) 0.036(2) Uani 1 1 d . . . . .
C00M C 0.7077(9) 0.0251(7) 0.7538(9) 0.050(3) Uani 1 1 d . . . . .
H00M H 0.633795 -0.005939 0.792065 0.060 Uiso 1 1 calc R U . . .
C00N C 0.9140(9) 0.0110(7) 0.6439(9) 0.049(3) Uani 1 1 d . . . . .
H00N H 0.980332 -0.030601 0.609653 0.059 Uiso 1 1 calc R U . . .
C00O C 0.6393(9) 0.2971(7) 0.8015(8) 0.045(2) Uani 1 1 d . . . . .
H00O H 0.573456 0.337832 0.839128 0.054 Uiso 1 1 calc R U . . .
C00P C 0.8422(9) 0.2841(6) 0.6892(8) 0.043(2) Uani 1 1 d . . . . .
H00P H 0.915818 0.315180 0.648924 0.052 Uiso 1 1 calc R U . . .
N00Q N 0.3580(9) 0.9792(6) 0.9695(9) 0.070(3) Uani 1 1 d . . . . .
N00R N 0.1963(8) 1.1031(6) 1.0515(8) 0.067(3) Uani 1 1 d . . . . .
N2 N -0.0483(7) 1.0427(7) 1.1582(7) 0.053(2) Uani 1 1 d . . . . .
N3 N -0.1604(9) 1.0130(8) 1.1859(9) 0.072(3) Uani 1 1 d . . . . .
N4 N -0.1568(9) 1.1756(7) 1.2292(9) 0.069(3) Uani 1 1 d . . . . .
N5 N 0.2925(7) 0.6538(6) 0.9871(7) 0.051(2) Uani 1 1 d . . . . .
N6 N 1.2605(7) 0.6170(6) 0.6196(8) 0.054(2) Uani 1 1 d . . . . .
C00S C 0.9260(8) 0.1152(7) 0.6356(9) 0.046(2) Uani 1 1 d . . . . .
H00S H 0.999622 0.145290 0.592942 0.055 Uiso 1 1 calc R U . . .
C00T C 0.8463(8) 0.6294(6) 0.3444(7) 0.038(2) Uani 1 1 d . . . . .
H00T H 0.918130 0.609195 0.350700 0.046 Uiso 1 1 calc R U . . .
C00U C 0.8346(8) 0.6294(6) 0.2424(8) 0.040(2) Uani 1 1 d . . . . .
C00V C 0.6256(9) 0.1949(7) 0.8021(9) 0.055(3) Uani 1 1 d . . . . .
H00V H 0.550538 0.165910 0.839834 0.066 Uiso 1 1 calc R U . . .
C00W C 0.7527(9) 0.6591(7) 0.4364(8) 0.044(2) Uani 1 1 d . . . . .
C00X C 0.8079(8) 0.6345(6) 0.0373(8) 0.035(2) Uani 1 1 d . . . . .
C00Y C 0.7191(9) 0.1318(7) 0.7489(9) 0.051(3) Uani 1 1 d . . . . .
C00Z C 0.8058(10) -0.0354(7) 0.7021(9) 0.051(3) Uani 1 1 d . . . . .
C010 C 0.7941(10) -0.1510(7) 0.7146(9) 0.051(3) Uani 1 1 d . . . . .
C011 C 0.2271(9) 0.8321(7) 1.0130(8) 0.047(2) Uani 1 1 d . . . . .
C012 C 0.4257(9) 0.7706(7) 0.8981(9) 0.048(3) Uani 1 1 d . . . . .
H012 H 0.461446 0.835721 0.870023 0.058 Uiso 1 1 calc R U . . .
C013 C 0.7272(9) 0.6600(7) 0.2319(8) 0.044(2) Uani 1 1 d . . . . .
C014 C 0.9289(8) 0.6000(7) 0.1459(8) 0.041(2) Uani 1 1 d . . . . .
H014 H 1.000557 0.576583 0.150811 0.049 Uiso 1 1 calc R U . . .
C015 C 0.7681(11) 0.6614(7) 0.5451(9) 0.046(3) Uani 1 1 d . . . . .
C018 C 0.3922(10) 0.6120(7) 0.9317(9) 0.048(3) Uani 1 1 d . . . . .
H018 H 0.403580 0.539652 0.931095 0.058 Uiso 1 1 calc R U . . .
C019 C 0.2533(10) 0.9350(7) 1.0105(9) 0.054(3) Uani 1 1 d . . . . .
O1 O -0.4810(15) 1.0452(15) 1.3141(16) 0.185(7) Uani 1 1 d . . . . .
N1 N -0.6445(14) 1.0138(12) 1.4656(12) 0.104(4) Uani 1 1 d . . . . .
C01A C 0.7168(8) 0.6593(7) 0.1303(8) 0.043(2) Uani 1 1 d . . . . .
H01A H 0.643693 0.676756 0.125384 0.051 Uiso 1 1 calc R U . . .
C01B C 0.9157(8) 0.6055(6) 0.0466(8) 0.040(2) Uani 1 1 d . . . . .
H01B H 0.980209 0.589473 -0.017599 0.048 Uiso 1 1 calc R U . . .
C01C C 0.0430(10) 0.9729(7) 1.1098(9) 0.051(3) Uani 1 1 d . . . . .
C01D C 0.6340(9) 0.6897(8) 0.3283(9) 0.055(3) Uani 1 1 d . . . . .
H01D H 0.561589 0.710173 0.323426 0.066 Uiso 1 1 calc R U . . .
C01E C 0.0231(9) 0.8724(8) 1.1118(9) 0.052(3) Uani 1 1 d . . . . .
H01E H -0.054188 0.847956 1.148447 0.062 Uiso 1 1 calc R U . . .
C01F C 0.1611(10) 1.0066(7) 1.0593(9) 0.053(3) Uani 1 1 d . . . . .
C01G C 0.1131(9) 0.8022(8) 1.0614(9) 0.056(3) Uani 1 1 d . . . . .
H01G H 0.094400 0.732991 1.061061 0.068 Uiso 1 1 calc R U . . .
C01H C 1.1451(11) 0.6285(7) 0.6630(10) 0.055(3) Uani 1 1 d . . . . .
H01H H 1.109650 0.634976 0.740138 0.067 Uiso 1 1 calc R U . . .
C01I C -0.0502(11) 1.1378(8) 1.1856(11) 0.065(3) Uani 1 1 d . . . . .
H01I H 0.017661 1.174236 1.174955 0.078 Uiso 1 1 calc R U . . .
C01J C 0.6458(10) 0.6895(8) 0.4266(9) 0.057(3) Uani 1 1 d . . . . .
H01J H 0.582115 0.709956 0.489178 0.069 Uiso 1 1 calc R U . . .
C01L C -0.2188(11) 1.0966(10) 1.2254(12) 0.076(4) Uani 1 1 d . . . . .
H01L H -0.301208 1.100615 1.250070 0.091 Uiso 1 1 calc R U . . .
C01M C 1.3158(10) 0.6130(10) 0.5014(10) 0.072(3) Uani 1 1 d . . . . .
H01C H 1.257739 0.597214 0.472583 0.108 Uiso 1 1 calc R U . . .
H01F H 1.376528 0.559267 0.485943 0.108 Uiso 1 1 calc R U . . .
H01K H 1.350828 0.679689 0.465312 0.108 Uiso 1 1 calc R U . . .
C01N C 1.3304(11) 0.6200(10) 0.6840(11) 0.079(4) Uani 1 1 d . . . . .
H01M H 1.390419 0.565848 0.665522 0.118 Uiso 1 1 calc R U . . .
H01N H 1.281013 0.608998 0.763146 0.118 Uiso 1 1 calc R U . . .
H01O H 1.367495 0.687331 0.667319 0.118 Uiso 1 1 calc R U . . .
C01O C -0.7511(17) 1.0584(12) 1.5359(14) 0.124(6) Uani 1 1 d . . . . .
H01P H -0.767346 1.122824 1.497338 0.185 Uiso 1 1 calc R U . . .
H01Q H -0.743993 1.072656 1.604377 0.185 Uiso 1 1 calc R U . . .
H01R H -0.814815 1.010381 1.553890 0.185 Uiso 1 1 calc R U . . .
C01P C -0.564(2) 1.075(2) 1.390(2) 0.152(10) Uani 1 1 d . . . . .
H01S H -0.572840 1.146759 1.395343 0.182 Uiso 1 1 calc R U . . .
C01R C -0.632(2) 0.8969(14) 1.4727(14) 0.144(8) Uani 1 1 d . . . . .
H01T H -0.704348 0.867216 1.476797 0.217 Uiso 1 1 calc R U . . .
H01U H -0.617172 0.870868 1.539133 0.217 Uiso 1 1 calc R U . . .
H01V H -0.567399 0.877386 1.406653 0.217 Uiso 1 1 calc R U . . .
 
loop_
 _atom_site_aniso_label
 _atom_site_aniso_U_11
 _atom_site_aniso_U_22
 _atom_site_aniso_U_33
 _atom_site_aniso_U_23
 _atom_site_aniso_U_13
 _atom_site_aniso_U_12
Zn01 0.0457(7) 0.0186(5) 0.0449(7) -0.0029(4) -0.0230(5) 0.0045(4)
Zn02 0.0450(7) 0.0207(5) 0.0427(7) -0.0024(4) -0.0222(5) 0.0026(4)
S003 0.078(2) 0.0333(16) 0.122(3) -0.0086(17) 0.005(2) -0.0005(15)
O004 0.058(4) 0.026(3) 0.049(4) -0.006(3) -0.024(3) 0.009(3)
O005 0.059(4) 0.026(3) 0.049(4) -0.001(3) -0.029(4) 0.003(3)
O006 0.068(5) 0.029(3) 0.062(5) -0.007(3) -0.037(4) 0.008(3)
O007 0.065(5) 0.021(3) 0.068(5) -0.005(3) -0.036(4) 0.001(3)
O008 0.062(5) 0.042(4) 0.055(4) -0.001(3) -0.038(4) 0.005(3)
O009 0.050(4) 0.038(4) 0.062(5) -0.003(3) -0.025(4) 0.001(3)
O00A 0.057(4) 0.039(4) 0.039(4) 0.001(3) -0.026(4) -0.003(3)
O00B 0.062(5) 0.058(5) 0.036(4) -0.002(3) -0.018(4) -0.001(4)
O00C 0.052(4) 0.059(4) 0.052(4) -0.015(3) -0.030(4) 0.008(3)
N00D 0.055(5) 0.022(4) 0.048(5) -0.003(3) -0.027(4) 0.000(4)
N00E 0.040(5) 0.028(4) 0.058(5) 0.005(4) -0.012(4) 0.002(3)
C00G 0.070(7) 0.025(5) 0.046(6) -0.004(4) -0.040(6) 0.006(5)
C00I 0.054(6) 0.022(4) 0.051(6) -0.005(4) -0.035(5) 0.005(4)
C00K 0.049(6) 0.032(5) 0.041(6) -0.001(4) -0.017(5) -0.001(4)
C00L 0.052(6) 0.020(4) 0.039(6) -0.004(4) -0.024(5) 0.003(4)
C00M 0.060(7) 0.030(5) 0.079(8) -0.003(5) -0.047(6) -0.003(5)
C00N 0.055(7) 0.031(5) 0.062(7) -0.004(5) -0.025(6) 0.007(5)
C00O 0.045(6) 0.025(5) 0.062(7) -0.008(4) -0.017(5) 0.003(4)
C00P 0.061(6) 0.024(5) 0.050(6) -0.001(4) -0.028(5) 0.000(4)
N00Q 0.072(7) 0.027(5) 0.093(8) -0.002(5) -0.011(6) -0.007(4)
N00R 0.067(6) 0.033(5) 0.081(7) 0.005(5) -0.010(5) 0.004(4)
N2 0.048(6) 0.057(6) 0.056(6) -0.015(4) -0.021(5) 0.013(4)
N3 0.058(6) 0.066(7) 0.098(8) -0.012(6) -0.038(6) 0.023(5)
N4 0.065(7) 0.065(6) 0.091(8) -0.028(6) -0.044(6) 0.021(5)
N5 0.052(5) 0.028(4) 0.065(6) 0.002(4) -0.016(5) 0.002(4)
N6 0.044(5) 0.056(6) 0.064(6) -0.001(5) -0.025(5) -0.007(4)
C00S 0.035(5) 0.029(5) 0.066(7) -0.003(5) -0.010(5) 0.000(4)
C00T 0.049(6) 0.032(5) 0.040(6) 0.002(4) -0.025(5) -0.007(4)
C00U 0.053(6) 0.027(5) 0.051(6) -0.009(4) -0.033(5) 0.002(4)
C00V 0.044(6) 0.034(6) 0.077(8) -0.012(5) -0.012(6) -0.001(5)
C00W 0.055(6) 0.035(5) 0.041(6) 0.005(4) -0.021(5) 0.001(5)
C00X 0.045(6) 0.020(4) 0.044(6) -0.001(4) -0.024(5) 0.001(4)
C00Y 0.062(7) 0.028(5) 0.072(7) -0.002(5) -0.038(6) -0.001(5)
C00Z 0.075(8) 0.023(5) 0.060(7) -0.002(5) -0.033(6) 0.000(5)
C010 0.053(7) 0.033(5) 0.074(8) -0.006(5) -0.032(6) 0.001(5)
C011 0.057(7) 0.037(5) 0.046(6) 0.002(5) -0.021(5) 0.009(5)
C012 0.059(7) 0.028(5) 0.055(7) 0.003(5) -0.023(6) 0.011(5)
C013 0.051(6) 0.036(5) 0.050(6) 0.003(5) -0.029(5) 0.006(4)
C014 0.045(6) 0.029(5) 0.054(6) -0.007(4) -0.024(5) 0.004(4)
C015 0.075(8) 0.026(5) 0.042(6) -0.002(4) -0.029(6) 0.000(5)
C018 0.077(8) 0.016(4) 0.064(7) -0.013(5) -0.040(6) 0.013(5)
C019 0.068(8) 0.030(5) 0.060(7) 0.007(5) -0.022(6) -0.002(5)
O1 0.139(13) 0.25(2) 0.186(17) -0.004(14) -0.088(13) 0.010(13)
N1 0.097(11) 0.130(13) 0.076(9) 0.009(9) -0.030(8) 0.003(10)
C01A 0.043(6) 0.038(5) 0.044(6) 0.003(5) -0.015(5) 0.002(4)
C01B 0.049(6) 0.029(5) 0.041(6) -0.009(4) -0.017(5) 0.004(4)
C01C 0.065(7) 0.036(6) 0.061(7) -0.016(5) -0.032(6) 0.012(5)
C01D 0.048(6) 0.072(8) 0.051(7) -0.009(6) -0.026(6) 0.010(5)
C01E 0.049(6) 0.042(6) 0.066(7) -0.003(5) -0.025(6) -0.002(5)
C01F 0.061(7) 0.031(6) 0.063(7) 0.003(5) -0.021(6) 0.004(5)
C01G 0.053(7) 0.040(6) 0.072(8) -0.009(5) -0.020(6) 0.006(5)
C01H 0.085(9) 0.030(5) 0.067(7) 0.007(5) -0.048(7) -0.007(5)
C01I 0.065(8) 0.041(6) 0.097(10) -0.023(6) -0.038(7) 0.018(5)
C01J 0.059(7) 0.068(7) 0.047(6) -0.017(6) -0.022(6) 0.016(6)
C01L 0.051(7) 0.074(9) 0.113(11) -0.032(8) -0.040(8) 0.022(6)
C01M 0.067(8) 0.085(9) 0.057(8) -0.011(7) -0.018(6) 0.014(7)
C01N 0.071(8) 0.078(9) 0.095(10) -0.003(8) -0.042(8) 0.000(7)
C01O 0.146(17) 0.105(13) 0.099(13) 0.010(10) -0.038(12) 0.043(12)
C01P 0.102(17) 0.23(3) 0.125(19) -0.09(2) -0.039(14) 0.083(19)
C01R 0.25(3) 0.119(16) 0.099(13) -0.002(11) -0.117(16) 0.019(15)
 
_geom_special_details
;
 All esds (except the esd in the dihedral angle between two l.s. planes)
 are estimated using the full covariance matrix.  The cell esds are taken
 into account individually in the estimation of esds in distances, angles
 and torsion angles; correlations between esds in cell parameters are only
 used when they are defined by crystal symmetry.  An approximate (isotropic)
 treatment of cell esds is used for estimating esds involving l.s. planes.
;
 
loop_
 _geom_bond_atom_site_label_1
 _geom_bond_atom_site_label_2
 _geom_bond_distance
 _geom_bond_site_symmetry_2
 _geom_bond_publ_flag
Zn01 O004 1.995(6) . ?
Zn01 O006 2.026(6) 1_565 ?
Zn01 N00D 2.034(8) . ?
Zn01 O00B 2.046(7) . ?
Zn01 O00C 2.050(6) 1_556 ?
Zn01 Zn02 2.9755(16) . ?
Zn02 O009 1.967(7) . ?
Zn02 O007 2.017(6) . ?
Zn02 O008 2.036(6) . ?
Zn02 O005 2.048(6) 1_565 ?
Zn02 O00A 2.072(6) 1_556 ?
S003 N00Q 1.606(9) . ?
S003 N00R 1.620(10) . ?
O004 C00G 1.281(11) . ?
O005 C010 1.250(12) . ?
O006 C010 1.276(12) . ?
O007 C00G 1.261(11) . ?
O008 C015 1.246(12) . ?
O009 C01H 1.228(11) . ?
O00A C00L 1.269(11) . ?
O00B C015 1.255(12) . ?
O00C C00L 1.260(10) . ?
N00D C012 1.331(11) . ?
N00D C018 1.357(12) . ?
N00E C012 1.321(12) . ?
N00E N5 1.362(10) . ?
N00E C011 1.445(12) . ?
C00G C00I 1.506(12) . ?
C00I C00P 1.390(13) . ?
C00I C00O 1.398(13) . ?
C00K C00P 1.399(12) . ?
C00K C00S 1.410(13) . ?
C00K C00Y 1.431(14) . ?
C00L C00X 1.477(12) . ?
C00M C00Z 1.400(14) . ?
C00M C00Y 1.404(12) . ?
C00N C00S 1.367(12) . ?
C00N C00Z 1.399(14) . ?
C00O C00V 1.358(12) . ?
N00Q C019 1.340(13) . ?
N00R C01F 1.340(12) . ?
N2 C01I 1.335(13) . ?
N2 N3 1.369(12) . ?
N2 C01C 1.412(13) . ?
N3 C01L 1.323(14) . ?
N4 C01I 1.319(14) . ?
N4 C01L 1.345(15) . ?
N5 C018 1.300(13) . ?
N6 C01H 1.333(14) . ?
N6 C01N 1.436(13) . ?
N6 C01M 1.444(14) . ?
C00T C00W 1.396(13) . ?
C00T C00U 1.404(12) . ?
C00U C013 1.427(12) . ?
C00U C014 1.433(13) . ?
C00V C00Y 1.388(14) . ?
C00W C01J 1.416(13) . ?
C00W C015 1.518(13) . ?
C00X C01A 1.368(13) . ?
C00X C01B 1.421(12) . ?
C00Z C010 1.511(13) . ?
C011 C01G 1.372(14) . ?
C011 C019 1.399(13) . ?
C013 C01A 1.393(13) . ?
C013 C01D 1.427(14) . ?
C014 C01B 1.372(12) . ?
C019 C01F 1.435(14) . ?
O1 C01P 1.21(2) . ?
N1 C01P 1.33(3) . ?
N1 C01O 1.43(2) . ?
N1 C01R 1.52(2) . ?
C01C C01E 1.349(13) . ?
C01C C01F 1.433(15) . ?
C01D C01J 1.357(13) . ?
C01E C01G 1.413(14) . ?
 
loop_
 _geom_angle_atom_site_label_1
 _geom_angle_atom_site_label_2
 _geom_angle_atom_site_label_3
 _geom_angle
 _geom_angle_site_symmetry_1
 _geom_angle_site_symmetry_3
 _geom_angle_publ_flag
O004 Zn01 O006 162.5(3) . 1_565 ?
O004 Zn01 N00D 101.3(3) . . ?
O006 Zn01 N00D 96.2(3) 1_565 . ?
O004 Zn01 O00B 87.5(3) . . ?
O006 Zn01 O00B 87.7(3) 1_565 . ?
N00D Zn01 O00B 105.1(3) . . ?
O004 Zn01 O00C 90.2(3) . 1_556 ?
O006 Zn01 O00C 88.1(3) 1_565 1_556 ?
N00D Zn01 O00C 96.6(3) . 1_556 ?
O00B Zn01 O00C 158.2(3) . 1_556 ?
O004 Zn01 Zn02 80.85(19) . . ?
O006 Zn01 Zn02 81.6(2) 1_565 . ?
N00D Zn01 Zn02 176.7(2) . . ?
O00B Zn01 Zn02 77.4(2) . . ?
O00C Zn01 Zn02 80.89(19) 1_556 . ?
O009 Zn02 O007 102.6(3) . . ?
O009 Zn02 O008 101.4(3) . . ?
O007 Zn02 O008 87.9(3) . . ?
O009 Zn02 O005 100.9(3) . 1_565 ?
O007 Zn02 O005 156.6(3) . 1_565 ?
O008 Zn02 O005 88.7(2) . 1_565 ?
O009 Zn02 O00A 98.1(3) . 1_556 ?
O007 Zn02 O00A 88.4(3) . 1_556 ?
O008 Zn02 O00A 160.6(3) . 1_556 ?
O005 Zn02 O00A 87.2(2) 1_565 1_556 ?
O009 Zn02 Zn01 176.4(2) . . ?
O007 Zn02 Zn01 78.7(2) . . ?
O008 Zn02 Zn01 82.0(2) . . ?
O005 Zn02 Zn01 77.87(19) 1_565 . ?
O00A Zn02 Zn01 78.51(19) 1_556 . ?
N00Q S003 N00R 101.2(5) . . ?
C00G O004 Zn01 125.9(6) . . ?
C010 O005 Zn02 129.4(6) . 1_545 ?
C010 O006 Zn01 124.8(6) . 1_545 ?
C00G O007 Zn02 127.8(6) . . ?
C015 O008 Zn02 123.4(7) . . ?
C01H O009 Zn02 125.1(8) . . ?
C00L O00A Zn02 128.9(6) . 1_554 ?
C015 O00B Zn01 128.8(6) . . ?
C00L O00C Zn01 127.1(6) . 1_554 ?
C012 N00D C018 102.7(8) . . ?
C012 N00D Zn01 124.4(7) . . ?
C018 N00D Zn01 132.3(6) . . ?
C012 N00E N5 109.8(8) . . ?
C012 N00E C011 128.9(8) . . ?
N5 N00E C011 121.3(8) . . ?
O007 C00G O004 126.1(8) . . ?
O007 C00G C00I 118.0(9) . . ?
O004 C00G C00I 115.9(9) . . ?
C00P C00I C00O 118.3(8) . . ?
C00P C00I C00G 120.8(9) . . ?
C00O C00I C00G 120.9(9) . . ?
C00P C00K C00S 121.7(9) . . ?
C00P C00K C00Y 119.8(9) . . ?
C00S C00K C00Y 118.5(8) . . ?
O00C C00L O00A 124.6(8) . . ?
O00C C00L C00X 117.2(9) . . ?
O00A C00L C00X 118.2(8) . . ?
C00Z C00M C00Y 119.7(10) . . ?
C00S C00N C00Z 121.2(9) . . ?
C00V C00O C00I 121.9(9) . . ?
C00I C00P C00K 120.7(9) . . ?
C019 N00Q S003 107.0(8) . . ?
C01F N00R S003 105.3(7) . . ?
C01I N2 N3 108.6(9) . . ?
C01I N2 C01C 132.9(10) . . ?
N3 N2 C01C 118.5(9) . . ?
C01L N3 N2 101.1(10) . . ?
C01I N4 C01L 100.5(9) . . ?
C018 N5 N00E 102.9(8) . . ?
C01H N6 C01N 122.2(10) . . ?
C01H N6 C01M 117.6(9) . . ?
C01N N6 C01M 119.8(10) . . ?
C00N C00S C00K 120.7(9) . . ?
C00W C00T C00U 120.2(8) . . ?
C00T C00U C013 120.3(9) . . ?
C00T C00U C014 121.8(8) . . ?
C013 C00U C014 117.9(8) . . ?
C00O C00V C00Y 121.4(10) . . ?
C00T C00W C01J 119.8(9) . . ?
C00T C00W C015 119.4(9) . . ?
C01J C00W C015 120.8(9) . . ?
C01A C00X C01B 118.2(8) . . ?
C01A C00X C00L 122.0(8) . . ?
C01B C00X C00L 119.8(8) . . ?
C00V C00Y C00M 122.1(10) . . ?
C00V C00Y C00K 117.9(9) . . ?
C00M C00Y C00K 120.0(10) . . ?
C00M C00Z C00N 119.8(9) . . ?
C00M C00Z C010 119.2(10) . . ?
C00N C00Z C010 120.9(10) . . ?
O005 C010 O006 126.2(9) . . ?
O005 C010 C00Z 116.6(9) . . ?
O006 C010 C00Z 117.1(9) . . ?
C01G C011 C019 119.0(10) . . ?
C01G C011 N00E 118.9(9) . . ?
C019 C011 N00E 122.2(9) . . ?
N00E C012 N00D 109.9(8) . . ?
C01A C013 C01D 122.9(8) . . ?
C01A C013 C00U 119.7(9) . . ?
C01D C013 C00U 117.4(8) . . ?
C01B C014 C00U 120.0(8) . . ?
O008 C015 O00B 128.0(9) . . ?
O008 C015 C00W 116.5(10) . . ?
O00B C015 C00W 115.4(9) . . ?
N5 C018 N00D 114.6(8) . . ?
N00Q C019 C011 128.3(10) . . ?
N00Q C019 C01F 112.1(9) . . ?
C011 C019 C01F 119.6(10) . . ?
C01P N1 C01O 119.0(17) . . ?
C01P N1 C01R 122.0(18) . . ?
C01O N1 C01R 118.7(16) . . ?
C00X C01A C013 122.4(9) . . ?
C014 C01B C00X 121.7(9) . . ?
C01E C01C N2 121.7(10) . . ?
C01E C01C C01F 117.7(9) . . ?
N2 C01C C01F 120.6(9) . . ?
C01J C01D C013 122.0(9) . . ?
C01C C01E C01G 122.3(10) . . ?
N00R C01F C01C 125.4(10) . . ?
N00R C01F C019 114.4(10) . . ?
C01C C01F C019 120.2(9) . . ?
C011 C01G C01E 121.2(10) . . ?
O009 C01H N6 125.7(11) . . ?
N4 C01I N2 112.5(11) . . ?
C01D C01J C00W 120.3(10) . . ?
N3 C01L N4 117.2(11) . . ?
O1 C01P N1 125(3) . . ?
 
_refine_diff_density_max    1.327
_refine_diff_density_min   -0.845
_refine_diff_density_rms    0.161

_shelx_res_file
;
TITL aP_a.res in P-1
    aP_a.res
    created by SHELXL-2018/3 at 15:20:05 on 16-Feb-2022
REM Old TITL aP in P-1
REM SHELXT solution in P-1: R1 0.208, Rweak 0.022, Alpha 0.102
REM <I/s>   0.000 for    0 systematic absences,  Orientation as input
REM Formula found by SHELXT:  C47 N4 O9 S Zn2
CELL  0.71073  12.4655  13.0919  13.1530   82.815   67.235   86.540
ZERR   18.000   0.0022   0.0024   0.0022    0.007    0.006    0.007
LATT  1
SFAC C H N O S ZN
UNIT 80 64 20 20 2 4
ACTA
TEMP -123.150
L.S. 10
BOND
LIST 6
FMAP 2
PLAN 20
WGHT    0.142800    0.085500
FVAR       0.21320
ZN01  6    0.652881    0.661311    0.791753    11.00000    0.04569    0.01858 =
         0.04487   -0.00292   -0.02303    0.00451
ZN02  6    0.909903    0.641619    0.678422    11.00000    0.04501    0.02068 =
         0.04272   -0.00236   -0.02216    0.00261
S003  5    0.336667    1.098435    0.989947    11.00000    0.07784    0.03327 =
         0.12215   -0.00863    0.00483   -0.00046
O004  4    0.666304    0.508836    0.790042    11.00000    0.05785    0.02572 =
         0.04944   -0.00578   -0.02403    0.00871
O005  4    0.886093   -0.202133    0.676382    11.00000    0.05877    0.02582 =
         0.04931   -0.00081   -0.02887    0.00318
O006  4    0.692270   -0.187387    0.767312    11.00000    0.06772    0.02888 =
         0.06203   -0.00656   -0.03663    0.00845
O007  4    0.862463    0.492662    0.711226    11.00000    0.06515    0.02115 =
         0.06840   -0.00521   -0.03597    0.00104
O008  4    0.869326    0.649524    0.541816    11.00000    0.06212    0.04240 =
         0.05533   -0.00102   -0.03810    0.00549
O009  4    1.080661    0.631539    0.611788    11.00000    0.05011    0.03818 =
         0.06177   -0.00314   -0.02544    0.00098
O00A  4    0.890645    0.638562   -0.157566    11.00000    0.05683    0.03889 =
         0.03931    0.00078   -0.02589   -0.00339
O00B  4    0.676188    0.671984    0.628010    11.00000    0.06195    0.05772 =
         0.03568   -0.00200   -0.01765   -0.00096
O00C  4    0.696804    0.648393   -0.072206    11.00000    0.05153    0.05891 =
         0.05219   -0.01534   -0.03036    0.00753
N00D  3    0.478712    0.680073    0.874960    11.00000    0.05475    0.02185 =
         0.04775   -0.00340   -0.02689   -0.00027
N00E  3    0.316036    0.756291    0.966037    11.00000    0.04004    0.02765 =
         0.05807    0.00538   -0.01222    0.00178
C00G  1    0.760951    0.457274    0.749347    11.00000    0.07025    0.02495 =
         0.04592   -0.00364   -0.03984    0.00560
C00I  1    0.747552    0.344115    0.747115    11.00000    0.05395    0.02182 =
         0.05076   -0.00525   -0.03482    0.00486
C00K  1    0.830169    0.178529    0.689462    11.00000    0.04872    0.03231 =
         0.04074   -0.00084   -0.01700   -0.00067
C00L  1    0.797751    0.639569   -0.071455    11.00000    0.05238    0.02039 =
         0.03938   -0.00416   -0.02369    0.00292
C00M  1    0.707721    0.025078    0.753810    11.00000    0.06003    0.03014 =
         0.07927   -0.00292   -0.04719   -0.00271
AFIX  43
H00M  2    0.633795   -0.005939    0.792065    11.00000   -1.20000
AFIX   0
C00N  1    0.913993    0.011011    0.643946    11.00000    0.05500    0.03093 =
         0.06222   -0.00420   -0.02454    0.00705
AFIX  43
H00N  2    0.980332   -0.030601    0.609653    11.00000   -1.20000
AFIX   0
C00O  1    0.639340    0.297090    0.801506    11.00000    0.04501    0.02488 =
         0.06231   -0.00826   -0.01750    0.00334
AFIX  43
H00O  2    0.573456    0.337832    0.839128    11.00000   -1.20000
AFIX   0
C00P  1    0.842206    0.284149    0.689155    11.00000    0.06104    0.02363 =
         0.04955   -0.00111   -0.02784    0.00033
AFIX  43
H00P  2    0.915818    0.315180    0.648924    11.00000   -1.20000
AFIX   0
N00Q  3    0.358006    0.979191    0.969529    11.00000    0.07164    0.02720 =
         0.09265   -0.00192   -0.01135   -0.00658
N00R  3    0.196302    1.103083    1.051455    11.00000    0.06676    0.03255 =
         0.08086    0.00505   -0.00999    0.00388
N2    3   -0.048253    1.042717    1.158172    11.00000    0.04776    0.05725 =
         0.05585   -0.01503   -0.02112    0.01327
N3    3   -0.160368    1.013044    1.185853    11.00000    0.05848    0.06568 =
         0.09806   -0.01179   -0.03815    0.02290
N4    3   -0.156776    1.175607    1.229150    11.00000    0.06521    0.06507 =
         0.09113   -0.02765   -0.04422    0.02119
N5    3    0.292546    0.653777    0.987119    11.00000    0.05221    0.02812 =
         0.06539    0.00228   -0.01624    0.00235
N6    3    1.260504    0.617003    0.619647    11.00000    0.04359    0.05621 =
         0.06448   -0.00133   -0.02466   -0.00704
C00S  1    0.925956    0.115220    0.635559    11.00000    0.03504    0.02866 =
         0.06592   -0.00275   -0.01026    0.00011
AFIX  43
H00S  2    0.999622    0.145290    0.592942    11.00000   -1.20000
AFIX   0
C00T  1    0.846304    0.629432    0.344351    11.00000    0.04913    0.03201 =
         0.04046    0.00243   -0.02529   -0.00655
AFIX  43
H00T  2    0.918130    0.609195    0.350700    11.00000   -1.20000
AFIX   0
C00U  1    0.834614    0.629424    0.242400    11.00000    0.05333    0.02749 =
         0.05092   -0.00875   -0.03306    0.00195
C00V  1    0.625635    0.194870    0.802143    11.00000    0.04424    0.03404 =
         0.07743   -0.01186   -0.01181   -0.00080
AFIX  43
H00V  2    0.550538    0.165910    0.839834    11.00000   -1.20000
AFIX   0
C00W  1    0.752691    0.659090    0.436419    11.00000    0.05535    0.03529 =
         0.04085    0.00496   -0.02106    0.00148
C00X  1    0.807896    0.634534    0.037291    11.00000    0.04480    0.02002 =
         0.04437   -0.00069   -0.02396    0.00099
C00Y  1    0.719070    0.131847    0.748868    11.00000    0.06162    0.02831 =
         0.07227   -0.00166   -0.03827   -0.00079
C00Z  1    0.805800   -0.035447    0.702129    11.00000    0.07526    0.02341 =
         0.05989   -0.00219   -0.03260    0.00033
C010  1    0.794069   -0.151017    0.714568    11.00000    0.05305    0.03270 =
         0.07353   -0.00609   -0.03161    0.00071
C011  1    0.227071    0.832124    1.012963    11.00000    0.05750    0.03663 =
         0.04592    0.00179   -0.02138    0.00860
C012  1    0.425706    0.770558    0.898140    11.00000    0.05850    0.02817 =
         0.05524    0.00312   -0.02327    0.01061
AFIX  43
H012  2    0.461446    0.835721    0.870023    11.00000   -1.20000
AFIX   0
C013  1    0.727164    0.659968    0.231925    11.00000    0.05118    0.03626 =
         0.05034    0.00320   -0.02942    0.00571
C014  1    0.928875    0.599957    0.145949    11.00000    0.04487    0.02901 =
         0.05435   -0.00675   -0.02405    0.00432
AFIX  43
H014  2    1.000557    0.576583    0.150811    11.00000   -1.20000
AFIX   0
C015  1    0.768144    0.661382    0.545080    11.00000    0.07520    0.02563 =
         0.04230   -0.00207   -0.02860   -0.00008
C018  1    0.392227    0.612015    0.931741    11.00000    0.07737    0.01570 =
         0.06446   -0.01303   -0.04017    0.01288
AFIX  43
H018  2    0.403580    0.539652    0.931095    11.00000   -1.20000
AFIX   0
C019  1    0.253315    0.935023    1.010540    11.00000    0.06801    0.02998 =
         0.05987    0.00735   -0.02183   -0.00221
O1    4   -0.481020    1.045186    1.314080    11.00000    0.13946    0.24672 =
         0.18610   -0.00425   -0.08822    0.01024
N1    3   -0.644529    1.013781    1.465641    11.00000    0.09701    0.12995 =
         0.07585    0.00922   -0.03041    0.00310
C01A  1    0.716760    0.659331    0.130289    11.00000    0.04277    0.03797 =
         0.04386    0.00259   -0.01547    0.00248
AFIX  43
H01A  2    0.643693    0.676756    0.125384    11.00000   -1.20000
AFIX   0
C01B  1    0.915664    0.605480    0.046606    11.00000    0.04868    0.02920 =
         0.04135   -0.00927   -0.01672    0.00375
AFIX  43
H01B  2    0.980209    0.589473   -0.017599    11.00000   -1.20000
AFIX   0
C01C  1    0.043034    0.972901    1.109841    11.00000    0.06537    0.03626 =
         0.06084   -0.01601   -0.03228    0.01234
C01D  1    0.634032    0.689678    0.328268    11.00000    0.04817    0.07192 =
         0.05105   -0.00912   -0.02569    0.01002
AFIX  43
H01D  2    0.561589    0.710173    0.323426    11.00000   -1.20000
AFIX   0
C01E  1    0.023120    0.872397    1.111833    11.00000    0.04885    0.04245 =
         0.06643   -0.00266   -0.02483   -0.00174
AFIX  43
H01E  2   -0.054188    0.847956    1.148447    11.00000   -1.20000
AFIX   0
C01F  1    0.161147    1.006630    1.059291    11.00000    0.06059    0.03127 =
         0.06290    0.00305   -0.02090    0.00415
C01G  1    0.113126    0.802183    1.061415    11.00000    0.05327    0.03973 =
         0.07189   -0.00913   -0.01978    0.00585
AFIX  43
H01G  2    0.094400    0.732991    1.061061    11.00000   -1.20000
AFIX   0
C01H  1    1.145105    0.628530    0.662967    11.00000    0.08453    0.02979 =
         0.06695    0.00657   -0.04782   -0.00706
AFIX  43
H01H  2    1.109650    0.634976    0.740138    11.00000   -1.20000
AFIX   0
C01I  1   -0.050188    1.137821    1.185608    11.00000    0.06540    0.04146 =
         0.09660   -0.02301   -0.03776    0.01775
AFIX  43
H01I  2    0.017661    1.174236    1.174955    11.00000   -1.20000
AFIX   0
C01J  1    0.645811    0.689543    0.426633    11.00000    0.05926    0.06777 =
         0.04706   -0.01739   -0.02162    0.01551
AFIX  43
H01J  2    0.582115    0.709956    0.489178    11.00000   -1.20000
AFIX   0
C01L  1   -0.218825    1.096588    1.225376    11.00000    0.05065    0.07440 =
         0.11257   -0.03231   -0.03985    0.02214
AFIX  43
H01L  2   -0.301208    1.100615    1.250070    11.00000   -1.20000
AFIX   0
C01M  1    1.315843    0.612969    0.501374    11.00000    0.06705    0.08497 =
         0.05674   -0.01136   -0.01786    0.01392
AFIX 137
H01C  2    1.257739    0.597214    0.472583    11.00000   -1.50000
H01F  2    1.376528    0.559267    0.485943    11.00000   -1.50000
H01K  2    1.350828    0.679689    0.465312    11.00000   -1.50000
AFIX   0
C01N  1    1.330404    0.620035    0.684016    11.00000    0.07126    0.07775 =
         0.09482   -0.00304   -0.04200   -0.00045
AFIX 137
H01M  2    1.390419    0.565848    0.665522    11.00000   -1.50000
H01N  2    1.281013    0.608998    0.763146    11.00000   -1.50000
H01O  2    1.367495    0.687331    0.667319    11.00000   -1.50000
AFIX   0
C01O  1   -0.751079    1.058435    1.535852    11.00000    0.14624    0.10500 =
         0.09942    0.01025   -0.03823    0.04337
AFIX 137
H01P  2   -0.767346    1.122824    1.497338    11.00000   -1.50000
H01Q  2   -0.743993    1.072656    1.604377    11.00000   -1.50000
H01R  2   -0.814815    1.010381    1.553890    11.00000   -1.50000
AFIX   0
C01P  1   -0.564396    1.074813    1.389891    11.00000    0.10231    0.23208 =
         0.12525   -0.08972   -0.03916    0.08341
AFIX  43
H01S  2   -0.572840    1.146759    1.395343    11.00000   -1.20000
AFIX   0
C01R  1   -0.632268    0.896887    1.472684    11.00000    0.25437    0.11949 =
         0.09883   -0.00220   -0.11658    0.01915
AFIX 137
H01T  2   -0.704348    0.867216    1.476797    11.00000   -1.50000
H01U  2   -0.617172    0.870868    1.539133    11.00000   -1.50000
H01V  2   -0.567399    0.877386    1.406653    11.00000   -1.50000
AFIX   0
HKLF 4




REM  aP_a.res in P-1
REM wR2 = 0.2641, GooF = S = 1.036, Restrained GooF = 1.036 for all data
REM R1 = 0.0885 for 3889 Fo > 4sig(Fo) and 0.1560 for all 6952 data
REM 572 parameters refined using 0 restraints

END

WGHT      0.1406      0.4354

REM Highest difference peak  1.327,  deepest hole -0.845,  1-sigma level  0.161
Q1    1   0.6651 -0.0904  0.7894  11.00000  0.05    1.33
Q2    1   0.6647 -0.2531  0.7861  11.00000  0.05    1.32
Q3    1   0.9008 -0.2744  0.6789  11.00000  0.05    1.25
Q4    1   0.8954  0.3956  0.6768  11.00000  0.05    1.23
Q5    1   0.9155 -0.1045  0.6681  11.00000  0.05    1.17
Q6    1   0.6607  0.5737  0.7913  11.00000  0.05    1.14
Q7    1   0.6422  0.4007  0.7977  11.00000  0.05    1.06
Q8    1   0.8976  0.5506  0.6818  11.00000  0.05    0.99
Q9    1   0.3243  1.0972  0.8991  11.00000  0.05    0.89
Q10   1   0.6601  0.0968  0.7863  11.00000  0.05    0.88
Q11   1   0.9175  0.2251  0.6651  11.00000  0.05    0.81
Q12   1   0.8581  0.0976  0.7000  11.00000  0.05    0.80
Q13   1   1.4925  0.5050  0.7201  11.00000  0.05    0.79
Q14   1   0.9014  0.0631  0.6816  11.00000  0.05    0.78
Q15   1   0.6648  0.2370  0.7822  11.00000  0.05    0.76
Q16   1   0.9013  0.1456  0.6841  11.00000  0.05    0.69
Q17   1   0.7967 -0.2780  0.7185  11.00000  0.05    0.66
Q18   1   1.4166  0.5416  0.5686  11.00000  0.05    0.65
Q19   1   1.4237  0.5324  0.3858  11.00000  0.05    0.61
Q20   1  -0.5884  0.8234  1.4526  11.00000  0.05    0.59
;
_shelx_res_checksum   67777

_shelx_hkl_file
;
  -2   0   0 1666.83  208.18
  -2   0   0 1791.92  208.28
  -2   0   0 1727.83  208.08
   2   0   0 1715.03  208.18
   2   0   0 1762.42  208.18
   2   0   0 1796.72  208.08
  -3   0   0  339.37   42.00
  -3   0   0  347.67   42.20
  -3   0   0  352.66   42.30
   3   0   0  358.56   42.30
   3   0   0  354.86   42.10
   3   0   0  331.27   42.10
  -4   0   0  878.11  105.89
  -4   0   0  879.91  106.09
  -4   0   0  845.12  105.99
   4   0   0  877.41  106.09
   4   0   0  880.41  105.99
   4   0   0  932.71  105.99
  -5   0   0  623.64   70.19
  -5   0   0  592.84   69.99
  -5   0   0  578.14   69.79
   5   0   0  543.65   69.99
   5   0   0  554.84   69.89
  -6   0   0   45.80    6.90
  -6   0   0   24.20    6.40
  -6   0   0   42.30    7.70
   6   0   0   35.80    7.30
   6   0   0   39.20    6.90
   6   0   0   41.10    7.00
  -7   0   0  209.88   28.20
  -7   0   0  253.27   28.60
   7   0   0  225.98   28.40
   7   0   0  216.28   27.90
   7   0   0  208.08   28.00
  -8   0   0    9.00    5.10
  -8   0   0    9.40    5.50
   8   0   0    0.20    4.10
   8   0   0    1.60    4.10
   8   0   0    8.60    4.40
   8   0   0    7.10    5.40
  -9   0   0   34.90    7.60
  -9   0   0   27.90    7.80
   9   0   0   30.30    6.60
   9   0   0   16.20    6.40
   9   0   0   18.60    6.50
 -10   0   0    7.20    6.40
 -10   0   0   17.40    6.90
  10   0   0   10.50    5.80
  10   0   0    7.30    5.20
 -11   0   0   16.40    7.90
 -11   0   0   18.40    7.40
  11   0   0   13.10    6.50
  11   0   0   23.40    7.10
 -12   0   0   37.10   10.50
 -12   0   0   18.20    8.70
  12   0   0   27.90    7.80
 -13   0   0    0.80    7.90
 -13   0   0   -0.90    7.20
  13   0   0    7.60    6.40
  13  -1   0    4.00    6.50
 -13   1   0    0.80    7.80
 -13   1   0   -8.20    7.20
  12  -1   0    1.60    5.70
 -12   1   0    0.70    7.40
 -12   1   0   -3.70    6.90
  11  -1   0   15.00    6.90
  11  -1   0   13.70    6.70
 -11   1   0    7.90    7.10
 -11   1   0   16.90    9.40
  10  -1   0  -11.00    9.10
 -10   1   0    1.40    5.50
 -10   1   0    2.80    5.80
   9  -1   0   40.00    7.40
   9  -1   0   31.90    7.70
   9  -1   0   26.30    7.10
  -9   1   0   35.90    9.10
  -9   1   0   34.70    7.90
   8  -1   0  225.98   29.80
   8  -1   0  237.18   28.90
   8  -1   0  247.68   30.40
   8  -1   0  215.78   29.00
  -8   1   0  223.08   29.50
  -8   1   0  230.18   29.80
   7  -1   0    2.50    4.80
   7  -1   0    2.80    4.40
   7  -1   0    7.40    3.70
   7  -1   0   -1.60    3.60
  -7   1   0    7.10    4.70
  -7   1   0    4.20    5.30
   6  -1   0   28.70    5.70
   6  -1   0   25.00    6.70
   6  -1   0   32.90    6.30
   6  -1   0   26.90    5.90
  -6   1   0   27.30    6.60
  -6   1   0   25.20    6.10
   5  -1   0   16.60    4.60
   5  -1   0   13.70    4.00
   5  -1   0   12.80    4.80
  -5   1   0   22.00    5.20
   4  -1   0  621.54   72.89
   4  -1   0  577.74   73.09
   4  -1   0  620.74   72.99
   4  -1   0  621.74   72.79
  -4   1   0  604.04   72.99
  -4   1   0  577.34   73.09
   3  -1   0    0.30    3.40
   3  -1   0    2.50    2.90
   3  -1   0   -1.10    3.60
   3  -1   0   -4.30    4.40
  -3   1   0   -4.20    4.50
  -3   1   0    2.10    3.60
   2  -1   0   78.09    9.10
   2  -1   0   53.59    8.50
   2  -1   0   83.29    9.40
  -2   1   0   56.79    8.50
  -2   1   0   59.89    8.70
  -2   1   0   76.79    9.30
   1  -1   0  164.78   20.10
   1  -1   0  167.38   20.20
   1  -1   0  159.18   20.10
  -1   1   0  163.48   20.20
  -1   1   0  170.48   20.10
  -1   1   0  171.48   20.30
   0  -1   0    0.00    0.50
   0  -1   0    0.30    0.90
  -1  -1   0  256.67   30.20
  -1  -1   0  239.38   30.30
  -1  -1   0  282.97   30.40
   1   1   0  250.27   30.20
   1   1   0  234.18   30.30
  -2  -1   0   11.90    3.10
  -2  -1   0   12.40    3.20
  -2  -1   0   16.00    3.30
   2   1   0   14.20    3.10
   2   1   0   14.40    3.10
   2   1   0   19.90    3.50
  -3  -1   0   41.60    6.30
  -3  -1   0   47.10    6.60
  -3  -1   0   40.10    6.80
   3   1   0   41.00    6.70
   3   1   0   33.20    6.30
   3   1   0   38.30    6.20
  -4  -1   0    2.50    3.50
  -4  -1   0   -2.50    2.90
  -4  -1   0    5.50    3.70
   4   1   0    7.20    3.90
   4   1   0   -2.10    2.70
   4   1   0   -1.60    2.70
  -5  -1   0  541.35   68.29
  -5  -1   0  557.04   68.29
  -5  -1   0  564.14   67.99
   5   1   0  607.84   69.59
   5   1   0  575.74   68.19
   5   1   0  549.35   68.29
  -6  -1   0   23.70    6.00
  -6  -1   0   18.40    5.00
  -6  -1   0   11.00    5.00
   6   1   0   22.40    4.70
   6   1   0   19.10    5.60
   6   1   0   11.00    4.40
  -7  -1   0   13.90    4.50
  -7  -1   0   -0.80    4.20
  -7  -1   0   -7.50    4.40
   7   1   0    6.30    4.30
   7   1   0   -0.10    3.40
   7   1   0    3.70    3.70
  -8  -1   0  115.49   13.50
  -8  -1   0  109.69   14.80
  -8  -1   0  106.59   14.60
   8   1   0   72.79   13.20
   8   1   0   74.39   13.90
   8   1   0   84.69   13.60
  -9  -1   0    2.20    5.10
  -9  -1   0    8.20    4.90
  -9  -1   0   10.30    6.10
   9   1   0    9.20    6.10
   9   1   0    1.10    4.10
 -10  -1   0   -5.80    4.80
 -10  -1   0   11.90    6.80
  10   1   0    6.50    4.50
  10   1   0    3.70    4.90
 -11  -1   0    2.20    7.10
 -11  -1   0   -4.10    5.70
  11   1   0    3.70    5.40
  11   1   0   -0.80    5.10
 -12  -1   0   29.30   10.40
 -12  -1   0   77.19   13.30
  12   1   0   57.69   10.90
  12   1   0   54.59   12.00
 -13  -1   0   10.60    8.00
 -13  -1   0   -4.20    8.10
  13   1   0   -5.30    5.90
  13  -2   0    1.10    6.40
 -13   2   0    4.70    8.20
 -13   2   0    0.20    7.60
  12  -2   0    5.10    6.20
 -12   2   0    0.80    7.20
 -12   2   0   12.70   14.60
  11  -2   0   -0.90    5.70
  11  -2   0  -12.00    4.80
 -11   2   0    8.50    7.30
 -11   2   0   -4.10    6.10
  10  -2   0    0.40    4.50
  10  -2   0    1.30    5.10
 -10   2   0   -3.20    5.80
 -10   2   0    2.50    6.10
   9  -2   0    5.20    5.30
   9  -2   0    0.80    5.20
   9  -2   0    5.80    4.90
  -9   2   0    6.20    6.80
  -9   2   0    6.50    5.90
   8  -2   0   40.80    9.20
   8  -2   0   47.10    8.30
   8  -2   0   35.60    7.80
   8  -2   0   44.50   12.30
  -8   2   0   35.50    8.80
  -8   2   0   34.50    8.90
   7  -2   0    3.80    5.10
   7  -2   0    3.10    4.00
   7  -2   0    7.70    4.40
   7  -2   0    2.70    4.20
  -7   2   0   13.00    5.20
   6  -2   0   14.70    4.70
   6  -2   0   18.10    4.50
   6  -2   0   13.10    5.50
   6  -2   0   16.40    5.00
  -6   2   0    2.80    4.40
  -6   2   0   15.70    5.50
   5  -2   0   69.89   11.20
   5  -2   0   68.09   11.50
   5  -2   0   80.89   11.10
   5  -2   0   85.49   11.50
  -5   2   0   70.49   11.30
  -5   2   0   79.59   11.90
   4  -2   0   49.70    8.60
   4  -2   0   65.69    8.90
   4  -2   0   73.39    9.70
  -4   2   0   57.79    9.60
  -4   2   0   47.20    8.70
   3  -2   0  421.56   47.00
   3  -2   0  379.56   47.00
  -3   2   0  377.36   46.90
  -3   2   0  369.06   47.20
  -3   2   0  389.36   47.10
   2  -2   0  129.59   17.60
   2  -2   0  127.19   17.00
   2  -2   0  139.69   17.00
  -2   2   0  135.49   17.00
  -2   2   0  134.99   17.40
  -2   2   0  142.99   17.00
   1  -2   0  392.46   46.60
   1  -2   0  397.26   46.70
   1  -2   0  380.36   46.60
  -1   2   0  352.26   47.10
  -1   2   0  402.66   46.60
  -1   2   0  388.76   46.70
   0  -2   0   21.50    3.10
   0  -2   0   16.80    3.30
   0  -2   0   17.10    3.30
   0   2   0   19.40    3.50
   0   2   0   15.40    3.20
   0   2   0   16.10    3.10
  -1  -2   0  980.40  117.09
  -1  -2   0 1000.30  117.09
  -1  -2   0  982.20  117.09
   1   2   0  951.60  117.09
   1   2   0  980.50  117.09
  -2  -2   0  352.76   43.10
  -2  -2   0  346.67   43.20
  -2  -2   0  358.06   43.10
   2   2   0  362.66   43.10
   2   2   0  372.46   43.10
   2   2   0  349.67   43.20
  -3  -2   0  142.19   18.80
  -3  -2   0  147.19   18.80
  -3  -2   0  150.48   18.60
   3   2   0  155.18   18.60
   3   2   0  150.38   18.80
   3   2   0  150.88   19.90
  -4  -2   0  354.26   43.10
  -4  -2   0  341.27   43.20
  -4  -2   0  374.56   43.40
   4   2   0  347.07   43.20
   4   2   0  336.77   43.20
   4   2   0  373.56   43.10
  -5  -2   0    7.00    4.00
  -5  -2   0    5.60    3.40
  -5  -2   0    4.90    4.20
   5   2   0    7.30    3.90
   5   2   0   18.00    4.20
   5   2   0    8.10    3.30
  -6  -2   0    3.60    3.60
  -6  -2   0    5.60    3.50
  -6  -2   0    2.80    4.20
   6   2   0    0.70    2.90
   6   2   0   10.10    4.00
   6   2   0    0.20    3.30
  -7  -2   0   10.30    4.60
  -7  -2   0    7.00    5.00
   7   2   0    1.80    3.70
   7   2   0    0.70    3.90
   7   2   0   -0.80    3.70
  -8  -2   0   70.29   11.10
  -8  -2   0   70.79   10.30
  -8  -2   0   72.29   11.20
   8   2   0   46.10    9.80
   8   2   0   46.50    9.10
   8   2   0   57.79   10.60
  -9  -2   0   -4.00    3.90
  -9  -2   0   14.40    6.50
  -9  -2   0   18.50    6.20
   9   2   0   11.10    5.00
   9   2   0    4.30    5.60
 -10  -2   0    5.10    5.70
 -10  -2   0   27.70    8.10
 -10  -2   0   12.50    6.10
  10   2   0   11.80    5.60
 -11  -2   0   16.30    8.10
 -11  -2   0   11.40    6.50
  11   2   0   15.10    7.00
 -12  -2   0   17.70    8.20
 -12  -2   0   26.70    8.70
  12   2   0   -2.40    5.80
  12   2   0    9.70    8.40
 -13  -2   0   -1.10    8.00
 -13  -2   0   -7.80    7.20
  13   2   0   -1.10    6.50
  13  -3   0   -2.50    6.00
 -13   3   0    2.20    7.90
 -13   3   0    5.70    9.00
  12  -3   0   36.90    8.40
 -12   3   0   16.70    8.80
 -12   3   0   30.60   11.00
  11  -3   0   12.90    6.40
 -11   3   0   28.70    9.30
 -11   3   0   18.00    8.60
  10  -3   0    0.80    4.80
  10  -3   0    2.60    6.30
 -10   3   0    8.00    6.70
 -10   3   0   16.00    7.70
   9  -3   0    3.60    8.40
   9  -3   0    3.20    5.40
  -9   3   0   -8.00    5.40
  -9   3   0    4.50    5.60
   8  -3   0   20.60    6.30
   8  -3   0   15.50    5.20
   8  -3   0   17.60    6.80
   8  -3   0   12.80    6.70
  -8   3   0    8.40    6.30
  -8   3   0   19.00    6.70
   7  -3   0   59.29   10.20
   7  -3   0   59.79   10.30
   7  -3   0   79.59   11.40
   7  -3   0   52.99   10.80
  -7   3   0   62.79   10.90
  -7   3   0   78.29   12.20
   6  -3   0    3.60    4.60
   6  -3   0   10.80    4.50
   6  -3   0    2.50    4.00
   6  -3   0    5.00    3.80
  -6   3   0   -7.80    3.80
  -6   3   0   -0.80    4.30
   5  -3   0  437.06   53.29
   5  -3   0  411.96   52.89
   5  -3   0  432.06   52.89
  -5   3   0  429.56   53.39
  -5   3   0  442.66   53.09
  -5   3   0  452.75   52.89
   4  -3   0  211.18   26.60
   4  -3   0  200.88   27.00
   4  -3   0  221.08   26.60
  -4   3   0  211.28   27.10
  -4   3   0  218.98   26.80
  -4   3   0  215.58   26.60
   3  -3   0  236.08   28.60
   3  -3   0  230.28   28.90
   3  -3   0  223.88   28.50
  -3   3   0  246.88   29.00
  -3   3   0  229.18   28.60
  -3   3   0  221.28   28.80
   2  -3   0   16.00    3.90
   2  -3   0   12.10    3.80
   2  -3   0   10.70    4.50
  -2   3   0   13.60    4.10
  -2   3   0   11.30    3.70
  -2   3   0   10.60    4.40
   1  -3   0   58.29    8.60
   1  -3   0   65.89    9.10
   1  -3   0   72.79    9.70
   1  -3   0   61.09    9.10
  -1   3   0   62.79    9.20
  -1   3   0   65.79    9.50
   0  -3   0 2624.14  320.37
   0  -3   0 2809.62  320.57
   0  -3   0 2676.13  320.47
   0   3   0 2619.54  320.37
   0   3   0 2745.83  320.57
   0   3   0 2632.54  320.47
  -1  -3   0   37.50    6.60
  -1  -3   0   47.70    6.40
  -1  -3   0   38.60    6.20
   1   3   0   38.70    6.30
   1   3   0   41.70    6.40
  -2  -3   0  293.07   37.00
  -2  -3   0  300.47   37.10
  -2  -3   0  296.77   37.00
   2   3   0  312.67   37.00
   2   3   0  306.07   37.10
   2   3   0  319.57   37.10
  -3  -3   0   24.50    4.50
  -3  -3   0   16.20    4.10
  -3  -3   0   24.40    4.30
   3   3   0   19.00    4.40
   3   3   0   17.10    4.20
   3   3   0   15.20    4.20
  -4  -3   0   92.29   12.00
  -4  -3   0   75.89   11.00
  -4  -3   0   84.59   11.80
   4   3   0   82.59   11.90
   4   3   0   85.49   11.90
   4   3   0   82.59   11.80
  -5  -3   0   40.70    6.50
  -5  -3   0   37.90    6.30
  -5  -3   0   22.50    5.50
   5   3   0   22.90    5.90
   5   3   0   36.80    5.90
   5   3   0   27.40    6.10
  -6  -3   0    2.20    3.50
  -6  -3   0    0.60    3.50
  -6  -3   0    3.50    4.20
   6   3   0    0.10    3.50
   6   3   0    4.60    3.40
   6   3   0   -0.10    3.00
  -7  -3   0  155.48   20.40
  -7  -3   0  173.18   20.70
  -7  -3   0  148.69   20.10
   7   3   0  159.78   20.00
   7   3   0  141.09   22.00
   7   3   0  145.09   20.40
  -8  -3   0   27.20    7.00
  -8  -3   0   29.60    6.30
  -8  -3   0   24.20    7.10
   8   3   0   27.00    7.50
   8   3   0   33.00    7.10
   8   3   0   13.90    5.30
  -9  -3   0   24.50    6.90
  -9  -3   0   33.60    7.30
  -9  -3   0   17.50    6.90
   9   3   0   16.20    5.70
   9   3   0   12.70    6.50
 -10  -3   0   -8.90    5.50
 -10  -3   0   -1.10    5.60
 -10  -3   0   -7.70    5.40
  10   3   0    3.10    6.00
 -11  -3   0   39.10    9.60
 -11  -3   0   47.70    9.70
 -11  -3   0   42.40   10.60
  11   3   0   56.69   10.20
 -12  -3   0   -0.10   11.60
 -12  -3   0    8.70    6.90
 -12  -3   0    1.30    6.90
 -13  -3   0    3.90    7.80
 -13  -3   0   -4.40    7.70
  13   3   0   -1.00    6.20
  13  -4   0   -1.60    6.10
 -13   4   0    0.90    8.70
 -13   4   0    1.30    8.00
  12  -4   0    7.30    6.00
 -12   4   0   -5.00    7.40
 -12   4   0   -9.90    7.10
  11  -4   0   58.89   10.60
 -11   4   0   41.30   10.70
 -11   4   0   49.60   12.40
  10  -4   0    4.70    5.30
  10  -4   0    6.40    6.40
 -10   4   0   11.00    7.50
 -10   4   0    6.20    6.90
   9  -4   0    1.50    5.60
   9  -4   0    9.70    6.20
   9  -4   0    1.50    4.80
  -9   4   0    5.50    6.20
  -9   4   0   10.30    6.40
   8  -4   0   13.80    6.00
   8  -4   0   13.70    6.00
   8  -4   0   14.60    5.30
  -8   4   0   17.70    6.90
  -8   4   0   14.80    6.60
   7  -4   0   73.49   11.20
   7  -4   0   60.99   11.70
   7  -4   0   69.49   11.00
   7  -4   0   58.89   11.00
  -7   4   0   68.49   12.10
  -7   4   0   74.59   11.70
   6  -4   0  108.99   14.50
   6  -4   0   99.59   15.10
   6  -4   0  100.79   14.10
  -6   4   0   91.09   14.20
  -6   4   0   90.99   14.90
  -6   4   0   91.19   14.00
   5  -4   0    1.80    3.60
   5  -4   0    2.90    4.50
   5  -4   0    4.60    3.50
  -5   4   0    5.60    4.00
  -5   4   0   -2.70    3.40
  -5   4   0    5.50    4.70
   4  -4   0   13.20    5.30
   4  -4   0   11.70    4.50
   4  -4   0    8.10    4.10
  -4   4   0   19.60    5.60
  -4   4   0    8.30    4.00
  -4   4   0   25.20    5.00
   3  -4   0   14.50    5.10
   3  -4   0   33.20    5.50
   3  -4   0   14.60    5.70
  -3   4   0   24.10    6.60
  -3   4   0   29.30    5.70
  -3   4   0   36.90    6.10
   2  -4   0   -1.10    3.90
   2  -4   0   -0.70    2.80
   2  -4   0    3.50    3.10
  -2   4   0    4.90    3.40
  -2   4   0    1.50    3.50
   1  -4   0  100.39   13.20
   1  -4   0   90.29   12.40
   1  -4   0   83.29   12.20
  -1   4   0   92.29   12.50
  -1   4   0  112.69   13.50
   0  -4   0 1720.73  208.98
   0  -4   0 1735.53  209.08
   0  -4   0 1727.43  209.08
   0   4   0 1741.63  208.98
   0   4   0 1815.52  209.18
  -1  -4   0 1146.29  144.69
  -1  -4   0 1229.88  144.69
  -1  -4   0 1240.28  144.69
   1   4   0 1237.08  144.69
   1   4   0 1183.68  144.69
  -2  -4   0  301.27   38.40
  -2  -4   0  326.17   38.10
  -2  -4   0  308.87   38.20
  -2  -4   0  300.67   38.20
   2   4   0  313.37   38.20
   2   4   0  325.07   38.30
  -3  -4   0   46.30    7.40
  -3  -4   0   40.20    6.90
  -3  -4   0   40.50    7.10
   3   4   0   52.29    7.30
   3   4   0   50.59    7.20
   3   4   0   35.00    6.80
  -4  -4   0   12.80    3.70
  -4  -4   0    2.00    3.10
  -4  -4   0    4.30    3.10
   4   4   0   -1.80    2.70
   4   4   0   -1.70    3.10
   4   4   0    2.30    2.50
  -5  -4   0  407.16   49.80
  -5  -4   0  394.36   49.99
  -5  -4   0  370.46   49.70
   5   4   0  428.86   49.90
   5   4   0  417.56   49.99
   5   4   0  431.26   49.70
  -6  -4   0    6.90    4.00
  -6  -4   0    7.80    4.40
  -6  -4   0   12.40    4.30
   6   4   0    0.40    3.60
   6   4   0    6.30    3.80
   6   4   0   12.20    4.10
  -7  -4   0   51.89   10.10
  -7  -4   0   63.09   10.60
  -7  -4   0   62.39   10.50
   7   4   0   68.09   10.80
   7   4   0   66.69    9.80
   7   4   0   58.79   10.50
  -8  -4   0   58.49    9.80
  -8  -4   0   42.30    8.70
  -8  -4   0   44.40    9.20
   8   4   0   55.49   10.00
   8   4   0   46.80    8.60
  -9  -4   0   25.10    6.70
  -9  -4   0    2.00    5.30
  -9  -4   0   15.60    6.60
   9   4   0   16.90    5.60
   9   4   0    9.10    6.30
 -10  -4   0    4.80    6.00
 -10  -4   0    3.80    6.40
 -10  -4   0   10.30    5.90
  10   4   0   14.70    5.70
 -11  -4   0    8.30    7.10
 -11  -4   0   -6.10    5.90
 -11  -4   0    2.60    6.40
  11   4   0    4.90    5.80
 -12  -4   0   33.60   10.40
 -12  -4   0   40.80   10.10
 -12  -4   0   45.70   10.90
 -13  -4   0    1.50    7.20
 -13  -4   0   12.70    7.50
 -13  -4   0    7.60    8.40
  12  -5   0   12.20    7.20
 -12   5   0   -0.30    7.60
 -12   5   0   -6.80    7.10
  11  -5   0   -4.10    5.20
 -11   5   0   10.20    7.60
 -11   5   0    0.30    9.70
  10  -5   0   16.00    6.60
 -10   5   0   14.20    7.90
 -10   5   0   28.80    8.60
   9  -5   0   -0.70    5.80
   9  -5   0   -4.70    6.40
   9  -5   0    0.10    4.80
  -9   5   0   11.20    6.80
  -9   5   0    6.40    6.60
   8  -5   0   46.40   10.30
   8  -5   0   58.19   10.40
   8  -5   0   59.79   10.20
  -8   5   0   65.39   11.80
  -8   5   0   50.49   10.90
   7  -5   0   36.90    7.40
   7  -5   0   28.40    6.90
   7  -5   0   19.40    7.80
  -7   5   0   23.50    6.60
  -7   5   0   41.70    8.50
  -7   5   0   19.00    6.70
   6  -5   0   74.09   11.90
   6  -5   0   89.39   12.40
   6  -5   0   79.09   13.50
  -6   5   0   79.59   12.80
  -6   5   0   55.69   12.30
  -6   5   0   82.99   12.40
   5  -5   0    8.40    4.20
   5  -5   0   18.70    6.20
   5  -5   0   12.70    4.80
  -5   5   0   12.20    5.00
  -5   5   0   18.60    5.00
  -5   5   0    5.70    4.70
   4  -5   0  265.57   32.90
   4  -5   0  262.57   33.00
   4  -5   0  239.88   33.30
  -4   5   0  283.87   33.50
  -4   5   0  251.57   32.90
  -4   5   0  283.97   33.00
   3  -5   0  304.27   38.30
   3  -5   0  303.57   38.60
   3  -5   0  304.47   38.20
  -3   5   0  318.17   38.40
  -3   5   0  322.57   38.40
  -3   5   0  311.37   38.70
   2  -5   0   20.50    4.60
   2  -5   0   14.00    5.40
   2  -5   0   13.60    3.80
   2  -5   0   14.10    4.60
  -2   5   0   13.00    4.90
  -2   5   0   10.20    4.50
   1  -5   0   66.19   10.70
   1  -5   0   72.29   10.70
   1  -5   0   73.79   10.10
  -1   5   0   71.19   10.40
  -1   5   0   79.39   10.90
  -1   5   0   59.29   10.50
   0  -5   0   45.10    7.00
   0  -5   0   35.30    6.90
   0  -5   0   47.80    8.00
   0   5   0   43.70    7.70
   0   5   0   40.10    7.30
   0   5   0   38.70    6.90
  -1  -5   0 1593.14  188.58
  -1  -5   0 1567.34  188.68
  -1  -5   0 1566.04  188.68
   1   5   0 1584.94  188.68
   1   5   0 1595.14  188.68
   1   5   0 1543.75  188.58
  -2  -5   0   36.30    6.20
  -2  -5   0   39.80    7.00
  -2  -5   0   25.30    6.00
  -2  -5   0   33.30    6.30
   2   5   0   36.80    6.30
   2   5   0   38.00    6.40
  -3  -5   0    4.00    4.10
  -3  -5   0    8.50    3.20
  -3  -5   0    4.80    3.10
  -3  -5   0    0.00    3.00
   3   5   0   -3.30    2.70
   3   5   0    2.70    3.10
  -4  -5   0   41.80    7.00
  -4  -5   0   44.70    6.70
  -4  -5   0   30.90    6.40
   4   5   0   37.50    6.70
   4   5   0   34.30    6.50
   4   5   0   24.90    6.20
  -5  -5   0   87.69   13.20
  -5  -5   0   89.49   12.70
  -5  -5   0   85.99   12.50
   5   5   0  102.29   16.10
   5   5   0   85.49   12.50
   5   5   0   78.39   12.70
  -6  -5   0   56.19    9.00
  -6  -5   0   40.50    8.50
  -6  -5   0   53.59    8.60
   6   5   0   46.00    9.00
   6   5   0   53.09    8.90
   6   5   0   53.29    8.40
  -7  -5   0   -2.40    3.60
  -7  -5   0    5.40    4.80
  -7  -5   0    5.20    4.70
   7   5   0   14.00    4.50
   7   5   0    4.10    4.10
   7   5   0    7.60    4.90
  -8  -5   0   79.59   13.50
  -8  -5   0   89.09   14.40
  -8  -5   0  111.79   14.80
   8   5   0  102.69   13.70
   8   5   0   71.09   13.60
  -9  -5   0   14.40    6.10
  -9  -5   0   18.80    6.80
  -9  -5   0   21.30    7.10
   9   5   0   13.20    6.40
 -10  -5   0   10.50    7.50
 -10  -5   0   11.70    7.30
 -10  -5   0   20.00    6.50
  10   5   0   11.30    6.10
 -11  -5   0    7.60    6.20
 -11  -5   0    8.70    7.40
 -11  -5   0   -0.40    6.30
  11   5   0   -6.20    6.40
 -12  -5   0   -1.30    7.80
 -12  -5   0    9.00    7.70
 -12  -5   0    9.10    7.40
 -13  -5   0    0.40    7.20
 -13  -5   0   15.40    9.20
  12  -6   0    3.00    7.20
 -12   6   0    2.60    7.80
 -12   6   0   10.50    9.10
  11  -6   0   10.40    6.70
 -11   6   0    9.00    8.60
 -11   6   0    4.30    8.10
  10  -6   0   24.40    7.40
 -10   6   0   -0.20    6.90
 -10   6   0   17.40    8.20
   9  -6   0    4.80    5.70
  -9   6   0   10.60    7.50
  -9   6   0   13.00    7.00
   8  -6   0    4.70    5.40
   8  -6   0   -4.20    4.60
  -8   6   0    1.00    5.40
  -8   6   0   -4.00    4.80
  -8   6   0   -0.20    6.10
   7  -6   0   69.19   11.40
   7  -6   0   73.79   11.50
  -7   6   0   64.09   12.10
  -7   6   0   64.29   11.00
  -7   6   0   37.10   11.70
   6  -6   0    4.00    5.80
   6  -6   0    5.60    4.70
  -6   6   0    8.60    6.20
  -6   6   0    6.20    5.20
  -6   6   0    3.80    5.30
   5  -6   0   44.90    9.10
   5  -6   0   38.40    8.00
   5  -6   0   45.10    8.50
  -5   6   0   35.80    9.60
  -5   6   0   42.40    8.20
  -5   6   0   53.99    9.10
   4  -6   0   86.89   12.90
   4  -6   0   94.99   14.30
   4  -6   0   97.09   13.70
  -4   6   0   88.79   13.20
  -4   6   0   79.89   13.90
  -4   6   0   78.29   13.20
   3  -6   0  130.99   16.50
   3  -6   0   86.69   15.00
   3  -6   0  121.99   16.60
   3  -6   0  133.09   17.20
  -3   6   0  122.29   17.10
  -3   6   0  135.59   16.80
   2  -6   0   49.20    8.30
   2  -6   0   48.50    8.60
   2  -6   0   53.19    9.10
   2  -6   0   41.70    7.80
  -2   6   0   40.00    8.60
  -2   6   0   58.79    9.00
   1  -6   0   99.09   14.40
   1  -6   0  133.69   16.20
   1  -6   0  108.09   15.70
  -1   6   0  109.69   16.10
  -1   6   0  139.99   16.00
  -1   6   0   99.09   14.80
   0  -6   0 1257.97  153.78
   0  -6   0 1286.17  153.88
   0  -6   0 1300.47  153.58
   0   6   0 1219.08  153.78
   0   6   0 1336.67  153.98
   0   6   0 1284.17  153.58
  -1  -6   0   33.70    6.60
  -1  -6   0   26.90    6.40
  -1  -6   0   30.90    6.90
   1   6   0   34.50    7.10
   1   6   0   33.40    6.50
   1   6   0   42.00    6.80
  -2  -6   0  569.24   69.49
  -2  -6   0  583.94   69.49
  -2  -6   0  595.74   69.59
  -2  -6   0  561.64   69.29
   2   6   0  562.44   69.39
   2   6   0  563.14   69.49
  -3  -6   0   10.40    4.20
  -3  -6   0   14.70    5.20
  -3  -6   0   19.60    4.60
  -3  -6   0   16.10    4.10
   3   6   0    5.50    3.90
   3   6   0   11.00    4.20
  -4  -6   0  124.29   16.60
  -4  -6   0  130.89   17.00
  -4  -6   0  124.79   18.10
  -4  -6   0  141.89   17.20
   4   6   0  126.89   16.90
   4   6   0  118.79   16.90
  -5  -6   0   59.69   13.50
  -5  -6   0   64.49   11.30
  -5  -6   0   85.89   11.70
   5   6   0   97.89   12.60
   5   6   0   76.39   11.60
   5   6   0   67.99   11.60
  -6  -6   0   46.30    8.70
  -6  -6   0   56.19    8.70
  -6  -6   0   54.89    8.80
   6   6   0   31.50    7.80
   6   6   0   45.60    8.20
   6   6   0   39.30    8.10
  -7  -6   0   -3.80    4.10
  -7  -6   0    3.50    5.30
  -7  -6   0   -1.80    3.40
   7   6   0   -1.10    4.20
   7   6   0   -2.10    4.00
  -8  -6   0   32.50    7.90
  -8  -6   0   30.60    7.60
  -8  -6   0   32.80    8.70
   8   6   0   20.50    7.50
  -9  -6   0   13.50    6.60
  -9  -6   0   16.20    7.10
  -9  -6   0   19.30    7.30
   9   6   0   17.20    8.70
   9   6   0   14.90    6.30
 -10  -6   0   -2.60    5.10
 -10  -6   0   -7.60    6.00
 -10  -6   0    5.50    6.50
  10   6   0   -1.60    5.30
 -11  -6   0    6.40    6.40
 -11  -6   0   -5.50    6.80
 -11  -6   0    8.80    9.00
 -12  -6   0    3.30    8.30
 -12  -6   0    3.30    6.50
 -12  -6   0    5.50    8.40
  12  -7   0   -0.10    6.50
 -12   7   0   -1.10    9.20
 -12   7   0    0.80    8.10
  11  -7   0   18.70    7.20
 -11   7   0    2.00    8.50
 -11   7   0   -0.70    8.00
  10  -7   0   -5.20    5.40
 -10   7   0   -6.40    8.00
 -10   7   0   11.30    7.30
   9  -7   0   38.10    8.10
  -9   7   0   15.50    8.50
  -9   7   0   24.10    9.40
   8  -7   0    8.50    6.20
   8  -7   0    3.40    5.30
  -8   7   0   19.40    7.30
  -8   7   0   12.00    7.20
   7  -7   0    9.70    5.60
   7  -7   0    7.50    5.40
  -7   7   0   14.80    6.50
  -7   7   0    6.50    5.30
  -7   7   0    2.20    6.40
   6  -7   0    1.40    5.70
   6  -7   0   11.50    5.30
   6  -7   0    8.50    5.70
  -6   7   0   12.20    6.10
  -6   7   0   21.60    6.60
  -6   7   0   10.00    5.60
   5  -7   0   74.59   12.20
   5  -7   0   87.09   12.90
   5  -7   0   73.79   13.10
  -5   7   0   76.59   13.30
  -5   7   0   64.29   12.10
  -5   7   0   80.79   12.70
   4  -7   0  252.77   30.70
   4  -7   0  244.78   31.40
   4  -7   0  253.57   31.40
   4  -7   0  237.28   30.70
  -4   7   0  226.78   30.90
  -4   7   0  248.28   31.50
   3  -7   0   39.00    6.80
   3  -7   0   35.60    7.90
   3  -7   0   34.50    7.20
   3  -7   0   42.50    7.90
  -3   7   0   34.00    7.50
  -3   7   0   31.60    7.80
   2  -7   0   41.00    7.50
   2  -7   0   28.80    6.40
   2  -7   0   21.60    6.30
   2  -7   0   30.50    5.90
  -2   7   0   23.90    6.30
  -2   7   0   17.80    6.10
   1  -7   0    3.00    3.20
   1  -7   0   -3.70    3.70
   1  -7   0   -3.50    2.70
  -1   7   0   13.20    5.00
  -1   7   0    1.00    3.40
  -1   7   0    1.20    3.50
   0  -7   0  766.72   92.29
   0  -7   0  762.72   91.99
   0  -7   0  779.32   92.19
   0   7   0  719.43   92.19
   0   7   0  818.52   92.49
   0   7   0  732.13   91.99
  -1  -7   0  102.59   15.00
  -1  -7   0  131.09   15.70
  -1  -7   0  102.59   15.00
   1   7   0  106.59   14.90
   1   7   0   77.29   14.50
   1   7   0  108.49   15.50
  -2  -7   0  339.87   42.20
  -2  -7   0  332.37   42.10
  -2  -7   0  347.27   41.90
  -2  -7   0  346.57   42.10
   2   7   0  343.17   42.10
   2   7   0  335.37   42.10
  -3  -7   0   10.00    3.90
  -3  -7   0   12.50    4.30
  -3  -7   0    4.80    3.60
  -3  -7   0    6.50    4.60
   3   7   0    1.90    3.60
   3   7   0    9.80    3.90
  -4  -7   0    4.90    4.00
  -4  -7   0    9.50    4.10
  -4  -7   0   17.90    5.70
  -4  -7   0   14.80    5.50
   4   7   0   21.10    5.10
   4   7   0    7.90    4.30
  -5  -7   0  243.88   32.30
  -5  -7   0  253.77   32.80
  -5  -7   0  251.17   32.60
  -5  -7   0  272.47   33.20
   5   7   0  280.57   32.70
   5   7   0  256.87   32.90
  -6  -7   0    9.00    4.50
  -6  -7   0    6.30    4.80
  -6  -7   0    8.80    4.60
   6   7   0   12.60    5.00
   6   7   0    5.20    5.10
   6   7   0    5.30    4.40
  -7  -7   0    8.90    4.50
  -7  -7   0    3.30    4.70
  -7  -7   0    7.80    5.80
   7   7   0    2.80    5.30
   7   7   0   10.20    4.90
  -8  -7   0    7.10    5.80
  -8  -7   0   -2.40    4.60
  -8  -7   0    3.60    4.60
   8   7   0   -7.20    4.30
   8   7   0   -1.70    4.90
  -9  -7   0   32.70    8.70
  -9  -7   0   28.40    8.20
  -9  -7   0   36.20    8.90
   9   7   0   26.00    7.80
 -10  -7   0    0.80    6.20
 -10  -7   0    7.20    7.00
 -10  -7   0    0.60    5.00
 -11  -7   0   -6.70    5.80
 -11  -7   0   -3.90    6.40
 -11  -7   0   -4.90    6.90
 -12  -7   0   16.50    9.10
 -12  -7   0   22.50    9.40
 -12  -7   0    7.00    7.90
  11  -8   0    9.40    7.20
 -11   8   0   16.10    9.40
 -11   8   0   -1.60    9.00
  10  -8   0    2.80    6.00
 -10   8   0    6.00    7.90
 -10   8   0    7.30    8.60
   9  -8   0    7.50    6.00
  -9   8   0    2.00    6.80
  -9   8   0   -2.90    6.10
   8  -8   0   -3.20    4.90
  -8   8   0   -1.20    6.20
  -8   8   0   -7.10    5.10
   7  -8   0    9.60    5.80
   7  -8   0    8.00    5.90
  -7   8   0    5.70    6.40
  -7   8   0    3.90    6.10
   6  -8   0   25.30    8.70
   6  -8   0    5.20    5.00
  -6   8   0   -4.30    4.90
   5  -8   0   22.70    7.40
   5  -8   0   14.90    5.60
  -5   8   0   12.80    5.80
  -5   8   0   19.20    7.10
   4  -8   0  269.97   36.40
   4  -8   0  284.77   36.00
   4  -8   0  279.57   36.70
   4  -8   0  320.57   36.30
  -4   8   0  290.47   37.00
  -4   8   0  281.67   36.50
   3  -8   0   74.79   12.00
   3  -8   0   77.89   12.90
   3  -8   0   71.79   12.80
   3  -8   0  111.19   14.50
  -3   8   0   79.49   13.10
  -3   8   0   85.59   14.00
   2  -8   0   20.20    6.20
   2  -8   0   23.30    6.30
   2  -8   0   24.80    5.80
   2  -8   0   18.90    5.90
  -2   8   0   16.50    6.70
  -2   8   0   31.20    8.60
   1  -8   0   38.70    8.80
   1  -8   0   58.19    8.90
  -1   8   0   58.39    9.30
  -1   8   0   36.00    8.60
  -1   8   0   72.09   10.60
   0  -8   0  138.29   21.00
   0  -8   0  147.59   21.00
   0  -8   0  158.08   20.70
   0   8   0  193.38   21.20
   0   8   0  161.98   21.50
   0   8   0  168.68   21.20
  -1  -8   0  839.62  100.59
  -1  -8   0  823.22  100.49
  -1  -8   0  861.51  100.69
   1   8   0  806.52  100.49
   1   8   0  833.12  100.69
   1   8   0  824.72  100.69
  -2  -8   0    0.00    3.60
  -2  -8   0    6.70    4.40
  -2  -8   0    7.70    3.70
  -2  -8   0    4.40    3.70
   2   8   0   13.90    4.30
   2   8   0    3.50    4.10
  -3  -8   0    9.40    4.90
  -3  -8   0    2.70    4.50
  -3  -8   0   13.00    4.00
   3   8   0    3.60    3.90
   3   8   0    5.90    4.30
  -4  -8   0   42.10    7.70
  -4  -8   0   32.90    7.10
  -4  -8   0   41.80    8.50
  -4  -8   0   43.30    9.40
   4   8   0   40.30    8.00
  -5  -8   0  164.88   23.10
  -5  -8   0  164.98   22.20
  -5  -8   0  182.38   22.70
  -5  -8   0  168.38   22.70
   5   8   0  189.98   22.70
   5   8   0  158.08   22.60
  -6  -8   0    1.50    4.10
  -6  -8   0    2.30    5.70
  -6  -8   0    8.10    4.90
  -6  -8   0    5.80    4.90
   6   8   0   -2.00    4.10
  -7  -8   0    4.40    4.70
  -7  -8   0    5.30    4.60
  -7  -8   0    3.30    5.10
   7   8   0   -6.00    4.40
   7   8   0    1.00    5.60
  -8  -8   0   86.99   13.40
  -8  -8   0   83.69   14.20
  -8  -8   0   62.79   12.70
   8   8   0   85.29   18.10
   8   8   0   79.79   14.30
  -9  -8   0   -2.30    5.90
  -9  -8   0   -1.00    4.60
  -9  -8   0   14.90    6.60
 -10  -8   0   12.00    7.10
 -10  -8   0    9.30    7.80
 -10  -8   0   13.30    7.80
 -11  -8   0   -2.90    5.80
 -11  -8   0    1.20    7.40
 -11  -8   0    5.20    7.40
  11  -9   0    1.20    7.00
 -11   9   0    7.70    9.70
 -11   9   0    8.30    9.20
  10  -9   0   20.70    8.50
 -10   9   0   26.50   10.80
 -10   9   0   16.60    9.20
   9  -9   0   10.70    6.60
  -9   9   0    9.70    8.30
   8  -9   0   19.00    7.00
  -8   9   0   12.80    7.90
  -8   9   0    8.80    7.10
   7  -9   0   72.99   12.80
   7  -9   0   64.49   12.20
   7  -9   0   65.89   11.50
  -7   9   0   50.99   12.80
   6  -9   0    7.80    6.40
   6  -9   0    5.70    5.50
   6  -9   0    3.40    5.00
  -6   9   0   14.90    7.50
   5  -9   0   40.70    8.20
   5  -9   0   28.60    7.10
   5  -9   0   35.70    8.30
  -5   9   0   15.10    7.60
   4  -9   0   48.80    8.70
   4  -9   0   56.99   10.70
   4  -9   0   45.00    9.60
   4  -9   0   35.60    9.00
  -4   9   0   41.90   10.40
   3  -9   0  149.39   23.30
   3  -9   0  187.98   23.60
   3  -9   0  167.38   22.90
   3  -9   0  228.18   26.30
  -3   9   0  163.78   23.90
  -3   9   0  195.68   23.80
   2  -9   0   16.80    5.90
   2  -9   0   14.40    5.30
   2  -9   0   21.80    7.10
   2  -9   0   29.90    7.10
  -2   9   0   16.70    6.40
  -2   9   0   32.20    7.40
   1  -9   0    2.30    3.40
   1  -9   0    5.80    4.40
   1  -9   0   10.00    5.70
  -1   9   0    5.90    4.70
  -1   9   0   11.10    4.70
  -1   9   0   12.00    5.00
   0  -9   0  136.89   18.50
   0  -9   0  154.38   18.90
   0  -9   0  133.89   17.70
   0   9   0  111.79   18.00
   0   9   0   97.79   16.90
   0   9   0  111.49   18.00
  -1  -9   0  111.29   16.60
  -1  -9   0   98.59   16.90
  -1  -9   0  127.89   17.30
   1   9   0  125.69   17.10
   1   9   0  135.29   18.20
   1   9   0   95.99   16.80
  -2  -9   0  145.89   18.60
  -2  -9   0  146.59   18.80
  -2  -9   0  126.49   18.30
  -2  -9   0  150.48   20.20
   2   9   0  137.09   18.70
   2   9   0  130.39   18.80
  -3  -9   0   26.30    6.60
  -3  -9   0   31.20    7.00
  -3  -9   0   30.20    7.90
  -3  -9   0   40.60    8.10
   3   9   0   35.50    7.40
   3   9   0   32.80    7.90
  -4  -9   0    2.80    4.60
  -4  -9   0   -2.50    4.00
  -4  -9   0    7.40    4.60
  -4  -9   0    1.80    4.30
   4   9   0    1.80    4.10
   4   9   0    2.70    4.50
  -5  -9   0    1.70    4.00
  -5  -9   0   -1.20    3.90
  -5  -9   0    0.10    4.40
  -5  -9   0    4.00    5.40
   5   9   0    2.60    4.50
  -6  -9   0   11.80    5.80
  -6  -9   0    9.70    5.50
  -6  -9   0    5.90    6.40
  -6  -9   0    0.70    5.00
  -7  -9   0    0.20    5.00
  -7  -9   0    1.80    7.50
  -7  -9   0    7.00    5.50
  -7  -9   0    5.20    5.00
  -8  -9   0   24.70   10.20
  -8  -9   0   27.00    8.10
  -8  -9   0   28.40    7.60
  -8  -9   0   30.40    7.70
  -9  -9   0   32.90    8.50
  -9  -9   0   25.30    8.10
  -9  -9   0   21.90    9.00
 -10  -9   0    2.90    7.00
 -10  -9   0   12.60    7.60
 -10  -9   0   -4.10    5.60
 -11  -9   0   -4.70    7.70
 -11  -9   0   -2.90    6.40
 -11  -9   0    1.60    7.20
  10 -10   0    1.00    6.50
 -10  10   0   -5.80    8.40
   9 -10   0   -2.60    5.90
   9 -10   0    3.70    6.80
  -9  10   0    9.80    8.10
   8 -10   0    0.00    6.00
   8 -10   0   -5.00    6.30
  -8  10   0    8.40    7.90
   7 -10   0    5.70    5.50
   7 -10   0    5.80    6.30
  -7  10   0    0.80    7.30
   6 -10   0   47.60    9.20
   6 -10   0   52.59   10.70
   6 -10   0   40.20   10.40
  -6  10   0   41.50   10.70
   5 -10   0   10.70    6.20
   5 -10   0    2.20    5.70
   5 -10   0   12.70    5.50
  -5  10   0    7.30    6.70
   4 -10   0   22.30    7.40
   4 -10   0   32.50    7.60
   4 -10   0   35.20    8.40
  -4  10   0   34.90    9.20
   3 -10   0   35.60    8.70
   3 -10   0   35.80    9.50
   3 -10   0   29.80    8.10
   3 -10   0   37.20    7.80
  -3  10   0   33.70    9.50
   2 -10   0   19.50    6.90
   2 -10   0   15.70    5.10
   2 -10   0   10.10    5.90
   2 -10   0   18.90    7.20
  -2  10   0   16.10    6.70
   1 -10   0    6.30    4.20
   1 -10   0    4.20    6.90
   1 -10   0    1.00    3.30
  -1  10   0    7.90    6.20
   0 -10   0   62.19   10.80
   0 -10   0   75.09   10.80
   0 -10   0   53.59   10.60
   0  10   0   52.79   11.10
   0  10   0   43.30    9.50
  -1 -10   0   34.00    8.10
  -1 -10   0   34.80    8.00
  -1 -10   0   36.40    8.50
   1  10   0   43.30    8.90
   1  10   0   40.70    9.40
  -2 -10   0   63.89   11.30
  -2 -10   0   74.19   11.90
  -2 -10   0   66.39   11.80
  -2 -10   0   69.09   12.30
   2  10   0   59.79   11.70
  -3 -10   0   14.80    5.30
  -3 -10   0   17.20    5.60
  -3 -10   0    7.20    6.30
  -3 -10   0   18.30    6.10
  -4 -10   0    0.70    4.50
  -4 -10   0    2.20    4.60
  -4 -10   0    4.50    5.00
  -4 -10   0    2.80    5.10
  -5 -10   0   52.19   11.80
  -5 -10   0   64.09   11.10
  -5 -10   0   48.70   10.20
  -5 -10   0   52.19   10.30
  -6 -10   0   11.90    5.90
  -6 -10   0   -0.80    4.80
  -6 -10   0   10.60    5.60
  -6 -10   0    6.40    6.80
  -7 -10   0   -4.90    5.40
  -7 -10   0    2.10    5.60
  -7 -10   0    1.40    5.90
  -7 -10   0    6.50    7.20
  -8 -10   0  -14.20    4.90
  -8 -10   0   -0.10    5.80
  -8 -10   0   -4.80    4.90
  -9 -10   0   33.40    8.90
  -9 -10   0   18.80    7.50
  -9 -10   0   12.50    6.50
 -10 -10   0   -6.40    7.20
 -10 -10   0    2.30    5.80
 -10 -10   0    8.50    7.40
   9 -11   0    0.00    6.30
   9 -11   0    0.40    6.60
  -9  11   0    6.30    8.30
   8 -11   0    5.60    6.30
  -8  11   0   24.90    9.60
   7 -11   0   -1.10    6.10
   7 -11   0   -1.20    5.70
  -7  11   0    4.60    7.50
   6 -11   0   18.50    7.30
   6 -11   0   21.00    7.10
  -6  11   0   10.40    8.60
   5 -11   0    3.00    5.00
   5 -11   0   -4.30    5.20
  -5  11   0   -4.70    5.20
   4 -11   0  145.39   18.50
   4 -11   0  121.19   19.50
   4 -11   0  110.69   18.50
  -4  11   0   93.79   19.00
   3 -11   0   84.19   14.10
   3 -11   0   82.89   13.10
   3 -11   0   69.89   13.50
  -3  11   0   69.09   14.50
   2 -11   0    2.20    5.80
   2 -11   0    1.90    6.10
   2 -11   0    1.80    4.00
   2 -11   0    0.40    4.50
  -2  11   0   -2.00    4.50
   1 -11   0   19.20    5.90
   1 -11   0   11.30    6.90
   1 -11   0    2.40    6.10
   1 -11   0    3.60    4.20
  -1  11   0    2.80    5.20
   0 -11   0  100.89   16.10
   0 -11   0  114.59   16.70
   0 -11   0   89.29   14.70
   0  11   0   91.59   14.90
   0  11   0   78.59   15.40
  -1 -11   0  205.88   26.60
  -1 -11   0  185.48   26.20
  -1 -11   0  225.18   29.90
   1  11   0  202.88   26.90
  -2 -11   0   44.30    8.60
  -2 -11   0   39.60    8.90
  -3 -11   0    9.60    6.00
  -3 -11   0   -2.30    4.00
  -4 -11   0    5.00    5.50
  -4 -11   0   -8.60    3.70
  -4 -11   0   -2.50    4.50
  -4 -11   0    2.40    6.10
  -5 -11   0   33.10    8.30
  -5 -11   0   53.19   10.70
  -5 -11   0   46.80   10.00
  -5 -11   0   32.90    9.40
  -6 -11   0    5.10    5.80
  -6 -11   0    4.80    5.10
  -6 -11   0   -4.50    6.40
  -6 -11   0   -7.50    4.70
  -7 -11   0   10.10    6.90
  -7 -11   0    2.20    6.00
  -7 -11   0    8.80    6.00
  -8 -11   0    5.40    6.90
  -8 -11   0   10.60    6.50
  -8 -11   0   18.50    7.50
  -9 -11   0    3.70    6.90
  -9 -11   0   11.20    7.10
  -9 -11   0   12.40    7.30
   8 -12   0    7.00    7.10
   8 -12   0    3.90    6.90
  -8  12   0   10.60    9.80
   7 -12   0    8.90    7.10
   7 -12   0    4.50    6.10
  -7  12   0   -7.80    6.60
   6 -12   0    4.90    5.80
  -6  12   0    7.40    7.60
   5 -12   0   -0.30    6.20
   5 -12   0   -1.70    4.60
  -5  12   0    0.70    7.50
   4 -12   0   12.90    6.30
   4 -12   0    9.80    6.00
  -4  12   0    5.60    7.40
   3 -12   0   87.59   15.60
   3 -12   0   84.59   14.20
  -3  12   0   83.39   15.70
   2 -12   0   15.90    7.20
   2 -12   0   14.00    6.30
  -2  12   0   33.10    9.10
   1 -12   0    5.20    4.90
   1 -12   0    1.50    5.10
  -1  12   0   -4.70    5.10
   0 -12   0    6.00    5.30
   0 -12   0    3.60    4.60
   0 -12   0   12.70    7.30
   0  12   0    5.20    6.80
  -1 -12   0  173.88   24.30
  -1 -12   0  175.38   23.90
  -1 -12   0  176.38   25.80
   1  12   0  196.48   26.60
  -2 -12   0   24.90    7.60
  -2 -12   0   32.80    8.60
  -2 -12   0   21.70    8.00
  -2 -12   0   27.20    7.60
  -3 -12   0    7.90    5.50
  -3 -12   0   12.00    6.50
  -3 -12   0    3.90    6.50
  -3 -12   0    9.10    5.30
  -4 -12   0   10.50    7.10
  -4 -12   0   13.50    6.60
  -4 -12   0   16.80    6.80
  -4 -12   0    6.40    5.50
  -5 -12   0    6.20    7.30
  -5 -12   0   -0.70    4.90
  -5 -12   0   -2.10    5.10
  -5 -12   0   -0.40    5.40
  -6 -12   0   39.20    9.30
  -6 -12   0   33.90    9.80
  -6 -12   0   37.10    9.80
  -7 -12   0   -5.00    5.50
  -7 -12   0   -2.60    5.60
  -7 -12   0   -5.20    5.90
  -8 -12   0   11.60    7.10
  -8 -12   0    6.90    7.00
  -8 -12   0   -1.20    6.40
   7 -13   0   19.20    9.70
   7 -13   0   14.20    7.60
  -7  13   0   36.40   12.50
   6 -13   0   -6.50    5.00
   6 -13   0    5.10    6.40
  -6  13   0    7.70    8.50
   5 -13   0    6.20    6.30
   5 -13   0   -0.10    5.30
  -5  13   0   -1.00    8.20
   4 -13   0   27.20    9.30
   4 -13   0   32.20    8.40
  -4  13   0   37.20   10.70
   3 -13   0   68.69   14.70
   3 -13   0   41.60   10.00
  -3  13   0   48.10   12.80
   2 -13   0   60.19   10.40
   2 -13   0   43.60   10.30
  -2  13   0   24.50    9.80
   1 -13   0  -10.30    4.70
   1 -13   0   -6.90    4.60
  -1  13   0   -7.80    5.30
   0 -13   0   87.79   15.80
   0 -13   0   84.29   14.40
   0  13   0   86.79   15.90
  -1 -13   0    9.50    5.70
  -1 -13   0    3.80    5.60
  -2 -13   0  159.08   20.80
  -2 -13   0  117.49   18.90
  -2 -13   0  102.79   17.90
  -3 -13   0    2.30    5.40
  -3 -13   0   -0.50    5.40
  -3 -13   0    5.60    5.00
  -4 -13   0   -9.60    4.80
  -4 -13   0    1.80    5.90
  -4 -13   0   -8.70    5.00
  -5 -13   0   24.00   10.60
  -5 -13   0   26.20    8.90
  -5 -13   0   44.00    9.00
  -6 -13   0    1.30    9.90
  -6 -13   0    9.60    6.70
  -6 -13   0   22.80    8.10
  -7 -13   0    1.10    6.60
  -7 -13   0   -2.00    6.40
  -7 -13   0    5.70    6.40
   5 -14   0   -3.10    5.90
   5 -14   0   -8.70    4.60
  -5  14   0   -1.40    8.00
   4 -14   0   48.20   11.20
   4 -14   0   25.10    8.50
  -4  14   0   19.20    9.40
   3 -14   0   22.60    7.10
   3 -14   0   16.40    8.20
  -3  14   0    9.30    8.10
   2 -14   0   36.00   10.90
   2 -14   0   32.60    9.50
  -2  14   0   56.49   13.10
   1 -14   0    1.10    5.90
   1 -14   0   -1.00    5.30
  -1  14   0   -1.10    7.80
   0 -14   0   -2.60    5.20
   0 -14   0    8.20    6.00
   0  14   0   22.10    8.40
  -1 -14   0  132.19   19.00
  -1 -14   0  102.39   18.20
  -1 -14   0  111.29   19.60
  -2 -14   0    2.70    6.00
  -2 -14   0   10.40    6.70
  -2 -14   0   15.40    6.90
  -3 -14   0    1.30    6.00
  -3 -14   0   -2.60    5.10
  -3 -14   0    7.30    7.10
  -4 -14   0    2.20    7.10
  -4 -14   0    1.90    6.70
  -4 -14   0    0.40    5.80
  -5 -14   0   26.30    9.20
  -5 -14   0   25.00    8.50
  -5 -14   0   28.00    9.00
   3 -15   0   45.60   10.90
   3 -15   0   37.20   11.30
   2 -15   0    0.80    7.30
   2 -15   0    7.70    7.30
  -2  15   0   -8.30    7.80
   1 -15   0    8.50    6.40
   1 -15   0   -2.80    6.90
  -1  15   0   -3.80    8.10
   0 -15   0   15.00    7.70
   0 -15   0   -0.10    5.70
   0  15   0   -2.10    7.40
  -1 -15   0   44.70   11.70
  -1 -15   0   64.19   16.70
  -1 -15   0   44.00   11.00
  -2 -15   0   -3.10    5.70
  -2 -15   0    3.80    6.70
  -2 -15   0   -1.60    5.30
  -3 -15   0    9.50    7.20
  -3 -15   0    6.10    6.70
  -3 -15   0   -2.90    5.70
  -2 -15   1   -6.00    5.60
  -2 -15   1   -3.60    5.50
  -2 -15   1    7.10    7.00
  -1 -15   1   32.30    9.10
  -1 -15   1   22.00    8.40
  -1 -15   1   36.70   10.20
   0 -15   1   23.00    9.00
   0 -15   1   15.10    7.90
  -1  15  -1    3.70    8.10
   1 -15   1    4.10    6.10
   1 -15   1  -10.40    5.80
  -2  15  -1   37.40   11.20
   2 -15   1    9.50    7.40
   2 -15   1   30.80    8.70
  -5 -14   1    5.60    7.10
  -5 -14   1    6.70    7.20
  -5 -14   1    3.00    6.30
  -4 -14   1   33.20    9.70
  -4 -14   1   31.90   10.00
  -4 -14   1   47.70    9.40
  -3 -14   1    9.40    5.90
  -3 -14   1   -2.60    5.30
  -3 -14   1   -1.10    6.30
  -2 -14   1    2.80    6.20
  -2 -14   1   -3.30    5.00
  -2 -14   1    0.90    5.50
  -1 -14   1   17.40    7.80
  -1 -14   1   13.10    6.30
  -1 -14   1   12.50    7.10
   0  14  -1   28.50    9.40
   0 -14   1   22.00    7.80
   0 -14   1   22.70    8.80
  -1  14  -1    8.50    7.70
   1 -14   1  -11.50    4.90
   1 -14   1   -3.50    5.20
  -2  14  -1   14.20    8.30
   2 -14   1   10.50    6.10
   2 -14   1   -4.90    6.10
  -3  14  -1   90.99   19.90
   3 -14   1  141.79   21.60
   3 -14   1  129.99   19.30
  -4  14  -1    1.70    7.10
   4 -14   1    9.30    6.50
   4 -14   1   -4.30    6.30
  -5  14  -1    9.30    9.10
   5 -14   1    5.80    5.90
   5 -14   1   16.60    8.40
  -6 -13   1    9.10    7.60
  -6 -13   1   21.70    7.40
  -6 -13   1   17.30    7.80
  -5 -13   1   54.69   13.10
  -5 -13   1   43.70   15.30
  -5 -13   1   46.80   10.00
  -5 -13   1   39.70   10.70
  -4 -13   1   30.50   10.90
  -4 -13   1   44.20   10.40
  -4 -13   1   35.20    9.10
  -4 -13   1   27.30    8.10
  -3 -13   1   51.89   11.50
  -3 -13   1   25.40    8.30
  -3 -13   1   38.10    9.10
  -3 -13   1   42.70   10.10
  -2 -13   1   11.30    6.90
  -2 -13   1    1.20    6.10
  -2 -13   1   -4.30    4.30
  -2 -13   1    7.80    5.40
  -1 -13   1  196.28   26.10
  -1 -13   1  192.28   26.20
  -1 -13   1  159.08   23.80
  -1 -13   1  186.68   27.10
   0  13  -1   15.10    7.40
   0 -13   1    1.10    7.50
   0 -13   1   -9.00    5.20
   0 -13   1    6.50    5.70
  -1  13  -1    5.60    8.10
   1 -13   1   25.40    8.10
   1 -13   1   26.90    7.00
  -2  13  -1    6.30    6.60
   2 -13   1    3.90    5.30
   2 -13   1    5.90    7.20
  -3  13  -1   53.99   11.90
   3 -13   1   49.20    9.80
   3 -13   1   20.10   13.60
  -4  13  -1   67.39   13.50
   4 -13   1   42.30   11.80
   4 -13   1   54.29   10.80
  -5  13  -1   -3.10    8.10
   5 -13   1    8.40    6.30
   5 -13   1    2.90    5.30
  -6  13  -1   18.30   10.00
   6 -13   1   12.70    6.80
   6 -13   1   24.20    8.60
  -7  13  -1    3.10    7.90
   7 -13   1   12.00    7.80
   7 -13   1   11.40    6.70
  -8 -12   1   -3.90    6.60
  -8 -12   1    0.90    7.20
  -8 -12   1    2.40    7.00
  -7 -12   1   16.80    7.10
  -7 -12   1    0.30    8.30
  -7 -12   1    2.60    6.40
  -6 -12   1    2.60    5.60
  -6 -12   1   -1.60    6.70
  -6 -12   1    0.70    6.70
  -6 -12   1   -0.40    6.70
  -5 -12   1   75.89   14.90
  -5 -12   1   82.99   14.60
  -5 -12   1   95.39   14.00
  -5 -12   1   76.49   14.90
  -4 -12   1   10.10    5.70
  -4 -12   1   21.00    7.40
  -4 -12   1   20.80    7.30
  -4 -12   1   12.90    6.60
  -3 -12   1   15.10    7.30
  -3 -12   1   16.80    8.10
  -3 -12   1   29.30    7.50
  -3 -12   1   25.80    7.80
  -2 -12   1    6.40    6.50
  -2 -12   1    3.90    4.90
  -2 -12   1    3.60    5.20
  -2 -12   1    0.10    5.30
  -1 -12   1   25.90    7.60
  -1 -12   1   10.60    6.70
  -1 -12   1    5.30    5.20
   0  12  -1   95.39   16.60
   0 -12   1   96.49   15.70
   0 -12   1   95.39   16.60
   0 -12   1  110.39   17.00
  -1  12  -1    4.20    6.10
   1 -12   1    8.70    5.10
   1 -12   1    0.30    5.30
   1 -12   1   -0.90    5.80
  -2  12  -1   -1.70    5.40
   2 -12   1   -3.10    5.40
   2 -12   1   13.10    5.50
  -3  12  -1   -9.90    4.50
   3 -12   1    3.90    4.70
   3 -12   1    8.40    5.80
  -4  12  -1  133.79   21.40
   4 -12   1  135.99   21.00
   4 -12   1  119.39   19.00
  -5  12  -1    6.50    7.60
   5 -12   1    5.00    5.40
   5 -12   1   14.00    6.90
  -6  12  -1   -2.40    6.30
   6 -12   1   -2.70    4.60
   6 -12   1    2.70    5.70
  -7  12  -1   36.00   10.50
   7 -12   1    7.40    6.10
   7 -12   1    4.80    6.60
  -8  12  -1    6.60    8.70
   8 -12   1    7.30    7.20
   8 -12   1   -3.30    6.00
  -9 -11   1  -15.10    9.00
  -9 -11   1   20.60    8.60
  -9 -11   1    4.80    7.40
  -8 -11   1    6.40    6.50
  -8 -11   1    4.00    6.50
  -8 -11   1    6.70    5.90
  -7 -11   1    1.90    6.10
  -7 -11   1    2.40    7.30
  -7 -11   1   -9.70    5.90
  -7 -11   1    4.40    6.40
  -6 -11   1   -1.80    5.60
  -6 -11   1    6.30    5.20
  -6 -11   1   -0.90    6.20
  -6 -11   1    4.90    6.10
  -5 -11   1   13.00    5.80
  -5 -11   1   24.40    8.40
  -5 -11   1   20.30    7.40
  -5 -11   1   17.10    7.50
  -4 -11   1   69.19   12.60
  -4 -11   1  108.29   15.00
  -4 -11   1   79.49   14.00
  -4 -11   1   84.69   14.70
  -3 -11   1   13.90    6.10
  -3 -11   1    6.20    5.60
  -3 -11   1    9.40    4.90
  -3 -11   1   19.00    6.60
  -2 -11   1   24.30    6.70
  -2 -11   1    6.70    5.70
  -2 -11   1   17.10    6.80
  -2 -11   1   25.60    6.30
   1  11  -1    7.50    7.20
  -1 -11   1   19.20    6.20
  -1 -11   1   21.30    6.40
  -1 -11   1   13.50    6.50
   0  11  -1   80.49   13.50
   0  11  -1   57.69   14.40
   0 -11   1   87.69   14.50
   0 -11   1   89.99   13.70
   0 -11   1   95.59   14.50
  -1  11  -1   -0.90    4.80
  -1  11  -1   -2.00    4.50
   1 -11   1   -2.80    3.90
   1 -11   1    9.10    6.20
   1 -11   1   -1.00    4.30
  -2  11  -1   61.89   12.70
   2 -11   1   80.59   13.30
   2 -11   1   57.99   11.20
   2 -11   1   76.29   13.60
   2 -11   1   73.89   12.80
  -3  11  -1  177.98   24.90
   3 -11   1  192.28   24.90
   3 -11   1  159.98   23.20
   3 -11   1  180.98   24.50
   3 -11   1  132.39   21.00
  -4  11  -1   13.10    8.00
   4 -11   1   33.00    8.80
   4 -11   1   27.30    8.50
   4 -11   1   39.60    7.80
  -5  11  -1    8.90    6.80
   5 -11   1   15.30    6.60
   5 -11   1   15.70    7.10
   5 -11   1   12.40    5.50
  -6  11  -1    3.50    7.00
   6 -11   1    5.60    5.80
   6 -11   1   -3.60    6.20
   6 -11   1   11.00    5.40
  -7  11  -1   77.09   14.70
   7 -11   1   70.39   13.10
   7 -11   1   45.30   10.80
   8 -11   1    7.50    6.70
   8 -11   1    6.40    6.20
  -9  11  -1    0.40    7.70
   9 -11   1    7.00    6.90
   9 -11   1   -0.80    6.00
 -10 -10   1    9.60    7.10
 -10 -10   1    7.40    8.00
 -10 -10   1    2.70    7.70
  -9 -10   1    9.30    6.60
  -9 -10   1    0.20    6.90
  -9 -10   1    4.30    7.60
  -8 -10   1   34.80   12.50
  -8 -10   1   38.30    9.00
  -8 -10   1   34.30    8.90
  -8 -10   1   24.30   13.90
  -7 -10   1   -7.00    6.90
  -7 -10   1   -1.90    5.80
  -7 -10   1    5.80    6.20
  -7 -10   1   -6.10    5.20
  -6 -10   1   10.90    6.50
  -6 -10   1   18.60    8.70
  -6 -10   1   -0.30    6.10
  -6 -10   1   14.10    6.20
  -5 -10   1    9.40    6.00
  -5 -10   1    8.20    6.00
  -5 -10   1    6.00    5.80
  -5 -10   1   16.60    5.60
  -4 -10   1   80.49   12.70
  -4 -10   1   68.59   11.10
  -4 -10   1   59.79   11.70
  -4 -10   1   66.59   12.20
  -3 -10   1   21.40    7.40
  -3 -10   1   19.90    6.30
  -3 -10   1   33.80    7.90
  -3 -10   1   30.40    7.10
   2  10  -1   -4.60    3.60
  -2 -10   1    3.40    4.10
  -2 -10   1   -2.60    3.80
  -2 -10   1    3.30    3.80
   1  10  -1   31.00    7.50
   1  10  -1   18.70    7.30
  -1 -10   1   29.20    7.30
  -1 -10   1   46.60    8.20
  -1 -10   1   33.20    7.90
   0  10  -1    5.80    5.70
   0  10  -1    8.60    5.00
   0 -10   1    9.60    4.20
   0 -10   1    5.20    4.80
   0 -10   1    7.10    5.20
  -1  10  -1    1.40    4.60
  -1  10  -1    6.80    4.90
   1 -10   1    2.60    6.10
   1 -10   1   -1.60    4.80
   1 -10   1    2.80    4.60
   2 -10   1    4.30    4.50
   2 -10   1   -4.50    6.30
   2 -10   1    8.30    5.70
   2 -10   1   -5.00    3.10
  -3  10  -1   -2.10    5.20
   3 -10   1    7.20    5.90
   3 -10   1    2.20    4.90
   3 -10   1    1.80    3.30
   3 -10   1   -4.00    5.70
  -4  10  -1   -0.40    4.30
   4 -10   1    4.40    8.20
   4 -10   1    2.70    6.60
   4 -10   1    4.60    5.60
   4 -10   1    7.50    4.90
  -5  10  -1   24.90    8.60
   5 -10   1   15.50    5.80
   5 -10   1   15.10    7.10
   5 -10   1   37.20    7.80
  -6  10  -1   38.90   11.20
   6 -10   1   55.49   11.00
   6 -10   1   48.30   10.60
   6 -10   1   50.79    9.60
  -7  10  -1   85.69   15.00
   7 -10   1   52.99   10.40
   7 -10   1   68.59   12.80
   7 -10   1   45.80   11.40
  -8  10  -1   23.60    9.90
   8 -10   1   30.60    9.10
   8 -10   1   37.70    8.20
  -9  10  -1    4.90    7.70
   9 -10   1    1.00    6.40
   9 -10   1    7.40    6.50
 -10  10  -1   24.10    9.50
  10 -10   1    4.80    6.90
 -10  -9   1   -1.10    7.60
 -10  -9   1   -2.20    6.00
 -10  -9   1    2.40    7.10
  -9  -9   1   -0.80    6.00
  -9  -9   1    4.10    6.90
  -9  -9   1    8.00    6.50
  -8  -9   1   43.10    8.90
  -8  -9   1   38.70    9.70
  -8  -9   1   24.50    7.60
  -8  -9   1   20.90   10.00
  -7  -9   1    9.00    5.80
  -7  -9   1   10.40    8.50
  -7  -9   1   11.70    6.50
  -7  -9   1    4.50    6.10
  -6  -9   1   16.90    7.40
  -6  -9   1   32.60    8.70
  -6  -9   1   36.50    7.40
  -6  -9   1   43.50    8.70
  -5  -9   1   23.10    6.30
  -5  -9   1   21.60    6.90
  -5  -9   1   45.00    8.50
  -5  -9   1   17.90    7.10
  -4  -9   1   -2.60    4.50
  -4  -9   1   -1.50    3.70
  -4  -9   1    1.50    4.00
  -4  -9   1   -5.50    3.70
   3   9  -1   65.19   11.50
   3   9  -1   56.59   11.20
  -3  -9   1   62.19   11.30
  -3  -9   1   77.19   10.90
  -3  -9   1   83.89   12.60
  -3  -9   1   70.99   11.70
   2   9  -1    0.00    3.60
   2   9  -1    2.20    4.20
  -2  -9   1   -0.30    3.40
  -2  -9   1    2.00    3.60
  -2  -9   1   -2.30    3.50
  -2  -9   1    4.30    4.10
   1   9  -1   79.09   12.10
   1   9  -1   84.69   12.90
   1   9  -1   87.59   12.40
  -1  -9   1   67.99   11.40
  -1  -9   1   61.89   11.90
  -1  -9   1   55.29   11.10
   0   9  -1  147.89   20.00
   0   9  -1  159.58   20.30
   0   9  -1  151.78   20.30
   0  -9   1  136.19   20.00
   0  -9   1  164.68   22.00
   0  -9   1  150.88   19.70
  -1   9  -1   65.79   11.00
  -1   9  -1   71.59   12.10
  -1   9  -1   56.29   11.60
   1  -9   1   74.19   11.20
   1  -9   1   71.19   12.00
   1  -9   1   74.39   11.90
  -2   9  -1   17.10    5.80
  -2   9  -1    3.70    5.30
   2  -9   1    9.70    5.60
   2  -9   1    6.30    4.60
   2  -9   1   18.80    5.10
   2  -9   1   18.20    6.30
  -3   9  -1    2.00    5.20
  -3   9  -1    8.60    6.00
   3  -9   1   10.90    5.30
   3  -9   1    8.30    4.00
   3  -9   1   13.30    6.80
   3  -9   1   12.30    4.90
  -4   9  -1  377.76   47.40
   4  -9   1  353.06   47.10
   4  -9   1  395.66   46.40
   4  -9   1  374.96   46.70
   4  -9   1  370.46   47.10
  -5   9  -1   -4.40    5.30
   5  -9   1    6.70    4.60
   5  -9   1    2.50    4.30
   5  -9   1   -1.80    6.00
   5  -9   1    0.10    4.60
  -6   9  -1    3.80    6.40
   6  -9   1    0.00    5.50
   6  -9   1    0.00    4.90
   6  -9   1    3.60    5.10
  -7   9  -1   42.90   10.40
   7  -9   1   37.50    8.30
   7  -9   1   31.40    8.90
   7  -9   1   55.79   10.30
  -8   9  -1    3.20    7.20
   8  -9   1  -11.40    5.30
   8  -9   1    4.00    5.10
   8  -9   1   11.30    5.60
  -9   9  -1    3.70    7.60
  -9   9  -1   11.40    7.00
   9  -9   1   -5.90    5.20
 -10   9  -1   -7.50    6.70
 -10   9  -1    5.40    8.30
  10  -9   1    7.20    6.60
 -11   9  -1   11.40    9.00
 -11   9  -1   23.00    9.90
  11  -9   1   20.70    8.00
 -11  -8   1   14.70    7.30
 -11  -8   1    7.80    8.20
 -11  -8   1    1.10    7.60
 -10  -8   1    5.60    6.70
 -10  -8   1    0.40    6.70
 -10  -8   1   -3.00    6.70
  -9  -8   1   13.70    7.50
  -9  -8   1   12.00    6.80
  -9  -8   1   21.90    7.90
   8   8  -1   11.00    7.00
  -8  -8   1   13.50    5.50
  -8  -8   1   13.80    6.50
  -8  -8   1   13.70    7.00
   7   8  -1   29.20    8.30
  -7  -8   1   66.29   10.80
  -7  -8   1   49.60    8.80
  -7  -8   1   26.80    8.00
   6   8  -1   21.10    6.90
  -6  -8   1   35.30    7.80
  -6  -8   1   29.60    6.70
  -6  -8   1   27.70    7.20
  -6  -8   1   30.00    8.20
   5   8  -1   86.79   14.30
  -5  -8   1   96.99   14.80
  -5  -8   1   89.09   13.40
  -5  -8   1   86.09   14.50
  -5  -8   1   98.89   14.60
   4   8  -1  146.99   21.70
   4   8  -1  174.38   21.80
  -4  -8   1  152.88   21.80
  -4  -8   1  173.98   21.80
  -4  -8   1  175.08   21.20
  -4  -8   1  159.78   21.80
   3   8  -1   -3.00    3.40
  -3  -8   1    7.20    3.60
  -3  -8   1    1.90    4.00
  -3  -8   1    7.30    4.50
  -3  -8   1    9.80    3.90
   2   8  -1   47.20    9.60
   2   8  -1   65.29   12.90
  -2  -8   1   62.99   10.60
  -2  -8   1   61.09    9.60
  -2  -8   1   66.99   10.30
  -2  -8   1   64.39   10.20
   1   8  -1   10.00    4.70
   1   8  -1   13.90    4.20
  -1  -8   1    6.40    3.50
  -1  -8   1   35.80    8.20
  -1  -8   1    4.60    3.80
   0   8  -1  141.09   19.10
   0   8  -1  128.59   18.60
   0   8  -1  184.48   22.60
   0  -8   1  148.79   18.90
   0  -8   1  142.49   18.70
  -1   8  -1   24.50    6.80
  -1   8  -1   30.90    6.00
   1  -8   1   29.30    5.90
   1  -8   1   23.00    6.50
   1  -8   1   35.50    8.70
  -2   8  -1    3.50    4.60
  -2   8  -1    8.90    5.20
   2  -8   1    9.20    4.90
   2  -8   1   11.50    4.80
   2  -8   1    4.30    3.30
   2  -8   1    4.10    4.20
  -3   8  -1   61.39   11.30
  -3   8  -1   78.99   12.30
   3  -8   1   66.99   10.20
   3  -8   1   56.19   11.40
   3  -8   1   56.09   10.90
   3  -8   1   67.39   10.80
  -4   8  -1   54.19   10.20
  -4   8  -1   75.59   14.60
   4  -8   1   57.09   10.80
   4  -8   1   53.89    8.80
   4  -8   1   45.30    9.60
   4  -8   1   38.60    9.10
  -5   8  -1  140.19   22.40
  -5   8  -1  148.09   20.70
   5  -8   1  159.78   20.00
   5  -8   1  170.38   22.70
   5  -8   1  170.58   22.50
   5  -8   1  137.49   20.10
  -6   8  -1    9.10    6.20
  -6   8  -1   12.20    6.30
   6  -8   1   -1.60    3.80
   6  -8   1   10.10    4.70
   6  -8   1    0.50    4.60
  -7   8  -1   52.19   10.80
   7  -8   1   42.60   10.00
   7  -8   1   44.50    9.70
  -8   8  -1   20.70    8.00
  -8   8  -1    1.80    6.10
   8  -8   1    5.20    5.40
   8  -8   1   -4.00    5.80
  -9   8  -1   10.90    7.50
  -9   8  -1   48.50   10.40
   9  -8   1    9.50    7.00
 -10   8  -1    0.00    7.00
  10  -8   1    3.60    5.90
 -11   8  -1   32.90   10.80
 -11   8  -1    9.40    8.50
  11  -8   1   22.10    8.40
 -11  -7   1    1.70    7.30
 -11  -7   1   -1.90    6.90
 -11  -7   1   -2.50    7.30
 -10  -7   1    3.90    6.90
 -10  -7   1   20.30   10.30
 -10  -7   1    1.90    5.90
  -9  -7   1    8.40    6.90
  -9  -7   1    7.90    5.90
  -9  -7   1   15.10    7.60
   8   7  -1   16.80    7.00
  -8  -7   1   18.30    7.40
  -8  -7   1   11.40    6.40
  -8  -7   1   11.50    5.80
   7   7  -1   -0.10    4.90
   7   7  -1   -2.90    4.30
  -7  -7   1    0.60    4.50
  -7  -7   1    2.10    4.20
  -7  -7   1   -7.90    4.40
   6   7  -1   15.70    6.20
   6   7  -1   19.70    6.50
  -6  -7   1   29.50    6.90
  -6  -7   1   39.80    7.00
  -6  -7   1   27.50    6.90
   5   7  -1   -2.10    3.30
  -5  -7   1    2.10    3.90
  -5  -7   1    3.60    4.20
  -5  -7   1    0.40    3.90
   4   7  -1  121.49   17.50
   4   7  -1  129.69   21.30
  -4  -7   1  103.29   15.80
  -4  -7   1  132.19   17.90
  -4  -7   1  133.39   17.80
  -4  -7   1  128.19   16.90
   3   7  -1  129.79   17.20
   3   7  -1  120.09   17.20
  -3  -7   1  141.39   17.30
  -3  -7   1  135.39   17.30
  -3  -7   1  148.49   17.40
  -3  -7   1  109.29   16.50
   2   7  -1   63.89   10.50
   2   7  -1   57.19   10.60
  -2  -7   1   64.99   10.80
  -2  -7   1   68.09   10.60
  -2  -7   1   76.79   10.70
  -2  -7   1   65.19    9.90
   1   7  -1   89.99   13.00
   1   7  -1   71.09   12.20
   1   7  -1   95.89   12.60
  -1  -7   1   66.59   12.20
  -1  -7   1   83.79   12.30
  -1  -7   1   89.29   12.30
   0   7  -1   33.30    7.30
   0   7  -1   28.00    6.50
   0   7  -1   40.80    7.70
   0  -7   1   42.80    7.60
   0  -7   1   34.40    7.10
   0  -7   1   38.60    6.80
  -1   7  -1   10.00    5.40
  -1   7  -1   22.90    5.90
  -1   7  -1   14.50    4.40
   1  -7   1   18.20    5.40
   1  -7   1   10.50    5.30
   1  -7   1   17.40    4.40
  -2   7  -1   44.00    9.20
  -2   7  -1   38.00    8.70
   2  -7   1   53.69    9.40
   2  -7   1   71.69    9.30
   2  -7   1   70.59   10.40
   2  -7   1   63.39   10.10
  -3   7  -1  113.19   16.40
  -3   7  -1  105.99   16.30
   3  -7   1  115.09   16.40
   3  -7   1  123.89   16.60
   3  -7   1   92.89   14.30
   3  -7   1  125.59   15.80
  -4   7  -1    3.30    4.30
  -4   7  -1    3.00    4.20
   4  -7   1    8.70    5.60
   4  -7   1   -2.00    3.20
   4  -7   1    6.40    4.10
   4  -7   1    1.50    3.20
  -5   7  -1  112.79   17.30
   5  -7   1  119.09   17.40
   5  -7   1   94.49   14.80
   5  -7   1   99.39   14.40
  -6   7  -1    3.00    5.70
  -6   7  -1    1.60    4.60
  -6   7  -1    5.40    4.60
   6  -7   1    4.00    4.50
   6  -7   1   -2.90    5.60
   6  -7   1    0.90    4.20
  -7   7  -1   38.50    9.20
  -7   7  -1   54.29   11.10
  -7   7  -1   43.90    9.40
   7  -7   1   51.99    9.70
   7  -7   1   46.60    9.30
  -8   7  -1   31.90    9.40
  -8   7  -1   29.10    8.40
   8  -7   1   19.50    7.40
   8  -7   1   44.10    8.70
  -9   7  -1   -4.90    5.90
  -9   7  -1    4.10    6.20
   9  -7   1    8.10    6.30
   9  -7   1    5.10    5.40
 -10   7  -1    1.60    6.70
 -10   7  -1    3.70    7.10
  10  -7   1    3.90    5.80
 -11   7  -1   -6.10    7.10
 -11   7  -1   -4.70    6.90
  11  -7   1   -1.70    5.90
 -12   7  -1    8.30    8.50
 -12   7  -1   23.90   10.00
  12  -7   1   25.50    8.60
 -12  -6   1    5.70    7.20
 -12  -6   1   -8.70    6.70
 -12  -6   1    3.60    8.00
 -11  -6   1   -3.30    6.40
 -11  -6   1    2.20    7.60
 -11  -6   1    6.50    6.20
 -10  -6   1   13.00    7.20
 -10  -6   1   17.90    7.10
 -10  -6   1   -2.00    5.50
   9   6  -1   -7.90    5.80
  -9  -6   1    2.50    5.50
  -9  -6   1    1.90    4.70
  -9  -6   1   -1.20    5.90
   8   6  -1   45.90    8.60
   8   6  -1   24.60    7.80
  -8  -6   1   35.10    8.60
  -8  -6   1   46.00    8.80
  -8  -6   1   39.30    8.60
   7   6  -1    0.00    4.40
   7   6  -1   -0.20    4.40
  -7  -6   1   -3.00    4.80
  -7  -6   1   10.30    4.50
  -7  -6   1    9.90    5.30
   6   6  -1   -1.60    3.70
   6   6  -1   -4.00    3.80
   6   6  -1   -0.20    3.70
  -6  -6   1   -1.60    3.80
  -6  -6   1   -7.50    3.70
  -6  -6   1    4.00    3.90
   5   6  -1  139.89   20.30
   5   6  -1  159.48   20.20
   5   6  -1  161.28   20.30
  -5  -6   1  154.38   20.50
  -5  -6   1  157.68   20.40
  -5  -6   1  157.08   20.00
   4   6  -1   45.70    8.70
   4   6  -1   55.09    9.30
  -4  -6   1   56.99    8.70
  -4  -6   1   51.99    9.10
  -4  -6   1   52.79    9.20
   3   6  -1  114.59   16.00
   3   6  -1  125.49   16.10
  -3  -6   1  118.69   16.20
  -3  -6   1  118.39   16.00
  -3  -6   1  121.39   15.60
  -3  -6   1  123.69   16.10
   2   6  -1    7.10    4.10
   2   6  -1    4.60    3.20
  -2  -6   1    2.90    3.50
  -2  -6   1    1.00    3.40
  -2  -6   1   13.40    3.50
   1   6  -1  621.44   71.09
   1   6  -1  569.34   70.69
   1   6  -1  596.14   70.79
  -1  -6   1  580.34   70.69
  -1  -6   1  582.54   70.79
  -1  -6   1  559.44   70.89
   0   6  -1  212.28   27.80
   0   6  -1  230.88   27.70
   0   6  -1  231.68   28.10
   0  -6   1  213.98   27.60
   0  -6   1  226.98   28.00
   0  -6   1  221.78   28.20
  -1   6  -1  375.96   48.80
  -1   6  -1  401.06   48.90
  -1   6  -1  396.26   48.50
   1  -6   1  413.26   48.50
   1  -6   1  412.36   48.90
   1  -6   1  390.66   48.70
  -2   6  -1   15.00    4.80
  -2   6  -1   20.20    5.30
   2  -6   1   18.50    4.80
   2  -6   1   23.00    4.50
   2  -6   1   19.80    5.70
   2  -6   1   12.90    4.80
  -3   6  -1  112.79   15.80
  -3   6  -1   80.39   14.60
   3  -6   1  107.49   15.30
   3  -6   1   96.29   14.00
   3  -6   1  118.19   14.90
   3  -6   1  114.39   15.40
  -4   6  -1  264.07   32.20
  -4   6  -1  249.08   32.30
   4  -6   1  254.07   32.40
   4  -6   1  266.57   31.80
   4  -6   1  267.97   32.20
   4  -6   1  237.68   31.70
  -5   6  -1   -4.00    3.70
  -5   6  -1   12.20    5.20
  -5   6  -1    2.00    4.30
   5  -6   1   -0.70    4.70
   5  -6   1    8.00    4.30
   5  -6   1    6.90    4.40
  -6   6  -1    3.90    4.70
  -6   6  -1    2.90    3.80
  -6   6  -1   -5.00    4.10
   6  -6   1    6.30    4.40
   6  -6   1    3.90    4.10
   6  -6   1   -0.50    5.60
  -7   6  -1    5.60    8.20
  -7   6  -1    0.80    5.20
  -7   6  -1    4.40    5.10
   7  -6   1    5.70    4.50
   7  -6   1    6.20    5.00
   7  -6   1   11.40    6.90
  -8   6  -1   95.79   16.80
  -8   6  -1  105.59   15.90
  -8   6  -1   78.49   18.40
   8  -6   1  109.49   15.90
   8  -6   1  112.09   16.00
  -9   6  -1   -5.80    4.70
  -9   6  -1   11.70    6.20
  -9   6  -1    5.30    7.00
   9  -6   1    6.40    6.10
   9  -6   1    7.60    5.10
 -10   6  -1   27.00    8.00
 -10   6  -1   14.30    8.80
  10  -6   1    5.90    5.60
 -11   6  -1   34.80   10.00
  11  -6   1   26.60    8.30
 -12   6  -1   -4.50    7.60
 -12   6  -1   10.70    8.00
  12  -6   1    8.20    6.40
 -12  -5   1    8.80    8.40
 -12  -5   1   13.20    8.40
 -12  -5   1   20.00    8.30
 -11  -5   1    2.60    6.90
 -11  -5   1   -5.00    6.20
 -11  -5   1   -0.90    7.00
 -10  -5   1    1.30    6.20
 -10  -5   1   -3.30    5.40
 -10  -5   1    2.40    6.60
   9   5  -1   68.89   13.50
   9   5  -1   85.19   13.30
  -9  -5   1   94.29   14.10
  -9  -5   1   66.99   13.10
  -9  -5   1   88.49   14.10
   8   5  -1   -1.50    4.80
   8   5  -1   -0.20    4.80
  -8  -5   1    5.20    5.70
  -8  -5   1    3.50    4.20
  -8  -5   1   -0.50    5.00
   7   5  -1   84.79   13.10
   7   5  -1   79.19   12.90
  -7  -5   1   83.89   13.30
  -7  -5   1  106.99   14.30
  -7  -5   1   76.79   13.30
   6   5  -1    7.10    4.10
   6   5  -1    3.00    3.70
   6   5  -1    2.50    3.90
  -6  -5   1    5.20    4.90
  -6  -5   1    4.10    3.80
  -6  -5   1    1.20    3.80
   5   5  -1  243.28   30.00
   5   5  -1  230.28   29.70
   5   5  -1  244.78   29.90
  -5  -5   1  253.87   30.20
  -5  -5   1  247.18   29.70
  -5  -5   1  211.68   29.70
   4   5  -1  150.58   17.00
   4   5  -1  118.69   17.20
   4   5  -1  118.99   17.10
  -4  -5   1  135.69   17.20
  -4  -5   1  132.79   17.30
  -4  -5   1  126.19   16.80
   3   5  -1  130.29   16.20
   3   5  -1  123.09   16.20
  -3  -5   1  125.49   15.80
  -3  -5   1  114.69   16.30
  -3  -5   1  125.49   16.40
   2   5  -1    9.50    3.50
   2   5  -1   13.50    4.00
  -2  -5   1    8.10    4.00
  -2  -5   1    9.20    3.90
  -2  -5   1    8.40    3.60
  -2  -5   1    2.10    2.90
   1   5  -1   20.70    5.20
   1   5  -1   29.80    5.10
  -1  -5   1   24.20    5.10
  -1  -5   1   26.50    5.50
  -1  -5   1   20.70    5.10
   0   5  -1  268.37   33.50
   0   5  -1  280.87   33.40
   0   5  -1  283.27   33.40
   0  -5   1  269.37   33.30
   0  -5   1  268.67   33.20
   0  -5   1  256.27   33.50
  -1   5  -1   10.30    3.50
  -1   5  -1    7.80    3.60
  -1   5  -1   15.00    4.60
   1  -5   1   17.80    3.80
   1  -5   1   11.30    4.20
   1  -5   1   14.50    4.70
  -2   5  -1   72.19   11.90
  -2   5  -1   97.39   12.40
   2  -5   1   69.49   10.90
   2  -5   1   86.79   12.10
   2  -5   1   71.49   11.70
   2  -5   1   92.19   11.70
  -3   5  -1   42.20    8.00
  -3   5  -1   44.20    7.80
   3  -5   1   47.40    9.40
   3  -5   1   34.70    6.50
   3  -5   1   51.49    8.40
   3  -5   1   42.80    7.50
  -4   5  -1   58.69   10.40
  -4   5  -1   58.99    9.70
  -4   5  -1   74.99   10.50
   4  -5   1   52.09    9.20
   4  -5   1   77.89   10.30
   4  -5   1   61.19   10.50
  -5   5  -1  127.69   16.50
  -5   5  -1  106.89   14.50
  -5   5  -1   97.99   14.70
   5  -5   1  114.79   15.90
   5  -5   1   98.09   14.20
   5  -5   1  102.99   14.30
  -6   5  -1   19.40    8.40
  -6   5  -1   12.90    4.90
  -6   5  -1    8.70    4.60
   6  -5   1   17.40    6.40
   6  -5   1   15.10    4.70
   6  -5   1   13.20    4.80
  -7   5  -1  141.49   19.90
  -7   5  -1  153.08   19.00
  -7   5  -1  118.39   18.40
   7  -5   1  113.29   17.90
   7  -5   1  131.19   19.30
   7  -5   1  131.99   17.50
  -8   5  -1   -3.20    4.50
  -8   5  -1   -0.20    4.30
  -8   5  -1    9.80    5.90
   8  -5   1   -0.30    4.70
   8  -5   1    2.60    5.70
  -9   5  -1   30.50    7.60
  -9   5  -1   31.80    8.70
   9  -5   1   21.60    6.80
   9  -5   1    9.10    6.40
   9  -5   1   16.60    6.70
 -10   5  -1   -3.40    5.90
 -10   5  -1   -5.10    5.50
  10  -5   1    2.80    5.10
  10  -5   1   -0.70    5.40
 -11   5  -1   41.50   10.10
 -11   5  -1   19.20   10.00
  11  -5   1   41.80    9.20
 -12   5  -1   15.10    8.80
 -12   5  -1    8.10    8.90
  12  -5   1   34.60    8.90
 -13   5  -1   -0.50    7.80
 -13   5  -1    3.50    8.30
  13  -5   1    8.00    6.50
 -12  -4   1    6.20    7.10
 -12  -4   1   -6.60    6.10
 -12  -4   1   -6.40    7.40
 -11  -4   1  -10.70    5.90
 -11  -4   1   -4.40    6.30
 -11  -4   1   12.00    7.50
  10   4  -1   -0.60    5.70
 -10  -4   1   19.10    7.80
 -10  -4   1    4.60    5.80
 -10  -4   1   -2.20    6.30
   9   4  -1   24.90    7.20
   9   4  -1   25.90    8.10
  -9  -4   1   33.70    8.60
  -9  -4   1   28.30    8.40
  -9  -4   1   26.50    7.40
   8   4  -1   54.19   11.40
   8   4  -1   62.79   10.70
  -8  -4   1   35.70   12.70
  -8  -4   1   68.79   11.50
  -8  -4   1   69.19   10.90
   7   4  -1   13.80    5.40
   7   4  -1   21.40    6.00
   7   4  -1   25.00    6.30
  -7  -4   1   21.80    5.80
  -7  -4   1   31.80    7.30
  -7  -4   1   32.30    6.60
   6   4  -1   13.10    4.60
   6   4  -1    5.10    5.90
   6   4  -1    7.80    4.30
  -6  -4   1    9.80    4.80
  -6  -4   1   13.10    5.10
  -6  -4   1   13.60    5.00
   5   4  -1    1.20    2.90
   5   4  -1    2.40    3.40
   5   4  -1   -2.90    3.00
  -5  -4   1    2.20    3.40
  -5  -4   1    1.20    3.50
  -5  -4   1    3.50    3.60
   4   4  -1  133.69   16.40
   4   4  -1  126.99   16.20
   4   4  -1  121.19   16.10
  -4  -4   1  124.69   16.30
  -4  -4   1  117.39   16.10
  -4  -4   1  121.29   16.40
   3   4  -1   55.59    9.40
   3   4  -1   60.79    9.60
   3   4  -1   61.09    9.30
  -3  -4   1   65.79    9.70
  -3  -4   1   68.49    9.20
  -3  -4   1   73.69   10.00
   2   4  -1   90.79   12.90
   2   4  -1  102.69   12.90
  -2  -4   1   98.59   12.50
  -2  -4   1  111.09   13.10
  -2  -4   1   99.69   13.00
  -2  -4   1   85.09   12.90
   1   4  -1   93.89   10.30
   1   4  -1   68.99   10.00
  -1  -4   1   70.49    9.70
  -1  -4   1   70.29   10.10
  -1  -4   1   58.09    9.00
  -1  -4   1   60.99    9.50
   0   4  -1  104.49   13.10
   0   4  -1  107.59   13.40
   0   4  -1  104.69   13.20
   0  -4   1   93.39   12.90
   0  -4   1  101.99   13.20
   0  -4   1   98.19   13.30
  -1   4  -1   -1.70    2.70
  -1   4  -1   -1.40    2.60
  -1   4  -1    2.90    3.10
   1  -4   1    1.30    3.10
   1  -4   1    3.40    2.80
   1  -4   1    6.00    2.20
  -2   4  -1   15.20    4.20
  -2   4  -1    8.40    4.00
   2  -4   1   11.30    3.30
   2  -4   1   10.80    4.00
   2  -4   1   14.40    3.70
   2  -4   1   16.10    4.90
  -3   4  -1   32.10    6.60
  -3   4  -1   28.30    6.10
  -3   4  -1   29.80    5.90
   3  -4   1   33.30    5.70
   3  -4   1   27.30    6.00
   3  -4   1   43.70    7.20
  -4   4  -1   18.80    4.90
  -4   4  -1   18.20    5.00
  -4   4  -1   21.00    5.90
   4  -4   1   25.90    6.10
   4  -4   1   24.10    5.10
  -5   4  -1  121.59   15.10
  -5   4  -1   96.39   14.10
  -5   4  -1  105.09   15.60
   5  -4   1   94.39   13.90
   5  -4   1  152.88   16.60
   5  -4   1   97.89   14.00
  -6   4  -1    5.30    4.20
  -6   4  -1    1.20    3.70
  -6   4  -1    6.40    4.70
   6  -4   1    2.50    3.50
   6  -4   1    4.70    3.40
   6  -4   1   -8.90    4.00
  -7   4  -1   59.39   12.40
  -7   4  -1   89.59   12.10
  -7   4  -1   63.09   11.60
   7  -4   1   73.19   11.40
   7  -4   1   84.39   13.30
   7  -4   1   79.89   11.80
  -8   4  -1   96.49   14.30
  -8   4  -1   85.79   12.70
   8  -4   1   94.39   12.70
   8  -4   1   83.69   12.20
   8  -4   1   44.60   11.30
   8  -4   1   76.49   15.00
  -9   4  -1   -3.40    5.70
  -9   4  -1   -4.10    5.70
   9  -4   1   -3.30    4.40
   9  -4   1   -2.70    4.70
   9  -4   1   -0.20    5.10
 -10   4  -1   17.60    6.40
 -10   4  -1   -7.50    5.30
  10  -4   1    1.10    4.70
  10  -4   1    8.80    6.40
 -11   4  -1    2.90    6.50
 -11   4  -1    6.20    7.10
  11  -4   1   -1.40    4.70
 -12   4  -1   51.19   12.10
 -12   4  -1   59.19   13.20
  12  -4   1   44.40   10.20
 -13   4  -1    4.40    8.20
 -13   4  -1    9.30    8.70
  13  -4   1    3.00    6.20
 -13  -3   1    9.60    8.20
 -13  -3   1   12.30    9.30
 -12  -3   1   -1.10    8.30
 -12  -3   1   -0.40    6.80
 -12  -3   1   -5.00    6.50
 -11  -3   1   -1.70    5.90
 -11  -3   1   14.50    8.10
 -11  -3   1   -8.30    5.80
  10   3  -1   -2.30    5.50
 -10  -3   1    3.20    6.00
 -10  -3   1    0.70    5.10
 -10  -3   1    1.00    5.70
   9   3  -1  -10.10    4.80
   9   3  -1    5.50    5.10
  -9  -3   1   11.70    5.60
  -9  -3   1   10.20    6.40
  -9  -3   1    3.80    5.90
   8   3  -1   37.80    8.40
   8   3  -1   27.30    7.30
  -8  -3   1   51.79    9.00
  -8  -3   1   37.90    8.40
  -8  -3   1   34.20    7.80
   7   3  -1   31.10    7.70
   7   3  -1   33.90    8.10
   7   3  -1   45.70    8.90
  -7  -3   1   57.99    9.00
  -7  -3   1   67.09    9.80
  -7  -3   1   48.90    8.70
   6   3  -1   71.79   11.30
   6   3  -1   62.19   11.00
   6   3  -1   77.19   11.50
  -6  -3   1   97.19   11.90
  -6  -3   1   67.09   11.50
  -6  -3   1   72.59   11.30
   5   3  -1   21.90    5.20
   5   3  -1   23.60    5.40
   5   3  -1   17.40    5.00
  -5  -3   1   25.00    5.80
  -5  -3   1   22.70    5.20
  -5  -3   1   18.40    5.20
   4   3  -1    6.20    3.40
   4   3  -1    0.90    3.10
   4   3  -1    7.40    3.60
  -4  -3   1    3.40    3.30
  -4  -3   1    6.50    3.70
  -4  -3   1    8.50    3.50
   3   3  -1   38.70    6.80
   3   3  -1   44.80    6.70
   3   3  -1   38.60    7.00
  -3  -3   1   48.20    6.80
  -3  -3   1   41.20    7.00
  -3  -3   1   43.30    7.10
   2   3  -1   11.00    3.40
   2   3  -1   10.70    4.10
  -2  -3   1   16.80    4.00
  -2  -3   1   14.90    3.30
  -2  -3   1   18.10    4.30
   1   3  -1  303.87   37.50
   1   3  -1  291.27   37.60
  -1  -3   1  318.07   37.50
  -1  -3   1  304.47   37.70
  -1  -3   1  322.57   37.30
  -1  -3   1  310.67   37.50
   0   3  -1   19.60    4.10
   0   3  -1   24.40    4.70
   0   3  -1   29.90    5.00
   0  -3   1   27.60    4.40
   0  -3   1   28.20    4.50
   0  -3   1   22.70    4.70
  -1   3  -1   96.09   10.90
  -1   3  -1   66.99    9.60
  -1   3  -1   77.89   10.20
   1  -3   1   66.89   10.10
   1  -3   1   85.39   10.50
   1  -3   1   64.49    9.50
  -2   3  -1    6.50    3.80
  -2   3  -1    9.40    3.20
   2  -3   1    2.50    2.50
   2  -3   1    1.20    2.60
   2  -3   1   -1.20    2.70
   2  -3   1    5.80    4.10
  -3   3  -1   97.79   12.30
  -3   3  -1   70.69   10.90
  -3   3  -1   77.99   11.10
   3  -3   1   91.99   11.70
   3  -3   1   80.79   11.10
   3  -3   1   89.59   11.60
  -4   3  -1   86.89   13.10
  -4   3  -1  105.09   12.60
  -4   3  -1   85.59   12.10
   4  -3   1   97.69   13.20
   4  -3   1   84.19   11.80
   4  -3   1   78.49   11.60
  -5   3  -1    9.20    3.60
  -5   3  -1   -1.50    4.60
  -5   3  -1   -4.10    3.50
   5  -3   1   -6.00    2.70
   5  -3   1   -1.40    4.10
   5  -3   1    4.60    3.20
  -6   3  -1    1.50    3.30
  -6   3  -1   -4.30    4.60
  -6   3  -1   -5.70    3.40
   6  -3   1    5.50    3.90
   6  -3   1   -4.00    2.80
   6  -3   1    0.50    4.60
  -7   3  -1   13.90    5.20
  -7   3  -1   18.40   10.70
   7  -3   1    3.70    3.90
   7  -3   1    1.70    4.00
   7  -3   1    7.30    4.00
  -8   3  -1   30.30    7.20
  -8   3  -1   26.60    7.90
   8  -3   1   28.00    6.50
   8  -3   1   23.30    7.50
   8  -3   1   28.40    6.00
   8  -3   1   19.20    6.30
  -9   3  -1    2.40    5.60
  -9   3  -1   17.60    7.40
   9  -3   1   13.50    5.30
   9  -3   1    5.00    5.00
   9  -3   1    0.70    5.20
 -10   3  -1    2.90    6.70
 -10   3  -1   -5.30    5.90
  10  -3   1    6.20    8.70
  10  -3   1   10.50    6.60
  10  -3   1   -3.50    5.70
 -11   3  -1   10.40    6.90
 -11   3  -1    3.50    7.10
  11  -3   1    3.30    6.40
  11  -3   1   16.30    5.70
 -12   3  -1   23.40    8.60
  12  -3   1   18.80    7.00
 -13   3  -1    2.20    8.90
 -13   3  -1    5.60    7.80
  13  -3   1   13.80    6.60
  13   2  -1    3.10    7.30
 -13  -2   1   -3.80    6.60
 -13  -2   1   -0.20    8.50
  12   2  -1   13.10    7.10
 -12  -2   1   10.40    8.30
 -12  -2   1   -0.80    8.00
 -11  -2   1    5.60    6.60
 -11  -2   1    2.80    6.10
 -11  -2   1   -7.50    6.30
  10   2  -1    6.10    5.90
 -10  -2   1   -2.00    5.50
 -10  -2   1    7.40    7.00
 -10  -2   1    1.80    5.80
   9   2  -1   19.40    7.90
  -9  -2   1   36.30    8.30
  -9  -2   1   27.10    8.10
  -9  -2   1   40.30    8.50
   8   2  -1   15.10    6.00
   8   2  -1   27.70    6.90
   8   2  -1   24.30    6.50
  -8  -2   1   17.60    6.20
  -8  -2   1   24.40    7.30
  -8  -2   1   21.70    6.70
   7   2  -1   37.20    7.70
   7   2  -1   34.30    7.40
   7   2  -1   44.00    7.80
  -7  -2   1   33.90    7.70
  -7  -2   1   42.10    8.30
  -7  -2   1   35.40    7.80
   6   2  -1   -1.40    3.30
   6   2  -1    2.30    4.00
   6   2  -1    5.40    3.90
  -6  -2   1   -0.10    3.80
  -6  -2   1    5.60    4.20
  -6  -2   1   -8.20    3.40
   5   2  -1  508.75   59.99
   5   2  -1  526.65   60.09
   5   2  -1  489.85   60.19
  -5  -2   1  478.95   59.99
  -5  -2   1  481.45   59.99
  -5  -2   1  476.45   60.19
   4   2  -1   55.19    8.60
   4   2  -1   52.09    8.30
   4   2  -1   45.00    8.30
  -4  -2   1   61.19    8.90
  -4  -2   1   57.89    8.50
  -4  -2   1   57.99    8.70
   3   2  -1  374.96   42.90
   3   2  -1  354.96   42.70
   3   2  -1  351.76   42.60
  -3  -2   1  354.66   42.70
  -3  -2   1  347.07   42.80
  -3  -2   1  326.97   42.50
   2   2  -1    3.10    3.10
   2   2  -1    7.10    3.20
   2   2  -1    5.30    2.60
  -2  -2   1    6.00    3.10
  -2  -2   1   10.80    3.00
  -2  -2   1    4.40    3.00
   1   2  -1   53.79    7.50
   1   2  -1   65.69    8.10
   1   2  -1   62.29    8.30
  -1  -2   1   63.99    8.30
  -1  -2   1   69.79    8.20
  -1  -2   1   50.59    7.40
   0   2  -1  200.08   24.10
   0   2  -1  188.68   24.30
   0   2  -1  209.18   24.10
   0  -2   1  188.88   24.30
   0  -2   1  206.78   24.10
   0  -2   1  196.98   24.10
  -1   2  -1   73.79    9.10
  -1   2  -1   69.19    8.70
  -1   2  -1   68.19    9.00
   1  -2   1   65.49    9.00
   1  -2   1   61.39    9.10
   1  -2   1   73.39    8.70
  -2   2  -1  126.69   16.20
  -2   2  -1  130.29   16.30
  -2   2  -1  128.89   16.70
   2  -2   1  141.19   16.30
   2  -2   1  129.69   16.70
   2  -2   1  128.09   16.20
  -3   2  -1   42.60    7.10
  -3   2  -1   30.20    5.90
  -3   2  -1   42.50    6.40
   3  -2   1   36.30    7.10
   3  -2   1   38.50    6.10
   3  -2   1   46.80    6.30
  -4   2  -1  186.68   22.60
  -4   2  -1  183.08   23.10
  -4   2  -1  177.88   22.40
   4  -2   1  174.08   23.00
   4  -2   1  167.48   22.40
   4  -2   1  197.38   22.50
  -5   2  -1   48.80    7.90
  -5   2  -1   45.10    8.10
   5  -2   1   46.40    7.10
   5  -2   1   43.20    7.20
   5  -2   1   32.00    7.70
  -6   2  -1    4.90    4.70
  -6   2  -1   11.00    4.50
   6  -2   1   -2.90    4.50
   6  -2   1    4.00    3.40
   6  -2   1   13.00    4.00
   6  -2   1    8.70    4.40
  -7   2  -1   29.20    7.30
  -7   2  -1   41.20    8.90
   7  -2   1   36.30    7.10
   7  -2   1   30.00    6.50
   7  -2   1   45.10    8.70
   7  -2   1   54.59    7.90
  -8   2  -1   34.70    7.40
  -8   2  -1   24.70    7.30
   8  -2   1   41.00    7.10
   8  -2   1   30.30    6.20
   8  -2   1   29.70    6.60
   8  -2   1   16.30    6.80
  -9   2  -1   51.09   10.30
  -9   2  -1   44.80   10.80
   9  -2   1   64.29   10.10
   9  -2   1   59.69    9.50
   9  -2   1   45.00    9.40
 -10   2  -1   24.80    8.50
 -10   2  -1   27.30    8.10
  10  -2   1   12.40    8.40
  10  -2   1   15.00    6.10
  10  -2   1   19.40    6.20
 -11   2  -1   25.30    9.60
 -11   2  -1   19.00    8.30
  11  -2   1   29.00    7.00
  11  -2   1   21.60    7.50
 -12   2  -1   10.50    8.80
 -12   2  -1   13.70    8.10
  12  -2   1    8.80    7.90
  12  -2   1   17.20    6.70
 -13   2  -1    3.30    7.90
 -13   2  -1   -4.80    7.50
  13  -2   1   11.70    6.30
  13   1  -1    7.30    7.50
 -13  -1   1    3.90    7.80
 -13  -1   1   10.30    9.10
  12   1  -1    8.50    7.40
 -12  -1   1    7.90    9.10
 -12  -1   1    8.30    9.00
  11   1  -1   17.40    6.70
 -11  -1   1   18.00    8.20
 -11  -1   1    1.90    6.20
  10   1  -1    5.10    5.50
 -10  -1   1   14.60    7.30
 -10  -1   1   11.30    7.80
   9   1  -1   35.30   10.40
  -9  -1   1   55.79   15.20
  -9  -1   1   54.59   10.40
  -9  -1   1   73.59   11.50
   8   1  -1   36.20    7.90
   8   1  -1   24.50    7.10
   8   1  -1   17.60    6.70
  -8  -1   1   25.60    7.00
  -8  -1   1   28.60    7.30
  -8  -1   1   36.20    7.40
   7   1  -1  111.09   22.50
   7   1  -1  147.39   19.60
   7   1  -1  151.08   19.40
  -7  -1   1  159.28   19.80
  -7  -1   1  145.79   19.40
  -7  -1   1  141.79   19.80
   6   1  -1   -6.30    3.60
   6   1  -1    0.00    3.40
   6   1  -1    1.30    3.70
  -6  -1   1    7.00    4.50
  -6  -1   1    0.50    4.10
  -6  -1   1   -0.60    4.00
   5   1  -1   -2.30    3.70
   5   1  -1    6.00    3.80
   5   1  -1    0.00    3.20
  -5  -1   1    3.30    3.80
  -5  -1   1    5.50    4.00
  -5  -1   1    4.30    3.70
   4   1  -1  350.06   42.10
   4   1  -1  364.96   42.30
   4   1  -1  361.46   42.20
  -4  -1   1  301.47   42.10
  -4  -1   1  337.37   42.10
  -4  -1   1  354.96   42.20
   3   1  -1   13.50    3.70
   3   1  -1   13.10    4.00
   3   1  -1    8.40    3.90
  -3  -1   1   13.40    3.90
  -3  -1   1   15.00    4.00
  -3  -1   1    8.40    4.00
   2   1  -1    5.80    3.30
   2   1  -1    5.10    3.10
   2   1  -1    9.10    3.20
  -2  -1   1    3.30    3.30
  -2  -1   1   10.80    3.60
  -2  -1   1    8.00    3.00
   1   1  -1  130.19   15.70
   1   1  -1  135.99   15.80
   1   1  -1  122.29   15.40
  -1  -1   1  125.49   15.70
  -1  -1   1  116.99   15.40
  -1  -1   1  137.79   15.70
   0   1  -1  968.50  115.49
   0  -1   1  976.70  115.49
   0  -1   1  954.00  115.29
  -1   1  -1   94.49   11.90
  -1   1  -1  103.89   12.10
   1  -1   1   99.29   11.70
   1  -1   1   89.09   11.90
   1  -1   1   95.99   11.90
  -2   1  -1    5.10    3.00
  -2   1  -1    3.70    2.00
  -2   1  -1    6.20    2.30
   2  -1   1    8.90    2.10
   2  -1   1    6.20    3.20
   2  -1   1    4.00    1.90
  -3   1  -1   17.70    3.80
  -3   1  -1    8.10    4.40
  -3   1  -1   13.30    3.40
   3  -1   1   10.70    3.50
   3  -1   1   19.70    3.50
   3  -1   1   13.50    4.50
  -4   1  -1   30.20    6.70
  -4   1  -1   42.70    6.30
   4  -1   1   32.40    6.00
   4  -1   1   38.60    7.00
   4  -1   1   35.10    5.80
  -5   1  -1  566.84   64.69
  -5   1  -1  508.95   64.79
   5  -1   1  531.35   64.49
   5  -1   1  538.05   64.29
   5  -1   1  520.65   64.79
   5  -1   1  532.25   64.29
  -6   1  -1   34.90    7.40
  -6   1  -1   41.50    8.20
   6  -1   1   55.19    7.50
   6  -1   1   48.10    7.00
   6  -1   1   26.70    6.80
   6  -1   1   42.70    8.00
  -7   1  -1   11.30    5.40
  -7   1  -1   12.10    4.90
   7  -1   1   17.60    4.60
   7  -1   1   14.00    6.00
   7  -1   1   10.80    4.30
   7  -1   1   18.90    4.50
  -8   1  -1   89.79   13.70
  -8   1  -1   83.89   14.00
   8  -1   1   81.49   13.00
   8  -1   1   77.49   12.60
   8  -1   1   97.59   12.90
   8  -1   1   98.99   14.40
  -9   1  -1   86.79   15.00
  -9   1  -1   92.29   15.80
   9  -1   1   79.59   13.90
   9  -1   1  110.89   13.70
   9  -1   1  112.19   14.90
 -10   1  -1   -5.10    5.60
 -10   1  -1   -6.50    4.90
  10  -1   1   -1.80    4.10
  10  -1   1   -4.90    4.70
 -11   1  -1    4.50    7.60
 -11   1  -1   16.80    7.30
  11  -1   1   30.70    6.80
  11  -1   1   21.10    7.00
 -12   1  -1   21.80    9.40
 -12   1  -1   12.10    8.00
  12  -1   1   18.10    6.90
  12  -1   1   20.80    7.30
 -13   1  -1   12.30    9.50
 -13   1  -1    7.30    7.60
  13  -1   1    5.40    6.20
  13   0  -1   -4.70    6.50
 -13   0   1    7.40    9.10
 -13   0   1    2.90    8.30
  12   0  -1   13.10    7.30
 -12   0   1   -8.70   10.40
 -12   0   1   15.20    8.40
  11   0  -1   -1.80    5.40
 -11   0   1    6.50    6.80
 -11   0   1    1.50    6.90
  10   0  -1    2.00    5.00
  10   0  -1   -5.90    5.00
 -10   0   1   -0.70    6.10
 -10   0   1   -3.20    5.70
   9   0  -1    0.90    9.30
  -9   0   1   -1.60    5.80
  -9   0   1    1.60    5.20
   8   0  -1  284.57   37.10
   8   0  -1  295.57   37.50
   8   0  -1  275.87   37.20
  -8   0   1  332.27   37.70
  -8   0   1  292.27   37.50
   7   0  -1   16.30    5.60
   7   0  -1    7.80    4.60
   7   0  -1   13.30    5.10
  -7   0   1   16.30    6.10
  -7   0   1    4.50    6.20
  -7   0   1   11.70    5.40
   6   0  -1   83.79   13.60
   6   0  -1   73.49   13.40
   6   0  -1  118.89   14.00
  -6   0   1  101.39   14.00
  -6   0   1   85.79   13.80
  -6   0   1  115.89   13.90
   5   0  -1   31.70    7.80
   5   0  -1   64.89    8.90
   5   0  -1   51.89    8.40
  -5   0   1   47.30    8.40
  -5   0   1   59.09    8.50
  -5   0   1   63.59    9.00
   4   0  -1  589.14   69.29
   4   0  -1  600.04   69.19
   4   0  -1  555.14   69.19
  -4   0   1  555.24   69.09
  -4   0   1  568.84   69.29
  -4   0   1  564.74   69.19
   3   0  -1  524.15   61.79
   3   0  -1  522.15   61.39
   3   0  -1  527.05   61.39
  -3   0   1  519.55   61.39
  -3   0   1  492.45   61.39
  -3   0   1  465.95   61.29
   2   0  -1   61.49    7.80
   2   0  -1   48.10    7.50
   2   0  -1   50.99    7.50
  -2   0   1   37.20    7.20
  -2   0   1   52.59    7.70
  -2   0   1   52.99    7.60
   1   0  -1  666.93   85.99
   1   0  -1  725.03   85.89
   1   0  -1  759.52   86.09
  -1   0   1  724.33   85.99
   0   0   1   30.00    3.90
  -2   0  -1   24.90    4.50
  -2   0  -1   22.40    3.90
   2   0   1   35.30    4.70
   2   0   1   28.70    4.00
   2   0   1   28.10    3.70
  -3   0  -1    8.50    3.10
  -3   0  -1    8.10    3.90
   3   0   1   10.20    2.70
   3   0   1    5.10    2.80
   3   0   1    4.50    3.60
   3   0   1    5.30    2.30
  -4   0  -1  211.38   25.70
  -4   0  -1  208.88   26.00
   4   0   1  204.18   25.40
   4   0   1  193.28   25.60
   4   0   1  206.28   26.00
   4   0   1  224.38   25.50
  -5   0  -1  330.77   39.60
  -5   0  -1  312.57   39.30
   5   0   1  315.07   38.90
   5   0   1  342.17   39.10
   5   0   1  318.97   39.20
   5   0   1  302.97   39.40
  -6   0  -1  134.69   18.60
  -6   0  -1  155.68   19.00
   6   0   1  135.59   17.90
   6   0   1  141.09   18.80
   6   0   1  150.28   18.20
   6   0   1  141.39   18.40
  -7   0  -1    9.40    4.40
  -7   0  -1   15.70    5.60
   7   0   1    9.40    4.00
   7   0   1    2.80    3.40
   7   0   1    8.70    3.70
   7   0   1    9.80    4.90
  -8   0  -1  126.19   15.30
  -8   0  -1  109.39   16.00
   8   0   1   84.59   14.80
   8   0   1  105.49   16.20
   8   0   1  106.99   14.20
   8   0   1  106.99   14.50
  -9   0  -1   16.50    6.20
  -9   0  -1    8.70    5.30
   9   0   1    2.20    4.40
   9   0   1   17.70    6.40
   9   0   1    8.90    4.30
   9   0   1   11.30    5.20
 -10   0  -1    0.40    5.50
 -10   0  -1   -4.40    5.70
  10   0   1   -1.40    4.10
  10   0   1    1.40    4.20
 -11   0  -1    5.20    7.00
 -11   0  -1    1.70    6.10
  11   0   1    1.20    4.90
  11   0   1   -2.30    4.30
 -12   0  -1   55.59   11.60
 -12   0  -1   51.69   12.10
  12   0   1   69.89   10.40
  12   0   1   34.60    9.50
 -13   0  -1    3.10    7.10
 -13   0  -1   25.70    9.80
  13   0   1    7.00    6.60
  13   0   1   17.20    7.40
 -14   0  -1    6.20    7.90
  14   0   1    3.50    6.10
  13  -1  -1   -6.00    6.30
 -13   1   1   -3.40    7.30
 -13   1   1   10.00    8.90
  12  -1  -1   -3.60    6.10
 -12   1   1    3.00   13.30
 -12   1   1    2.60    7.60
  11  -1  -1   -9.50    4.50
 -11   1   1    7.00    7.30
 -11   1   1   -7.40    5.90
  10  -1  -1   52.09    9.70
  10  -1  -1   39.80    9.40
 -10   1   1   54.49   10.60
 -10   1   1   29.50    9.70
   9  -1  -1   67.89   11.90
   9  -1  -1   62.09   14.10
  -9   1   1   71.79   13.10
  -9   1   1   84.49   13.10
   8  -1  -1   50.89   12.70
   8  -1  -1  106.89   15.20
   8  -1  -1   97.29   13.80
   8  -1  -1  104.09   14.70
  -8   1   1  137.79   16.10
  -8   1   1   91.59   14.30
   7  -1  -1  140.49   19.30
   7  -1  -1  136.79   19.70
   7  -1  -1  144.09   19.20
   7  -1  -1  139.49   19.50
  -7   1   1  157.38   20.40
  -7   1   1  158.18   20.00
   6  -1  -1    2.20    3.20
   6  -1  -1   -3.20    4.10
   6  -1  -1    4.00    4.10
   6  -1  -1   14.60    4.80
  -6   1   1    2.40    4.30
  -6   1   1   -3.20    4.10
   5  -1  -1  138.19   17.70
   5  -1  -1  141.59   17.40
   5  -1  -1  134.59   17.20
   5  -1  -1  126.99   17.30
  -5   1   1  123.09   17.70
  -5   1   1  126.79   17.50
   4  -1  -1   22.80    5.30
   4  -1  -1   20.20    4.70
   4  -1  -1   13.40    5.30
  -4   1   1   21.50    5.20
   3  -1  -1  135.49   17.70
   3  -1  -1  127.49   18.20
   3  -1  -1  140.19   17.50
   3  -1  -1  140.99   18.00
  -3   1   1  147.49   17.80
  -3   1   1  131.89   17.90
   2  -1  -1   76.19   11.10
   2  -1  -1   91.59   11.50
   2  -1  -1   78.79   11.30
   2  -1  -1   94.29   11.80
  -2   1   1   88.69   11.60
  -2   1   1   78.59   11.30
   1  -1  -1    1.60    2.50
   1  -1  -1    3.80    2.50
   1  -1  -1    0.70    2.50
   1  -1  -1    0.20    2.10
  -1   1   1    3.00    2.30
  -1   1   1    1.90    2.50
   0  -1  -1  104.39   12.60
   0  -1  -1  111.29   12.70
   0  -1  -1   97.49   12.60
   0   1   1   99.09   12.50
   0   1   1  100.09   12.60
   0   1   1  102.09   12.70
  -1  -1  -1  165.68   20.40
  -1  -1  -1  178.78   20.50
   1   1   1  175.48   20.50
   1   1   1  167.08   20.40
   1   1   1  160.48   20.30
  -2  -1  -1   52.99    6.90
  -2  -1  -1   47.30    6.60
  -2  -1  -1   48.20    6.30
   2   1   1   49.90    6.20
   2   1   1   47.50    6.70
   2   1   1   57.39    7.10
  -3  -1  -1   67.29    8.60
  -3  -1  -1   61.39    8.20
  -3  -1  -1   73.39    9.20
   3   1   1   52.49    7.90
   3   1   1   61.09    8.50
   3   1   1   67.29    9.10
  -4  -1  -1   96.09   13.10
  -4  -1  -1  112.29   13.50
  -4  -1  -1  109.39   13.90
   4   1   1  101.79   14.80
   4   1   1  101.69   13.00
   4   1   1  100.69   13.70
  -5  -1  -1  108.49   14.90
  -5  -1  -1  109.89   14.10
  -5  -1  -1  107.59   14.50
   5   1   1  105.69   14.40
   5   1   1  113.59   14.80
   5   1   1  112.39   14.00
  -6  -1  -1    8.50    3.30
  -6  -1  -1    5.50    4.10
  -6  -1  -1    5.20    3.60
   6   1   1   -0.90    2.60
   6   1   1    8.60    3.60
   6   1   1    8.40    4.10
  -7  -1  -1   10.10    5.10
  -7  -1  -1    4.70    3.50
  -7  -1  -1   -0.90    3.70
   7   1   1    7.60    3.30
   7   1   1   10.30    4.60
   7   1   1    2.00    3.70
  -8  -1  -1   17.70    5.90
  -8  -1  -1   20.30    5.20
  -8  -1  -1   20.30    6.30
   8   1   1   11.30    4.20
   8   1   1   15.70    5.20
   8   1   1   12.20    5.50
  -9  -1  -1    8.30    5.50
  -9  -1  -1   17.80    6.10
   9   1   1    5.20    4.10
   9   1   1   13.20    6.20
   9   1   1    6.10    4.10
   9   1   1   14.40    5.10
 -10  -1  -1    1.70    4.80
 -10  -1  -1   -5.60    5.70
  10   1   1   -1.20    3.80
  10   1   1   -3.20    3.80
 -11  -1  -1    3.00    6.30
 -11  -1  -1    1.60    5.90
  11   1   1    5.60    4.70
  11   1   1   -3.10    5.00
 -12  -1  -1  -11.50    6.00
 -12  -1  -1    4.90    7.50
  12   1   1   -5.40    5.70
  12   1   1   -1.70    5.40
 -13  -1  -1    2.40   11.40
 -13  -1  -1   17.70    9.30
  13   1   1   -1.30    6.20
  13   1   1   10.90    6.30
 -14  -1  -1   -4.10    7.60
  14   1   1    5.60    6.40
  13  -2  -1    3.60    6.80
 -13   2   1   -8.50    8.00
 -13   2   1    5.30    8.90
  12  -2  -1    3.90    6.50
 -12   2   1    5.00    8.20
 -12   2   1   -5.40    7.00
  11  -2  -1   27.00    7.60
 -11   2   1    4.30    7.60
 -11   2   1   22.00    9.10
  10  -2  -1    1.50    5.60
  10  -2  -1   -0.80    5.50
 -10   2   1   -1.00    6.60
 -10   2   1    5.10    7.00
   9  -2  -1    4.30    5.70
   9  -2  -1   14.70    5.90
  -9   2   1   12.20    6.60
  -9   2   1    4.10    6.80
   8  -2  -1    7.60    4.80
   8  -2  -1   -1.20    5.00
   8  -2  -1   13.20    6.30
   8  -2  -1    0.90    4.90
  -8   2   1   12.60    6.40
  -8   2   1    8.70    6.00
   7  -2  -1  116.79   15.20
   7  -2  -1  104.09   14.80
   7  -2  -1   84.69   14.40
   7  -2  -1  107.29   15.60
  -7   2   1   95.29   15.30
  -7   2   1   91.29   15.00
   6  -2  -1   12.30    5.00
   6  -2  -1    6.40    4.80
   6  -2  -1   19.10    5.00
   6  -2  -1   16.90    5.70
  -6   2   1    9.60    5.50
  -6   2   1   13.10    5.20
   5  -2  -1  124.09   16.20
   5  -2  -1  112.89   16.00
   5  -2  -1  135.19   17.50
   5  -2  -1  127.79   16.10
  -5   2   1  109.39   17.00
  -5   2   1  120.29   16.50
   4  -2  -1  377.46   48.10
   4  -2  -1  409.66   48.50
   4  -2  -1  397.36   48.30
   4  -2  -1  394.76   48.30
  -4   2   1  407.56   48.40
  -4   2   1  387.56   48.50
   3  -2  -1  147.59   18.80
   3  -2  -1  152.88   19.10
   3  -2  -1  147.59   19.20
  -3   2   1  149.88   19.10
  -3   2   1  144.09   19.30
   2  -2  -1    4.70    3.30
   2  -2  -1   -6.90    3.60
   2  -2  -1   -2.40    3.40
  -2   2   1   -0.50    2.90
  -2   2   1    5.70    3.40
  -2   2   1    0.90    3.50
   1  -2  -1    6.40    3.00
   1  -2  -1    9.60    3.10
   1  -2  -1    8.30    3.80
  -1   2   1    1.30    3.20
  -1   2   1    7.30    3.10
  -1   2   1    4.00    2.90
   0  -2  -1  153.28   19.10
   0  -2  -1  169.88   19.50
   0  -2  -1  147.89   19.20
   0   2   1  160.98   19.40
   0   2   1  158.18   19.20
   0   2   1  150.28   19.20
  -1  -2  -1  232.38   28.30
  -1  -2  -1  228.98   28.00
  -1  -2  -1  235.78   28.00
   1   2   1  225.68   28.00
   1   2   1  223.88   27.90
   1   2   1  239.38   28.30
  -2  -2  -1  114.89   13.70
  -2  -2  -1  105.69   14.00
  -2  -2  -1  114.19   13.90
   2   2   1  115.49   14.00
   2   2   1  110.39   14.00
   2   2   1  101.79   13.60
  -3  -2  -1  190.68   24.10
  -3  -2  -1  202.38   23.80
  -3  -2  -1  178.98   24.10
   3   2   1  202.28   24.30
   3   2   1  191.38   23.80
   3   2   1  206.88   24.20
  -4  -2  -1  150.08   18.50
  -4  -2  -1  142.49   18.90
  -4  -2  -1  148.19   18.80
   4   2   1  143.39   19.00
   4   2   1  153.18   18.40
   4   2   1  153.68   18.90
  -5  -2  -1  115.89   14.50
  -5  -2  -1  106.89   14.20
  -5  -2  -1  112.49   13.80
   5   2   1  101.29   14.30
   5   2   1  102.79   13.60
   5   2   1  105.39   14.10
  -6  -2  -1   18.80    5.50
  -6  -2  -1   19.70    4.80
  -6  -2  -1   15.20    4.20
   6   2   1   15.80    4.10
   6   2   1    9.60    3.90
   6   2   1    4.70    4.10
  -7  -2  -1   63.19   11.30
  -7  -2  -1   93.09   11.30
  -7  -2  -1   84.19   11.70
   7   2   1   77.19   11.30
   7   2   1   71.79   10.50
   7   2   1   52.79   11.20
  -8  -2  -1   -1.50    4.20
  -8  -2  -1   -4.30    3.20
  -8  -2  -1   -0.50    4.60
   8   2   1    3.10    3.30
   8   2   1   -0.50    3.60
   8   2   1    0.10    4.90
  -9  -2  -1   39.30    8.10
  -9  -2  -1   34.80    6.90
  -9  -2  -1   28.50    7.50
   9   2   1   29.00    7.90
   9   2   1   21.50    5.80
   9   2   1   34.50    7.60
 -10  -2  -1    3.20    6.10
 -10  -2  -1   -0.80    5.30
 -10  -2  -1    4.40    4.70
  10   2   1   -4.70    4.00
 -11  -2  -1    4.60    7.40
 -11  -2  -1   26.20    7.80
  11   2   1   17.00    5.90
  11   2   1   11.60    5.80
 -12  -2  -1   50.59   10.40
 -12  -2  -1   15.90    7.70
  12   2   1   16.70    7.50
  12   2   1   38.10    8.60
 -13  -2  -1    2.70    7.50
 -13  -2  -1   10.30    7.50
  13   2   1    2.10    6.70
  13   2   1   -7.20    5.60
  13  -3  -1   -4.70    6.60
 -13   3   1   -4.60    7.70
  12  -3  -1   11.60    6.90
 -12   3   1   10.30    8.90
 -12   3   1    0.30    8.70
  11  -3  -1   25.10    7.80
 -11   3   1    7.70    7.60
 -11   3   1    7.10    8.60
  10  -3  -1   -4.00    4.90
 -10   3   1   -3.00    6.10
 -10   3   1    0.00    6.30
   9  -3  -1   51.09   10.90
   9  -3  -1   78.19   11.40
  -9   3   1   55.39   11.60
  -9   3   1   57.89   12.00
   8  -3  -1  202.28   32.50
   8  -3  -1  223.48   28.90
   8  -3  -1  253.07   33.70
  -8   3   1  216.68   29.30
  -8   3   1  221.18   29.20
   7  -3  -1   92.79   12.80
   7  -3  -1   86.79   13.60
   7  -3  -1   63.59   12.30
   7  -3  -1   74.29   12.30
  -7   3   1   69.99   15.70
  -7   3   1   91.89   13.60
   6  -3  -1   76.99   11.40
   6  -3  -1   62.69   10.50
   6  -3  -1   67.89   10.60
   6  -3  -1   57.29   10.40
  -6   3   1   79.79   11.90
  -6   3   1   56.89   10.70
   5  -3  -1   41.80    8.20
   5  -3  -1   51.59    8.50
   5  -3  -1   39.10    8.10
   5  -3  -1   58.29    9.10
  -5   3   1   52.29    8.50
  -5   3   1   43.80    9.00
   4  -3  -1  467.35   56.09
   4  -3  -1  473.85   56.09
   4  -3  -1  439.26   56.29
  -4   3   1  467.75   56.09
  -4   3   1  470.45   56.29
  -4   3   1  444.16   56.39
   3  -3  -1  177.68   21.60
   3  -3  -1  181.58   22.00
   3  -3  -1  174.38   21.60
  -3   3   1  164.88   21.60
  -3   3   1  165.18   21.80
  -3   3   1  159.88   21.50
   2  -3  -1   66.19    9.60
   2  -3  -1   73.09    9.50
   2  -3  -1   66.49   10.50
  -2   3   1   60.89    9.40
  -2   3   1   55.69    9.70
  -2   3   1   46.30   11.80
   1  -3  -1   50.39    7.60
   1  -3  -1   49.20    7.10
   1  -3  -1   44.70    6.90
  -1   3   1   44.30    7.20
  -1   3   1   31.30    6.40
  -1   3   1   36.70    6.80
   0  -3  -1  232.48   29.40
   0  -3  -1  251.57   29.70
   0  -3  -1  234.18   29.40
   0   3   1  233.48   29.40
   0   3   1  255.77   29.80
   0   3   1  240.78   29.40
  -1  -3  -1  265.77   34.00
  -1  -3  -1  282.57   34.10
  -1  -3  -1  313.57   34.50
   1   3   1  279.47   34.40
   1   3   1  275.47   34.10
   1   3   1  272.57   34.00
  -2  -3  -1   47.70    6.70
  -2  -3  -1   47.60    7.10
  -2  -3  -1   37.90    6.60
   2   3   1   46.90    6.80
   2   3   1   50.69    7.20
   2   3   1   42.10    6.90
  -3  -3  -1  111.59   14.20
  -3  -3  -1  100.39   13.80
  -3  -3  -1  111.09   14.30
   3   3   1  121.69   14.20
   3   3   1  105.79   14.20
   3   3   1  107.59   13.80
  -4  -3  -1   77.09   10.60
  -4  -3  -1   68.89   10.70
  -4  -3  -1   67.49   10.00
   4   3   1   71.29   10.00
   4   3   1   84.49   10.80
   4   3   1   72.39   10.80
  -5  -3  -1  106.19   13.00
  -5  -3  -1   90.09   12.80
  -5  -3  -1   91.29   12.30
   5   3   1   90.99   12.70
   5   3   1  107.39   13.70
   5   3   1   90.09   12.30
  -6  -3  -1   17.50    4.50
  -6  -3  -1    6.00    3.60
  -6  -3  -1   23.50    5.40
   6   3   1    4.30    2.90
   6   3   1    9.30    4.30
   6   3   1   10.20    4.00
  -7  -3  -1   39.60    6.60
  -7  -3  -1   45.70    7.60
  -7  -3  -1   27.30    6.60
   7   3   1   22.20    5.30
   7   3   1   27.20    6.80
   7   3   1   36.00    6.70
  -8  -3  -1  143.39   19.60
  -8  -3  -1  152.08   19.00
  -8  -3  -1  144.19   19.90
   8   3   1  160.58   19.70
   8   3   1  146.99   18.90
   8   3   1  117.09   20.60
  -9  -3  -1    0.90    5.10
  -9  -3  -1   -5.80    4.10
  -9  -3  -1   -4.50    5.10
   9   3   1    5.70    5.20
   9   3   1   -1.30    3.80
 -10  -3  -1    6.00    5.70
 -10  -3  -1   -2.60    5.60
 -10  -3  -1    3.60    4.50
  10   3   1   -3.10    4.00
 -11  -3  -1    7.70    6.40
 -11  -3  -1   13.90    6.00
 -11  -3  -1    3.40    6.90
  11   3   1    6.00    5.10
 -12  -3  -1   41.90   10.80
 -12  -3  -1   35.90    9.10
  12   3   1   23.10    7.60
 -13  -3  -1   11.00    9.50
 -13  -3  -1   10.30    7.40
  13   3   1   13.40    7.20
  13   3   1   -7.90    5.20
  12  -4  -1    4.70    7.20
 -12   4   1    2.70    8.80
 -12   4   1   -0.90   10.10
  11  -4  -1   -1.90    5.60
 -11   4   1   -6.70    6.90
 -11   4   1   -7.10    6.90
  10  -4  -1    4.50    5.80
 -10   4   1  -12.60    5.50
 -10   4   1    0.40    6.40
   9  -4  -1   13.00    7.10
   9  -4  -1    9.20    5.60
  -9   4   1   12.80    7.00
  -9   4   1   -2.40    6.10
   8  -4  -1   51.39    9.60
   8  -4  -1   41.30    9.10
   8  -4  -1   42.80    9.60
  -8   4   1   46.20    9.80
  -8   4   1   49.99   10.40
   7  -4  -1  176.98   24.80
   7  -4  -1  137.19   19.60
   7  -4  -1  133.69   19.70
   7  -4  -1  174.38   22.00
  -7   4   1  129.39   20.80
  -7   4   1  159.48   20.40
   6  -4  -1   51.29    9.40
   6  -4  -1   63.79    9.90
   6  -4  -1   47.50    9.20
  -6   4   1   53.59    9.60
  -6   4   1   61.39   11.40
   5  -4  -1   97.19   14.20
   5  -4  -1   77.49   13.20
   5  -4  -1   99.99   13.70
  -5   4   1   99.19   13.90
  -5   4   1   82.79   13.20
  -5   4   1   96.19   14.20
   4  -4  -1   34.10    8.20
   4  -4  -1   41.60    7.60
   4  -4  -1   55.49    8.20
  -4   4   1   38.30    7.50
  -4   4   1   47.60    8.00
  -4   4   1   33.80    8.00
   3  -4  -1  113.49   15.30
   3  -4  -1  113.59   15.40
   3  -4  -1  118.49   15.90
  -3   4   1  117.19   15.50
  -3   4   1   95.59   15.50
  -3   4   1  103.29   15.20
   2  -4  -1    0.70    4.00
   2  -4  -1   -0.10    3.50
   2  -4  -1    9.30    3.70
  -2   4   1   -9.80    3.00
  -2   4   1    5.10    3.90
  -2   4   1    1.50    3.50
   1  -4  -1   15.60    4.00
   1  -4  -1    8.50    3.80
   1  -4  -1   15.30    4.90
   1  -4  -1   10.40    5.10
  -1   4   1    9.40    4.50
  -1   4   1   13.10    4.30
   0  -4  -1   79.59    9.80
   0  -4  -1   59.99    9.80
   0  -4  -1   67.59    9.40
   0   4   1   58.39    9.60
   0   4   1   57.59    9.10
  -1  -4  -1   32.00    5.50
  -1  -4  -1   36.20    6.30
  -1  -4  -1   26.70    5.40
   1   4   1   29.30    8.30
   1   4   1   30.30    5.60
   1   4   1   30.00    6.30
  -2  -4  -1   35.90    6.00
  -2  -4  -1   32.00    5.80
  -2  -4  -1   32.80    6.70
  -2  -4  -1   31.00    5.60
   2   4   1   33.10    5.60
   2   4   1   25.70    5.50
  -3  -4  -1    6.10    3.30
  -3  -4  -1   16.30    4.20
  -3  -4  -1   16.70    4.20
   3   4   1   13.70    3.90
   3   4   1   21.60    4.70
   3   4   1   10.60    3.60
  -4  -4  -1   58.99    9.40
  -4  -4  -1   64.39    9.90
  -4  -4  -1   72.19    9.90
   4   4   1   68.99   10.20
   4   4   1   73.19   10.10
   4   4   1   62.39    9.70
  -5  -4  -1   11.70    4.30
  -5  -4  -1   17.30    4.60
  -5  -4  -1   20.40    4.50
   5   4   1    3.20    3.40
   5   4   1   15.90    3.90
   5   4   1   11.50    4.40
  -6  -4  -1   29.00    6.10
  -6  -4  -1   30.60    5.80
  -6  -4  -1   27.90    6.40
   6   4   1   22.70    5.90
   6   4   1   31.00    5.50
   6   4   1   42.00    6.90
  -7  -4  -1   28.20    6.60
  -7  -4  -1   36.50    7.20
  -7  -4  -1   25.60    5.80
   7   4   1   26.00    5.60
   7   4   1   30.00    6.80
   7   4   1   44.90    8.50
  -8  -4  -1   43.60    8.50
  -8  -4  -1   32.00    7.00
  -8  -4  -1   45.60    8.40
   8   4   1   43.90    7.00
   8   4   1   24.60    7.00
   8   4   1   32.40    8.10
  -9  -4  -1   42.00    8.20
  -9  -4  -1   29.50    7.20
  -9  -4  -1   41.00    8.60
   9   4   1   32.60    7.00
   9   4   1   21.60    7.40
 -10  -4  -1   -2.60    4.80
 -10  -4  -1   -0.70    6.10
 -10  -4  -1   -3.60    5.20
  10   4   1   -1.20    4.20
 -11  -4  -1    8.70    6.90
 -11  -4  -1    7.10    7.20
  11   4   1    1.80    5.10
 -12  -4  -1   13.60    7.60
 -12  -4  -1    9.80    7.80
 -12  -4  -1    4.50    5.90
  12   4   1    4.80    6.10
 -13  -4  -1   29.90   11.00
 -13  -4  -1   11.40    8.40
  13   4   1   11.80    7.80
  12  -5  -1    7.50    7.30
 -12   5   1    3.80    8.50
 -12   5   1   -4.10   11.90
  11  -5  -1   35.00    9.40
 -11   5   1   29.20   10.40
 -11   5   1   38.50   10.90
  10  -5  -1    5.80    5.90
 -10   5   1    0.90    6.90
 -10   5   1    7.80    7.30
   9  -5  -1   -3.50    5.20
  -9   5   1    4.10    6.40
  -9   5   1    3.40    6.40
   8  -5  -1    7.40    6.20
   8  -5  -1    9.30    5.20
   8  -5  -1    7.20    6.20
  -8   5   1    3.80    6.00
  -8   5   1    0.60    5.50
   7  -5  -1  194.48   24.20
   7  -5  -1  170.88   24.10
   7  -5  -1  176.88   24.10
  -7   5   1  174.48   24.70
  -7   5   1  198.88   24.70
   6  -5  -1   43.40    8.10
   6  -5  -1   24.90    8.20
   6  -5  -1   35.20    7.90
  -6   5   1   45.70    8.50
  -6   5   1   28.60    8.10
  -6   5   1   42.10    7.90
   5  -5  -1    4.90    4.20
   5  -5  -1    1.90    4.80
   5  -5  -1    4.50    4.00
  -5   5   1    1.40    3.90
  -5   5   1    9.70    4.80
  -5   5   1    4.60    5.00
   4  -5  -1  181.98   26.10
   4  -5  -1  194.88   26.20
   4  -5  -1  206.68   26.80
  -4   5   1  234.38   26.70
  -4   5   1  218.18   26.80
  -4   5   1  214.18   26.30
   3  -5  -1   14.60    5.00
   3  -5  -1   12.80    5.70
   3  -5  -1   26.70    5.50
  -3   5   1   20.70    5.70
  -3   5   1   19.30    5.30
  -3   5   1   29.30    6.10
   2  -5  -1  128.69   15.50
   2  -5  -1  103.59   15.20
   2  -5  -1  107.69   15.00
   2  -5  -1  119.09   15.70
  -2   5   1  109.59   15.30
  -2   5   1  131.69   16.90
   1  -5  -1    8.90    4.10
   1  -5  -1   13.80    4.00
   1  -5  -1    9.80    4.00
   1  -5  -1   19.00    4.70
  -1   5   1    4.80    3.90
  -1   5   1    9.30    4.60
   0  -5  -1  344.07   41.60
   0  -5  -1  384.26   42.00
   0  -5  -1  327.27   41.50
   0   5   1  358.16   42.00
   0   5   1  319.37   41.50
   0   5   1  318.17   41.60
  -1  -5  -1  240.58   30.40
  -1  -5  -1  230.28   30.40
  -1  -5  -1  244.58   30.80
   1   5   1  243.48   30.80
   1   5   1  257.67   30.40
   1   5   1  259.37   30.50
  -2  -5  -1   15.50    4.30
  -2  -5  -1   22.40    4.50
  -2  -5  -1   16.00    5.00
  -2  -5  -1   21.00    4.70
   2   5   1   10.70    4.10
   2   5   1   10.20    3.80
  -3  -5  -1    2.60    3.40
  -3  -5  -1    3.90    3.20
  -3  -5  -1    8.80    3.50
  -3  -5  -1    5.60    4.40
   3   5   1    5.60    3.30
   3   5   1   -0.80    2.40
  -4  -5  -1  178.78   22.70
  -4  -5  -1  187.18   22.80
  -4  -5  -1  184.78   22.50
   4   5   1  179.38   22.40
   4   5   1  174.68   22.80
   4   5   1  165.68   22.80
  -5  -5  -1  190.28   23.30
  -5  -5  -1  186.98   23.50
  -5  -5  -1  175.58   23.60
   5   5   1  197.28   23.70
   5   5   1  172.68   23.60
   5   5   1  185.28   23.20
  -6  -5  -1   -2.90    3.60
  -6  -5  -1   -4.30    2.90
  -6  -5  -1    8.20    3.50
   6   5   1    3.40    3.80
   6   5   1    2.90    3.50
   6   5   1    1.10    2.80
  -7  -5  -1   -4.40    3.40
  -7  -5  -1    8.60    3.60
  -7  -5  -1    2.10    4.40
   7   5   1    2.80    4.40
   7   5   1   -5.20    3.40
   7   5   1    8.00    3.70
  -8  -5  -1   15.00    5.40
  -8  -5  -1    3.60    5.00
  -8  -5  -1    3.90    4.10
   8   5   1   10.30    4.30
   8   5   1    2.90    5.80
  -9  -5  -1   33.10    8.20
  -9  -5  -1   42.50    9.20
  -9  -5  -1   30.40    7.20
   9   5   1   29.70    8.50
   9   5   1   37.30    7.20
 -10  -5  -1    6.60    5.40
 -10  -5  -1   -0.60    5.90
 -10  -5  -1    4.70    6.00
  10   5   1   -4.80    4.20
 -11  -5  -1    4.50    6.10
 -11  -5  -1   20.40    8.10
 -11  -5  -1   17.40    7.60
  11   5   1    6.80    5.50
 -12  -5  -1    1.20    7.40
 -12  -5  -1    8.10    6.40
 -12  -5  -1   -8.50    6.50
  12   5   1    5.00    5.90
 -13  -5  -1   -1.70    7.30
 -13  -5  -1    6.10    8.70
 -13  -5  -1    2.20    6.60
  12  -6  -1   -0.20    6.70
 -12   6   1    6.30    9.30
 -12   6   1    8.10    8.80
  11  -6  -1    9.90    7.00
 -11   6   1    0.30    7.50
 -11   6   1   10.50    9.10
  10  -6  -1   15.30    6.80
 -10   6   1   -5.00    6.60
 -10   6   1    5.00    7.90
   9  -6  -1   32.80    8.20
  -9   6   1   45.80   10.10
  -9   6   1   13.00    7.80
   8  -6  -1   58.19   10.90
  -8   6   1   44.10   10.20
  -8   6   1   74.19   12.80
   7  -6  -1   61.29   10.10
   7  -6  -1   52.39    9.40
  -7   6   1   24.20    8.10
  -7   6   1   51.89   10.80
  -7   6   1   50.89   10.10
   6  -6  -1   82.19   11.50
   6  -6  -1   52.49   11.40
   6  -6  -1   54.79   10.60
  -6   6   1   47.10   12.20
  -6   6   1   67.39   11.10
  -6   6   1   66.39   11.90
   5  -6  -1    7.20    4.60
   5  -6  -1    8.60    5.60
   5  -6  -1    4.80    4.60
  -5   6   1    8.40    4.90
  -5   6   1    6.00    5.30
  -5   6   1    1.50    4.00
   4  -6  -1  408.96   49.90
   4  -6  -1  398.56   49.70
   4  -6  -1  392.86   49.40
  -4   6   1  441.96   50.19
  -4   6   1  370.96   49.50
  -4   6   1  409.16   49.70
   3  -6  -1    6.20    3.80
   3  -6  -1   -0.30    3.30
   3  -6  -1   -3.40    4.60
  -3   6   1    6.40    4.00
  -3   6   1   -5.60    3.50
   2  -6  -1   52.29    8.70
   2  -6  -1   41.10    8.70
   2  -6  -1   41.40    7.70
   2  -6  -1   53.59    8.70
  -2   6   1   65.09    9.10
  -2   6   1   42.10    8.70
   1  -6  -1   10.50    4.20
   1  -6  -1   24.80    5.20
   1  -6  -1   17.70    4.80
   1  -6  -1   11.60    4.90
  -1   6   1   -0.40    4.40
  -1   6   1   13.30    4.50
   0  -6  -1  489.35   59.79
   0  -6  -1  501.45   60.19
   0  -6  -1  495.25   59.99
   0   6   1  497.45   59.99
   0   6   1  485.65   59.89
   0   6   1  487.15   60.29
  -1  -6  -1  577.94   71.59
  -1  -6  -1  620.64   71.49
  -1  -6  -1  589.54   71.39
   1   6   1  585.94   71.39
   1   6   1  574.34   71.39
   1   6   1  587.74   71.69
  -2  -6  -1   14.20    4.40
  -2  -6  -1   17.60    4.30
  -2  -6  -1   16.60    4.80
  -2  -6  -1   13.80    4.50
   2   6   1    4.80    3.50
   2   6   1    8.00    3.80
  -3  -6  -1   13.10    4.40
  -3  -6  -1   20.90    5.70
  -3  -6  -1   13.50    4.40
  -3  -6  -1   14.50    4.50
   3   6   1   19.10    4.60
   3   6   1   13.80    4.00
  -4  -6  -1    0.40    3.20
  -4  -6  -1   -1.50    4.00
  -4  -6  -1    1.70    3.00
  -4  -6  -1    2.50    2.80
   4   6   1    4.60    3.30
   4   6   1    0.70    3.10
  -5  -6  -1  229.68   28.00
  -5  -6  -1  232.58   28.30
  -5  -6  -1  217.48   28.00
   5   6   1  229.28   28.30
   5   6   1  208.18   27.80
   5   6   1  218.98   28.30
  -6  -6  -1   20.50    5.40
  -6  -6  -1   31.00    6.40
  -6  -6  -1   19.80    6.10
   6   6   1   26.70    5.90
   6   6   1   23.90    6.00
   6   6   1   25.90    6.50
  -7  -6  -1   -0.60    3.40
  -7  -6  -1   -2.00    3.60
  -7  -6  -1    6.00    4.50
   7   6   1    1.80    4.40
   7   6   1    4.90    4.10
   7   6   1   -0.10    3.20
  -8  -6  -1   43.70    9.30
  -8  -6  -1   51.19   10.50
  -8  -6  -1   74.69   11.20
   8   6   1   45.80   10.20
   8   6   1   73.79   10.10
  -9  -6  -1   11.50    6.30
  -9  -6  -1   17.70    6.40
  -9  -6  -1   10.20    5.30
   9   6   1    3.50    4.40
 -10  -6  -1   13.10    7.10
 -10  -6  -1    8.40    6.90
 -10  -6  -1   -0.20    4.50
  10   6   1    2.50    5.30
 -11  -6  -1   12.70    6.40
 -11  -6  -1    6.10    7.30
 -11  -6  -1    2.00    6.10
  11   6   1   -2.00    5.60
 -12  -6  -1   52.59   11.60
 -12  -6  -1   29.40    8.30
 -12  -6  -1   20.30   10.00
 -13  -6  -1   -4.10    8.70
 -13  -6  -1    9.20    8.70
 -13  -6  -1    4.70    7.10
  11  -7  -1    3.00    6.70
 -11   7   1    6.40    9.50
 -11   7   1   13.90    8.90
  10  -7  -1   -1.40    6.00
 -10   7   1   -6.10    8.00
 -10   7   1    1.00    8.00
   9  -7  -1    1.90    5.40
  -9   7   1    3.50    7.50
  -9   7   1   -3.80    6.40
   8  -7  -1  225.08   25.30
  -8   7   1  170.68   26.70
  -8   7   1  151.18   25.90
   7  -7  -1   18.10    7.00
   7  -7  -1   20.50    6.90
  -7   7   1   16.30    7.50
  -7   7   1   24.60    7.60
   6  -7  -1  157.88   21.70
   6  -7  -1  149.79   22.50
  -6   7   1  170.68   23.20
  -6   7   1  149.49   23.60
  -6   7   1  171.38   22.10
   5  -7  -1   26.10    6.60
   5  -7  -1   37.40    8.10
   5  -7  -1   39.30    7.70
  -5   7   1   10.20    5.70
  -5   7   1   14.10    6.90
  -5   7   1   33.00    7.60
   4  -7  -1  113.39   19.90
   4  -7  -1   99.39   15.70
   4  -7  -1  108.19   15.40
  -4   7   1   97.69   16.30
  -4   7   1   99.69   16.70
   3  -7  -1  367.16   45.10
   3  -7  -1  349.77   45.50
   3  -7  -1  395.36   45.10
   3  -7  -1  369.06   45.30
  -3   7   1  324.87   45.10
  -3   7   1  382.06   45.80
   2  -7  -1   -0.50    4.10
   2  -7  -1   -1.10    3.50
   2  -7  -1    1.80    3.80
   2  -7  -1    9.40    4.50
  -2   7   1   -0.10    4.00
  -2   7   1    7.20    4.50
   1  -7  -1   68.49   11.30
   1  -7  -1   71.79   12.20
   1  -7  -1   79.19   12.00
   1  -7  -1   66.79   11.60
  -1   7   1   98.79   12.60
  -1   7   1   72.89   12.50
   0  -7  -1   45.40    7.50
   0  -7  -1   37.00    7.90
   0  -7  -1   35.10    7.70
   0   7   1   38.20    8.40
   0   7   1   34.40    7.00
   0   7   1   64.99    8.90
  -1  -7  -1  724.93   83.39
  -1  -7  -1  680.23   83.39
  -1  -7  -1  677.13   83.59
   1   7   1  680.13   83.39
   1   7   1  726.83   83.39
   1   7   1  635.34   83.49
  -2  -7  -1   59.09    9.30
  -2  -7  -1   46.60    9.50
  -2  -7  -1   48.90    9.10
   2   7   1   55.29    9.20
   2   7   1   58.49    9.50
  -3  -7  -1    0.80    3.60
  -3  -7  -1    5.80    5.00
  -3  -7  -1   10.90    4.00
  -3  -7  -1   11.90    4.00
   3   7   1    8.00    3.60
   3   7   1    5.50    3.80
  -4  -7  -1  231.78   29.30
  -4  -7  -1  231.98   29.90
  -4  -7  -1  235.08   29.20
  -4  -7  -1  235.48   29.40
   4   7   1  223.18   29.40
   4   7   1  237.28   29.30
  -5  -7  -1   25.70    6.10
  -5  -7  -1   10.40    5.90
  -5  -7  -1   26.40    5.80
  -5  -7  -1   29.70    6.10
   5   7   1   24.40    5.90
   5   7   1   16.60    5.20
  -6  -7  -1  119.79   17.10
  -6  -7  -1  126.39   16.90
  -6  -7  -1  108.89   16.40
   6   7   1  116.69   15.70
   6   7   1  105.49   16.80
   6   7   1  114.09   17.20
  -7  -7  -1    5.80    6.00
  -7  -7  -1   -3.80    3.70
  -7  -7  -1    4.10    4.40
   7   7   1   -0.40    3.80
  -8  -7  -1   57.59   10.60
  -8  -7  -1   64.99   10.80
  -8  -7  -1   42.80   12.70
   8   7   1   49.20    9.80
   8   7   1   52.39   10.50
  -9  -7  -1   14.10    6.40
  -9  -7  -1    7.80    5.50
  -9  -7  -1    2.50    4.90
   9   7   1    5.80    5.40
 -10  -7  -1    3.60    5.60
 -10  -7  -1   -3.00    6.40
 -10  -7  -1    1.60    5.70
  10   7   1    7.30    5.60
 -11  -7  -1    0.40    5.70
 -11  -7  -1  -10.70    6.40
 -11  -7  -1   -3.50    6.40
 -12  -7  -1   -5.10    6.30
 -12  -7  -1   -3.80    7.30
 -12  -7  -1   -5.30    7.30
 -11   8   1   17.50    9.90
 -11   8   1    7.00    9.00
  10  -8  -1    3.80    6.10
 -10   8   1   -6.00    7.80
 -10   8   1   -7.80    6.70
   9  -8  -1   -4.80    5.30
  -9   8   1   -4.40    6.90
  -9   8   1    0.60    6.70
   8  -8  -1   14.90    6.70
  -8   8   1   20.80    8.10
  -8   8   1   17.60    8.30
   7  -8  -1  144.29   19.20
  -7   8   1  127.79   19.40
  -7   8   1   93.19   17.90
   6  -8  -1   10.20    6.20
   6  -8  -1    2.80    5.10
  -6   8   1    5.20    6.00
  -6   8   1    4.10    6.00
   5  -8  -1   44.10    8.40
   5  -8  -1   22.60    7.60
  -5   8   1   46.20    9.40
   4  -8  -1   70.99   13.00
   4  -8  -1   78.89   12.00
   4  -8  -1   75.49   12.70
   4  -8  -1   71.89   11.80
  -4   8   1   79.29   13.00
  -4   8   1   65.49   12.50
   3  -8  -1  193.78   26.20
   3  -8  -1  224.98   26.10
   3  -8  -1  192.78   26.30
  -3   8   1  186.48   26.30
  -3   8   1  219.68   27.20
   2  -8  -1  131.59   18.50
   2  -8  -1  145.69   19.70
   2  -8  -1  128.59   18.20
   2  -8  -1  153.98   20.30
  -2   8   1  157.48   20.70
  -2   8   1  127.09   18.50
   1  -8  -1   50.49   13.00
   1  -8  -1   70.49   10.00
   1  -8  -1   82.69   11.40
  -1   8   1   45.70    9.90
  -1   8   1   46.60    9.80
   0  -8  -1  155.48   20.30
   0  -8  -1  159.18   19.80
   0  -8  -1  136.29   19.80
   0   8   1  162.68   20.00
   0   8   1  148.99   20.40
   0   8   1  143.69   20.00
  -1  -8  -1    4.00    3.90
  -1  -8  -1   15.10    4.70
   1   8   1   14.60    5.60
   1   8   1    7.00    4.20
  -2  -8  -1  171.88   22.60
  -2  -8  -1  176.98   22.10
  -2  -8  -1  168.38   22.10
   2   8   1  165.38   22.10
   2   8   1  168.08   22.10
  -3  -8  -1   17.80    4.80
  -3  -8  -1    8.60    4.20
  -3  -8  -1    5.40    5.00
   3   8   1   10.70    4.50
   3   8   1    6.00    4.00
  -4  -8  -1  159.38   20.20
  -4  -8  -1  149.88   20.80
  -4  -8  -1  144.99   19.90
  -4  -8  -1  154.58   20.00
   4   8   1  144.19   20.00
   4   8   1  158.18   20.20
  -5  -8  -1  143.89   18.60
  -5  -8  -1  132.39   18.20
  -5  -8  -1  158.28   20.80
  -5  -8  -1  140.19   18.20
   5   8   1  118.09   19.10
   5   8   1  124.69   19.00
  -6  -8  -1  168.18   24.10
  -6  -8  -1  139.49   18.70
  -6  -8  -1  143.29   19.00
  -6  -8  -1  114.39   20.10
   6   8   1  133.49   20.40
  -7  -8  -1   12.70    5.50
  -7  -8  -1    0.10    4.20
  -7  -8  -1    3.70    5.20
   7   8   1    7.70    4.70
  -8  -8  -1    2.10    4.40
  -8  -8  -1   13.10    6.00
  -8  -8  -1   10.80    5.40
   8   8   1    6.50    5.00
   8   8   1    3.90    6.40
  -9  -8  -1   57.19   11.60
  -9  -8  -1   44.10   10.10
  -9  -8  -1   64.79   11.70
   9   8   1   69.09   11.10
 -10  -8  -1   10.40    6.00
 -10  -8  -1    4.20    6.40
 -10  -8  -1   14.60    7.50
 -11  -8  -1    2.60    7.30
 -11  -8  -1   -3.40    6.60
 -11  -8  -1   -6.50    5.20
 -12  -8  -1    1.20    7.50
 -12  -8  -1    4.50    8.70
 -12  -8  -1  -14.00    6.30
 -10   9   1   -0.70    9.10
 -10   9   1    0.80    8.00
   9  -9  -1   -5.20    5.20
  -9   9   1    8.90    7.60
  -9   9   1   -2.80    7.50
   8  -9  -1   12.80    6.80
  -8   9   1   13.90    8.30
  -8   9   1   20.10    8.80
   7  -9  -1   50.19   10.70
  -7   9   1   54.39   12.10
  -7   9   1   72.69   13.40
   6  -9  -1  120.89   16.00
   6  -9  -1   71.59   14.00
   6  -9  -1   58.09   17.90
  -6   9   1  102.79   16.70
   5  -9  -1    1.70    5.00
   5  -9  -1    4.80    4.60
   5  -9  -1    5.70    6.00
  -5   9   1   -0.10    5.30
   4  -9  -1  119.69   17.40
   4  -9  -1  128.09   18.20
   4  -9  -1  108.79   16.50
  -4   9   1   98.89   18.00
   3  -9  -1    7.00    7.50
   3  -9  -1   11.50    6.30
   3  -9  -1    3.10    4.50
   3  -9  -1   -1.20    3.90
  -3   9   1    1.90    5.40
   2  -9  -1  103.49   16.20
   2  -9  -1  104.89   16.00
   2  -9  -1  117.59   16.30
   2  -9  -1   91.99   16.10
  -2   9   1  115.39   16.50
  -2   9   1   87.99   16.40
   1  -9  -1   10.20    5.70
   1  -9  -1   12.90    5.60
   1  -9  -1   13.30    4.70
   1  -9  -1   17.70    6.20
  -1   9   1   13.50    5.40
  -1   9   1    9.50    5.40
   0  -9  -1   35.90    7.90
   0  -9  -1   34.10    7.60
   0  -9  -1   52.89    9.70
   0   9   1   36.60    7.90
   0   9   1   47.80    9.20
   0   9   1   35.90    8.40
  -1  -9  -1  155.38   22.30
  -1  -9  -1  165.58   23.70
   1   9   1  171.28   23.00
   1   9   1  149.88   21.10
  -2  -9  -1   16.30    5.30
  -2  -9  -1   22.10    6.00
  -2  -9  -1   17.10    5.90
   2   9   1   16.90    5.60
   2   9   1    8.00    5.40
  -3  -9  -1   -7.50    3.90
  -3  -9  -1   -4.80    3.50
  -3  -9  -1    7.40    4.40
  -3  -9  -1    0.60    3.60
   3   9   1   -4.70    4.00
   3   9   1    3.50    4.00
  -4  -9  -1   30.00    7.30
  -4  -9  -1   21.10    6.00
  -4  -9  -1   30.60    6.60
  -4  -9  -1   20.70    5.80
   4   9   1   12.80    6.00
   4   9   1   14.70    5.80
  -5  -9  -1   20.90    6.10
  -5  -9  -1   20.20    6.10
  -5  -9  -1   17.80    5.90
  -5  -9  -1   12.30    6.80
   5   9   1   16.60    6.30
  -6  -9  -1   31.30    7.70
  -6  -9  -1   20.50    7.20
  -6  -9  -1   46.20    9.80
  -6  -9  -1   44.80    8.50
   6   9   1   32.40    7.90
  -7  -9  -1   91.99   17.20
  -7  -9  -1  111.09   16.60
  -7  -9  -1   99.49   15.60
  -7  -9  -1  111.09   16.10
   7   9   1   91.69   15.50
  -8  -9  -1    1.00    5.40
  -8  -9  -1   10.40    6.60
  -8  -9  -1   19.40    6.70
  -9  -9  -1   23.30    7.80
  -9  -9  -1   10.20    6.00
  -9  -9  -1   16.70    7.00
 -10  -9  -1   -0.60    6.70
 -10  -9  -1   -4.30    4.70
 -10  -9  -1   -0.30    6.00
 -11  -9  -1    1.60    7.80
 -11  -9  -1   -0.10    7.30
 -11  -9  -1   -0.10    6.10
 -10  10   1    7.70    8.90
   9 -10  -1   -1.00    7.00
  -9  10   1   -5.80    7.60
   8 -10  -1   39.80    9.50
   8 -10  -1   18.50    7.80
   7 -10  -1   11.10    6.40
   7 -10  -1   -5.90    5.20
  -7  10   1    4.20    7.30
   6 -10  -1   94.19   16.30
   6 -10  -1   92.79   15.50
  -6  10   1  110.19   18.00
   5 -10  -1   28.30    7.40
   5 -10  -1   28.90    8.10
  -5  10   1   17.00    8.20
   4 -10  -1   18.10    5.90
   4 -10  -1   12.80    6.80
   4 -10  -1   14.10    6.80
  -4  10   1   11.90    6.60
   3 -10  -1    8.40    4.90
   3 -10  -1   10.80    6.10
   3 -10  -1    6.10    6.10
  -3  10   1   22.40    8.20
   2 -10  -1   22.80    7.10
   2 -10  -1   14.70    5.60
   2 -10  -1   11.90    5.70
   2 -10  -1   21.30    7.30
  -2  10   1   21.40    7.60
   1 -10  -1    3.30    5.40
   1 -10  -1    2.10    5.50
   1 -10  -1   -6.80    3.60
   1 -10  -1    6.00    4.10
  -1  10   1    1.50    5.20
   0 -10  -1    6.60    4.80
   0 -10  -1   10.40    6.30
   0 -10  -1   22.60    5.40
   0  10   1    3.30    5.30
   0  10   1    7.40    5.20
  -1 -10  -1  161.88   23.50
  -1 -10  -1  162.68   23.30
  -1 -10  -1  190.68   26.40
   1  10   1  210.78   24.10
   1  10   1  189.18   33.10
  -2 -10  -1    9.80    5.20
  -2 -10  -1   -0.40    4.20
  -2 -10  -1    8.50    4.30
   2  10   1    1.20    4.70
   2  10   1   13.70    6.30
  -3 -10  -1    2.80    4.10
  -3 -10  -1   -2.50    5.20
  -3 -10  -1   -1.90    4.70
  -3 -10  -1   -0.10    4.40
   3  10   1    1.10    5.00
  -4 -10  -1    9.40    5.00
  -4 -10  -1    5.00    6.00
  -4 -10  -1   13.30    5.30
  -5 -10  -1   21.80    8.40
  -5 -10  -1   38.20    8.60
  -5 -10  -1   41.00    8.40
  -5 -10  -1   32.70    7.90
  -6 -10  -1   35.50    8.20
  -6 -10  -1   41.90    8.90
  -6 -10  -1   36.80   10.20
  -6 -10  -1   30.80    7.80
  -7 -10  -1   -2.50    4.80
  -7 -10  -1   -3.30    5.00
  -7 -10  -1   -3.40    4.70
  -8 -10  -1   30.30    8.40
  -8 -10  -1   23.00    8.00
  -8 -10  -1   40.00    9.90
  -9 -10  -1    5.90    6.60
  -9 -10  -1   -1.00    6.10
  -9 -10  -1    0.00    5.30
 -10 -10  -1   14.30    7.00
 -10 -10  -1    6.10    7.10
 -10 -10  -1   31.90    9.60
   9 -11  -1   -2.20    7.10
   9 -11  -1   -0.70    6.60
  -9  11   1    5.00    8.20
   8 -11  -1   14.20    7.80
   8 -11  -1    9.00    7.00
  -8  11   1   11.10    8.20
   7 -11  -1   48.60   11.50
   7 -11  -1   43.80   10.50
  -7  11   1   77.69   19.10
   6 -11  -1    5.80    6.50
   6 -11  -1   16.20    8.00
  -6  11   1   32.40    9.90
   5 -11  -1   65.69   11.20
   5 -11  -1   43.10   11.00
  -5  11   1   49.30   11.70
   4 -11  -1    2.30    5.50
   4 -11  -1   -2.70    4.80
  -4  11   1   -5.00    5.20
   3 -11  -1   69.59   12.70
   3 -11  -1   58.69   13.00
  -3  11   1  111.59   16.70
   2 -11  -1    6.80    5.60
   2 -11  -1    4.40    5.00
  -2  11   1    7.80    6.20
   1 -11  -1    5.10    6.70
   1 -11  -1   -3.60    4.10
   1 -11  -1   -6.90    3.30
  -1  11   1   -1.30    5.40
   0 -11  -1   74.99   12.30
   0 -11  -1   73.59   13.20
   0 -11  -1   61.69   12.80
   0  11   1   73.09   13.80
  -1 -11  -1   80.29   14.00
  -1 -11  -1   75.49   13.00
  -1 -11  -1   81.69   13.60
   1  11   1   69.99   13.90
  -2 -11  -1  132.89   20.50
  -2 -11  -1  158.38   21.70
  -2 -11  -1  145.59   20.90
  -2 -11  -1  133.59   21.30
  -3 -11  -1    5.60    4.80
  -3 -11  -1    9.40    5.50
  -3 -11  -1    2.60    4.70
  -3 -11  -1    6.70    6.30
  -4 -11  -1   76.59   15.30
  -4 -11  -1   90.89   14.80
  -4 -11  -1   97.69   14.90
  -4 -11  -1   95.69   15.00
  -5 -11  -1   19.70    7.60
  -5 -11  -1   38.00    7.90
  -5 -11  -1   18.80    8.40
  -5 -11  -1   40.80    8.40
  -6 -11  -1   67.59   12.80
  -6 -11  -1   88.39   14.60
  -6 -11  -1   82.39   13.70
  -7 -11  -1    2.00    5.60
  -7 -11  -1   -0.60    5.40
  -7 -11  -1    4.90    5.90
  -8 -11  -1   -3.00    5.00
  -8 -11  -1    4.50    6.50
  -8 -11  -1   18.50    7.90
  -9 -11  -1   33.70    9.70
  -9 -11  -1   36.60   10.10
  -9 -11  -1   36.80    9.20
 -10 -11  -1    2.80    6.20
 -10 -11  -1   -6.90    6.80
 -10 -11  -1   -3.70    6.80
   8 -12  -1    8.80    7.80
   8 -12  -1    8.70    8.00
  -8  12   1    2.20    9.00
   7 -12  -1   54.29   11.60
   7 -12  -1   64.39   12.70
  -7  12   1   47.70   12.90
   6 -12  -1   41.60    9.60
   6 -12  -1   35.80   10.60
  -6  12   1   45.90   13.00
   5 -12  -1   31.00    7.90
   5 -12  -1   19.50    8.20
  -5  12   1   31.50   10.40
   4 -12  -1    9.60    6.60
   4 -12  -1    8.20    5.50
  -4  12   1   13.20    8.00
   3 -12  -1   -3.30    5.80
   3 -12  -1   -1.90    5.00
  -3  12   1    8.70    6.60
   2 -12  -1  135.49   23.00
   2 -12  -1  162.08   22.60
  -2  12   1  158.98   24.30
   1 -12  -1   -5.80    4.30
   1 -12  -1   -0.30    4.80
  -1  12   1   -0.30    5.10
   0 -12  -1    7.60    5.40
   0 -12  -1    1.00    4.80
   0  12   1   -2.40    5.70
  -1 -12  -1  118.29   18.90
  -1 -12  -1  121.29   18.40
   1  12   1  105.59   18.70
  -2 -12  -1   51.69   11.30
  -2 -12  -1   50.39   13.50
  -2 -12  -1   57.99   10.90
  -2 -12  -1   61.69   11.40
  -3 -12  -1   11.90    8.70
  -3 -12  -1    1.50    5.10
  -3 -12  -1    6.40    5.30
  -3 -12  -1   14.20    6.20
  -4 -12  -1    9.60    5.60
  -4 -12  -1    5.50    5.40
  -4 -12  -1    6.70    5.70
  -5 -12  -1   70.29   12.20
  -5 -12  -1   77.89   13.40
  -5 -12  -1   67.49   13.20
  -6 -12  -1   -3.00    4.80
  -6 -12  -1    2.30    5.60
  -6 -12  -1    0.30    5.50
  -7 -12  -1   11.50    7.30
  -7 -12  -1    7.50    6.70
  -7 -12  -1   12.40    6.60
  -8 -12  -1    5.90    6.50
  -8 -12  -1   -4.90    5.70
  -8 -12  -1    8.20    7.50
  -9 -12  -1   15.10    8.10
  -9 -12  -1   12.80    8.10
  -9 -12  -1   24.60    8.60
   6 -13  -1   96.59   17.80
   6 -13  -1   84.59   15.50
  -6  13   1  100.99   19.00
   5 -13  -1   -2.60    5.90
   5 -13  -1   16.80    8.00
  -5  13   1   -5.30   10.20
   4 -13  -1    3.30    5.70
   4 -13  -1    1.00    5.10
  -4  13   1    2.40    7.60
   3 -13  -1   53.69   19.00
   3 -13  -1   66.79   11.60
  -3  13   1   41.70   12.20
   2 -13  -1   20.00    8.50
   2 -13  -1   56.49   10.00
  -2  13   1   34.30   10.30
   1 -13  -1   10.80    5.90
   1 -13  -1   -1.50    5.10
  -1  13   1    2.20    6.50
   0 -13  -1   -1.40    5.60
   0 -13  -1   -1.50    5.70
   0  13   1    3.50    6.90
  -1 -13  -1  166.68   24.60
  -1 -13  -1  196.38   27.40
   1  13   1  206.38   28.60
  -2 -13  -1    8.80    6.40
  -2 -13  -1   12.30    6.30
  -2 -13  -1   26.60    7.30
  -3 -13  -1   28.50    8.20
  -3 -13  -1   16.40    7.40
  -3 -13  -1   15.40    6.60
  -4 -13  -1    1.80    5.10
  -4 -13  -1    0.50    5.20
  -4 -13  -1    0.70    5.60
  -5 -13  -1   42.00   11.60
  -5 -13  -1   56.09   11.90
  -5 -13  -1   51.79   10.50
  -6 -13  -1   49.80   11.20
  -6 -13  -1   45.90   11.10
  -6 -13  -1   51.19   10.50
  -7 -13  -1    5.50    6.70
  -7 -13  -1   -1.70    6.40
  -7 -13  -1   -0.30    6.50
  -8 -13  -1    7.90    7.50
  -8 -13  -1   10.30   12.60
  -8 -13  -1    1.70    6.50
   5 -14  -1   -1.50    6.40
   5 -14  -1    0.00    6.40
  -5  14   1    9.50    8.70
   4 -14  -1   -0.10    6.70
   4 -14  -1   -4.30    5.10
  -4  14   1    9.90    8.80
   3 -14  -1   60.49   11.70
   3 -14  -1   50.09   12.70
  -3  14   1   44.30   12.50
   2 -14  -1    5.30    5.50
   2 -14  -1    9.60    7.20
  -2  14   1   11.70    8.70
   1 -14  -1   -5.80    4.80
   1 -14  -1   -0.60    6.40
  -1  14   1    1.30    7.40
   0 -14  -1   -2.00    5.60
   0 -14  -1    4.10    6.70
   0  14   1   11.70    8.50
  -1 -14  -1   66.39   12.60
  -1 -14  -1   83.89   14.60
   1  14   1   48.40   13.70
  -2 -14  -1   44.50   14.40
  -2 -14  -1   80.59   14.30
  -2 -14  -1   84.39   14.10
  -3 -14  -1    4.70    5.90
  -3 -14  -1   -6.40    5.30
  -3 -14  -1   -1.70    5.70
  -4 -14  -1   19.10    7.40
  -4 -14  -1    9.10    6.90
  -4 -14  -1    8.10    6.70
  -5 -14  -1    3.30    6.70
  -5 -14  -1   -2.60    5.30
  -5 -14  -1   -4.80    5.40
  -6 -14  -1   49.60   11.30
  -6 -14  -1   60.59   13.10
  -6 -14  -1   45.80   11.80
   3 -15  -1    9.50    8.00
   3 -15  -1    3.10    7.70
  -3  15   1   27.80   10.40
   2 -15  -1   12.30    8.40
   2 -15  -1   31.70    8.70
  -2  15   1   28.10   18.80
   1 -15  -1    6.30    7.50
   1 -15  -1   12.40    7.10
  -1  15   1   12.80    8.70
   0 -15  -1    7.50    7.20
   0 -15  -1    0.90    8.60
   0  15   1   14.50    9.20
  -1 -15  -1   -0.70    6.20
  -1 -15  -1    1.40    6.40
  -2 -15  -1   24.30    9.20
  -2 -15  -1   33.20   10.50
  -2 -15  -1   47.60   10.40
  -3 -15  -1    6.70    7.00
  -3 -15  -1    5.00    6.30
  -3 -15  -1    0.00    5.80
  -4 -15  -1    9.00    7.00
  -4 -15  -1    9.90    7.10
  -4 -15  -1   -1.00    6.40
   0 -15   2    6.70    6.70
   0 -15   2    6.30    7.00
   0 -15   2    9.20    6.80
  -1  15  -2   -4.30    6.70
   1 -15   2   12.00    7.60
   1 -15   2    5.40    6.00
  -4 -14   2    4.90    5.80
  -4 -14   2    2.30    7.80
  -4 -14   2   10.90    7.70
  -4 -14   2   -6.00    6.00
  -3 -14   2   28.00    7.30
  -3 -14   2   26.20    9.60
  -3 -14   2   17.70    9.30
  -3 -14   2   26.30    8.80
  -2 -14   2    6.80    7.10
  -2 -14   2    1.30    5.60
  -2 -14   2    1.50    7.80
  -2 -14   2   -1.60    5.20
  -1 -14   2   32.90    8.00
  -1 -14   2   21.40    8.30
  -1 -14   2    2.70    6.70
  -1 -14   2    9.50    6.20
   0 -14   2   29.40    8.40
   0 -14   2   38.40   10.30
  -1  14  -2    4.50    7.10
   1 -14   2    2.00    6.80
   1 -14   2   17.40    6.70
  -2  14  -2   21.20    8.40
   2 -14   2   -1.20    7.00
   2 -14   2   -3.10    4.90
  -3  14  -2    3.10    6.60
   3 -14   2    0.80    6.20
   3 -14   2   -1.40    4.90
  -4  14  -2   73.39   15.60
   4 -14   2   66.69   15.30
   4 -14   2   93.89   14.70
  -5  14  -2    8.00    8.80
   5 -14   2    5.00    7.20
   5 -14   2   -2.10    5.50
  -6 -13   2   -3.40    5.50
  -6 -13   2   -2.90    7.00
  -6 -13   2   -0.90    6.00
  -6 -13   2    1.00    7.70
  -5 -13   2    6.90    6.50
  -5 -13   2   17.20    7.00
  -5 -13   2   18.50    8.30
  -5 -13   2   14.70    8.00
  -4 -13   2   21.50   10.20
  -4 -13   2   26.10    9.10
  -4 -13   2   49.10   11.10
  -3 -13   2    4.40    6.80
  -3 -13   2   -3.10    5.30
  -2 -13   2    0.30    8.10
  -2 -13   2   -3.90    4.30
  -1 -13   2   -0.10    4.60
  -1 -13   2    2.50    7.00
  -1 -13   2   -1.20    6.70
  -1 -13   2   -0.80    4.90
   0  13  -2  114.09   19.80
   0 -13   2  148.79   19.70
   0 -13   2  131.39   20.80
   0 -13   2  113.49   19.30
  -1  13  -2   -6.20    5.10
   1 -13   2  -10.00    4.40
   1 -13   2    1.50    6.00
   1 -13   2   -0.20    6.90
  -2  13  -2    6.50    6.20
   2 -13   2   -0.20    6.40
   2 -13   2   -3.40    3.90
  -3  13  -2   33.90    9.50
   3 -13   2   24.80   15.10
   3 -13   2   21.90    7.20
  -4  13  -2   62.49   13.10
   4 -13   2   45.60   12.00
   4 -13   2   59.69   11.10
  -5  13  -2   13.30    9.10
   5 -13   2   13.40    6.00
   5 -13   2   28.70    9.10
  -6  13  -2    3.70    8.70
   6 -13   2    2.40    6.40
   6 -13   2    1.30    4.80
  -7  13  -2    0.80    7.60
   7 -13   2   16.50    6.60
   7 -13   2   14.80    8.30
  -7 -12   2    8.20    7.50
  -7 -12   2   -3.50    6.30
  -7 -12   2   -1.70    5.80
  -7 -12   2   -1.90    7.00
  -6 -12   2   -2.70    5.40
  -6 -12   2   -8.50    5.70
  -6 -12   2    6.40    8.80
  -6 -12   2   -8.20    6.60
  -5 -12   2   -2.60    4.70
  -5 -12   2   -3.90    5.90
  -5 -12   2    1.00    5.90
  -5 -12   2   -0.70    5.70
  -4 -12   2   40.70   10.00
  -4 -12   2   44.80   11.20
  -4 -12   2   41.50    8.60
  -4 -12   2   47.40    9.80
  -3 -12   2    8.80    6.40
  -3 -12   2    4.80    5.60
  -3 -12   2    3.40    4.30
  -3 -12   2    4.40    5.70
  -2 -12   2    2.80    5.10
  -2 -12   2    6.50    6.30
  -2 -12   2    2.10    4.70
  -2 -12   2    9.70    4.60
  -1 -12   2   -6.90    5.50
  -1 -12   2   -3.70    4.40
  -1 -12   2    2.50    4.60
  -1 -12   2    2.30    4.40
   0 -12   2    8.30    6.50
   0 -12   2    2.80    5.40
   0 -12   2   13.40    5.30
  -1  12  -2   -2.70    5.40
   1 -12   2   -0.20    6.90
   1 -12   2    4.90    5.50
   1 -12   2    3.30    4.50
  -2  12  -2    7.60    6.60
   2 -12   2   23.90    8.80
   2 -12   2   26.60    7.10
   2 -12   2   50.69   10.30
   2 -12   2   27.30    8.00
  -3  12  -2   78.39   15.50
   3 -12   2   91.99   15.30
   3 -12   2   82.39   14.00
   3 -12   2   94.19   16.20
  -4  12  -2   14.80    7.70
   4 -12   2    4.10    6.60
   4 -12   2   -3.50    5.40
   4 -12   2    5.80    4.90
  -5  12  -2   17.00    8.10
   5 -12   2    5.10    5.90
   5 -12   2    2.90    6.80
   5 -12   2    4.80    4.80
  -6  12  -2    2.70    6.20
   6 -12   2   -0.90    4.90
   6 -12   2   21.70    9.80
   6 -12   2   -3.40    4.80
  -7  12  -2   10.80    9.00
   7 -12   2   15.80    6.50
   7 -12   2   11.00    7.70
  -8  12  -2   12.60    9.20
   8 -12   2    9.20    6.90
   8 -12   2    7.70    6.10
  -8 -11   2   11.50    8.80
  -8 -11   2    8.80    7.60
  -8 -11   2   -2.50    7.10
  -8 -11   2    2.40    6.60
  -7 -11   2   -3.40    6.20
  -7 -11   2    6.10    6.50
  -7 -11   2   -2.70    5.70
  -7 -11   2   -0.50    6.10
  -6 -11   2    0.30    5.70
  -6 -11   2    0.30    5.60
  -6 -11   2    0.10    5.70
  -6 -11   2  -11.80    4.80
  -5 -11   2   39.90    9.70
  -5 -11   2   41.00    9.70
  -5 -11   2   27.10    8.70
  -5 -11   2   34.90    7.70
  -4 -11   2   25.60    7.70
  -4 -11   2   30.80    6.60
  -4 -11   2   31.60    7.60
  -4 -11   2   22.00    7.90
  -3 -11   2    2.20    5.10
  -3 -11   2    7.80    6.30
  -3 -11   2   20.40    6.20
  -3 -11   2    2.80    4.20
  -2 -11   2    4.90    4.40
  -2 -11   2    0.60    5.00
  -2 -11   2    4.60    5.70
  -2 -11   2    3.20    4.00
   1  11  -2   54.99   11.60
  -1 -11   2   66.49   10.60
  -1 -11   2   75.09   11.40
  -1 -11   2   55.39   11.40
  -1 -11   2   47.70   10.40
   0  11  -2   -4.70    4.90
   0  11  -2   -0.70    5.00
   0 -11   2    4.70    4.30
   0 -11   2   -6.60    4.90
   0 -11   2   -3.20    4.20
  -1  11  -2   21.10    6.50
  -1  11  -2   14.50    6.50
   1 -11   2   26.90    7.20
   1 -11   2   22.80    6.00
   1 -11   2   13.10    6.50
  -2  11  -2   20.90    7.10
   2 -11   2   22.50    8.70
   2 -11   2   26.20    6.30
   2 -11   2   10.30    6.20
   2 -11   2    8.30    6.80
  -3  11  -2    1.60    6.00
   3 -11   2    1.80    3.80
   3 -11   2    9.60    6.70
   3 -11   2    8.50    6.00
   3 -11   2    4.00    5.90
  -4  11  -2   66.29   14.00
   4 -11   2   74.29   13.50
   4 -11   2   83.29   12.90
   4 -11   2   80.09   14.00
  -5  11  -2   11.00    6.60
   5 -11   2    6.60    4.40
   5 -11   2    2.20    5.10
   5 -11   2    9.90    6.30
  -6  11  -2   10.00    7.80
   6 -11   2   19.50    6.20
   6 -11   2    0.60    6.70
   6 -11   2   10.00    6.10
  -7  11  -2   -1.60    6.80
   7 -11   2    6.30    4.80
   7 -11   2    5.40    6.10
   7 -11   2    3.40    7.10
  -8  11  -2   66.69   14.70
   8 -11   2   64.29   13.30
   8 -11   2   68.89   12.00
  -9  11  -2    3.40    8.20
   9 -11   2    1.30    6.10
  -9 -10   2    2.00    7.90
  -9 -10   2   15.30    7.40
  -9 -10   2    1.50    8.00
  -8 -10   2    2.30    8.20
  -8 -10   2   11.90    6.80
  -8 -10   2    2.00    6.40
  -8 -10   2    8.10    7.40
  -7 -10   2   30.50    9.30
  -7 -10   2   47.60   10.30
  -7 -10   2   46.30   12.60
  -6 -10   2   -0.40    5.50
  -6 -10   2   -6.00    5.00
  -6 -10   2   -4.20    4.60
  -6 -10   2   -0.40    5.50
  -5 -10   2   34.60    7.40
  -5 -10   2   40.10    9.50
  -5 -10   2   30.30    8.20
  -5 -10   2   42.10    8.90
  -4 -10   2   33.70    7.70
  -4 -10   2   27.60    6.30
  -4 -10   2   23.00    7.40
  -4 -10   2   33.30    8.00
  -3 -10   2   27.10    7.10
  -3 -10   2   20.60    5.80
  -3 -10   2   22.30    7.50
  -3 -10   2   24.40    5.70
   2  10  -2    6.30    4.40
  -2 -10   2   12.20    5.00
  -2 -10   2    4.20    3.70
  -2 -10   2    1.90    3.90
  -2 -10   2   -4.70    4.10
   1  10  -2   -1.90    3.80
  -1 -10   2    1.40    4.20
  -1 -10   2    0.20    3.80
  -1 -10   2    0.70    3.90
  -1 -10   2   -6.30    3.90
   0  10  -2  134.79   24.90
   0  10  -2  150.18   21.10
   0 -10   2  134.29   21.50
   0 -10   2  148.69   20.70
   0 -10   2  149.59   20.70
  -1  10  -2   -2.40    4.40
  -1  10  -2    7.20    5.00
   1 -10   2    8.90    4.20
   1 -10   2   -4.60    3.80
   1 -10   2    0.60    5.00
  -2  10  -2   16.80    5.70
   2 -10   2   19.80    5.40
   2 -10   2   20.70    7.30
   2 -10   2   10.20    6.00
  -3  10  -2    5.40    6.40
   3 -10   2   11.40    5.70
   3 -10   2   26.20    7.10
   3 -10   2   11.40    4.70
  -4  10  -2   48.30    9.70
   4 -10   2   34.40    9.00
   4 -10   2   26.10    9.50
   4 -10   2   43.20    8.90
   4 -10   2   52.29    8.30
  -5  10  -2   -5.30    5.20
   5 -10   2   13.40    5.20
   5 -10   2    6.50    5.30
   5 -10   2    6.40    5.40
  -6  10  -2   38.80    9.40
   6 -10   2   18.10    6.90
   6 -10   2    8.80    6.90
   6 -10   2   42.90    7.60
  -7  10  -2  123.59   21.60
   7 -10   2  133.89   20.10
   7 -10   2  149.49   21.30
   7 -10   2  133.59   19.30
  -8  10  -2   -4.30    6.80
   8 -10   2   -2.00    5.10
   8 -10   2    4.20    6.50
   8 -10   2    0.80    4.80
  -9  10  -2   13.00    8.80
   9 -10   2    2.10    5.40
   9 -10   2    8.40    7.10
 -10  10  -2   -9.30    7.30
  10 -10   2    9.10    6.50
  10 -10   2   -3.80    5.90
 -10  -9   2    2.20    6.90
 -10  -9   2    6.70    8.00
 -10  -9   2    1.70    7.20
  -9  -9   2    1.40    7.40
  -9  -9   2    2.30    6.40
  -9  -9   2   -1.90    6.70
  -8  -9   2    9.50    7.90
  -8  -9   2    8.70    6.70
  -8  -9   2   14.50    8.60
  -8  -9   2   23.80    7.30
  -7  -9   2   17.10    7.30
  -7  -9   2   50.09    8.60
  -7  -9   2   38.00    9.20
  -7  -9   2   33.50    9.10
  -6  -9   2  122.99   15.10
  -6  -9   2  103.19   15.90
  -6  -9   2   75.49   15.10
  -6  -9   2   92.59   15.70
  -5  -9   2   12.80    5.80
  -5  -9   2    0.50    4.80
  -5  -9   2   13.60    5.00
  -5  -9   2    7.40    5.60
  -4  -9   2    3.60    4.10
  -4  -9   2   -0.90    4.30
  -4  -9   2   -3.00    4.50
  -4  -9   2    6.90    4.00
   3   9  -2   17.10    5.50
  -3  -9   2    6.20    4.80
  -3  -9   2   13.80    5.80
  -3  -9   2    3.20    4.30
  -3  -9   2   10.10    4.10
   2   9  -2   29.70    6.70
  -2  -9   2   20.80    6.10
  -2  -9   2   17.40    6.00
  -2  -9   2   29.80    5.70
  -2  -9   2   32.40    7.40
   1   9  -2    3.40    3.80
   1   9  -2    3.60    4.20
  -1  -9   2   -3.60    3.50
  -1  -9   2    7.20    4.30
  -1  -9   2    3.50    3.20
  -1  -9   2   -6.10    3.10
   0   9  -2    6.30    4.60
   0   9  -2    4.10    4.10
   0   9  -2   10.20    5.00
   0  -9   2    0.70    4.20
   0  -9   2   14.90    4.90
   0  -9   2    0.70    3.40
  -1   9  -2   32.30    6.70
  -1   9  -2   18.20    6.60
  -1   9  -2   33.50    7.10
   1  -9   2   33.70    6.60
   1  -9   2   30.30    7.30
   1  -9   2   24.60    7.00
  -2   9  -2   -0.90    4.20
  -2   9  -2   -2.00    4.20
   2  -9   2   -4.40    4.70
   2  -9   2    2.00    3.40
   2  -9   2    0.70    4.30
  -3   9  -2   96.39   15.60
  -3   9  -2   64.79   13.20
   3  -9   2   84.89   12.50
   3  -9   2   87.19   13.20
   3  -9   2   87.79   14.30
   3  -9   2   83.19   13.80
  -4   9  -2   17.10    6.10
   4  -9   2   13.50    4.90
   4  -9   2   28.40    7.10
   4  -9   2   17.60    5.80
  -5   9  -2  110.29   18.20
   5  -9   2  130.89   17.20
   5  -9   2  100.49   17.60
   5  -9   2  114.29   17.90
   5  -9   2  118.79   16.70
  -6   9  -2   -0.70    5.20
   6  -9   2   -1.00    3.70
   6  -9   2   -0.80    4.50
   6  -9   2    3.20    5.00
  -7   9  -2   16.30    7.30
   7  -9   2   16.50    6.00
   7  -9   2   18.00    6.60
   7  -9   2   36.10    7.90
  -8   9  -2    2.70    7.10
   8  -9   2    7.60    6.30
   8  -9   2    7.50    5.10
   8  -9   2    4.60    5.70
  -9   9  -2  -13.10    5.50
   9  -9   2   -1.30    6.00
   9  -9   2   13.20    6.30
   9  -9   2    2.90    5.90
 -10   9  -2    9.10    8.80
  10  -9   2    3.20    6.30
 -11   9  -2   20.40   10.90
 -11   9  -2    4.50    7.90
  11  -9   2    4.80    6.70
 -10  -8   2   23.40    8.50
 -10  -8   2    9.30    7.00
 -10  -8   2    7.20    7.90
  -9  -8   2   11.30    7.90
  -9  -8   2    2.50    6.40
  -9  -8   2    1.70    6.00
   8   8  -2    2.60    6.50
  -8  -8   2   12.20    6.10
  -8  -8   2    2.60    6.50
  -8  -8   2    9.10    6.20
   7   8  -2    8.70    5.50
  -7  -8   2   24.40    7.00
  -7  -8   2    7.80    6.70
  -7  -8   2    2.20    5.60
  -6  -8   2    5.20    5.80
  -6  -8   2    6.10    5.20
  -6  -8   2   -2.70    5.00
  -6  -8   2    4.50    4.80
  -5  -8   2   12.30    5.90
  -5  -8   2    8.30    4.50
  -5  -8   2    8.90    5.10
  -5  -8   2   15.70    5.90
   4   8  -2  171.98   22.00
   4   8  -2  170.68   21.90
  -4  -8   2  169.28   22.00
  -4  -8   2  148.89   20.80
  -4  -8   2  168.08   21.80
  -4  -8   2  160.98   21.40
   3   8  -2  111.09   16.70
   3   8  -2  116.09   15.50
  -3  -8   2  112.89   15.20
  -3  -8   2  105.99   14.70
  -3  -8   2  123.69   15.80
  -3  -8   2  100.19   16.40
   2   8  -2    2.20    4.10
   2   8  -2   25.20    5.40
  -2  -8   2   14.80    5.40
  -2  -8   2   11.50    4.10
  -2  -8   2    9.50    3.70
  -2  -8   2    4.70    3.80
   1   8  -2    5.70    3.90
   1   8  -2    4.00    4.10
  -1  -8   2    8.60    4.60
  -1  -8   2   19.30    4.70
  -1  -8   2    7.50    4.10
   0   8  -2    8.90    3.60
   0   8  -2    4.20    4.00
   0   8  -2    5.40    4.00
   0  -8   2    6.50    3.50
   0  -8   2    2.10    3.50
   0  -8   2   -3.10    3.60
  -1   8  -2    8.90    4.60
  -1   8  -2   29.00    5.30
  -1   8  -2   25.60    6.00
   1  -8   2   17.60    5.20
   1  -8   2   12.70    5.10
   1  -8   2   10.00    3.90
  -2   8  -2   21.60    4.70
  -2   8  -2   10.00    5.30
  -2   8  -2    9.50    5.10
   2  -8   2   14.00    5.10
   2  -8   2   13.30    5.20
   2  -8   2   10.90    3.80
  -3   8  -2  194.48   23.90
  -3   8  -2  176.38   23.70
   3  -8   2  173.28   23.60
   3  -8   2  181.28   23.20
   3  -8   2  183.38   22.80
   3  -8   2  175.08   23.60
  -4   8  -2   89.09   16.10
  -4   8  -2  110.69   16.70
   4  -8   2  118.99   14.60
   4  -8   2   91.79   16.10
   4  -8   2   95.29   16.40
   4  -8   2  123.99   15.10
  -5   8  -2   39.50    8.70
  -5   8  -2   28.90    7.80
   5  -8   2   40.70    6.80
   5  -8   2   30.80    7.10
   5  -8   2   38.20    7.80
   5  -8   2   22.10    8.20
  -6   8  -2    8.40    5.30
  -6   8  -2    4.50    5.40
   6  -8   2    9.00    4.70
   6  -8   2    3.50    4.40
   6  -8   2    1.00    6.30
   6  -8   2    1.40    4.10
  -7   8  -2   15.50    7.30
   7  -8   2   -4.60    4.10
   7  -8   2    7.70    5.10
   7  -8   2    9.80    5.10
  -8   8  -2   30.40    9.60
   8  -8   2   28.40    8.10
   8  -8   2   35.00    8.20
  -9   8  -2   -0.90    7.50
  -9   8  -2    2.40    6.00
   9  -8   2   11.50    6.40
   9  -8   2    4.40    5.00
 -10   8  -2    1.20    6.90
 -10   8  -2   -7.90    7.10
  10  -8   2   15.10    6.40
 -11   8  -2    0.10    7.00
 -11   8  -2    1.60    9.00
  11  -8   2    5.80    5.70
 -12   8  -2    5.40    9.30
 -12   8  -2   14.60    8.80
  12  -8   2   17.80    7.70
 -11  -7   2    1.30    7.30
 -11  -7   2   10.30    8.10
 -11  -7   2    7.80    8.80
 -10  -7   2    2.40    6.00
 -10  -7   2    9.80    7.50
 -10  -7   2    3.60    7.30
   9   7  -2    3.10    6.60
  -9  -7   2   -4.20    6.00
  -9  -7   2   -8.20    5.70
  -9  -7   2   -7.90    5.40
   8   7  -2    2.80    6.00
  -8  -7   2    1.80    5.70
  -8  -7   2    9.40    6.70
  -8  -7   2   -4.30    4.70
   7   7  -2   31.20    7.50
  -7  -7   2   22.80    6.30
  -7  -7   2   20.00    7.30
  -7  -7   2   18.10    6.60
   6   7  -2    9.00    5.80
   6   7  -2   16.20    6.10
  -6  -7   2    3.70    5.10
  -6  -7   2   11.60    5.00
  -6  -7   2   10.70    5.30
   5   7  -2   29.90    8.30
   5   7  -2   41.30    8.70
  -5  -7   2   40.90    9.00
  -5  -7   2   50.39    8.00
  -5  -7   2   61.19    9.80
   4   7  -2   10.50    5.10
   4   7  -2    5.70    4.10
  -4  -7   2   17.50    5.60
  -4  -7   2   12.90    5.20
  -4  -7   2   12.00    4.30
  -4  -7   2   10.90    4.80
   3   7  -2   58.19   10.90
  -3  -7   2   86.29   11.50
  -3  -7   2   67.29   10.50
  -3  -7   2   63.29    9.80
  -3  -7   2   80.39   13.00
   2   7  -2    6.00    3.90
   2   7  -2    5.60    3.40
  -2  -7   2    4.30    3.90
  -2  -7   2    6.20    3.70
  -2  -7   2    6.70    3.00
   1   7  -2   25.70    5.20
   1   7  -2   23.60    6.20
  -1  -7   2   24.20    4.70
  -1  -7   2   23.30    5.30
  -1  -7   2   17.00    5.60
   0   7  -2  121.99   15.30
   0   7  -2  101.09   14.70
   0   7  -2  110.79   15.20
   0  -7   2   99.39   14.50
   0  -7   2  111.19   14.60
   0  -7   2  135.79   16.80
  -1   7  -2    0.70    3.30
  -1   7  -2    5.70    4.10
  -1   7  -2   11.90    4.00
   1  -7   2    3.60    3.80
   1  -7   2    7.30    4.30
   1  -7   2    7.40    3.30
  -2   7  -2   57.69   11.10
  -2   7  -2   79.19   11.00
  -2   7  -2   71.59   11.60
   2  -7   2   84.89   11.70
   2  -7   2   67.19   10.30
   2  -7   2   64.09   11.40
  -3   7  -2    2.40    4.00
  -3   7  -2    5.40    4.40
   3  -7   2   -0.80    3.10
   3  -7   2    6.10    3.10
   3  -7   2    3.60    3.80
   3  -7   2    7.80    4.90
  -4   7  -2  261.27   33.00
  -4   7  -2  264.47   32.90
   4  -7   2  272.07   32.90
   4  -7   2  250.77   32.90
   4  -7   2  261.07   32.10
   4  -7   2  252.77   32.30
  -5   7  -2   49.30    9.40
  -5   7  -2   43.10    9.20
   5  -7   2   43.20    7.90
   5  -7   2   40.10    7.40
   5  -7   2   55.59    9.80
  -6   7  -2    9.90    6.70
  -6   7  -2   10.10    5.20
   6  -7   2    6.10    4.70
   6  -7   2   20.20    5.10
   6  -7   2   11.10    4.60
   6  -7   2   19.10    6.80
  -7   7  -2   42.80    9.60
  -7   7  -2   46.20    9.30
  -7   7  -2   50.69   11.20
   7  -7   2   57.09    9.70
   7  -7   2   47.20    9.00
  -8   7  -2   60.89   12.20
  -8   7  -2   83.69   13.00
  -8   7  -2   68.19   13.80
   8  -7   2   69.79   12.00
   8  -7   2   89.99   13.30
  -9   7  -2   51.29   11.30
  -9   7  -2   29.40    8.30
   9  -7   2   39.40    8.50
   9  -7   2   27.30    7.80
 -10   7  -2    8.10    7.50
 -10   7  -2   40.30   10.50
  10  -7   2   17.90    6.90
  10  -7   2   13.00    7.80
 -11   7  -2   -5.50    7.10
 -11   7  -2    6.10    8.20
  11  -7   2    8.20    6.60
 -12   7  -2    4.00    8.00
 -12   7  -2    6.90    8.80
  12  -7   2   -7.60    5.00
 -11  -6   2   28.60    9.70
 -11  -6   2   20.90    9.30
 -11  -6   2   45.40   10.40
 -10  -6   2   -8.00    6.10
 -10  -6   2    6.90    6.90
 -10  -6   2   -3.10    6.90
   9   6  -2    1.70    6.60
  -9  -6   2   -2.60    6.10
  -9  -6   2    6.20    5.50
  -9  -6   2   -5.30    5.80
   8   6  -2   -4.30    5.90
  -8  -6   2   -2.50    5.70
  -8  -6   2   -4.10    4.80
  -8  -6   2   11.10    6.00
   7   6  -2   47.70    9.60
   7   6  -2   46.20    9.50
  -7  -6   2   44.50    9.70
  -7  -6   2   63.59    9.90
  -7  -6   2   49.40   10.20
   6   6  -2   10.00    4.40
   6   6  -2    3.20    4.40
  -6  -6   2    0.30    4.50
  -6  -6   2    8.80    4.90
  -6  -6   2    8.40    4.80
   5   6  -2   39.00    7.30
   5   6  -2   31.00    6.40
  -5  -6   2   24.90    6.70
  -5  -6   2   40.20    6.60
  -5  -6   2   27.10    6.80
   4   6  -2  314.77   36.40
   4   6  -2  275.67   36.20
  -4  -6   2  278.27   36.20
  -4  -6   2  277.17   35.50
  -4  -6   2  310.37   36.40
   3   6  -2   -3.10    3.00
   3   6  -2   -2.40    3.00
  -3  -6   2   -0.30    3.40
  -3  -6   2    7.50    3.60
  -3  -6   2    5.00    2.90
  -3  -6   2    2.30    3.90
   2   6  -2   38.50    7.40
   2   6  -2   39.50    7.00
  -2  -6   2   44.30    7.20
  -2  -6   2   28.50    7.00
  -2  -6   2   42.70    6.70
  -2  -6   2   36.70    5.90
   1   6  -2   28.90    6.00
   1   6  -2   27.40    5.20
  -1  -6   2   17.80    4.30
  -1  -6   2   30.60    6.00
  -1  -6   2   19.10    4.80
  -1  -6   2   18.00    4.50
   0   6  -2  896.11  104.99
   0   6  -2  886.61  104.99
   0   6  -2  849.22  105.39
   0  -6   2  876.61  104.99
   0  -6   2  866.81  105.39
   0  -6   2  858.61  104.89
  -1   6  -2  206.18   25.80
  -1   6  -2  214.78   25.60
  -1   6  -2  198.68   25.30
   1  -6   2  185.08   25.80
   1  -6   2  193.98   25.70
   1  -6   2  216.08   25.30
  -2   6  -2  109.89   15.80
  -2   6  -2  132.89   16.70
  -2   6  -2   95.99   14.70
   2  -6   2  157.38   16.70
   2  -6   2  116.59   16.20
   2  -6   2  108.09   14.50
  -3   6  -2  116.59   15.20
  -3   6  -2  129.69   15.40
   3  -6   2   86.79   13.40
   3  -6   2   99.39   13.80
   3  -6   2  136.39   15.50
   3  -6   2   90.09   13.10
  -4   6  -2   35.20    7.50
  -4   6  -2   39.60    7.60
   4  -6   2   47.40    8.20
   4  -6   2   35.10    6.30
   4  -6   2   41.20    8.00
   4  -6   2   29.30    6.00
  -5   6  -2  316.67   39.00
  -5   6  -2  303.97   39.30
   5  -6   2  312.57   39.00
   5  -6   2  306.57   38.50
   5  -6   2  336.27   38.60
   5  -6   2  299.07   39.30
  -6   6  -2    8.50    4.70
  -6   6  -2    2.40    3.80
  -6   6  -2    0.80    5.40
   6  -6   2    2.20    3.90
   6  -6   2    3.10    3.60
  -7   6  -2   62.99   13.10
  -7   6  -2   63.39   11.70
  -7   6  -2   71.19   11.90
   7  -6   2   80.39   13.50
   7  -6   2   75.89   11.60
   7  -6   2   98.29   12.90
  -8   6  -2   30.10    9.00
  -8   6  -2   18.60    7.10
  -8   6  -2   36.00    8.00
   8  -6   2   43.00    7.90
   8  -6   2   31.70    7.30
  -9   6  -2    5.60    5.70
  -9   6  -2   29.40    8.80
   9  -6   2   16.80    7.00
   9  -6   2   22.30    6.40
 -10   6  -2    1.80    6.90
 -10   6  -2   -6.80    5.30
  10  -6   2    1.40    6.20
  10  -6   2   -1.50    5.00
 -11   6  -2   20.30    7.90
 -11   6  -2   14.20    8.60
  11  -6   2    5.50    6.20
 -12   6  -2   38.60   10.80
 -12   6  -2   39.10   11.60
  12  -6   2   45.10   10.10
 -13   6  -2   15.40    8.90
 -13   6  -2    4.30    8.30
  13  -6   2   -0.10    6.30
 -12  -5   2   -0.80    8.20
 -12  -5   2    4.40    7.70
 -12  -5   2    2.10    8.10
 -11  -5   2   24.60    8.80
 -11  -5   2   23.40    9.20
 -11  -5   2   -5.10    6.80
 -10  -5   2    3.60    6.80
 -10  -5   2   10.70    6.60
 -10  -5   2   13.90    7.20
   9   5  -2    1.70    6.30
  -9  -5   2   -4.00    5.40
  -9  -5   2   13.80    6.90
  -9  -5   2   -0.20    5.60
   8   5  -2   43.40    8.80
   8   5  -2   26.20    8.90
  -8  -5   2   56.09   10.70
  -8  -5   2   39.40    8.40
  -8  -5   2   46.20    9.20
   7   5  -2   -1.90    4.30
   7   5  -2   -8.00    3.90
  -7  -5   2   -5.30    4.40
  -7  -5   2    0.30    5.10
  -7  -5   2   -6.50    4.40
   6   5  -2   77.99   13.50
   6   5  -2   83.89   12.80
  -6  -5   2   85.89   13.80
  -6  -5   2  106.39   15.60
  -6  -5   2   89.09   13.00
   5   5  -2   -0.40    3.60
   5   5  -2   -1.40    4.40
   5   5  -2    3.20    3.20
  -5  -5   2    3.10    4.20
  -5  -5   2    2.90    3.80
  -5  -5   2    4.30    3.90
   4   5  -2  116.19   16.10
   4   5  -2  102.49   15.90
   4   5  -2  137.29   15.70
  -4  -5   2  121.19   15.60
  -4  -5   2  115.09   16.20
  -4  -5   2  125.29   16.30
   3   5  -2   96.79   13.90
   3   5  -2   97.99   12.70
   3   5  -2  106.79   13.30
  -3  -5   2   84.89   12.40
  -3  -5   2   94.09   13.20
  -3  -5   2  113.99   14.60
   2   5  -2   55.19    8.40
   2   5  -2   60.29    9.20
  -2  -5   2   56.49    9.10
  -2  -5   2   60.19    8.20
  -2  -5   2   52.69    8.60
  -2  -5   2   43.40    7.30
   1   5  -2    3.30    3.00
   1   5  -2    0.60    3.00
  -1  -5   2    3.90    2.20
  -1  -5   2    1.80    3.80
  -1  -5   2    0.90    2.60
  -1  -5   2   -0.60    2.40
   0   5  -2   14.30    5.20
   0   5  -2   40.20    5.50
   0   5  -2   35.90    5.60
   0  -5   2   18.40    4.80
   0  -5   2   32.50    6.10
   0  -5   2   27.10    5.00
  -1   5  -2  195.28   22.80
  -1   5  -2  175.18   23.30
  -1   5  -2  199.08   23.10
   1  -5   2  184.48   22.80
   1  -5   2  178.68   23.00
   1  -5   2  166.08   23.20
  -2   5  -2    8.70    3.80
  -2   5  -2    8.60    3.60
  -2   5  -2    8.20    3.00
   2  -5   2    7.90    2.70
   2  -5   2    5.60    3.50
  -3   5  -2  143.79   17.80
  -3   5  -2  129.69   17.90
   3  -5   2  127.79   17.90
   3  -5   2  142.59   17.80
   3  -5   2  142.59   17.30
   3  -5   2  132.39   17.10
  -4   5  -2   57.49   10.40
  -4   5  -2   70.29   10.20
   4  -5   2   77.89   10.50
   4  -5   2   59.09    8.90
   4  -5   2   68.89   10.50
   4  -5   2   53.89    8.90
  -5   5  -2  106.69   16.90
  -5   5  -2  110.19   15.80
  -5   5  -2  119.99   16.50
   5  -5   2  126.09   16.90
   5  -5   2  111.39   16.20
   5  -5   2  121.59   15.90
  -6   5  -2   10.60    4.90
  -6   5  -2   19.80    6.00
  -6   5  -2    8.80    4.20
   6  -5   2    9.90    4.30
   6  -5   2   13.60    4.20
   6  -5   2   11.00    5.80
  -7   5  -2   17.60    5.50
  -7   5  -2   27.70    7.60
  -7   5  -2   18.00    5.30
   7  -5   2   19.30    5.40
   7  -5   2   19.50    6.90
   7  -5   2   25.20    5.90
  -8   5  -2  105.89   15.20
  -8   5  -2   93.59   16.20
  -8   5  -2   90.99   14.70
   8  -5   2   99.89   14.70
   8  -5   2  106.89   15.20
  -9   5  -2   -8.90    4.60
  -9   5  -2   -0.30    6.00
  -9   5  -2   -4.60    4.80
   9  -5   2    1.50    5.00
 -10   5  -2   -7.20    5.70
 -10   5  -2   -0.30    5.70
  10  -5   2    0.80    4.30
  10  -5   2    3.70    5.90
  10  -5   2   -1.60    5.10
 -11   5  -2    0.60    6.10
 -11   5  -2    7.30    7.30
  11  -5   2    6.70    5.60
  11  -5   2   -5.40    6.00
 -12   5  -2   21.30    9.10
 -12   5  -2   36.60   10.00
  12  -5   2   27.10    7.60
 -13   5  -2   25.40    9.70
 -13   5  -2    5.70    9.50
  13  -5   2    0.40    6.00
 -12  -4   2    7.50    8.30
 -12  -4   2    6.00    7.80
 -12  -4   2    6.10    8.20
 -11  -4   2    0.90    7.20
 -11  -4   2   -3.80    6.80
 -11  -4   2   -0.10    6.90
 -10  -4   2   40.20    9.40
 -10  -4   2   35.50    9.30
 -10  -4   2   31.40    9.20
   9   4  -2   -2.60    5.70
  -9  -4   2    4.50    5.80
  -9  -4   2    1.60    5.90
  -9  -4   2    6.60    5.90
   8   4  -2    7.40    5.80
   8   4  -2   -1.10    5.20
  -8  -4   2    1.90    5.10
  -8  -4   2    0.70    5.30
  -8  -4   2   -7.90    5.10
   7   4  -2   89.89   14.30
   7   4  -2   74.19   12.80
  -7  -4   2   96.59   14.10
  -7  -4   2   67.49   13.00
  -7  -4   2   92.19   13.00
   6   4  -2    1.10    3.70
   6   4  -2   -3.80    3.80
   6   4  -2    5.90    4.00
  -6  -4   2    0.50    4.30
  -6  -4   2    0.50    4.00
  -6  -4   2    2.90    4.50
   5   4  -2    4.80    3.60
   5   4  -2    2.90    4.00
   5   4  -2    2.10    3.50
  -5  -4   2    1.20    3.50
  -5  -4   2   -3.30    3.30
  -5  -4   2    1.10    3.70
   4   4  -2    0.50    3.10
   4   4  -2   -4.40    2.90
   4   4  -2    1.60    3.40
  -4  -4   2   -4.20    3.10
  -4  -4   2    3.10    3.50
  -4  -4   2    2.50    3.40
   3   4  -2  144.09   18.10
   3   4  -2  166.38   18.70
   3   4  -2  154.98   18.80
  -3  -4   2  129.79   18.10
  -3  -4   2  137.79   18.60
  -3  -4   2  143.49   18.70
   2   4  -2   18.10    5.10
   2   4  -2   28.70    5.20
  -2  -4   2   24.20    4.00
  -2  -4   2   23.10    5.30
  -2  -4   2   23.50    5.00
   1   4  -2   31.90    5.70
   1   4  -2   37.80    6.30
  -1  -4   2   30.00    5.00
  -1  -4   2   30.20    4.90
  -1  -4   2   34.00    6.10
  -1  -4   2   31.40    5.70
   0   4  -2   52.09    8.30
   0   4  -2   45.00    7.40
   0  -4   2   52.59    8.20
   0  -4   2   55.49    7.30
   0  -4   2   45.10    7.30
  -1   4  -2   73.09   10.00
  -1   4  -2   66.79   10.20
  -1   4  -2   79.09   10.60
   1  -4   2   75.49    9.90
   1  -4   2   98.79   11.50
   1  -4   2   80.79   10.30
  -2   4  -2   33.40    5.70
  -2   4  -2   34.50    5.80
   2  -4   2   23.10    4.50
   2  -4   2   23.90    5.50
   2  -4   2   28.10    5.60
  -3   4  -2   44.50    8.90
  -3   4  -2   55.89    8.60
   3  -4   2   46.10    8.30
   3  -4   2   56.79    7.60
   3  -4   2   63.69    8.00
   3  -4   2   51.89    8.70
  -4   4  -2  219.98   27.00
  -4   4  -2  227.78   26.80
  -4   4  -2  212.28   27.40
   4  -4   2  207.78   27.30
   4  -4   2  209.18   26.70
   4  -4   2  222.78   27.00
  -5   4  -2   45.00    7.00
  -5   4  -2   21.10    5.70
  -5   4  -2   39.30    7.70
   5  -4   2   45.40    6.90
   5  -4   2   37.30    7.50
   5  -4   2   32.00    6.20
  -6   4  -2   22.00    5.00
  -6   4  -2   24.30    5.90
  -6   4  -2   12.90    4.30
   6  -4   2   13.90    4.30
   6  -4   2   14.00    5.80
   6  -4   2   10.10    4.30
  -7   4  -2   32.40    6.50
  -7   4  -2   29.80    6.60
  -7   4  -2   16.30    7.30
   7  -4   2   38.70    6.50
   7  -4   2   15.80    7.40
   7  -4   2   31.30    6.30
  -8   4  -2   74.49   13.00
  -8   4  -2   81.89   12.60
  -8   4  -2   84.69   14.30
   8  -4   2   79.79   12.60
   8  -4   2  100.29   14.90
   8  -4   2   89.09   13.10
  -9   4  -2    8.70    6.10
  -9   4  -2   24.10    8.00
   9  -4   2   15.10    5.70
   9  -4   2   12.80    5.50
   9  -4   2   13.30    5.10
 -10   4  -2    7.90    7.30
 -10   4  -2    5.10    6.40
  10  -4   2    7.90    5.20
  10  -4   2   15.20    6.50
  10  -4   2    4.50    4.60
 -11   4  -2   18.20    8.40
 -11   4  -2   15.90    7.90
  11  -4   2   21.90    7.90
  11  -4   2   36.10    7.40
 -12   4  -2    0.50    6.80
  12  -4   2    1.50    5.00
  12  -4   2   -1.90    6.70
 -13   4  -2    0.30    8.00
 -13   4  -2    4.70    9.00
  13  -4   2   16.40    7.00
 -12  -3   2   12.30    9.40
 -12  -3   2  -13.60    7.50
 -12  -3   2   14.90    8.60
 -11  -3   2   24.30    9.60
 -11  -3   2   22.80    9.10
 -11  -3   2   28.30    9.10
 -10  -3   2    5.30    5.80
 -10  -3   2   -5.70    6.10
 -10  -3   2   13.90    7.50
   9   3  -2   -5.60    5.10
   9   3  -2   -0.70    7.90
  -9  -3   2    2.00    5.70
  -9  -3   2   -0.70    5.90
  -9  -3   2    0.80    5.70
   8   3  -2    1.50    5.10
   8   3  -2    3.10    5.40
  -8  -3   2   10.60    5.70
  -8  -3   2   13.10    6.20
  -8  -3   2   13.50    5.80
   7   3  -2   18.80    6.30
   7   3  -2   32.80    6.50
   7   3  -2   22.00    6.30
  -7  -3   2   24.10    6.80
  -7  -3   2   24.60    6.40
  -7  -3   2   16.50    6.50
   6   3  -2   22.80    6.30
   6   3  -2   21.40    6.30
   6   3  -2   30.40    6.50
  -6  -3   2   36.70    7.00
  -6  -3   2   50.89    7.50
  -6  -3   2   35.00    7.30
   5   3  -2   -1.40    3.30
   5   3  -2    7.60    4.00
   5   3  -2    0.80    3.70
  -5  -3   2   -2.50    3.60
  -5  -3   2    4.00    4.00
  -5  -3   2    3.10    4.00
   4   3  -2    4.00    3.30
   4   3  -2    0.30    3.10
   4   3  -2    4.90    3.10
  -4  -3   2   -0.60    3.10
  -4  -3   2   -2.60    3.40
  -4  -3   2    4.30    3.40
   3   3  -2   -1.30    2.70
   3   3  -2    7.10    3.40
   3   3  -2    5.30    3.30
  -3  -3   2    2.40    3.00
  -3  -3   2   12.00    3.90
  -3  -3   2    0.40    3.20
   2   3  -2  171.68   19.30
   2   3  -2  151.18   18.70
   2   3  -2  161.38   19.30
  -2  -3   2  138.89   18.70
  -2  -3   2  140.89   19.30
  -2  -3   2  155.38   19.20
   1   3  -2    9.70    3.60
   1   3  -2    4.80    2.80
  -1  -3   2    7.70    1.90
  -1  -3   2    4.30    3.00
  -1  -3   2    3.50    2.40
  -1  -3   2    7.70    3.50
   0   3  -2   64.69    8.00
   0   3  -2   54.69    7.40
   0   3  -2   86.29   10.00
   0  -3   2   54.39    7.60
   0  -3   2   66.09    8.80
   0  -3   2   46.40    7.40
  -1   3  -2   19.60    4.40
  -1   3  -2   18.10    3.40
   1  -3   2   21.30    4.10
   1  -3   2   22.00    4.60
  -2   3  -2   52.59    8.20
  -2   3  -2   60.19    8.50
   2  -3   2   42.40    6.90
   2  -3   2   65.29    8.40
   2  -3   2   57.89    8.20
   2  -3   2   61.19    7.40
  -3   3  -2  111.79   11.90
  -3   3  -2   75.79   10.10
  -3   3  -2   69.99   10.40
   3  -3   2   78.19   10.80
   3  -3   2   94.09   11.40
   3  -3   2   66.19    9.90
  -4   3  -2  104.39   14.10
  -4   3  -2   96.09   13.20
   4  -3   2  108.79   13.30
   4  -3   2   97.09   13.90
   4  -3   2  103.99   13.10
  -5   3  -2  213.58   25.40
  -5   3  -2  205.68   25.30
  -5   3  -2  188.18   25.80
   5  -3   2  200.58   25.80
   5  -3   2  198.28   25.10
   5  -3   2  209.98   25.30
  -6   3  -2    6.00    4.80
  -6   3  -2    4.50    3.40
  -6   3  -2    2.20    3.60
   6  -3   2    5.20    4.40
   6  -3   2    6.00    3.30
   6  -3   2   -0.10    3.00
  -7   3  -2   89.09   14.60
  -7   3  -2   92.89   13.60
  -7   3  -2   93.19   12.60
   7  -3   2   92.19   13.10
   7  -3   2   96.39   14.70
   7  -3   2   90.39   13.20
  -8   3  -2   -2.10    5.00
  -8   3  -2   -2.00    4.40
   8  -3   2   -4.30    3.90
   8  -3   2   -4.70    5.20
   8  -3   2    5.50    4.00
   8  -3   2    2.00    3.30
  -9   3  -2  110.19   15.40
  -9   3  -2  117.99   16.80
   9  -3   2  112.49   14.80
   9  -3   2   74.29   13.90
   9  -3   2   93.59   14.00
 -10   3  -2    8.90    7.10
 -10   3  -2   -0.70    5.60
  10  -3   2    7.10    5.50
  10  -3   2    2.70    4.80
  10  -3   2    7.00    4.30
 -11   3  -2    3.10    6.50
 -11   3  -2   17.40    8.90
  11  -3   2    3.30    4.70
  11  -3   2    4.50    5.50
 -12   3  -2   41.90   10.80
 -12   3  -2   62.39   12.50
  12  -3   2   34.30    9.60
  12  -3   2   43.30    8.90
 -13   3  -2    2.30    8.30
 -13   3  -2   12.60    8.70
  13  -3   2    0.80    6.70
  13  -3   2   11.60    6.20
 -12  -2   2    2.50    7.80
 -12  -2   2   -3.70    7.20
 -11  -2   2   46.40   11.70
 -11  -2   2   69.89   13.00
 -11  -2   2   58.69   13.50
 -10  -2   2    6.10    6.30
 -10  -2   2    6.50    7.10
 -10  -2   2   10.40    7.70
   9   2  -2    2.50    5.30
  -9  -2   2    5.20    6.00
  -9  -2   2    0.60    5.90
  -9  -2   2   11.40    6.60
   8   2  -2    9.60    5.60
   8   2  -2    7.60    5.90
  -8  -2   2   13.50    5.80
  -8  -2   2   20.90    7.00
  -8  -2   2    9.00    5.40
   7   2  -2   24.30    6.90
   7   2  -2   40.50    8.10
   7   2  -2   40.60    8.20
  -7  -2   2   40.80    7.70
  -7  -2   2   44.60    8.50
  -7  -2   2   33.00    8.10
   6   2  -2  163.38   19.60
   6   2  -2  136.39   19.20
   6   2  -2  163.68   19.90
  -6  -2   2  151.48   19.30
  -6  -2   2  121.49   19.10
   5   2  -2   17.00    5.10
   5   2  -2   23.40    5.80
   5   2  -2   18.30    5.10
  -5  -2   2   19.30    5.10
  -5  -2   2   12.30    5.00
  -5  -2   2   29.00    6.10
   4   2  -2  415.56   51.39
   4   2  -2  419.56   51.69
   4   2  -2  457.55   51.79
  -4  -2   2  407.26   51.69
  -4  -2   2  439.86   51.79
  -4  -2   2  407.56   51.39
   3   2  -2   67.19   10.20
   3   2  -2   75.59   10.00
   3   2  -2   62.89   10.50
  -3  -2   2   73.09   10.60
  -3  -2   2   76.19   10.80
  -3  -2   2   66.69    9.90
   2   2  -2  120.99   15.30
   2   2  -2  120.89   14.40
   2   2  -2  119.99   15.00
  -2  -2   2  103.09   14.40
  -2  -2   2  111.39   14.90
  -2  -2   2  116.99   14.90
   1   2  -2    7.30    3.50
   1   2  -2    9.20    3.20
   1   2  -2    7.40    1.80
  -1  -2   2   10.20    3.30
  -1  -2   2    7.20    2.20
  -1  -2   2    2.90    3.10
   0   2  -2  153.28   19.90
   0   2  -2  157.58   19.60
   0  -2   2  163.28   19.70
   0  -2   2  167.28   20.00
  -1   2  -2  619.24   74.79
  -1   2  -2  597.44   74.59
  -1   2  -2  655.73   74.49
   1  -2   2  624.04   74.89
   1  -2   2  627.24   74.59
   1  -2   2  614.34   74.49
  -2   2  -2   84.69   11.20
  -2   2  -2   92.99   11.00
   2  -2   2   79.29   10.30
   2  -2   2   96.59   11.30
   2  -2   2   78.69   10.40
   2  -2   2   93.09   11.00
  -3   2  -2  378.96   45.90
  -3   2  -2  371.66   46.20
  -3   2  -2  368.26   45.70
   3  -2   2  381.66   46.10
   3  -2   2  402.66   45.90
   3  -2   2  377.96   45.60
  -4   2  -2   33.50    6.20
  -4   2  -2   38.00    6.20
  -4   2  -2   41.10    7.30
   4  -2   2   49.70    6.20
   4  -2   2   47.20    7.40
   4  -2   2   31.80    6.00
  -5   2  -2  291.07   38.70
  -5   2  -2  302.37   38.10
  -5   2  -2  323.87   38.30
   5  -2   2  327.87   38.20
   5  -2   2  326.17   38.80
   5  -2   2  309.07   38.10
  -6   2  -2   27.30    5.20
  -6   2  -2   21.00    6.10
   6  -2   2   11.70    4.30
   6  -2   2   20.70    4.30
   6  -2   2   23.70    6.20
  -7   2  -2   23.00    5.50
  -7   2  -2   17.80    5.90
   7  -2   2    9.00    4.30
   7  -2   2   14.80    5.90
   7  -2   2   18.30    4.40
   7  -2   2   13.80    4.30
  -8   2  -2  115.49   15.50
  -8   2  -2   76.59   13.80
   8  -2   2  105.69   15.20
   8  -2   2   82.59   13.40
   8  -2   2   97.19   12.90
   8  -2   2  105.79   13.90
  -9   2  -2    2.00    5.10
  -9   2  -2   -2.50    5.30
   9  -2   2   -0.20    4.30
   9  -2   2    7.00    4.50
   9  -2   2   -1.70    3.70
 -10   2  -2   16.10    7.90
 -10   2  -2   12.10    6.10
  10  -2   2   14.80    6.10
  10  -2   2   22.60    5.60
  10  -2   2    7.40    5.50
 -11   2  -2   11.30    7.50
 -11   2  -2    6.90    6.50
  11  -2   2    2.90    4.40
  11  -2   2    4.10    5.10
 -12   2  -2   40.90   11.50
 -12   2  -2   76.19   13.80
  12  -2   2   61.49   16.80
 -13   2  -2    6.90    8.10
 -13   2  -2   13.90   10.60
  13  -2   2   -0.90    5.40
  13  -2   2    3.20    6.80
 -14   2  -2   -2.80    8.10
 -14   2  -2   -2.70   14.70
  14  -2   2   -0.90    5.60
  12   1  -2   24.70    9.30
 -12  -1   2    7.90    8.10
 -12  -1   2   27.20   10.40
  11   1  -2   11.30    7.00
 -11  -1   2    4.90    7.60
 -11  -1   2   -4.10    6.30
 -10  -1   2   36.60    9.20
 -10  -1   2   54.39   10.60
 -10  -1   2   40.80   10.00
   9   1  -2   -2.00    5.30
  -9  -1   2    8.10    5.80
  -9  -1   2    3.00    6.00
  -9  -1   2    5.10    6.50
   8   1  -2   -6.00    5.00
   8   1  -2    6.00    5.60
  -8  -1   2    5.30    5.00
  -8  -1   2    8.60    5.20
  -8  -1   2   10.50    6.20
   7   1  -2   67.29   11.40
   7   1  -2   57.49   11.30
   7   1  -2   62.69   11.10
  -7  -1   2   97.69   12.30
  -7  -1   2   71.99   11.60
  -7  -1   2   65.19   11.40
   6   1  -2   51.19    8.60
   6   1  -2   30.30    7.80
   6   1  -2   42.00    7.90
  -6  -1   2   56.69    9.00
  -6  -1   2   35.00    8.10
  -6  -1   2   49.30    8.80
   5   1  -2   42.20    6.90
   5   1  -2   37.00    6.80
   5   1  -2   23.90    6.10
  -5  -1   2   20.40    6.20
  -5  -1   2   32.00    6.30
  -5  -1   2   27.50    6.60
   4   1  -2    7.40    3.90
   4   1  -2    4.40    3.80
   4   1  -2   -1.20    3.60
  -4  -1   2   -0.20    3.70
  -4  -1   2    4.20    4.00
  -4  -1   2    5.20    3.90
   3   1  -2  259.67   29.90
   3   1  -2  257.67   29.90
   3   1  -2  227.28   29.50
  -3  -1   2  236.58   29.80
  -3  -1   2  230.98   29.60
  -3  -1   2  234.68   29.80
   2   1  -2   45.90    7.70
   2   1  -2   48.90    7.10
   2   1  -2   42.40    7.60
  -2  -1   2   46.70    7.60
  -2  -1   2   44.80    7.10
  -2  -1   2   63.69    8.10
   1   1  -2  426.16   48.90
   1   1  -2  393.86   48.50
   1   1  -2  416.56   49.00
  -1  -1   2  393.96   48.60
  -1  -1   2  401.66   48.90
  -1  -1   2  400.76   48.80
   0   1  -2  156.18   18.60
   0   1  -2  156.08   18.30
   0   1  -2  141.89   18.00
   0  -1   2  159.88   18.60
   0  -1   2  144.29   18.30
  -1   1  -2  157.38   18.40
  -1   1  -2  153.58   18.00
  -1   1  -2  139.49   18.20
   1  -1   2  147.49   18.00
   1  -1   2  149.99   18.50
   1  -1   2  151.78   18.20
  -2   1  -2   33.90    5.40
  -2   1  -2   47.80    6.30
   2  -1   2   37.70    5.40
   2  -1   2   41.60    6.10
  -3   1  -2   19.00    3.30
  -3   1  -2   28.70    4.80
  -3   1  -2   10.90    3.00
   3  -1   2    8.80    2.90
   3  -1   2   19.60    4.60
   3  -1   2   17.80    3.10
  -4   1  -2  498.65   58.89
  -4   1  -2  475.55   59.29
  -4   1  -2  485.25   58.79
   4  -1   2  493.05   58.79
   4  -1   2  502.55   58.89
   4  -1   2  475.15   59.29
  -5   1  -2   14.90    4.70
  -5   1  -2   15.40    4.40
   5  -1   2   22.20    4.00
   5  -1   2    9.30    3.40
  -6   1  -2  324.07   43.10
  -6   1  -2  371.26   42.80
   6  -1   2  338.37   42.30
   6  -1   2  355.06   42.40
   6  -1   2  362.06   42.60
   6  -1   2  340.67   43.10
  -7   1  -2    9.20    5.00
  -7   1  -2    5.20    3.90
   7  -1   2    3.60    2.90
   7  -1   2    4.00    4.30
   7  -1   2    5.20    3.40
  -8   1  -2   95.79   14.40
  -8   1  -2  104.19   15.20
   8  -1   2  107.79   13.50
   8  -1   2   83.49   14.60
   8  -1   2   90.49   13.00
   8  -1   2   96.99   12.90
  -9   1  -2   77.69   13.40
  -9   1  -2   81.59   13.00
   9  -1   2   97.69   11.50
   9  -1   2   92.59   12.70
   9  -1   2   63.79   14.20
   9  -1   2   62.09   11.60
 -10   1  -2   76.29   12.60
 -10   1  -2   64.79   11.80
  10  -1   2   81.19   10.80
  10  -1   2   50.79   10.20
  10  -1   2   71.59   11.60
 -11   1  -2    6.50    7.00
 -11   1  -2    0.90    6.10
  11  -1   2   15.60    5.00
  11  -1   2   -0.80    5.00
 -12   1  -2    3.90    7.90
 -12   1  -2    3.40    6.10
  12  -1   2    8.00    5.10
  12  -1   2    4.30    6.00
 -13   1  -2    0.70    8.30
 -13   1  -2   10.80    8.30
  13  -1   2   20.90    7.10
  13  -1   2   13.80    6.20
 -14   1  -2   19.70    9.90
 -14   1  -2    3.40   11.50
  14  -1   2   -1.60    5.40
  14  -1   2   -1.50    6.30
  12   0  -2   -1.90    6.90
 -12   0   2    8.40    8.00
  11   0  -2   13.00    7.70
 -11   0   2   19.30    8.40
 -11   0   2   16.70    8.40
  10   0  -2   20.50    7.10
 -10   0   2   -2.00    5.90
 -10   0   2    5.80    6.10
   9   0  -2   45.10   10.80
   9   0  -2   51.09   10.50
  -9   0   2   78.29   12.00
  -9   0   2   48.80   10.50
   8   0  -2  -10.80    5.00
   8   0  -2    2.60    5.30
  -8   0   2    9.20    5.90
  -8   0   2  -10.40    4.20
  -8   0   2   -3.50    4.70
   7   0  -2   22.10    6.60
   7   0  -2   21.00    7.00
   7   0  -2   34.90    7.10
  -7   0   2   19.10    6.20
  -7   0   2   38.30    7.80
  -7   0   2   16.20    6.20
   6   0  -2    7.10    4.60
   6   0  -2   16.20    5.30
   6   0  -2    5.60    4.50
  -6   0   2    5.00    4.60
  -6   0   2   12.80    5.70
  -6   0   2    7.50    4.50
   5   0  -2    4.70    4.40
   5   0  -2    3.40    4.20
   5   0  -2    6.80    4.40
  -5   0   2    7.20    4.30
  -5   0   2   -1.50    4.00
  -5   0   2    1.20    4.60
   4   0  -2   74.09   13.60
   4   0  -2  105.59   13.70
   4   0  -2  109.99   13.80
  -4   0   2  100.49   13.70
  -4   0   2  100.09   14.20
  -4   0   2  105.39   13.80
   3   0  -2   98.89   15.20
   3   0  -2  119.79   15.30
   3   0  -2  126.69   15.50
  -3   0   2  115.19   15.50
  -3   0   2  121.09   15.50
  -3   0   2  117.99   15.30
   2   0  -2  368.76   43.60
   2   0  -2  349.77   43.70
   2   0  -2  359.96   43.40
  -2   0   2  368.46   43.50
  -2   0   2  367.66   43.70
  -2   0   2  333.77   43.60
   1   0  -2  188.48   23.50
   1   0  -2  194.88   23.30
   1   0  -2  190.58   23.40
  -1   0   2  190.38   23.50
  -1   0   2  183.78   23.40
   0   0  -2  488.45   59.89
   0   0  -2  500.75   59.79
   0   0  -2  486.55   59.79
   0   0   2  511.65   59.89
   0   0   2  486.15   59.79
   0   0   2  517.15   59.79
  -1   0  -2   92.79   10.80
  -1   0  -2   86.89   10.80
  -1   0  -2   82.39   10.80
   1   0   2   86.59   10.80
   1   0   2   86.79   10.90
  -2   0  -2  361.16   43.80
  -2   0  -2  363.26   44.10
  -2   0  -2  372.46   43.70
   2   0   2  360.56   43.80
   2   0   2  379.96   44.10
   2   0   2  357.56   43.70
  -3   0  -2  583.74   69.59
  -3   0  -2  586.24   69.29
  -3   0  -2  561.04   68.99
   3   0   2  574.84   68.99
   3   0   2  576.74   69.29
   3   0   2  593.04   69.59
  -4   0  -2  158.18   20.10
  -4   0  -2  163.68   19.60
   4   0   2  158.38   19.30
   4   0   2  161.08   19.60
   4   0   2  153.78   20.10
   4   0   2  154.38   19.20
  -5   0  -2  413.46   50.29
  -5   0  -2  432.66   50.69
   5   0   2  451.85   50.69
   5   0   2  447.56   49.99
   5   0   2  353.06   49.90
  -6   0  -2  127.59   16.70
  -6   0  -2  135.39   17.30
   6   0   2  125.49   17.20
   6   0   2  126.79   16.20
   6   0   2  124.99   16.00
   6   0   2  133.89   16.50
  -7   0  -2    6.50    4.80
  -7   0  -2   -2.40    3.60
   7   0   2    5.40    3.40
   7   0   2    1.30    2.70
   7   0   2    7.20    4.50
   7   0   2    8.70    3.00
  -8   0  -2    5.20    4.10
  -8   0  -2    6.50    5.20
   8   0   2   11.10    3.80
   8   0   2    2.10    3.00
   8   0   2    5.90    4.90
   8   0   2    7.90    3.90
  -9   0  -2   79.79   13.60
  -9   0  -2  107.09   14.30
   9   0   2   69.99   11.30
   9   0   2   83.09   11.30
   9   0   2   70.09   12.70
   9   0   2   66.99   13.50
 -10   0  -2    2.50    5.00
 -10   0  -2   -0.80    6.20
  10   0   2    6.50    4.80
  10   0   2   -5.30    3.60
  10   0   2    2.60    3.80
 -11   0  -2   15.20    7.60
 -11   0  -2   24.60    7.00
  11   0   2    9.30    4.90
  11   0   2    9.40    4.90
 -12   0  -2   29.30    8.70
 -12   0  -2    7.20    8.10
  12   0   2   14.60    5.80
  12   0   2   22.80    6.50
 -13   0  -2   -6.00    6.60
 -13   0  -2   -2.80    7.70
  13   0   2    1.90    6.30
 -14   0  -2   16.50    9.60
 -14   0  -2   -2.60    7.30
  14   0   2    1.00    6.90
  14   0   2   -3.00    5.00
  12  -1  -2   -1.90    6.50
 -12   1   2    0.10    7.60
 -12   1   2   11.80    8.40
  11  -1  -2   17.40    7.40
 -11   1   2    3.70    8.20
 -11   1   2   30.80    9.60
  10  -1  -2   12.90    6.90
 -10   1   2    1.10    6.30
 -10   1   2   20.20    7.90
   9  -1  -2   27.90    9.00
   9  -1  -2   34.70    8.70
  -9   1   2   34.50    8.70
  -9   1   2   25.50    8.20
   8  -1  -2   80.79   13.20
   8  -1  -2   51.19   11.20
   8  -1  -2   92.29   12.50
  -8   1   2   79.79   12.90
  -8   1   2   62.19   12.00
   7  -1  -2   50.29   12.20
   7  -1  -2   73.09    9.90
   7  -1  -2   40.90    8.50
   7  -1  -2   32.40    8.10
  -7   1   2   45.10    9.00
  -7   1   2   51.09    9.40
   6  -1  -2   32.30    6.60
   6  -1  -2   13.40    5.30
   6  -1  -2   27.20    6.30
  -6   1   2   14.80    5.60
  -6   1   2   24.50    6.20
   5  -1  -2    7.00    4.40
   5  -1  -2   -2.50    4.40
   5  -1  -2    3.60    4.20
  -5   1   2    8.00    4.40
  -5   1   2   13.50    5.40
  -5   1   2   11.50    4.70
   4  -1  -2  528.75   63.89
   4  -1  -2  502.05   63.89
   4  -1  -2  525.35   63.89
  -4   1   2  539.25   63.99
  -4   1   2  518.25   63.89
  -4   1   2  542.15   63.99
   3  -1  -2    2.80    3.60
   3  -1  -2    1.50    3.90
   3  -1  -2    9.20    3.80
  -3   1   2    3.40    4.20
  -3   1   2   12.70    4.30
  -3   1   2    2.70    4.10
   2  -1  -2  134.39   17.40
   2  -1  -2  152.28   17.50
   2  -1  -2  126.89   17.30
  -2   1   2  122.89   17.40
  -2   1   2  151.18   17.60
  -2   1   2  126.49   17.30
   1  -1  -2   34.30    5.30
   1  -1  -2   21.00    4.60
   1  -1  -2   14.20    4.40
  -1   1   2   16.90    4.20
  -1   1   2   14.90    4.20
   0  -1  -2  218.28   27.10
   0  -1  -2  219.98   27.10
   0  -1  -2  226.48   27.20
   0   1   2  223.78   27.20
   0   1   2  236.88   27.20
   0   1   2  211.38   27.20
  -1  -1  -2  504.95   59.39
  -1  -1  -2  492.45   59.69
  -1  -1  -2  488.35   59.59
  -1  -1  -2  511.65   59.59
  -1  -1  -2  493.05   59.39
   1   1   2  484.15   59.49
  -2  -1  -2  178.08   21.10
  -2  -1  -2  164.98   21.40
  -2  -1  -2  174.88   20.80
   2   1   2  168.28   21.40
   2   1   2  176.08   21.10
  -3  -1  -2  255.97   32.40
  -3  -1  -2  254.67   32.10
   3   1   2  271.27   32.10
   3   1   2  276.27   32.40
  -4  -1  -2    0.60    2.60
  -4  -1  -2    3.20    2.00
  -4  -1  -2    4.70    3.70
   4   1   2   10.50    3.60
   4   1   2    4.20    2.70
   4   1   2    2.20    1.50
  -5  -1  -2  374.06   45.00
  -5  -1  -2  366.36   45.20
   5   1   2  368.86   44.40
   5   1   2  371.56   45.30
   5   1   2  366.36   44.90
  -6  -1  -2   56.19    8.60
  -6  -1  -2   60.09    7.90
   6   1   2   40.80    7.10
   6   1   2   46.60    8.10
   6   1   2   37.50    6.40
  -7  -1  -2   29.60    6.30
  -7  -1  -2   38.20    7.00
   7   1   2   39.40    6.60
   7   1   2   25.30    6.50
   7   1   2   29.20    5.30
  -8  -1  -2    7.40    4.60
  -8  -1  -2   17.00    6.00
   8   1   2    3.40    3.00
   8   1   2    5.50    3.80
   8   1   2   -0.30    5.60
   8   1   2    2.40    3.20
  -9  -1  -2   31.70    8.20
  -9  -1  -2   57.99    8.90
   9   1   2   26.00    7.50
   9   1   2   42.80    6.70
   9   1   2   35.00    7.50
   9   1   2   25.50    5.90
 -10  -1  -2    0.60    5.00
 -10  -1  -2    7.90    5.80
  10   1   2   -3.80    3.60
  10   1   2   -1.50    4.60
  10   1   2    3.70    3.70
 -11  -1  -2   -2.70    5.40
 -11  -1  -2   -4.30    6.10
  11   1   2    8.30    4.10
  11   1   2   -4.40    4.10
 -12  -1  -2   56.19   11.90
 -12  -1  -2   44.60   11.10
  12   1   2   41.30    9.00
  12   1   2   65.29    9.70
 -13  -1  -2   -6.60    6.90
 -13  -1  -2    1.20    8.60
  13   1   2   -5.00    5.30
  13   1   2    6.10    5.30
 -14  -1  -2    4.40    8.40
 -14  -1  -2   11.20    9.20
  14   1   2    0.90    5.50
  14   1   2    1.40    6.30
  12  -2  -2    5.90    7.30
 -12   2   2    2.00    7.70
 -12   2   2   -3.40    8.10
  11  -2  -2    0.10    6.10
 -11   2   2   11.80    7.70
 -11   2   2   13.00    8.90
  10  -2  -2   46.10    9.40
 -10   2   2   12.20    8.20
 -10   2   2   42.00    9.80
   9  -2  -2   -0.40    5.60
   9  -2  -2   -7.40    4.40
  -9   2   2   10.40    6.30
  -9   2   2   -7.00    5.40
   8  -2  -2   15.30    6.00
   8  -2  -2    2.70    5.40
  -8   2   2    3.00    5.30
  -8   2   2    5.70    5.90
   7  -2  -2    4.20    5.20
   7  -2  -2    0.40    4.50
   7  -2  -2   22.10    6.50
   7  -2  -2   -2.80    5.00
  -7   2   2    9.80    5.50
  -7   2   2    2.80    5.30
   6  -2  -2   66.09   11.60
   6  -2  -2   75.79   11.70
   6  -2  -2   54.29   11.10
   6  -2  -2   74.79   11.80
  -6   2   2   96.79   12.70
  -6   2   2   78.49   12.10
   5  -2  -2   27.30    6.10
   5  -2  -2   30.10    6.20
   5  -2  -2   20.40    5.90
   5  -2  -2   20.60    6.20
  -5   2   2   30.00    6.50
  -5   2   2   17.00    6.50
   4  -2  -2    4.20    3.90
   4  -2  -2    8.40    4.40
   4  -2  -2    3.80    4.00
   4  -2  -2   -3.50    4.30
  -4   2   2    2.40    4.20
  -4   2   2    6.10    4.20
   3  -2  -2  212.98   27.10
   3  -2  -2  224.88   27.00
   3  -2  -2  213.38   27.20
   3  -2  -2  214.08   27.00
  -3   2   2  217.48   27.20
  -3   2   2  212.28   27.20
   2  -2  -2   40.60    6.10
   2  -2  -2   30.50    6.60
   2  -2  -2   20.40    5.50
  -2   2   2   25.70    5.40
  -2   2   2   21.40    5.50
   1  -2  -2  147.19   18.60
   1  -2  -2  148.49   18.40
   1  -2  -2  146.19   18.50
  -1   2   2  142.09   18.40
  -1   2   2  148.09   18.50
  -1   2   2  141.79   18.70
   0  -2  -2    2.90    2.80
   0  -2  -2    1.20    3.10
   0  -2  -2    3.20    3.10
   0   2   2   -0.80    2.90
   0   2   2    3.00    3.10
   0   2   2   -1.90    2.80
  -1  -2  -2  892.41  108.19
  -1  -2  -2  911.41  108.49
  -1  -2  -2  927.71  108.09
   1   2   2  899.81  108.19
   1   2   2  875.41  108.09
   1   2   2  917.61  108.49
  -2  -2  -2    8.20    3.20
  -2  -2  -2    7.30    2.20
  -2  -2  -2    7.30    2.60
   2   2   2    7.10    2.50
   2   2   2    5.70    3.60
   2   2   2   10.10    2.90
  -3  -2  -2    4.60    3.60
  -3  -2  -2   12.50    2.30
  -3  -2  -2   10.50    3.00
   3   2   2   14.90    3.90
   3   2   2    4.80    2.10
   3   2   2   13.20    3.30
  -4  -2  -2  308.97   39.00
  -4  -2  -2  306.77   39.20
  -4  -2  -2  331.37   38.50
   4   2   2  321.77   38.50
   4   2   2  322.87   39.00
   4   2   2  319.87   39.20
  -5  -2  -2  228.08   26.20
  -5  -2  -2  222.38   26.70
  -5  -2  -2  184.68   26.80
   5   2   2  216.28   26.10
   5   2   2  215.48   26.70
   5   2   2  211.38   26.90
  -6  -2  -2  381.76   45.90
  -6  -2  -2  366.36   46.50
  -6  -2  -2  384.56   46.70
   6   2   2  373.06   45.80
   6   2   2  401.46   46.50
   6   2   2  373.46   46.70
  -7  -2  -2   54.59    7.60
  -7  -2  -2   57.79    8.70
  -7  -2  -2   55.59    9.00
   7   2   2   42.00    7.90
   7   2   2   40.40    7.00
   7   2   2   44.70    8.70
  -8  -2  -2   90.99   14.20
  -8  -2  -2  109.79   15.00
  -8  -2  -2  106.69   12.80
   8   2   2   89.09   12.60
   8   2   2  105.19   14.10
   8   2   2   61.49   15.60
  -9  -2  -2   26.50    6.80
  -9  -2  -2   27.40    5.30
  -9  -2  -2    1.00    5.80
   9   2   2   14.60    6.10
   9   2   2   12.30    5.50
   9   2   2   19.30    4.60
 -10  -2  -2   18.00    6.70
 -10  -2  -2   -0.60    5.30
  10   2   2    9.90    4.30
 -11  -2  -2    4.20    6.30
 -11  -2  -2    9.70    6.20
  11   2   2   11.30    4.70
  11   2   2    8.30    4.60
 -12  -2  -2   15.20    8.20
 -12  -2  -2   12.30    7.00
  12   2   2    8.30    5.20
  12   2   2   13.90    5.60
 -13  -2  -2   15.50   12.10
 -13  -2  -2   55.09   11.20
  13   2   2   28.70    7.10
  13   2   2   22.70    7.70
 -14  -2  -2   -2.20    8.20
 -14  -2  -2    3.70    7.50
  14   2   2    5.70    6.10
  14   2   2    2.30    6.50
  12  -3  -2   -1.80    6.80
 -12   3   2   -9.80    7.30
 -12   3   2   11.70    8.70
  11  -3  -2   -0.40    6.30
 -11   3   2    9.20    8.30
 -11   3   2    5.40    7.50
  10  -3  -2   32.30    8.50
 -10   3   2   32.20    9.10
 -10   3   2   25.60    9.50
   9  -3  -2   14.00    6.10
  -9   3   2    1.30    6.10
  -9   3   2    2.30    6.20
   8  -3  -2    4.30    4.90
   8  -3  -2   12.60    6.40
  -8   3   2    0.70    5.80
  -8   3   2   12.20    6.30
   7  -3  -2  148.59   20.30
   7  -3  -2  127.29   19.20
   7  -3  -2  131.69   18.90
   7  -3  -2  121.09   23.00
  -7   3   2  112.99   18.80
  -7   3   2  140.19   19.60
   6  -3  -2    0.00    4.60
   6  -3  -2   -9.00    4.20
   6  -3  -2    9.20    6.10
   6  -3  -2   -1.30    3.80
  -6   3   2   -1.90    4.50
   5  -3  -2   16.20    5.60
   5  -3  -2   27.90    6.10
   5  -3  -2   19.60    5.70
   5  -3  -2   25.40    6.10
  -5   3   2   24.60    6.50
  -5   3   2   28.20    6.70
   4  -3  -2   33.30    7.90
   4  -3  -2   46.20    7.80
   4  -3  -2   43.60    7.80
   4  -3  -2   58.89    8.60
  -4   3   2   38.50    7.70
  -4   3   2   35.70    7.90
   3  -3  -2  140.69   18.70
   3  -3  -2  134.79   18.40
   3  -3  -2  153.98   18.50
  -3   3   2  130.39   18.40
  -3   3   2  148.39   18.90
   2  -3  -2   57.09    9.10
   2  -3  -2   66.99    9.90
   2  -3  -2   66.99    9.50
  -2   3   2   63.59    9.50
  -2   3   2   49.60    9.10
  -2   3   2   55.79    9.50
   1  -3  -2  122.99   16.90
   1  -3  -2  140.39   18.00
  -1   3   2  133.49   20.40
  -1   3   2  128.19   17.00
  -1   3   2  137.79   17.30
   0  -3  -2   77.39   10.50
   0  -3  -2   67.49   11.00
   0  -3  -2   85.99   10.90
   0  -3  -2   85.79   11.00
   0   3   2   56.89   10.80
   0   3   2   91.59   11.10
  -1  -3  -2   97.69   12.90
  -1  -3  -2   91.89   12.80
  -1  -3  -2   99.29   13.50
   1   3   2  112.49   13.10
   1   3   2   93.69   13.50
   1   3   2  104.59   13.00
  -2  -3  -2    1.60    4.20
  -2  -3  -2    2.10    2.10
  -2  -3  -2    3.80    3.30
  -2  -3  -2    4.10    2.70
   2   3   2    0.50    2.50
   2   3   2    2.40    3.00
  -3  -3  -2   28.00    5.10
  -3  -3  -2   20.30    4.20
  -3  -3  -2   17.30    3.70
   3   3   2   18.30    3.70
   3   3   2   19.00    4.20
   3   3   2   24.80    5.70
  -4  -3  -2   88.79   12.30
  -4  -3  -2   78.89   11.00
  -4  -3  -2   81.29   11.70
   4   3   2   88.59   11.00
   4   3   2   84.89   11.60
   4   3   2  106.09   12.60
  -5  -3  -2   26.70    5.30
  -5  -3  -2   18.50    3.90
  -5  -3  -2   19.00    4.60
   5   3   2   23.90    4.70
   5   3   2   14.00    4.80
   5   3   2   15.80    3.50
  -6  -3  -2    5.40    2.80
  -6  -3  -2    1.50    3.70
  -6  -3  -2    8.70    3.90
   6   3   2   -4.00    3.10
   6   3   2    1.80    3.10
   6   3   2    1.60    2.10
  -7  -3  -2    4.50    3.10
  -7  -3  -2    7.30    4.60
  -7  -3  -2    8.60    4.20
   7   3   2    3.80    4.20
   7   3   2    9.00    3.40
   7   3   2    2.90    3.50
  -8  -3  -2   16.30    5.80
  -8  -3  -2   15.90    5.40
  -8  -3  -2   12.80    4.30
   8   3   2   10.80    5.20
   8   3   2   10.10    5.20
   8   3   2    4.90    3.40
  -9  -3  -2   57.59    9.20
  -9  -3  -2   78.09   11.70
  -9  -3  -2   79.79   11.30
   9   3   2   40.30    9.70
   9   3   2   67.89   10.40
   9   3   2   48.80    8.60
 -10  -3  -2    8.50    4.20
 -10  -3  -2    8.60    6.30
 -10  -3  -2    3.20    5.30
  10   3   2    7.80    4.00
 -11  -3  -2   -3.30    6.70
 -11  -3  -2    0.30    5.40
  11   3   2    0.60    3.80
 -12  -3  -2   -1.10    6.90
 -12  -3  -2    2.40    6.90
  12   3   2    2.20    4.90
  12   3   2    7.10    5.00
 -13  -3  -2   13.20   12.10
 -13  -3  -2   25.50   14.20
  13   3   2   15.60    6.20
  13   3   2   19.10    7.10
 -14  -3  -2    7.10    7.80
 -14  -3  -2   11.20    9.30
  14   3   2    7.90    6.20
  14   3   2    4.30    6.60
  12  -4  -2    3.50    7.00
 -12   4   2    8.30    8.20
 -12   4   2   -0.90    7.40
  11  -4  -2   26.80    8.80
 -11   4   2   12.90    9.40
 -11   4   2   23.80    9.70
  10  -4  -2    2.90    5.80
 -10   4   2   13.20    8.30
 -10   4   2   -2.90    7.30
   9  -4  -2   20.70    7.00
  -9   4   2   21.70    8.40
  -9   4   2   10.20    7.90
   8  -4  -2    3.20    6.20
   8  -4  -2   15.90    5.60
  -8   4   2    8.00    6.00
  -8   4   2   13.50    6.80
   7  -4  -2    3.80    5.30
   7  -4  -2    4.60    4.80
   7  -4  -2    6.10    5.50
   7  -4  -2   -6.60    6.30
  -7   4   2    4.40    5.30
  -7   4   2    4.10    5.30
   6  -4  -2   56.99    9.30
   6  -4  -2   71.09   11.70
   6  -4  -2   43.60    9.30
   6  -4  -2   42.00    9.60
  -6   4   2   45.30    9.70
  -6   4   2   40.60   13.40
   5  -4  -2   23.80    6.70
   5  -4  -2   18.00    5.80
   5  -4  -2   25.30    6.10
   5  -4  -2   28.50    7.40
  -5   4   2   31.20    7.80
  -5   4   2   30.60    6.60
   4  -4  -2   -2.20    3.80
   4  -4  -2    0.20    3.70
   4  -4  -2   -5.50    3.80
  -4   4   2    3.30    4.90
  -4   4   2    3.50    3.80
  -4   4   2    1.30    4.10
   3  -4  -2    3.80    4.30
   3  -4  -2    2.40    3.60
   3  -4  -2    1.90    3.80
  -3   4   2    2.00    4.00
  -3   4   2    2.50    3.80
  -3   4   2    9.40    4.20
   2  -4  -2  118.69   14.50
   2  -4  -2   98.59   14.70
   2  -4  -2   95.29   13.80
  -2   4   2   99.99   13.80
  -2   4   2  102.09   14.70
  -2   4   2   99.49   14.40
   1  -4  -2    2.00    4.10
   1  -4  -2    8.80    3.90
   1  -4  -2    8.30    3.90
  -1   4   2    5.80    3.80
  -1   4   2    7.20    4.00
  -1   4   2    3.20    3.80
   0  -4  -2   30.70    5.80
   0  -4  -2   22.60    5.70
   0  -4  -2   24.30    5.30
   0  -4  -2   32.50    6.20
   0   4   2   34.30    5.90
   0   4   2   31.40    6.30
  -1  -4  -2   43.20    6.70
  -1  -4  -2   34.90    7.30
  -1  -4  -2   35.30    6.40
   1   4   2   44.10    8.00
   1   4   2   38.80    6.80
   1   4   2   45.60    6.80
  -2  -4  -2   -5.10    2.40
  -2  -4  -2    1.70    2.90
  -2  -4  -2    3.50    4.80
  -2  -4  -2   -1.50    3.30
   2   4   2    4.30    3.10
   2   4   2    2.30    2.80
  -3  -4  -2    4.90    3.00
  -3  -4  -2   10.00    3.00
  -3  -4  -2    4.20    3.40
   3   4   2    3.00    3.20
   3   4   2    0.90    2.50
  -4  -4  -2   19.80    4.60
  -4  -4  -2   11.40    3.40
  -4  -4  -2   17.10    4.10
   4   4   2   17.00    4.60
   4   4   2   13.10    3.50
   4   4   2   12.10    3.90
  -5  -4  -2  182.68   22.20
  -5  -4  -2  172.98   22.70
  -5  -4  -2  157.48   22.70
   5   4   2  185.98   22.80
   5   4   2  187.18   22.20
   5   4   2  182.98   22.80
  -6  -4  -2    8.50    2.90
  -6  -4  -2   10.10    4.50
  -6  -4  -2    7.90    3.90
   6   4   2    4.90    3.50
   6   4   2    4.70    4.30
  -7  -4  -2    6.30    4.00
  -7  -4  -2    2.80    4.60
  -7  -4  -2    6.60    3.40
   7   4   2    3.10    3.60
   7   4   2    6.90    3.00
   7   4   2    3.80    4.10
  -8  -4  -2   -0.10    3.10
  -8  -4  -2    5.20    4.60
  -8  -4  -2    0.80    3.90
   8   4   2    3.30    2.90
   8   4   2    9.90    5.10
   8   4   2   -4.40    3.20
  -9  -4  -2   41.50    7.70
  -9  -4  -2   35.70    8.60
  -9  -4  -2   44.90    8.90
   9   4   2   47.50    7.40
   9   4   2   31.40    8.70
 -10  -4  -2    1.80    4.50
 -10  -4  -2    0.50    5.40
  10   4   2    3.60    4.00
 -11  -4  -2   -3.10    6.00
 -11  -4  -2   -2.40    4.40
 -11  -4  -2    0.30    6.40
  11   4   2   -0.20    4.20
 -12  -4  -2   19.90    8.60
 -12  -4  -2   28.60    9.80
 -12  -4  -2   38.00    8.10
  12   4   2   29.40    7.30
 -13  -4  -2   -4.50    8.70
 -13  -4  -2   -3.10    7.00
  13   4   2   -7.20    8.70
  12  -5  -2    4.20    7.40
 -12   5   2   -5.30    8.00
 -12   5   2   14.70   10.30
  11  -5  -2    7.90    6.30
 -11   5   2    4.10    8.40
 -11   5   2    5.80    8.30
  10  -5  -2    5.70    6.20
 -10   5   2   24.80    9.80
 -10   5   2   12.80    7.80
   9  -5  -2   10.10    6.50
  -9   5   2    1.30    6.60
  -9   5   2    1.10    6.30
   8  -5  -2   -1.10    4.60
  -8   5   2   -6.40    5.90
  -8   5   2    6.30    6.30
   7  -5  -2    8.40    5.50
   7  -5  -2    1.70    4.90
   7  -5  -2    3.90    5.60
  -7   5   2   -2.10    5.00
  -7   5   2    3.20    5.90
   6  -5  -2   24.50    6.50
   6  -5  -2   25.80    6.80
   6  -5  -2   15.50    6.30
   6  -5  -2   13.80    7.10
  -6   5   2   29.80    7.70
  -6   5   2   24.40    6.80
   5  -5  -2   30.10    7.00
   5  -5  -2   30.30    7.20
  -5   5   2   47.90    8.30
  -5   5   2   35.00    8.00
  -5   5   2   21.00    6.80
   4  -5  -2   57.79    9.60
   4  -5  -2   42.60    9.00
   4  -5  -2   63.89   10.30
  -4   5   2   55.49    9.60
  -4   5   2   49.00    9.10
  -4   5   2   50.59    9.80
   3  -5  -2   36.70    7.30
   3  -5  -2   30.00    7.80
   3  -5  -2   48.10    7.80
  -3   5   2   42.70    7.50
  -3   5   2   31.10    7.50
  -3   5   2   33.50    7.00
   2  -5  -2    7.80    4.10
   2  -5  -2   10.60    5.10
   2  -5  -2    2.20    4.30
  -2   5   2   15.70    4.60
  -2   5   2    5.20    4.80
  -2   5   2   10.40    4.80
   1  -5  -2   35.70    7.50
   1  -5  -2   46.80    8.00
   1  -5  -2   41.00    8.20
   1  -5  -2   53.89    8.30
  -1   5   2   46.50    8.80
  -1   5   2   66.69    8.80
   0  -5  -2   27.90    5.70
   0  -5  -2   10.20    5.50
   0  -5  -2   42.80    6.30
   0   5   2   27.90    6.40
   0   5   2   39.00    6.30
  -1  -5  -2  269.47   33.50
  -1  -5  -2  280.97   33.60
  -1  -5  -2  282.67   34.10
   1   5   2  261.67   33.50
   1   5   2  268.07   34.10
   1   5   2  272.37   33.60
  -2  -5  -2    1.10    4.50
  -2  -5  -2   -0.30    2.80
  -2  -5  -2   -1.90    2.70
   2   5   2   -0.80    2.70
   2   5   2   -0.60    3.00
  -3  -5  -2    0.50    3.20
  -3  -5  -2    0.10    4.60
  -3  -5  -2    1.50    2.70
  -3  -5  -2    4.90    3.40
   3   5   2    2.20    2.90
   3   5   2   -1.30    3.00
  -4  -5  -2   48.70    8.00
  -4  -5  -2   48.50    8.40
  -4  -5  -2   64.69    9.10
   4   5   2   47.40    8.70
   4   5   2   42.90    8.20
   4   5   2   58.39    8.20
  -5  -5  -2   85.09   11.90
  -5  -5  -2   65.69   11.20
  -5  -5  -2   78.39   10.50
   5   5   2   78.99   11.70
   5   5   2   77.39   10.50
   5   5   2   77.09   11.90
  -6  -5  -2  152.78   19.80
  -6  -5  -2  146.09   19.90
  -6  -5  -2  150.18   19.10
   6   5   2  143.79   19.10
   6   5   2  163.08   20.00
   6   5   2  151.48   19.80
  -7  -5  -2    6.80    3.40
  -7  -5  -2   13.40    4.70
  -7  -5  -2    5.20    4.60
   7   5   2   13.00    4.00
   7   5   2    4.60    4.00
   7   5   2   13.60    4.60
  -8  -5  -2   57.69    9.10
  -8  -5  -2   48.90    9.60
  -8  -5  -2   66.09   10.40
   8   5   2   44.60    8.30
   8   5   2   67.59   10.80
   8   5   2   54.69    9.70
  -9  -5  -2    0.30    4.50
  -9  -5  -2   -0.80    5.20
  -9  -5  -2   -2.00    3.50
   9   5   2   -3.10    3.60
 -10  -5  -2    8.30    7.30
 -10  -5  -2   13.50    5.70
 -10  -5  -2   12.10    6.50
  10   5   2   14.20    5.00
 -11  -5  -2    6.10    5.20
 -11  -5  -2   -8.20    5.90
 -11  -5  -2   -1.70    6.20
  11   5   2    1.80    4.60
 -12  -5  -2    1.70    7.00
 -12  -5  -2   24.20    8.50
 -12  -5  -2   10.10    7.60
  12   5   2    0.50    5.30
 -13  -5  -2   13.40    6.70
 -13  -5  -2   14.20    8.60
 -13  -5  -2    4.60    8.10
  13   5   2    6.40    6.50
  11  -6  -2   -1.50    7.10
 -11   6   2   -5.20    7.70
  10  -6  -2   18.10    8.10
 -10   6   2   22.60    9.50
   9  -6  -2    5.60    5.60
  -9   6   2   -1.80    7.70
  -9   6   2    1.20    6.60
   8  -6  -2   -5.00    5.10
  -8   6   2   -3.50    6.30
  -8   6   2   -0.70    6.10
   7  -6  -2    2.90    5.80
  -7   6   2    2.90    5.60
  -7   6   2   14.30    6.50
   6  -6  -2   30.70    7.90
   6  -6  -2   56.39    9.10
  -6   6   2   28.00    8.50
  -6   6   2   44.60    8.90
  -6   6   2   22.20    7.30
   5  -6  -2   18.40    6.10
   5  -6  -2   -1.90    4.20
   5  -6  -2    8.30    5.70
  -5   6   2    8.70    5.50
  -5   6   2    3.60    7.50
  -5   6   2   12.20    5.60
   4  -6  -2    2.30    4.50
   4  -6  -2   10.30    6.10
   4  -6  -2    1.90    4.40
  -4   6   2    5.60    4.50
  -4   6   2    1.30    4.20
   3  -6  -2  239.98   30.10
   3  -6  -2  240.48   29.80
   3  -6  -2  221.68   29.60
  -3   6   2  240.08   29.70
  -3   6   2  244.18   30.00
  -3   6   2  221.18   30.20
   2  -6  -2   20.10    5.40
   2  -6  -2   11.80    5.60
   2  -6  -2   17.90    5.00
   2  -6  -2   14.70    5.10
  -2   6   2   12.80    4.90
  -2   6   2    4.90    4.70
   1  -6  -2    4.80    3.90
   1  -6  -2   11.40    4.30
   1  -6  -2   11.50    3.80
   1  -6  -2    7.10    4.90
  -1   6   2    3.10    4.00
  -1   6   2    2.80    4.80
   0  -6  -2  162.18   18.60
   0  -6  -2  129.09   17.70
   0  -6  -2  124.49   17.80
   0   6   2  138.49   17.90
   0   6   2  137.69   18.60
   0   6   2  135.99   17.90
  -1  -6  -2  390.96   48.30
  -1  -6  -2  386.76   47.80
  -1  -6  -2  405.76   47.90
   1   6   2  387.26   48.30
   1   6   2  372.76   47.80
   1   6   2  401.06   47.80
  -2  -6  -2  455.65   55.09
  -2  -6  -2  436.36   55.39
  -2  -6  -2  459.25   54.99
   2   6   2  461.15   55.49
   2   6   2  442.16   54.89
   2   6   2  451.95   55.09
  -3  -6  -2  106.59   14.10
  -3  -6  -2  107.39   15.40
  -3  -6  -2  100.59   13.70
  -3  -6  -2   92.19   13.40
   3   6   2   96.89   13.50
   3   6   2  106.79   13.80
  -4  -6  -2  104.89   15.40
  -4  -6  -2  133.69   17.60
  -4  -6  -2  109.89   15.30
  -4  -6  -2  118.89   15.00
   4   6   2  114.89   15.00
   4   6   2  112.29   15.30
  -5  -6  -2   -1.30    3.00
  -5  -6  -2    9.90    4.30
  -5  -6  -2    6.60    3.80
   5   6   2   -2.30    3.70
   5   6   2    6.70    3.50
   5   6   2    3.80    3.60
  -6  -6  -2  274.07   36.70
  -6  -6  -2  290.47   36.30
  -6  -6  -2  325.67   37.00
   6   6   2  301.37   36.90
   6   6   2  274.67   36.90
   6   6   2  302.17   36.40
  -7  -6  -2   14.80    4.70
  -7  -6  -2   16.30    5.40
   7   6   2   20.00    5.80
   7   6   2   19.10    7.90
   7   6   2   14.10    4.70
  -8  -6  -2    6.50    5.10
  -8  -6  -2   11.90    5.30
  -8  -6  -2   10.00    4.10
   8   6   2    2.00    4.60
   8   6   2    8.20    4.20
  -9  -6  -2   16.80    6.10
  -9  -6  -2   26.00    7.50
  -9  -6  -2   45.60    8.50
   9   6   2   37.10    6.80
 -10  -6  -2    7.10    4.70
 -10  -6  -2   -2.70    6.10
 -10  -6  -2   -5.90    4.70
  10   6   2   -1.00    4.60
 -11  -6  -2    4.40    7.10
 -11  -6  -2   14.90    7.30
 -11  -6  -2   13.50    7.50
  11   6   2    1.60    5.20
 -12  -6  -2    0.10    7.10
 -12  -6  -2   17.80    8.40
 -12  -6  -2    5.40    5.80
  12   6   2    2.90    5.70
 -13  -6  -2   26.40    9.60
 -13  -6  -2   13.70    9.70
 -13  -6  -2   20.20    7.40
  13   6   2   26.90    7.90
 -11   7   2   15.50    9.60
 -11   7   2   10.50    9.40
  10  -7  -2   -4.30    6.00
 -10   7   2   -5.40    6.70
 -10   7   2   -2.50    7.20
   9  -7  -2   -8.00    5.40
  -9   7   2   -2.70    6.30
  -9   7   2   -3.60    6.70
   8  -7  -2   38.00    9.60
  -8   7   2   21.90    9.10
  -8   7   2   36.60   10.20
   7  -7  -2   59.29   11.00
  -7   7   2   58.29   12.00
  -7   7   2   43.50   11.40
   6  -7  -2   30.80    8.10
   6  -7  -2   43.70    9.10
  -6   7   2   46.80    9.90
  -6   7   2   21.00    8.00
   5  -7  -2   26.60    7.30
   5  -7  -2   21.60    8.00
   5  -7  -2   36.40    7.40
  -5   7   2   22.20    7.90
  -5   7   2   27.70    7.20
  -5   7   2   21.30    7.30
   4  -7  -2  147.49   19.60
   4  -7  -2  138.79   20.40
   4  -7  -2  142.39   18.80
  -4   7   2  138.49   19.60
  -4   7   2  105.09   19.50
  -4   7   2  143.49   19.00
   3  -7  -2   31.30    7.20
   3  -7  -2   39.90    7.70
   3  -7  -2   31.20    8.10
   3  -7  -2   33.70   10.60
  -3   7   2   48.10   11.70
   2  -7  -2  188.58   23.70
   2  -7  -2  176.98   23.80
   2  -7  -2  185.48   24.20
   2  -7  -2  183.28   23.40
  -2   7   2  163.38   23.60
  -2   7   2  204.98   24.60
   1  -7  -2   45.60    8.00
   1  -7  -2   26.40    7.50
   1  -7  -2   51.29    8.00
   1  -7  -2   35.30    6.90
  -1   7   2   28.60    7.10
  -1   7   2   37.60    8.40
   0  -7  -2    8.00    4.80
   0  -7  -2   -6.70    3.00
   0  -7  -2   14.60    4.20
   0   7   2   10.70    4.20
   0   7   2    7.90    4.20
   0   7   2    4.50    4.50
  -1  -7  -2  120.49   15.40
  -1  -7  -2  101.09   14.30
  -1  -7  -2   79.39   13.60
   1   7   2   98.89   14.20
   1   7   2   94.89   15.30
   1   7   2  101.29   14.30
  -2  -7  -2   54.59    9.40
  -2  -7  -2   59.59   10.60
  -2  -7  -2   53.49    9.30
   2   7   2   48.70   10.00
   2   7   2   64.59    9.70
   2   7   2   69.69   10.20
  -3  -7  -2   20.50    5.30
  -3  -7  -2   14.90    5.20
  -3  -7  -2   24.90    5.50
  -3  -7  -2   12.10    5.80
   3   7   2   30.60    6.00
   3   7   2   21.10    5.50
  -4  -7  -2   12.10    4.10
  -4  -7  -2   11.70    4.10
  -4  -7  -2    9.60    5.60
  -4  -7  -2    9.50    4.40
   4   7   2    7.50    4.00
   4   7   2   13.90    4.30
  -5  -7  -2  133.59   16.80
  -5  -7  -2  118.69   16.60
  -5  -7  -2  119.19   18.50
  -5  -7  -2  116.39   16.20
   5   7   2  116.19   17.40
   5   7   2  128.39   16.30
  -6  -7  -2    9.80    5.40
  -6  -7  -2   18.30    5.70
  -6  -7  -2    7.70    4.10
   6   7   2   16.80    5.60
   6   7   2   18.50    5.10
   6   7   2   13.20    4.60
  -7  -7  -2   17.10    5.40
  -7  -7  -2   14.70    6.20
  -7  -7  -2   12.90    4.90
   7   7   2   14.40    4.70
   7   7   2   10.80    6.00
  -8  -7  -2   16.90    4.80
  -8  -7  -2   13.80    6.00
  -8  -7  -2   15.30    6.00
   8   7   2   16.70    6.80
   8   7   2   11.20    4.70
  -9  -7  -2   20.90    7.40
  -9  -7  -2   24.40    6.60
  -9  -7  -2   37.10    8.10
   9   7   2   25.10    6.40
 -10  -7  -2    8.30    6.80
 -10  -7  -2    6.90    5.80
 -10  -7  -2   13.00    9.80
  10   7   2    4.80    5.40
 -11  -7  -2   -4.90    5.90
 -11  -7  -2    8.20    5.70
 -11  -7  -2   15.00    7.90
  11   7   2   -3.50    5.00
 -12  -7  -2    7.40    7.30
 -12  -7  -2    5.90    6.30
 -12  -7  -2   -4.40    7.50
  12   7   2    0.50    6.20
  10  -8  -2    5.00    7.10
 -10   8   2   10.90    9.40
 -10   8   2    2.60    7.80
   9  -8  -2   -4.30    5.30
  -9   8   2    3.80    8.70
  -9   8   2    2.30    7.40
   8  -8  -2   -7.70    5.60
  -8   8   2   -4.90    6.60
  -8   8   2    1.00    6.70
   7  -8  -2    3.80    5.60
  -7   8   2   -4.20    6.20
  -7   8   2    9.00    6.40
   6  -8  -2   21.90    7.30
  -6   8   2   23.30    8.20
  -6   8   2   14.10    6.90
   5  -8  -2    1.20    5.30
   5  -8  -2    4.20    4.90
  -5   8   2    3.40    6.00
  -5   8   2    0.40    5.50
   4  -8  -2   39.70    7.60
   4  -8  -2   36.90    8.00
   4  -8  -2   24.00    7.00
   4  -8  -2   25.80    8.20
  -4   8   2   28.90    8.10
  -4   8   2   36.10    8.20
   3  -8  -2   83.19   16.50
   3  -8  -2  137.69   18.60
   3  -8  -2  122.19   19.10
  -3   8   2  133.29   17.80
  -3   8   2  114.39   17.80
   2  -8  -2   26.90    7.10
   2  -8  -2   39.40    7.10
   2  -8  -2   25.00    6.70
  -2   8   2   20.10    6.60
  -2   8   2   31.70    8.90
   1  -8  -2  126.09   17.60
   1  -8  -2  120.69   16.90
   1  -8  -2  110.99   16.30
   1  -8  -2  102.19   17.20
  -1   8   2  100.09   17.00
   0   8   2    8.50    4.40
  -1  -8  -2  178.18   24.10
  -1  -8  -2  196.48   23.80
  -1  -8  -2  160.98   23.70
   1   8   2  214.88   24.10
   1   8   2  192.18   24.70
   1   8   2  169.28   23.70
  -2  -8  -2   23.50    6.80
  -2  -8  -2   26.40    5.90
  -2  -8  -2   19.60    5.60
   2   8   2   15.00    5.20
   2   8   2    9.10    5.60
   2   8   2   27.50    5.90
  -3  -8  -2   27.90    6.10
  -3  -8  -2   22.20    6.50
  -3  -8  -2   36.70    7.20
  -3  -8  -2   20.40    6.90
   3   8   2   18.90    8.50
   3   8   2   16.80    5.70
  -4  -8  -2   21.20    6.40
  -4  -8  -2   11.00    4.90
  -4  -8  -2   16.40    5.10
  -4  -8  -2   12.60    4.70
   4   8   2   15.00    5.10
   4   8   2   11.90    4.90
  -5  -8  -2  139.99   21.20
  -5  -8  -2  138.69   19.30
  -5  -8  -2  143.79   19.00
  -5  -8  -2  156.88   19.60
   5   8   2  147.29   19.50
   5   8   2  136.19   19.00
  -6  -8  -2  216.98   26.30
  -6  -8  -2  222.58   26.80
  -6  -8  -2  206.38   26.60
  -6  -8  -2  149.39   28.50
   6   8   2  201.98   26.20
  -7  -8  -2   42.20    8.10
  -7  -8  -2   57.79    9.40
  -7  -8  -2   16.20    8.60
  -7  -8  -2   44.80    8.90
   7   8   2   49.90    8.40
  -8  -8  -2    6.40    9.10
  -8  -8  -2    1.30    5.30
  -8  -8  -2    8.80    5.50
   8   8   2   11.40    5.60
  -9  -8  -2    5.70    5.80
  -9  -8  -2   -1.60    4.30
  -9  -8  -2   -0.30    5.80
   9   8   2    1.10    4.60
 -10  -8  -2    6.80    6.40
 -10  -8  -2    9.50    5.60
 -10  -8  -2  -12.50    5.50
  10   8   2    6.40    5.30
 -11  -8  -2    8.40    7.50
 -11  -8  -2    3.70    6.30
 -11  -8  -2    0.10    6.40
  11   8   2   -1.50    5.70
 -12  -8  -2   11.90    7.30
 -12  -8  -2    5.00    7.90
 -12  -8  -2   22.40    9.30
  10  -9  -2    9.10    7.20
 -10   9   2    4.70    8.50
 -10   9   2   -0.30   10.40
   9  -9  -2    4.20    6.30
  -9   9   2   -1.10    7.80
  -9   9   2   -5.00    8.40
   8  -9  -2    4.40    6.50
  -8   9   2   13.70    8.90
  -8   9   2    0.70    7.30
   7  -9  -2   11.60    6.40
  -7   9   2   -4.70    6.00
  -7   9   2   -1.20    5.90
   6  -9  -2    0.40    5.20
  -6   9   2   17.70    8.00
   5  -9  -2   -5.00    4.80
   5  -9  -2   -5.30    4.50
  -5   9   2    1.90    6.20
   4  -9  -2   22.70    6.00
   4  -9  -2    7.90    5.70
   4  -9  -2   21.90    6.80
  -4   9   2   12.90    6.40
   3  -9  -2  130.09   20.60
   3  -9  -2  157.58   21.70
   3  -9  -2  161.48   22.10
   3  -9  -2  152.48   22.40
  -3   9   2  148.09   22.30
   2  -9  -2   10.50    5.30
   2  -9  -2   15.20    6.70
   2  -9  -2    7.00    5.20
   2  -9  -2    8.40    4.50
  -2   9   2   12.30    5.50
  -2   9   2   13.50    6.90
   1  -9  -2    6.20    4.00
   1  -9  -2    2.20    4.30
   1  -9  -2    8.10    5.30
   1  -9  -2    9.20    6.10
  -1   9   2    7.10    5.10
  -1   9   2    0.90    4.80
   0  -9  -2    6.90    4.50
   0  -9  -2    0.40    3.40
   0  -9  -2    2.30    4.90
   0   9   2    8.10    5.50
  -1  -9  -2  141.29   17.30
  -1  -9  -2  112.49   17.70
  -1  -9  -2  106.79   16.90
   1   9   2  116.19   18.10
   1   9   2  107.69   16.80
   1   9   2  100.89   16.40
  -2  -9  -2    3.90    3.90
  -2  -9  -2    0.50    3.60
  -2  -9  -2    3.10    5.30
   2   9   2    9.90    5.50
   2   9   2   18.70    6.30
   2   9   2   11.90    5.10
  -3  -9  -2    6.80    5.30
  -3  -9  -2    4.40    4.10
  -3  -9  -2    6.80    4.10
  -3  -9  -2   -3.80    4.10
   3   9   2   -3.00    3.60
   3   9   2   -2.40    3.70
  -4  -9  -2   35.10    7.50
  -4  -9  -2   36.60    7.40
  -4  -9  -2   30.70    8.70
  -4  -9  -2   23.70    8.70
   4   9   2   27.40    7.50
   4   9   2   37.00    8.20
  -5  -9  -2   -1.80    5.50
  -5  -9  -2    6.00    4.70
  -5  -9  -2    3.90    5.00
  -5  -9  -2    5.80    4.60
   5   9   2    5.30    4.40
  -6  -9  -2    5.40    6.20
  -6  -9  -2    1.60    4.00
  -6  -9  -2   -1.10    4.50
  -6  -9  -2    2.40    4.60
   6   9   2    0.30    4.20
  -7  -9  -2    0.20    7.50
  -7  -9  -2   -1.30    5.00
  -7  -9  -2    4.20    4.40
  -7  -9  -2   -2.30    4.70
   7   9   2   -2.40    4.40
  -8  -9  -2   62.99   11.20
  -8  -9  -2   55.99   11.20
  -8  -9  -2   71.99   12.60
   8   9   2   68.69   11.70
  -9  -9  -2   26.60    8.30
  -9  -9  -2   12.40    5.30
  -9  -9  -2   10.60    6.60
   9   9   2    9.80    6.00
 -10  -9  -2    2.90    7.00
 -10  -9  -2    7.00    7.90
 -10  -9  -2    8.80    5.70
 -11  -9  -2   -0.40    6.90
 -11  -9  -2   -9.40    5.30
 -11  -9  -2    2.90    6.10
   9 -10  -2    7.10    6.60
  -9  10   2    4.80    8.60
  -9  10   2   -6.40    7.70
  -8  10   2   -0.90    7.50
   7 -10  -2   31.40    9.00
   7 -10  -2   17.70    8.20
  -7  10   2   24.80    9.80
   6 -10  -2   -9.40    5.10
   6 -10  -2   -3.20    5.10
  -6  10   2    1.90    7.20
   5 -10  -2   50.09   10.50
   5 -10  -2   65.89   12.20
  -5  10   2   61.59   12.90
   4 -10  -2    1.20    4.80
   4 -10  -2    4.40    5.60
  -4  10   2    1.80    6.70
   3 -10  -2   16.10    6.40
   3 -10  -2   18.30    6.40
   3 -10  -2   -1.20   10.00
  -3  10   2   16.60    7.50
   2 -10  -2   20.50    6.40
   2 -10  -2   21.30    7.20
   2 -10  -2   28.50    8.00
  -2  10   2   37.40    9.30
   1 -10  -2   -3.60    5.40
   1 -10  -2    4.70    4.70
   1 -10  -2    6.00    5.60
   1 -10  -2    4.10    4.40
  -1  10   2   -0.80    4.90
   0 -10  -2   -2.70    4.80
   0 -10  -2    2.30    5.70
   0 -10  -2    4.40    4.70
   0 -10  -2   -3.60    3.30
   0  10   2    3.30    5.70
  -1 -10  -2   -3.50    4.90
  -1 -10  -2    1.50    3.70
  -1 -10  -2   -6.10    3.70
   1  10   2   -5.40    5.30
   1  10   2    3.50    5.30
   1  10   2    3.40    4.90
  -2 -10  -2   48.10    9.40
  -2 -10  -2   42.60    9.60
  -2 -10  -2   55.69    9.60
   2  10   2   44.40   10.40
   2  10   2   69.69   10.60
   2  10   2   21.00    8.00
  -3 -10  -2   10.20    6.00
  -3 -10  -2    2.50    3.80
  -3 -10  -2    4.60    4.40
  -3 -10  -2   13.40    7.00
   3  10   2    8.40    5.20
  -4 -10  -2   13.70    5.10
  -4 -10  -2   15.40    5.70
  -4 -10  -2    8.60    5.20
  -4 -10  -2    3.50    5.90
   4  10   2    4.30    5.10
  -5 -10  -2   38.90    8.30
  -5 -10  -2   29.80    7.90
  -5 -10  -2   39.30    8.70
  -5 -10  -2   40.20   10.00
   5  10   2   52.09    9.30
  -6 -10  -2   18.10    7.00
  -6 -10  -2   43.00    8.40
  -6 -10  -2   30.80    7.30
  -6 -10  -2   17.00    8.30
   6  10   2   22.30    7.20
  -7 -10  -2   12.90    6.00
  -7 -10  -2    7.40    5.30
  -7 -10  -2   17.00    6.60
  -8 -10  -2    1.80    5.50
  -8 -10  -2   -1.50    4.80
  -8 -10  -2   -8.90    5.10
  -9 -10  -2   26.60    8.40
  -9 -10  -2   29.60    8.20
 -10 -10  -2    6.30    6.60
 -10 -10  -2   -2.50    5.00
 -10 -10  -2    7.30    7.20
 -11 -10  -2   17.70    7.80
 -11 -10  -2    6.60    6.80
 -11 -10  -2    8.60    8.30
   8 -11  -2   -5.90    6.80
   8 -11  -2   11.00    8.00
  -8  11   2    9.00    9.40
   7 -11  -2    2.30    6.50
   7 -11  -2    6.20    7.20
  -7  11   2   -6.30    6.40
   6 -11  -2   33.40    9.80
   6 -11  -2   56.89   10.70
  -6  11   2   36.40   10.80
   5 -11  -2   11.90    6.20
   5 -11  -2   10.70    6.20
  -5  11   2   -1.70    6.80
   4 -11  -2    1.80    5.70
   4 -11  -2    1.90    5.50
  -4  11   2    0.50    6.90
   3 -11  -2   12.10    6.70
   3 -11  -2   22.50    7.30
  -3  11   2   26.10    9.30
   2 -11  -2   59.49   12.40
   2 -11  -2   77.99   12.20
  -2  11   2   67.69   13.80
   1 -11  -2    9.80    5.90
   1 -11  -2    7.30    4.80
  -1  11   2   -7.70    4.90
   0 -11  -2    7.10    4.80
   0 -11  -2   -3.90    3.80
   0  11   2    5.70    6.10
  -1 -11  -2  145.49   20.90
  -1 -11  -2  124.49   21.10
  -1 -11  -2  127.49   20.80
   1  11   2  186.78   23.60
  -2 -11  -2    7.10    5.60
  -2 -11  -2   16.80    6.40
  -2 -11  -2   13.30    6.50
   2  11   2   -0.70    6.40
  -3 -11  -2   44.50   11.00
  -3 -11  -2   51.79   10.50
  -3 -11  -2   44.70    9.70
  -3 -11  -2   69.49   11.10
  -4 -11  -2   15.00    6.00
  -4 -11  -2    7.40    4.70
  -4 -11  -2   -2.30    6.30
  -4 -11  -2    6.20    4.40
  -5 -11  -2   33.90    8.40
  -5 -11  -2   26.70    7.70
  -5 -11  -2   37.50    8.70
  -6 -11  -2   42.20    9.40
  -6 -11  -2   32.60    8.40
  -6 -11  -2   32.70    8.60
  -7 -11  -2   17.40    7.40
  -7 -11  -2   33.80    8.30
  -7 -11  -2   24.50    7.40
  -8 -11  -2  -10.80    7.60
  -8 -11  -2    0.20    6.00
  -8 -11  -2    5.70    5.90
  -9 -11  -2    5.10    7.00
  -9 -11  -2   -1.00    5.60
  -9 -11  -2    7.10    6.50
 -10 -11  -2   11.80    7.50
 -10 -11  -2    4.50    8.10
 -10 -11  -2    1.70    6.00
   7 -12  -2   -3.70    6.40
   7 -12  -2    7.80    7.10
  -7  12   2   10.20    8.00
   6 -12  -2   14.30    7.80
   6 -12  -2    9.50    7.10
  -6  12   2   -1.90    7.90
   5 -12  -2   35.50    9.30
  -5  12   2   23.80   11.00
   4 -12  -2    8.90    6.00
   4 -12  -2    9.40    6.80
  -4  12   2    9.50    8.50
   3 -12  -2   32.10    9.10
   3 -12  -2   36.30    9.00
  -3  12   2   46.20   11.30
   2 -12  -2   -0.60    5.10
   2 -12  -2    4.20    4.80
  -2  12   2    0.40    6.80
   1 -12  -2   29.50    7.60
   1 -12  -2   25.90    8.20
  -1  12   2   49.70   10.90
   0 -12  -2    8.80    6.00
   0 -12  -2   22.40    6.50
   0  12   2   16.30    8.20
  -1 -12  -2   11.30    5.80
  -1 -12  -2   20.60    7.30
   1  12   2   24.60    9.10
  -2 -12  -2   23.10    7.70
  -2 -12  -2   46.00    9.30
  -3 -12  -2   -1.40    3.80
  -3 -12  -2   -2.10    5.00
  -3 -12  -2    2.60    4.90
  -4 -12  -2    9.60    5.90
  -4 -12  -2    6.40    5.60
  -4 -12  -2    9.20    5.90
  -5 -12  -2    3.90    5.10
  -5 -12  -2    9.50    6.20
  -5 -12  -2    1.30    5.20
  -6 -12  -2   82.29   14.60
  -6 -12  -2  103.79   15.00
  -6 -12  -2   64.79   13.60
  -7 -12  -2    3.70    7.50
  -7 -12  -2    1.30    6.00
  -7 -12  -2   -1.80    5.40
  -8 -12  -2   -1.10    5.60
  -8 -12  -2    1.90    6.30
  -8 -12  -2   -5.50    6.00
  -9 -12  -2   -0.10    5.90
  -9 -12  -2   -2.20    6.70
  -9 -12  -2   -9.60    6.50
   6 -13  -2    1.60    6.40
   6 -13  -2   -3.30    6.10
  -6  13   2    5.50    9.70
   5 -13  -2    4.40    6.60
   5 -13  -2    8.30    7.50
  -5  13   2    2.80    7.70
   4 -13  -2    2.30    5.60
   4 -13  -2    1.40    6.80
  -4  13   2    8.50    8.00
   3 -13  -2   30.60   12.20
   3 -13  -2   49.40    9.70
  -3  13   2   22.60    9.60
   2 -13  -2   86.39   13.10
   2 -13  -2   45.10   11.80
  -2  13   2   66.99   14.50
   1 -13  -2    3.00    4.90
   1 -13  -2    6.50    5.90
  -1  13   2    3.30    7.30
   0 -13  -2    6.80    5.20
   0 -13  -2    5.50    5.80
   0  13   2    8.40    7.00
  -1 -13  -2   18.30    7.10
  -1 -13  -2    7.20    6.20
   1  13   2    7.70    7.90
  -2 -13  -2  148.39   23.50
  -2 -13  -2  189.88   24.90
  -2 -13  -2  145.89   23.60
  -3 -13  -2   -3.50    4.40
  -3 -13  -2    1.10    5.80
  -3 -13  -2   -0.90    5.10
  -4 -13  -2   -2.70    4.90
  -4 -13  -2    5.90    6.10
  -4 -13  -2   -2.10    5.30
  -5 -13  -2   14.30    6.80
  -5 -13  -2   -0.50    5.80
  -5 -13  -2    5.70    6.00
  -6 -13  -2   21.00    8.60
  -6 -13  -2   35.70    9.70
  -6 -13  -2   47.90    9.80
  -7 -13  -2   11.30    7.00
  -7 -13  -2    2.20    5.90
  -7 -13  -2   27.80    8.40
  -8 -13  -2   -3.90    5.90
  -8 -13  -2    3.30    7.20
  -8 -13  -2    3.30    6.70
   5 -14  -2   12.10    8.30
   5 -14  -2   11.30   12.60
  -5  14   2   14.80   10.50
   4 -14  -2    8.10    7.00
   4 -14  -2   28.50    8.60
  -4  14   2    6.50    8.00
   3 -14  -2   -1.90    5.40
   3 -14  -2    1.20    5.30
   2 -14  -2   57.09   14.20
   2 -14  -2   90.09   15.10
  -2  14   2  100.99   17.70
   1 -14  -2   -5.10    4.70
   1 -14  -2   -2.50    5.80
  -1  14   2   -2.50    7.40
   0 -14  -2    3.20    6.10
   0 -14  -2   -3.20    4.90
   0  14   2    9.20    8.90
  -1 -14  -2   17.20    7.50
  -1 -14  -2   15.40   12.70
   1  14   2   20.20    8.80
  -2 -14  -2    6.70    6.80
  -2 -14  -2   13.40    7.20
  -3 -14  -2   -5.20    5.70
  -3 -14  -2   15.30   11.50
  -3 -14  -2   -2.30    6.20
  -4 -14  -2    4.10    6.10
  -4 -14  -2   -0.60    5.10
  -5 -14  -2   60.09   12.30
  -5 -14  -2   48.70   11.50
  -6 -14  -2    4.70    6.90
  -6 -14  -2   -5.50    5.00
  -6 -14  -2    1.20    6.10
   2 -15  -2   13.40    7.80
   2 -15  -2   18.90    9.00
  -2  15   2    6.80    9.20
   1 -15  -2   20.80    8.30
   1 -15  -2   47.50   10.90
   0 -15  -2   -7.00    5.50
   0 -15  -2  -10.10    5.80
   0  15   2    5.70    8.90
  -1 -15  -2   36.60   10.90
  -1 -15  -2   31.80    9.60
   1  15   2   49.40   13.70
  -2 -15  -2    9.60    6.70
  -2 -15  -2   19.20    7.70
  -2 -15  -2    3.00    7.90
  -3 -15  -2   27.50    8.80
  -3 -15  -2   12.30    7.90
  -3 -15  -2   24.90    8.60
  -4 -15  -2    1.50    5.80
  -4 -15  -2   11.20    7.40
  -4 -15  -2    5.70    6.20
  -3 -14   3   -5.90    6.30
  -3 -14   3    0.00    7.50
  -3 -14   3   -3.00    5.20
  -3 -14   3    2.40   11.70
  -2 -14   3    7.80    8.00
  -2 -14   3    3.90    7.50
  -2 -14   3    0.60    6.00
  -2 -14   3    6.80    5.50
  -1 -14   3    3.30    9.40
  -1 -14   3    1.90    5.80
  -1 -14   3    7.10    7.30
   0 -14   3   34.30    9.00
   0 -14   3   39.20   10.70
   0 -14   3   39.60    9.30
   0 -14   3   37.10   10.50
  -1  14  -3   14.70    8.20
   1 -14   3   31.20    9.30
   1 -14   3   16.90    8.80
   1 -14   3   35.80    8.30
  -2  14  -3   -5.00    6.40
   2 -14   3   -3.30    4.90
   2 -14   3    2.90    6.40
  -3  14  -3   -2.60    6.80
   3 -14   3   -4.90    5.40
   3 -14   3   -2.40    5.00
  -4  14  -3    3.50    7.20
   4 -14   3   11.20    7.50
   4 -14   3    0.90    5.00
  -5  14  -3   47.50   11.80
   5 -14   3   43.90   11.30
   5 -14   3   32.70    8.80
  -5 -13   3   -1.50    5.40
  -5 -13   3    3.90    5.60
  -5 -13   3    3.10    6.50
  -5 -13   3   11.10    7.90
  -4 -13   3   30.00    9.00
  -4 -13   3   18.50    6.30
  -4 -13   3   20.80    9.30
  -4 -13   3   27.60    7.50
  -3 -13   3    6.40    6.10
  -3 -13   3   12.60    6.90
  -3 -13   3    9.90    5.40
  -3 -13   3   16.60    8.40
  -2 -13   3    6.50    7.40
  -2 -13   3   -1.00    5.50
  -2 -13   3    5.20    5.10
  -2 -13   3    3.20    6.30
  -1 -13   3    6.60    6.20
  -1 -13   3    5.40    5.30
  -1 -13   3   12.40    6.00
  -1 -13   3    8.40    7.10
   0 -13   3    0.00    6.20
   0 -13   3   -1.70    7.30
   0 -13   3   -5.40    4.50
   0 -13   3   -6.50    4.10
  -1  13  -3   45.80   10.60
   1 -13   3   61.39   10.10
   1 -13   3   45.60   11.00
   1 -13   3   24.90    9.50
  -2  13  -3   14.00    7.20
   2 -13   3   -5.80    5.80
   2 -13   3   10.90    8.00
   2 -13   3   -8.60    4.40
  -3  13  -3    6.90    6.90
   3 -13   3    5.90    7.10
   3 -13   3   10.50    5.20
  -4  13  -3   14.10    7.60
   4 -13   3   31.30    7.60
   4 -13   3   31.40   14.40
   4 -13   3   15.80    8.20
  -5  13  -3   21.10    9.90
   5 -13   3   12.20   10.80
   5 -13   3   27.40    9.50
   5 -13   3   19.10    6.60
  -6  13  -3    0.00    7.50
   6 -13   3   -0.10    4.70
   6 -13   3   -3.00    6.50
  -7  13  -3   17.90    9.10
   7 -13   3   11.60    8.10
   7 -13   3    2.20    4.90
  -6 -12   3   -8.10    6.00
  -6 -12   3    4.40    6.70
  -6 -12   3   -3.70    5.30
  -6 -12   3   -3.10    6.00
  -5 -12   3    4.90    5.40
  -5 -12   3    7.10    5.60
  -5 -12   3   12.90    7.90
  -5 -12   3   18.20    7.40
  -4 -12   3    3.40    4.70
  -4 -12   3    4.70    4.50
  -4 -12   3   -1.40    5.70
  -3 -12   3   11.60    5.00
  -3 -12   3   12.80    5.80
  -3 -12   3    0.80    5.40
  -3 -12   3   15.40    7.80
  -2 -12   3   13.60    6.40
  -2 -12   3    3.20    4.70
  -2 -12   3    7.90    5.90
  -2 -12   3    8.20    5.80
  -1 -12   3    7.50    5.50
  -1 -12   3   15.80    5.10
  -1 -12   3   -2.70    5.40
  -1 -12   3    7.40    5.40
   0 -12   3   58.79   12.00
   0 -12   3   67.49   11.30
   0 -12   3   46.80   10.10
  -1  12  -3   21.40    7.50
  -1  12  -3   13.70    6.90
   1 -12   3   16.40    6.30
   1 -12   3   19.10    7.90
   1 -12   3   29.40    8.00
  -2  12  -3    3.50    6.00
   2 -12   3   -0.40    6.60
   2 -12   3   -5.20    3.50
   2 -12   3    6.10    5.80
  -3  12  -3    7.10    5.60
   3 -12   3   -0.30    6.20
   3 -12   3    6.40    4.40
   3 -12   3    2.50    6.00
   3 -12   3    3.60    6.90
  -4  12  -3   97.49   16.80
   4 -12   3   98.39   14.80
   4 -12   3  106.49   17.00
   4 -12   3   76.99   15.30
  -5  12  -3   -7.50    6.00
   5 -12   3   10.90    5.00
   5 -12   3   -1.70    6.30
   5 -12   3   -4.40    4.60
  -6  12  -3    0.40    6.70
   6 -12   3    5.10    7.20
   6 -12   3    2.30    6.00
   6 -12   3   10.90    5.30
  -7  12  -3    5.20    7.30
   7 -12   3    3.50    4.60
   7 -12   3   14.20    7.80
   7 -12   3   15.90    9.60
   8 -12   3   26.80    9.30
   8 -12   3   29.00    9.50
   8 -12   3   11.10    6.30
  -7 -11   3    7.50    6.80
  -7 -11   3    3.40    7.70
  -7 -11   3   17.50    6.30
  -7 -11   3    6.20    7.10
  -6 -11   3   -8.40    7.30
  -6 -11   3   -8.10    5.90
  -6 -11   3   -1.80    5.50
  -6 -11   3    0.80    5.10
  -5 -11   3    6.50    6.30
  -5 -11   3    9.80    6.20
  -5 -11   3    4.70    5.10
  -5 -11   3   -3.50    4.20
  -4 -11   3   52.49    9.90
  -4 -11   3   55.79   11.80
  -4 -11   3   50.99    8.10
  -4 -11   3   29.50    8.10
  -3 -11   3   15.40    5.10
  -3 -11   3   19.10    5.70
  -3 -11   3   13.50    7.00
  -3 -11   3   18.40    7.00
  -2 -11   3   15.60    5.80
  -2 -11   3    9.30    5.50
  -2 -11   3   13.50    5.10
  -2 -11   3    8.70    6.50
   1  11  -3    4.60    6.40
  -1 -11   3    4.90    4.90
  -1 -11   3   -0.10    3.50
  -1 -11   3    9.40    5.10
  -1 -11   3    9.30    5.80
   0  11  -3  156.08   22.50
   0 -11   3  171.78   22.30
   0 -11   3  152.08   23.40
   0 -11   3  150.38   22.00
  -1  11  -3   31.10    7.50
  -1  11  -3   32.50    7.80
   1 -11   3   13.50    5.50
   1 -11   3   17.10    7.20
   1 -11   3   21.70    7.20
  -2  11  -3   35.40    8.50
   2 -11   3   49.60    9.70
   2 -11   3   25.80   10.60
   2 -11   3   36.40    9.10
  -3  11  -3    2.30    5.30
   3 -11   3   -1.60    3.50
   3 -11   3    0.70    6.60
   3 -11   3    3.60    7.20
   3 -11   3    0.30    4.60
  -4  11  -3    0.80    5.20
   4 -11   3   -3.90    6.70
   4 -11   3    1.50    4.10
   4 -11   3    2.80    5.90
   4 -11   3   13.90    6.10
  -5  11  -3   10.20    7.10
   5 -11   3   12.80    4.60
   5 -11   3   18.80    8.00
   5 -11   3    5.30    6.20
  -6  11  -3   10.50    7.20
   6 -11   3   12.10    6.60
   6 -11   3    2.10    4.30
   6 -11   3   10.40    6.50
  -7  11  -3   28.90    9.70
   7 -11   3   20.70   10.80
   7 -11   3   40.00    8.60
   7 -11   3   40.40    9.70
  -8  11  -3    4.20    8.50
   8 -11   3    6.80    6.80
   8 -11   3    7.40    5.30
   8 -11   3    7.40    6.60
  -9  11  -3   14.00    9.00
   9 -11   3   10.10    5.80
   9 -11   3   11.90    8.00
   9 -11   3    3.10    7.50
  -8 -10   3   13.50    6.60
  -8 -10   3    3.80    8.10
  -8 -10   3   11.50    8.30
  -8 -10   3   15.00    8.50
  -7 -10   3    5.10   10.00
  -7 -10   3   -1.60    6.30
  -7 -10   3    1.50    5.40
  -7 -10   3   -2.80    5.20
  -6 -10   3   22.70    8.50
  -6 -10   3   20.20    6.80
  -6 -10   3   15.00    6.30
  -6 -10   3   30.60    8.60
  -5 -10   3   -4.30    5.20
  -5 -10   3    8.80    4.60
  -5 -10   3    3.90    4.70
  -5 -10   3   -0.40    5.50
  -4 -10   3   15.70    5.00
  -4 -10   3   16.70    5.70
  -4 -10   3   27.50    7.50
  -4 -10   3    8.20    6.20
  -3 -10   3    1.60    5.10
  -3 -10   3   14.00    5.00
  -3 -10   3    4.30    5.50
  -3 -10   3    8.10    3.90
   2  10  -3   24.50    6.70
  -2 -10   3    6.80    6.20
  -2 -10   3   15.60    4.80
  -2 -10   3   10.10    4.80
  -2 -10   3   11.50    5.40
   1  10  -3   -2.50    3.90
  -1 -10   3    0.10    4.80
  -1 -10   3    1.30    4.50
  -1 -10   3   -1.20    3.10
  -1 -10   3   -3.70    3.70
   0  10  -3    8.10    4.60
   0 -10   3    2.10    4.50
   0 -10   3   -3.90    5.70
   0 -10   3    0.70    4.20
  -1  10  -3   49.80    9.80
  -1  10  -3   39.00    9.00
   1 -10   3   57.49   10.00
   1 -10   3   57.59    9.30
   1 -10   3   68.29   11.70
  -2  10  -3    0.50    3.80
  -2  10  -3    4.30    4.80
   2 -10   3   -6.30    4.00
   2 -10   3    2.40    3.70
   2 -10   3    6.60    5.50
  -3  10  -3    3.50    5.40
   3 -10   3    6.50    6.00
   3 -10   3   12.60    5.70
   3 -10   3    1.20    4.80
   3 -10   3   -0.10    3.30
  -4  10  -3    9.40    5.60
   4 -10   3   18.20    7.10
   4 -10   3   15.40    6.00
   4 -10   3   19.50    5.10
   4 -10   3    5.90    6.40
  -5  10  -3    1.30    5.90
   5 -10   3   -0.10    5.10
   5 -10   3    3.00    6.60
   5 -10   3    3.40    3.70
   5 -10   3    5.00    4.80
  -6  10  -3    0.30    6.00
   6 -10   3   -1.50    3.80
   6 -10   3    3.00    5.30
   6 -10   3    2.40    5.30
  -7  10  -3   40.20   10.10
   7 -10   3   24.90    6.70
   7 -10   3   43.80    8.90
   7 -10   3   34.70    9.00
  -8  10  -3   86.09   16.20
   8 -10   3   48.50   14.40
   8 -10   3   94.49   15.30
   8 -10   3   98.89   16.30
  -9  10  -3    1.60    7.60
   9 -10   3    0.80    6.40
   9 -10   3    2.90    5.80
   9 -10   3    1.20    5.10
 -10  10  -3   -1.90    7.90
  10 -10   3   -0.90    5.60
  10 -10   3    4.00    8.80
  10 -10   3    1.30    5.30
  -9  -9   3    2.90    6.60
  -9  -9   3   -8.20    6.80
  -8  -9   3   -3.80    8.90
  -8  -9   3    5.00    6.10
  -8  -9   3   -7.90    5.80
  -8  -9   3  -10.50    5.10
  -7  -9   3    8.60    7.00
  -7  -9   3    0.30    6.50
  -7  -9   3    7.70    5.50
  -7  -9   3    9.30    6.80
  -6  -9   3    0.30    5.00
  -6  -9   3    0.00    5.90
  -6  -9   3   14.10    7.00
  -6  -9   3    8.40    5.30
  -5  -9   3   81.89    9.70
  -5  -9   3   52.39   10.50
  -5  -9   3   45.40   10.50
  -5  -9   3   38.20    9.00
  -4  -9   3   -5.20    4.00
  -4  -9   3   -2.60    3.50
  -4  -9   3   -5.10    3.00
  -4  -9   3    0.40    5.10
   3   9  -3    2.20    4.10
  -3  -9   3   -6.00    4.10
  -3  -9   3    5.00    5.00
  -3  -9   3   -3.10    3.10
  -3  -9   3   -4.10    2.70
   2   9  -3   22.20    5.90
  -2  -9   3   24.70    6.40
  -2  -9   3   15.90    5.30
  -2  -9   3    9.10    4.00
  -2  -9   3   26.30    5.20
   1   9  -3   14.80    5.20
  -1  -9   3   12.60    3.90
  -1  -9   3   24.00    6.90
  -1  -9   3   11.10    4.30
  -1  -9   3   16.00    5.00
   0   9  -3    4.50    3.70
   0   9  -3    7.20    4.20
   0  -9   3   -3.30    3.80
   0  -9   3    0.60    4.00
   0  -9   3    6.00    3.80
  -1   9  -3    2.60    4.00
  -1   9  -3   -0.40    4.00
   1  -9   3    1.00    3.20
   1  -9   3    1.70    4.10
   1  -9   3   -2.90    3.50
  -2   9  -3   12.20    5.30
  -2   9  -3    2.10    3.90
   2  -9   3    1.90    4.40
   2  -9   3    7.60    3.30
   2  -9   3    3.60    4.50
  -3   9  -3   29.00    6.90
   3  -9   3   21.30    6.30
   3  -9   3   17.80    6.90
   3  -9   3   21.90    5.70
   3  -9   3   24.10    6.90
  -4   9  -3    6.70    5.50
   4  -9   3    1.40    4.30
   4  -9   3    1.90    5.30
   4  -9   3   10.80    5.60
   4  -9   3    9.40    3.90
  -5   9  -3   -5.10    4.70
   5  -9   3    1.90    3.40
   5  -9   3    0.30    6.30
   5  -9   3    6.90    4.80
   5  -9   3   -5.50    3.50
  -6   9  -3    6.50    5.70
   6  -9   3    3.20    4.30
   6  -9   3    3.10    4.80
   6  -9   3    2.60    3.80
   6  -9   3    7.90    7.40
  -7   9  -3    7.10    7.10
   7  -9   3   18.90    5.60
   7  -9   3   13.20    5.90
   7  -9   3   23.50    7.30
  -8   9  -3   16.00    8.70
   8  -9   3   32.80    6.80
   8  -9   3   39.10    8.50
   8  -9   3   34.20    8.70
  -9   9  -3   27.00    9.10
   9  -9   3    9.00    6.00
   9  -9   3    0.20   12.00
   9  -9   3   13.90    8.90
 -10   9  -3   -2.60   13.10
  10  -9   3    0.40    5.20
  10  -9   3    9.20    7.90
  10  -9   3    3.00    5.60
 -11   9  -3   14.30   10.10
  11  -9   3   16.10    7.20
 -10  -8   3    4.90   11.30
 -10  -8   3    6.40    8.00
 -10  -8   3   -1.00    6.50
   9   8  -3   -0.90    7.30
  -9  -8   3    5.70    6.70
  -9  -8   3   14.80    8.50
  -9  -8   3    5.00    7.00
   8   8  -3   -3.80   10.40
  -8  -8   3   -3.90    6.10
  -8  -8   3    6.00    7.30
  -8  -8   3    1.00    5.60
  -7  -8   3   16.50    7.10
  -7  -8   3   15.60    7.50
  -7  -8   3   23.30    6.50
  -6  -8   3   -3.00    5.00
  -6  -8   3    5.80    6.10
  -6  -8   3    0.40    4.50
  -6  -8   3   -0.60    4.50
  -5  -8   3   21.50    7.00
  -5  -8   3   18.80    6.70
  -5  -8   3   35.80    6.10
  -5  -8   3   17.70    6.20
   4   8  -3   57.99   11.50
  -4  -8   3   66.39    9.90
  -4  -8   3   78.59   12.50
  -4  -8   3   77.89   12.10
  -4  -8   3   58.49   10.20
   3   8  -3   81.19   12.80
  -3  -8   3   78.99   11.20
  -3  -8   3   86.19   13.40
  -3  -8   3   65.49   13.00
  -3  -8   3   88.09   12.70
   2   8  -3   17.20    4.90
   2   8  -3   16.40    5.90
  -2  -8   3   18.20    4.90
  -2  -8   3   15.00    5.40
  -2  -8   3   13.30    3.90
  -2  -8   3   23.20    5.70
   1   8  -3   10.50    3.90
   1   8  -3    5.40    4.10
  -1  -8   3    3.00    3.30
  -1  -8   3    1.00    2.70
  -1  -8   3   11.90    4.30
  -1  -8   3    4.00    4.00
   0   8  -3   81.29   14.60
   0   8  -3   98.69   14.10
   0   8  -3  104.29   14.40
   0  -8   3  101.59   13.80
   0  -8   3  102.49   14.20
   0  -8   3   88.29   14.90
  -1   8  -3   12.40    3.60
  -1   8  -3   10.70    4.10
   1  -8   3   10.00    3.20
   1  -8   3   -1.80    3.60
   1  -8   3    6.50    4.20
  -2   8  -3   23.40    6.40
  -2   8  -3   17.10    5.80
  -2   8  -3   22.30    4.90
   2  -8   3   18.00    4.50
   2  -8   3   15.70    5.60
   2  -8   3   20.30    5.80
  -3   8  -3   16.10    6.60
  -3   8  -3   16.70    6.30
   3  -8   3   38.30    6.50
   3  -8   3   43.90    6.00
   3  -8   3   24.20    6.90
   3  -8   3   31.30    7.30
  -4   8  -3   59.49   11.10
  -4   8  -3   67.39   11.40
   4  -8   3   72.09    9.90
   4  -8   3   52.29   10.70
   4  -8   3   44.60   10.70
   4  -8   3   76.09   10.50
  -5   8  -3   69.19   12.10
   5  -8   3   66.79   10.20
   5  -8   3   66.19   11.90
   5  -8   3   64.99   10.40
   5  -8   3   74.59   12.00
  -6   8  -3    5.10    5.50
  -6   8  -3   -3.20    5.70
   6  -8   3   -0.20    6.40
   6  -8   3    6.50    3.70
   6  -8   3    8.90    5.10
   6  -8   3    1.30    4.30
  -7   8  -3   44.40   11.40
   7  -8   3   42.90   10.30
   7  -8   3   64.09   10.10
   7  -8   3   75.49    9.80
  -8   8  -3    9.10    6.90
   8  -8   3   17.10    6.10
   8  -8   3    7.80    5.20
   8  -8   3    8.40    5.00
  -9   8  -3    6.70    7.60
   9  -8   3    6.30    5.90
   9  -8   3   23.00    7.20
 -10   8  -3    0.80    7.40
 -10   8  -3   10.40    6.90
  10  -8   3   -0.50    6.60
  10  -8   3   -0.10    5.20
 -11   8  -3    4.20    8.60
 -11   8  -3    9.30    7.30
  11  -8   3   13.70    6.80
 -12   8  -3   -8.90    7.50
 -12   8  -3   11.80    8.70
  12  -8   3    4.20    6.10
 -10  -7   3   -0.10    6.70
 -10  -7   3  -10.10    6.00
 -10  -7   3    2.70    7.20
   9   7  -3    8.70    7.20
  -9  -7   3    0.80    6.00
  -9  -7   3    0.00    5.70
  -9  -7   3    3.60    6.80
  -8  -7   3    6.60    6.40
  -8  -7   3    1.00    8.60
  -8  -7   3    7.40    6.50
   7   7  -3    8.50    5.30
  -7  -7   3    5.30    5.20
  -7  -7   3    9.30    6.30
  -7  -7   3   11.40    6.50
   6   7  -3   27.20    6.70
  -6  -7   3   24.30    6.00
  -6  -7   3   30.40    8.20
  -6  -7   3   12.40    6.10
  -5  -7   3    8.70    4.80
  -5  -7   3    8.80    4.30
  -5  -7   3    9.40    5.70
   4   7  -3  118.19   15.00
   4   7  -3   61.89   12.90
  -4  -7   3  107.59   14.60
  -4  -7   3   78.69   12.50
  -4  -7   3   94.39   13.80
   3   7  -3    3.20    4.80
   3   7  -3    2.70    4.00
  -3  -7   3   15.00    5.80
  -3  -7   3   12.80    3.90
  -3  -7   3   15.80    3.60
  -3  -7   3    9.60    5.10
   2   7  -3   67.69   11.10
   2   7  -3   67.39   10.40
  -2  -7   3   71.59    8.90
  -2  -7   3   61.29   10.40
  -2  -7   3   58.59   10.90
  -2  -7   3   58.89    9.30
   1   7  -3    9.10    3.70
  -1  -7   3    8.80    2.90
  -1  -7   3   17.30    4.20
  -1  -7   3    7.30    4.40
  -1  -7   3    4.50    3.00
   0   7  -3   93.49   13.70
   0   7  -3  100.19   13.70
   0   7  -3  126.89   16.10
   0  -7   3   92.19   13.40
   0  -7   3  106.99   13.70
   0  -7   3  144.59   17.10
  -1   7  -3  242.18   30.30
  -1   7  -3  238.98   29.70
  -1   7  -3  222.28   29.50
   1  -7   3  251.87   30.30
   1  -7   3  242.78   29.50
  -2   7  -3   22.00    6.20
  -2   7  -3   29.10    5.50
  -2   7  -3   21.70    5.50
   2  -7   3   32.10    5.70
   2  -7   3   41.20    6.70
   2  -7   3   30.60    6.70
  -3   7  -3    3.00    4.10
  -3   7  -3   11.50    4.40
   3  -7   3    1.40    3.40
   3  -7   3    6.50    3.90
   3  -7   3   -2.40    2.20
   3  -7   3   -7.60    3.80
  -4   7  -3   -2.40    4.00
  -4   7  -3    0.70    4.00
   4  -7   3   -1.10    4.70
   4  -7   3    3.40    2.60
   4  -7   3    0.90    3.00
   4  -7   3   -2.40    3.20
  -5   7  -3  153.28   20.50
  -5   7  -3  135.29   18.80
   5  -7   3  142.19   17.70
   5  -7   3  121.09   17.90
   5  -7   3  157.48   19.20
  -6   7  -3   -3.50    4.20
  -6   7  -3    3.00    4.80
   6  -7   3   -0.70    3.00
   6  -7   3   -2.50    3.40
   6  -7   3   -0.10    3.60
   6  -7   3   -6.40    5.00
  -7   7  -3    1.70    4.60
  -7   7  -3    5.10    5.80
   7  -7   3   -7.10    5.60
   7  -7   3   -3.70    4.00
   7  -7   3   -1.10    3.70
   7  -7   3    0.80    3.80
  -8   7  -3   59.79   12.10
  -8   7  -3   75.19   13.50
  -8   7  -3  106.79   15.90
   8  -7   3   78.69   12.90
   8  -7   3   98.19   12.80
  -9   7  -3    6.40    5.50
  -9   7  -3   13.30    7.30
  -9   7  -3    0.60    5.40
   9  -7   3   -5.20    4.10
   9  -7   3   10.20    5.70
 -10   7  -3    7.90    6.70
 -10   7  -3   13.20    8.50
  10  -7   3   11.90    5.40
  10  -7   3   13.80    7.10
 -11   7  -3    0.70    6.90
  11  -7   3   -1.50    5.10
  11  -7   3    5.80    7.10
 -12   7  -3   12.40    8.30
 -12   7  -3   21.90   10.00
  12  -7   3   22.00    7.30
 -11  -6   3   -1.70    7.10
 -11  -6   3   10.00    8.80
 -11  -6   3   -4.00    8.00
 -10  -6   3   22.00    8.90
 -10  -6   3   20.10    8.60
 -10  -6   3   29.60    9.90
   9   6  -3   -1.90    7.20
  -9  -6   3   -3.70    6.50
  -9  -6   3    6.30    6.00
  -9  -6   3  -11.70    4.60
   8   6  -3   13.00   11.60
  -8  -6   3    4.60    6.00
  -8  -6   3    0.60    4.70
  -8  -6   3    0.00    9.20
   7   6  -3    8.70    5.60
  -7  -6   3   14.30    6.90
  -7  -6   3    1.60    4.80
  -7  -6   3    5.30    5.20
   6   6  -3   34.90    7.90
  -6  -6   3   58.39   10.10
  -6  -6   3   50.49    8.10
  -6  -6   3   33.50    8.60
   5   6  -3    1.10    3.50
   5   6  -3    5.60    4.70
   5   6  -3    5.40    4.80
  -5  -6   3    8.40    4.70
  -5  -6   3   -8.40    3.90
  -5  -6   3    9.20    3.80
   4   6  -3   -1.00    3.20
   4   6  -3    6.90    4.50
  -4  -6   3    2.20    3.10
  -4  -6   3   -0.70    3.90
  -4  -6   3    8.20    4.80
   3   6  -3   95.79   15.10
   3   6  -3   94.39   15.50
  -3  -6   3  113.99   14.80
  -3  -6   3  114.49   13.70
  -3  -6   3  104.09   14.00
   2   6  -3   -1.40    2.50
   2   6  -3    0.30    3.50
  -2  -6   3   -1.00    3.30
  -2  -6   3   -3.10    3.50
  -2  -6   3   -0.50    2.20
  -2  -6   3    0.40    2.10
   1   6  -3   26.60    5.60
   1   6  -3   25.50    6.40
  -1  -6   3   30.00    6.60
  -1  -6   3   28.10    5.00
  -1  -6   3   29.30    5.90
  -1  -6   3   30.60    4.60
   0   6  -3   26.40    4.50
   0   6  -3   12.90    3.70
   0   6  -3   18.60    4.90
   0  -6   3    9.60    3.50
   0  -6   3   22.10    4.40
   0  -6   3    7.20    4.50
  -1   6  -3  141.59   17.90
  -1   6  -3  134.19   17.40
  -1   6  -3  134.59   17.20
   1  -6   3  134.89   17.90
   1  -6   3  125.69   17.10
   1  -6   3  145.89   17.30
  -2   6  -3  114.79   14.50
  -2   6  -3   88.79   13.00
  -2   6  -3   73.99   11.90
   2  -6   3  122.59   14.60
   2  -6   3   84.79   11.90
   2  -6   3  131.29   14.10
  -3   6  -3    4.60    3.80
  -3   6  -3   -1.40    3.40
   3  -6   3    3.20    3.10
   3  -6   3   -0.90    1.90
   3  -6   3    0.40    2.80
   3  -6   3   -4.10    3.50
  -4   6  -3   21.90    6.00
  -4   6  -3   19.30    5.70
   4  -6   3   24.00    6.40
   4  -6   3   28.10    6.00
   4  -6   3   33.10    5.30
   4  -6   3   22.90    4.50
  -5   6  -3   -3.70    3.10
  -5   6  -3   -5.80    4.10
   5  -6   3    2.80    3.30
   5  -6   3    0.50    2.70
   5  -6   3    3.10    5.30
  -6   6  -3   43.10   10.70
  -6   6  -3   64.89   10.60
   6  -6   3   61.69   10.30
   6  -6   3   67.69    9.70
   6  -6   3   73.99   11.80
  -7   6  -3    0.50    4.10
  -7   6  -3   -1.50    5.40
  -7   6  -3    0.90    4.50
   7  -6   3    4.70    4.00
   7  -6   3   -8.40    5.30
   7  -6   3   -3.60    3.60
  -8   6  -3   45.90   10.30
  -8   6  -3   81.09   13.60
  -8   6  -3   99.29   14.00
   8  -6   3   72.89   10.80
  -9   6  -3   25.00    7.60
  -9   6  -3   27.90    7.60
  -9   6  -3   37.20    9.60
   9  -6   3   29.80    7.10
   9  -6   3   27.50    7.40
 -10   6  -3    5.00    7.00
 -10   6  -3    3.90    7.30
 -10   6  -3   18.70    6.80
  10  -6   3   11.90    8.60
  10  -6   3   20.10    6.10
 -11   6  -3  -11.00    6.70
 -11   6  -3    0.90    6.50
  11  -6   3   -4.70    4.40
  11  -6   3    1.80    6.50
 -12   6  -3   15.00    9.10
 -12   6  -3    5.20    7.10
  12  -6   3    0.70    5.30
 -13   6  -3   26.30   11.60
 -13   6  -3   17.00    9.70
  13  -6   3   19.50    7.00
 -11  -5   3    2.80    7.80
 -11  -5   3    6.80    7.70
 -11  -5   3    7.50    7.30
 -10  -5   3   -1.90    7.00
 -10  -5   3    4.10    7.50
 -10  -5   3    3.80    7.40
   9   5  -3    5.50    7.10
  -9  -5   3    2.60    6.20
  -9  -5   3    7.60    6.80
  -9  -5   3    3.50    6.30
   8   5  -3   -1.90    6.00
  -8  -5   3   -9.50    4.40
  -8  -5   3   -4.20    5.40
  -8  -5   3   -4.90    5.70
   7   5  -3   14.20    6.30
  -7  -5   3   28.70    7.70
  -7  -5   3   14.90    6.80
  -7  -5   3   24.70    6.40
   6   5  -3   -5.90    4.20
   6   5  -3   -2.40    3.90
  -6  -5   3    5.10    4.60
  -6  -5   3    9.50    5.50
  -6  -5   3   -1.40    4.10
   5   5  -3    2.60    3.90
   5   5  -3    5.90    4.00
   5   5  -3    3.90    4.60
  -5  -5   3    4.90    4.00
  -5  -5   3   11.00    5.10
  -5  -5   3    9.30    4.10
   4   5  -3   21.70    6.20
   4   5  -3   24.40    6.00
  -4  -5   3   28.00    6.30
  -4  -5   3   26.10    6.10
  -4  -5   3   25.50    5.20
   3   5  -3   85.69   11.30
   3   5  -3   71.49    9.80
   3   5  -3   73.29   11.50
  -3  -5   3   67.19   11.50
  -3  -5   3   80.69   11.40
  -3  -5   3   66.29    9.70
   2   5  -3   60.59    9.90
   2   5  -3   68.69    9.70
  -2  -5   3   82.49   10.90
  -2  -5   3   66.39    9.60
  -2  -5   3   59.99    8.20
  -2  -5   3   51.29    7.90
   1   5  -3    4.70    2.70
   1   5  -3    2.50    3.40
  -1  -5   3    3.90    3.00
  -1  -5   3   -0.90    2.10
  -1  -5   3   -1.10    3.10
  -1  -5   3    2.50    1.70
   0   5  -3   71.09   10.60
   0   5  -3   81.69   11.90
   0  -5   3   75.29   10.20
   0  -5   3   95.69   11.40
   0  -5   3   88.49   12.40
  -1   5  -3    4.40    3.30
  -1   5  -3    1.90    2.60
  -1   5  -3    3.80    2.20
   1  -5   3    0.70    3.00
   1  -5   3    3.20    3.30
   1  -5   3    0.80    2.30
  -2   5  -3   38.00    5.30
  -2   5  -3   21.50    5.40
  -2   5  -3   39.30    6.70
   2  -5   3   38.30    6.00
   2  -5   3   22.50    4.80
   2  -5   3   37.90    6.50
  -3   5  -3   -2.20    3.40
  -3   5  -3    2.20    3.40
   3  -5   3   -2.20    3.50
   3  -5   3    6.00    3.50
   3  -5   3    1.30    2.30
   3  -5   3    1.60    1.90
  -4   5  -3  103.79   12.30
  -4   5  -3   90.59   11.60
   4  -5   3   65.49    9.40
   4  -5   3   70.69   11.20
   4  -5   3   63.79    9.80
   4  -5   3   75.39   11.00
  -5   5  -3   13.00    4.40
  -5   5  -3    9.90    5.50
   5  -5   3    5.00    4.60
   5  -5   3    8.70    3.40
   5  -5   3    8.80    3.60
  -6   5  -3   25.80    5.90
  -6   5  -3   21.80    4.80
  -6   5  -3   10.40    5.90
   6  -5   3   20.50    5.20
   6  -5   3   19.30    6.00
   6  -5   3   20.20    4.90
  -7   5  -3   50.99   10.00
  -7   5  -3   32.70    7.80
  -7   5  -3   65.29    9.50
   7  -5   3   50.59   10.00
   7  -5   3   65.29    8.70
   7  -5   3   44.90    8.50
  -8   5  -3   29.40    8.10
  -8   5  -3   23.40    6.40
  -8   5  -3   21.70    6.20
   8  -5   3   33.80    6.50
   8  -5   3   14.50    7.20
   8  -5   3   26.90    6.20
  -9   5  -3   45.50    9.90
  -9   5  -3   64.79   10.20
  -9   5  -3   74.09   12.60
   9  -5   3   54.79   10.00
   9  -5   3   53.99   10.00
 -10   5  -3    4.00    6.90
 -10   5  -3  -10.00    5.60
  10  -5   3    0.70    5.10
  10  -5   3    1.70    5.10
 -11   5  -3    3.40    6.50
 -11   5  -3    7.00    7.70
  11  -5   3    8.80    5.90
  11  -5   3    4.70    5.80
  11  -5   3   13.00    5.80
 -12   5  -3   -3.50    7.30
 -12   5  -3   -2.20    6.50
  12  -5   3    8.50    7.30
  12  -5   3   12.90    6.10
 -13   5  -3   18.80    9.30
 -13   5  -3   38.70   11.40
  13  -5   3   21.60    7.80
 -11  -4   3   36.40    9.90
 -11  -4   3   12.90    8.50
 -11  -4   3   11.80    8.50
 -10  -4   3    4.00    6.80
 -10  -4   3  -11.40    6.00
   9   4  -3    1.10    8.10
  -9  -4   3    4.80    6.60
  -9  -4   3    3.30    6.40
  -9  -4   3   -0.10    6.10
   8   4  -3    2.60    5.70
  -8  -4   3   -0.50    5.50
  -8  -4   3  -10.90    5.60
  -8  -4   3   -1.40    5.20
   7   4  -3    6.50    5.10
   7   4  -3   18.70    6.80
  -7  -4   3    4.90    5.00
  -7  -4   3    1.00    5.00
  -7  -4   3   11.60    5.40
   6   4  -3   16.30    5.40
   6   4  -3   11.90    4.80
   6   4  -3    4.30    5.00
  -6  -4   3   17.50    6.00
  -6  -4   3    6.80    5.70
   5   4  -3   -2.40    3.30
   5   4  -3    2.40    3.90
   5   4  -3   -5.20    3.50
  -5  -4   3   -3.80    3.50
  -5  -4   3    1.00    4.50
  -5  -4   3    0.30    3.60
   4   4  -3   81.89   11.10
   4   4  -3   64.19   10.90
  -4  -4   3   72.49   10.90
  -4  -4   3   57.99   10.50
  -4  -4   3   64.39    9.70
   3   4  -3    1.30    3.20
   3   4  -3    6.10    2.70
   3   4  -3   -1.70    3.00
  -3  -4   3    7.00    3.60
  -3  -4   3    4.90    2.70
  -3  -4   3    6.70    4.10
   2   4  -3   19.60    5.20
   2   4  -3   22.80    4.50
  -2  -4   3   13.90    4.40
  -2  -4   3   13.10    4.60
   1   4  -3   -0.90    3.00
   1   4  -3   -1.10    2.40
  -1  -4   3    1.70    2.80
  -1  -4   3    2.40    3.30
   0   4  -3   45.10    7.80
   0   4  -3   43.50    7.10
   0  -4   3   48.50    8.00
   0  -4   3   46.10    6.30
   0  -4   3   53.19    7.30
  -1   4  -3    5.60    2.60
  -1   4  -3   16.40    4.20
   1  -4   3    8.90    3.00
   1  -4   3    7.70    3.90
   1  -4   3   12.70    2.80
  -2   4  -3    5.80    3.70
  -2   4  -3   12.90    3.10
  -2   4  -3   17.90    4.30
   2  -4   3   14.80    2.80
   2  -4   3   16.20    4.00
   2  -4   3   11.10    4.20
  -3   4  -3   29.20    6.00
  -3   4  -3   35.90    6.10
   3  -4   3   22.60    5.60
   3  -4   3   32.90    4.80
  -4   4  -3   -2.40    2.90
  -4   4  -3   -0.90    3.40
   4  -4   3    7.70    3.90
   4  -4   3   -2.10    2.20
   4  -4   3   -3.10    2.40
   4  -4   3   -3.00    1.70
  -5   4  -3   -2.60    4.40
  -5   4  -3   -1.30    2.50
  -5   4  -3    4.10    3.40
   5  -4   3    1.90    3.80
   5  -4   3   -1.60    2.40
   5  -4   3    2.00    2.50
  -6   4  -3   42.50    6.90
  -6   4  -3   26.90    6.00
  -6   4  -3   35.90    7.70
   6  -4   3   33.10    6.20
   6  -4   3   41.10    7.60
   6  -4   3   27.90    5.90
  -7   4  -3  230.18   29.70
  -7   4  -3  238.48   29.70
   7  -4   3  252.17   29.50
   7  -4   3  240.98   29.60
   7  -4   3  217.28   30.80
  -8   4  -3   25.60    6.60
  -8   4  -3   52.59    9.90
  -8   4  -3   20.60    6.40
   8  -4   3   41.50    7.20
   8  -4   3   46.80    9.10
   8  -4   3   36.60    6.70
  -9   4  -3   47.80   10.30
  -9   4  -3   41.10    7.80
  -9   4  -3   38.00    8.60
   9  -4   3   37.20    7.80
   9  -4   3   55.79    8.40
 -10   4  -3    1.80    5.90
 -10   4  -3    4.80    6.50
  10  -4   3    3.80    4.30
  10  -4   3    6.80    5.00
  10  -4   3    4.10    4.60
 -11   4  -3   -2.00    6.70
 -11   4  -3    3.40    6.50
  11  -4   3    1.60    5.70
  11  -4   3    2.40    5.40
  11  -4   3    0.80    4.70
 -12   4  -3   52.39   11.50
 -12   4  -3   46.90   13.40
  12  -4   3   52.79   11.10
  12  -4   3   62.79   10.50
 -13   4  -3   -9.30    7.10
 -13   4  -3    2.30    7.70
  13  -4   3   -4.50    5.00
  13  -4   3    3.40    7.20
 -12  -3   3    9.50    8.20
 -12  -3   3    5.50    8.40
 -12  -3   3    2.20    8.10
 -11  -3   3   11.40    8.60
 -11  -3   3   20.50    9.00
 -11  -3   3   16.20    9.10
 -10  -3   3   28.80    8.70
 -10  -3   3   11.20    8.20
 -10  -3   3   14.60    7.60
  -9  -3   3   -2.00    5.60
  -9  -3   3   -0.60    6.10
  -9  -3   3   -9.10    5.70
   8   3  -3    9.30    6.00
  -8  -3   3   17.70    6.70
  -8  -3   3   11.10    6.50
  -8  -3   3   10.90    6.10
   7   3  -3   -0.70    4.70
   7   3  -3    3.60    4.90
  -7  -3   3   -2.80    4.40
  -7  -3   3   -0.80    4.70
  -7  -3   3   -3.20    4.60
   6   3  -3  129.59   19.30
   6   3  -3  131.29   19.60
  -6  -3   3  121.59   20.20
  -6  -3   3  179.78   19.50
  -6  -3   3  167.98   20.30
   5   3  -3    4.60    4.30
   5   3  -3   11.00    4.90
   5   3  -3    0.10    3.30
  -5  -3   3    5.90    3.90
  -5  -3   3   10.40    5.30
  -5  -3   3    1.60    3.70
   4   3  -3   39.60    6.90
   4   3  -3   25.40    5.80
   4   3  -3   21.30    6.00
  -4  -3   3   27.00    5.50
  -4  -3   3   32.80    6.70
  -4  -3   3   36.80    6.80
   3   3  -3   55.29    9.20
   3   3  -3   53.79    8.90
   3   3  -3   53.79    8.10
  -3  -3   3   54.09    8.10
  -3  -3   3   54.49    9.10
  -3  -3   3   69.19    9.40
   2   3  -3    5.70    2.10
   2   3  -3    3.30    2.90
   2   3  -3   -1.10    3.20
  -2  -3   3    1.80    3.10
  -2  -3   3   -2.30    3.30
   1   3  -3    0.50    3.00
  -1  -3   3    7.80    3.50
  -1  -3   3    3.90    3.20
   0   3  -3    7.30    3.30
   0   3  -3    4.80    2.40
   0  -3   3    6.90    2.80
   0  -3   3    2.80    3.20
  -1   3  -3   93.69   10.30
  -1   3  -3   82.39   11.00
  -1   3  -3   77.59   10.30
   1  -3   3   75.99   10.20
   1  -3   3   75.59   10.30
   1  -3   3   82.99   11.00
  -2   3  -3    0.20    3.00
  -2   3  -3    0.40    1.50
   2  -3   3    1.10    2.60
   2  -3   3    0.90    1.30
   2  -3   3    1.80    2.80
  -3   3  -3   25.60    5.90
  -3   3  -3   41.40    6.00
   3  -3   3   25.10    5.20
   3  -3   3   30.40    5.60
   3  -3   3   25.00    4.00
   3  -3   3   34.50    4.20
  -4   3  -3   35.10    5.80
  -4   3  -3   34.10    7.10
   4  -3   3   50.99    5.70
   4  -3   3   25.30    6.00
   4  -3   3   41.90    7.30
  -5   3  -3   42.70    7.70
  -5   3  -3   53.69    7.30
  -5   3  -3   46.80    8.70
   5  -3   3   44.60    8.60
   5  -3   3   52.19    7.70
   5  -3   3   53.29    7.30
  -6   3  -3    0.20    3.20
  -6   3  -3    8.40    4.70
  -6   3  -3    4.10    3.10
   6  -3   3    0.20    2.60
   6  -3   3    6.10    4.50
   6  -3   3    1.40    2.70
  -7   3  -3   39.10    8.40
  -7   3  -3   40.00    7.00
  -7   3  -3   35.40    7.00
   7  -3   3   40.60    6.90
   7  -3   3   43.30    8.50
   7  -3   3   43.90    7.00
  -8   3  -3  121.09   16.80
  -8   3  -3  119.39   18.20
  -8   3  -3  121.19   16.10
   8  -3   3  123.89   18.60
   8  -3   3  115.89   16.20
   8  -3   3  135.09   16.20
  -9   3  -3   22.10    6.30
  -9   3  -3   27.50    8.20
   9  -3   3   24.80    5.40
   9  -3   3   16.20    5.70
   9  -3   3   18.80    5.70
 -10   3  -3   11.90    7.20
 -10   3  -3   10.80    7.90
  10  -3   3   29.30    5.90
  10  -3   3   20.70    6.10
  10  -3   3   25.60    6.30
 -11   3  -3    5.40    6.80
 -11   3  -3    0.10    5.90
  11  -3   3   -0.70    4.20
  11  -3   3   -4.60    4.80
 -12   3  -3   35.30    8.90
 -12   3  -3   27.20    9.40
  12  -3   3    9.30    6.80
  12  -3   3   27.10    6.20
 -13   3  -3   22.30    9.00
 -13   3  -3   35.60   10.80
  13  -3   3   16.80    7.40
  13  -3   3   33.70    7.60
 -14   3  -3  -11.00    7.50
 -14   3  -3    5.50    9.60
  14  -3   3   -4.50    5.30
  14  -3   3   -3.00    7.50
 -12  -2   3   -8.90    6.30
 -12  -2   3    7.60    8.90
 -11  -2   3    1.20    7.30
 -11  -2   3   -1.90    6.60
 -11  -2   3    9.30    8.10
 -10  -2   3   55.79   10.90
 -10  -2   3   34.10    9.50
 -10  -2   3   25.80    9.50
  -9  -2   3    1.70    6.50
  -9  -2   3    8.80    6.40
  -9  -2   3   19.00    7.30
   8   2  -3   -0.70    5.70
   8   2  -3   -4.40    5.30
  -8  -2   3   -6.70    4.80
  -8  -2   3   -4.20    5.70
  -8  -2   3   -1.20    5.60
   7   2  -3   32.70    8.50
   7   2  -3   58.79    9.10
  -7  -2   3   35.90    8.70
  -7  -2   3   43.20    8.70
  -7  -2   3   31.70    8.50
   6   2  -3    6.60    4.60
   6   2  -3   -1.70    4.80
   6   2  -3    4.50    4.40
  -6  -2   3   14.40    5.30
  -6  -2   3    6.10    5.00
  -6  -2   3    9.40    4.90
   5   2  -3   64.39   10.20
   5   2  -3   68.99   10.90
   5   2  -3   65.29    9.60
  -5  -2   3   56.19   10.00
  -5  -2   3   60.39    9.70
  -5  -2   3   45.30    9.50
   4   2  -3   30.10    7.30
   4   2  -3   48.10    8.40
   4   2  -3   53.49    7.80
  -4  -2   3   43.70    7.80
  -4  -2   3   41.00    7.90
  -4  -2   3   49.99    7.60
   3   2  -3  127.79   16.70
   3   2  -3  129.59   16.20
   3   2  -3  121.59   16.90
  -3  -2   3  137.59   16.30
  -3  -2   3  110.09   16.70
  -3  -2   3  129.89   16.80
   2   2  -3  103.69   12.60
   2   2  -3  105.89   13.60
   2   2  -3   97.89   13.20
  -2  -2   3  109.79   13.40
  -2  -2   3   87.89   13.70
  -2  -2   3   90.59   12.60
   1   2  -3  403.26   50.59
   1   2  -3  414.16   49.99
   1   2  -3  409.16   50.79
  -1  -2   3  409.96   50.59
  -1  -2   3  429.76   50.79
  -1  -2   3  434.66   50.09
   0   2  -3  152.38   19.60
   0   2  -3  166.28   18.90
   0  -2   3  150.48   18.90
   0  -2   3  135.99   19.10
  -1   2  -3   51.99    7.60
  -1   2  -3   71.79    8.80
  -1   2  -3   54.89    7.60
   1  -2   3   64.39    7.80
   1  -2   3   58.19    7.60
   1  -2   3   75.99    9.10
  -2   2  -3   15.60    3.70
  -2   2  -3   11.80    3.60
   2  -2   3   12.40    3.40
   2  -2   3   12.60    3.60
  -3   2  -3    0.00    3.50
  -3   2  -3    1.80    2.70
   3  -2   3    0.30    2.40
   3  -2   3    4.20    3.30
  -4   2  -3   33.00    5.80
  -4   2  -3   33.20    6.70
  -4   2  -3   34.30    5.40
   4  -2   3   45.30    5.30
   4  -2   3   37.10    5.70
   4  -2   3   33.00    6.60
  -5   2  -3   36.10    7.70
  -5   2  -3   43.90    6.70
  -5   2  -3   42.40    6.70
   5  -2   3   43.60    7.90
   5  -2   3   48.20    6.50
   5  -2   3   40.30    6.40
  -6   2  -3   21.50    3.90
  -6   2  -3   10.70    5.30
  -6   2  -3   10.70    4.00
   6  -2   3   15.10    3.40
   6  -2   3   10.30    3.40
   6  -2   3    3.70    4.50
  -7   2  -3   45.70    8.20
  -7   2  -3   37.00    6.60
   7  -2   3   27.60    6.80
   7  -2   3   28.00    5.60
   7  -2   3   30.40    5.60
  -8   2  -3   59.49   11.60
  -8   2  -3   78.09   10.80
   8  -2   3   60.39    9.60
   8  -2   3   76.69    9.50
   8  -2   3   55.89    9.50
   8  -2   3   48.70   10.60
  -9   2  -3  102.99   15.50
  -9   2  -3  114.59   16.60
   9  -2   3   93.69   13.70
   9  -2   3  117.59   14.40
   9  -2   3   98.89   14.00
 -10   2  -3    0.70    7.80
 -10   2  -3    3.70    6.00
  10  -2   3    1.60    4.00
  10  -2   3    8.20    4.60
  10  -2   3    2.00    5.20
 -11   2  -3   24.10    8.50
 -11   2  -3   18.80    6.90
  11  -2   3   19.30    5.30
  11  -2   3   13.20    6.00
  11  -2   3    6.20    5.20
 -12   2  -3    7.20    7.60
 -12   2  -3   -2.10    7.90
  12  -2   3    0.80    4.50
  12  -2   3    0.80    4.80
 -13   2  -3   22.20    9.90
 -13   2  -3   33.90   10.80
  13  -2   3   28.00    8.40
  13  -2   3   42.60    8.00
 -14   2  -3    9.50    8.30
 -14   2  -3   11.40    9.80
  14  -2   3    7.00    6.60
  14  -2   3    8.00    5.50
  12   1  -3    7.60    8.00
 -12  -1   3    2.50    8.00
 -12  -1   3   -2.20   11.80
  11   1  -3   13.80    8.20
 -11  -1   3   19.60    8.30
 -11  -1   3   18.60    8.40
 -10  -1   3   -1.50    6.60
 -10  -1   3    0.00    6.40
 -10  -1   3   -4.10    6.40
  -9  -1   3    6.50    6.70
  -9  -1   3   17.40    7.10
  -9  -1   3   36.60    8.30
   8   1  -3   -5.00    5.10
   8   1  -3   -6.90    4.30
  -8  -1   3    0.10    4.20
  -8  -1   3   14.10    6.30
  -8  -1   3    2.30    6.00
   7   1  -3    8.10    7.90
   7   1  -3    4.60    5.30
   7   1  -3   10.70    5.60
  -7  -1   3   15.60    6.30
  -7  -1   3    2.50    5.60
  -7  -1   3   15.80    5.90
   6   1  -3   24.50    6.70
   6   1  -3   34.40    6.60
   6   1  -3   20.20    6.50
  -6  -1   3   25.60    6.60
  -6  -1   3   22.40    6.20
  -6  -1   3   32.90    7.40
   5   1  -3    7.40    4.50
   5   1  -3    4.70    4.40
   5   1  -3   -0.90    3.50
  -5  -1   3   -3.40    3.60
  -5  -1   3    3.60    4.30
  -5  -1   3   -3.10    3.90
   4   1  -3   68.99   10.40
   4   1  -3   64.19    9.70
   4   1  -3   57.69   10.10
  -4  -1   3   58.19   10.10
  -4  -1   3   67.79   10.40
  -4  -1   3   57.79    9.50
   3   1  -3   23.00    5.10
   3   1  -3   25.10    5.50
   3   1  -3   16.70    4.30
  -3  -1   3   11.80    4.10
  -3  -1   3    5.10    4.40
  -3  -1   3   15.30    4.90
   2   1  -3   78.59   11.00
   2   1  -3   79.09   11.20
   2   1  -3   68.59   10.00
  -2  -1   3   81.19   10.90
  -2  -1   3   67.29   10.10
  -2  -1   3   81.59   11.10
   1   1  -3   27.70    5.60
   1   1  -3    8.10    3.30
   1   1  -3   29.00    4.90
  -1  -1   3   12.00    3.30
  -1  -1   3   17.70    4.60
  -1  -1   3   30.50    4.90
   0   1  -3    3.20    3.00
   0   1  -3    4.30    3.40
   0   1  -3    5.50    2.00
   0  -1   3   -2.20    3.00
   0  -1   3   -2.00    2.30
   0  -1   3   -1.40    2.80
  -1   1  -3 1009.50  119.39
  -1   1  -3 1005.40  119.39
  -1   1  -3  996.60  119.69
   1  -1   3 1056.39  119.39
   1  -1   3  967.40  119.39
   1  -1   3  956.50  119.69
  -2   1  -3   94.59   11.50
  -2   1  -3   84.19   11.60
   2  -1   3   86.59   11.40
   2  -1   3   94.49   11.60
  -3   1  -3   19.40    4.40
  -3   1  -3   14.40    2.50
  -3   1  -3   13.30    3.10
   3  -1   3   15.50    2.50
   3  -1   3   17.40    3.50
   3  -1   3   10.20    3.90
  -4   1  -3   66.59    9.10
  -4   1  -3   57.19    7.50
  -4   1  -3   49.40    7.30
   4  -1   3   49.50    7.10
   4  -1   3   66.09    8.70
  -5   1  -3   25.40    4.50
  -5   1  -3   24.90    3.90
  -5   1  -3   25.70    5.60
   5  -1   3   19.80    4.00
   5  -1   3   14.10    3.50
   5  -1   3   30.20    5.60
  -6   1  -3    2.30    4.10
  -6   1  -3   -0.10    3.00
   6  -1   3    3.50    2.20
   6  -1   3   -2.40    2.60
   6  -1   3    0.30    3.80
  -7   1  -3   20.10    6.30
  -7   1  -3   21.60    5.50
   7  -1   3   19.30    4.40
   7  -1   3   28.30    6.30
   7  -1   3   36.00    5.40
   7  -1   3   21.40    4.20
  -8   1  -3    9.80    5.20
  -8   1  -3    9.00    4.40
   8  -1   3   -0.80    4.20
   8  -1   3    8.60    2.90
   8  -1   3   10.50    3.90
  -9   1  -3   73.49   13.30
  -9   1  -3   73.49   12.40
   9  -1   3   79.39   11.40
   9  -1   3   61.89   12.70
   9  -1   3   89.49   10.90
   9  -1   3   77.59   11.90
 -10   1  -3   -7.70    4.30
 -10   1  -3    7.70    6.80
  10  -1   3    6.70    4.90
  10  -1   3    0.40    3.50
  10  -1   3   -2.60    3.30
 -11   1  -3   17.20    7.10
 -11   1  -3    8.50    7.20
  11  -1   3   19.30    6.50
  11  -1   3   15.70    5.40
  11  -1   3   27.90    5.90
 -12   1  -3    0.90    7.00
 -12   1  -3   -2.20    5.80
  12  -1   3   12.00    5.70
  12  -1   3    7.60    4.90
 -13   1  -3    4.50    6.80
 -13   1  -3   12.20    8.50
  13  -1   3    4.30    4.90
  13  -1   3   -2.30    5.20
 -14   1  -3    5.30    8.00
 -14   1  -3   14.30    9.50
  14  -1   3    6.00    5.50
  14  -1   3    7.60    6.20
  12   0  -3   -6.70    6.50
 -12   0   3    6.90    9.00
 -12   0   3   -0.30    8.50
  11   0  -3    9.70    7.90
 -11   0   3   32.90    9.50
 -11   0   3   13.60    8.30
  10   0  -3   28.20    8.90
 -10   0   3   29.70    9.20
 -10   0   3   42.10   10.00
  -9   0   3   -5.60    5.20
  -9   0   3  -10.50    5.50
   8   0  -3   -0.70    4.90
   8   0  -3   21.00    7.00
  -8   0   3    0.40    5.30
  -8   0   3    4.60    5.80
  -8   0   3    9.90    5.80
   7   0  -3    3.10    5.30
   7   0  -3    3.80    5.70
  -7   0   3   -0.90    4.50
  -7   0   3   -7.10    5.00
  -7   0   3    4.90    5.10
   6   0  -3   76.69   10.00
   6   0  -3   56.89    9.70
   6   0  -3   52.59    9.70
  -6   0   3   49.90    9.30
  -6   0   3   47.90    9.40
  -6   0   3   44.60    9.50
   5   0  -3   41.10    6.90
   5   0  -3   18.40    6.00
   5   0  -3   23.00    6.50
  -5   0   3   39.90    7.10
  -5   0   3   30.10    6.50
  -5   0   3   14.60    5.60
   4   0  -3  287.47   35.10
   4   0  -3  311.17   34.90
   4   0  -3  266.17   34.90
  -4   0   3  300.77   35.10
  -4   0   3  257.47   34.80
  -4   0   3  262.27   35.00
   3   0  -3  254.47   29.20
   3   0  -3  199.58   28.80
   3   0  -3  237.58   29.00
  -3   0   3  236.58   29.10
  -3   0   3  233.78   29.00
  -3   0   3  231.78   28.80
   2   0  -3  220.38   27.20
   2   0  -3  217.68   26.70
   2   0  -3  224.68   26.90
  -2   0   3  203.78   27.00
  -2   0   3  222.98   26.80
  -2   0   3  204.48   26.90
   1   0  -3    1.80    3.20
   1   0  -3   -2.10    3.60
   1   0  -3    8.90    4.00
  -1   0   3    2.30    3.50
  -1   0   3   10.70    4.00
  -1   0   3    8.30    3.00
   0   0  -3  340.17   40.40
   0   0  -3  349.87   40.50
   0   0  -3  299.17   40.20
   0   0   3  340.97   40.40
   0   0   3  342.57   40.50
  -1   0  -3 1504.15  187.98
  -1   0  -3 1617.94  188.08
  -1   0  -3 1527.25  188.18
  -1   0  -3 1603.44  188.08
   1   0   3 1600.54  188.08
   1   0   3 1591.64  188.08
  -2   0  -3  816.92   96.49
  -2   0  -3  762.62   96.39
  -2   0  -3  834.52   96.69
   2   0   3  810.82   96.69
   2   0   3  814.12   96.49
  -3   0  -3  554.44   64.89
  -3   0  -3  530.35   64.79
  -3   0  -3  552.54   65.29
   3   0   3  527.25   65.29
   3   0   3  549.25   64.79
   3   0   3  536.55   64.89
  -4   0  -3   69.29    8.80
  -4   0  -3   56.69    7.30
  -4   0  -3   50.29    6.70
   4   0   3   49.70    6.60
   4   0   3   57.89    8.30
   4   0   3   55.89    7.20
  -5   0  -3  257.97   31.50
  -5   0  -3  266.17   32.10
   5   0   3  250.27   31.00
   5   0   3  245.08   31.50
   5   0   3  284.27   32.20
   5   0   3  260.87   31.10
  -6   0  -3   77.69    9.90
  -6   0  -3   70.39   11.00
   6   0   3   59.99    9.70
   6   0   3   72.59    9.10
   6   0   3   59.69   10.50
   6   0   3   74.09    9.30
  -7   0  -3   35.20    5.80
  -7   0  -3   29.00    5.90
   7   0   3   22.80    5.90
   7   0   3   21.70    4.00
   7   0   3   21.90    3.80
   7   0   3   14.60    4.50
  -8   0  -3  184.68   22.10
  -8   0  -3  201.58   23.00
   8   0   3  164.88   21.10
   8   0   3  132.99   23.40
   8   0   3  165.88   21.80
   8   0   3  173.08   21.30
  -9   0  -3    4.60    5.00
  -9   0  -3   13.30    5.20
   9   0   3    6.80    4.10
   9   0   3    5.70    3.20
   9   0   3    8.40    5.00
   9   0   3   11.80    6.00
 -10   0  -3   38.00    7.70
 -10   0  -3   30.30    8.20
  10   0   3   26.60    7.00
  10   0   3   36.50    6.10
 -11   0  -3   -1.60    5.00
 -11   0  -3    2.80    6.80
  11   0   3   -0.50    3.60
  11   0   3   -3.30    3.30
 -12   0  -3   38.60    9.40
 -12   0  -3   59.59   11.20
  12   0   3   39.10    7.80
  12   0   3   40.80    7.90
 -13   0  -3   13.40    9.90
 -13   0  -3   27.90    8.50
  13   0   3   10.30    6.00
  13   0   3   10.00    5.30
 -14   0  -3    8.40    7.40
 -14   0  -3    1.80    7.80
  14   0   3   -0.50    5.70
  14   0   3    7.60    5.40
  12  -1  -3    1.10    8.00
 -12   1   3    2.70    8.00
 -12   1   3   13.10    8.60
  11  -1  -3   -8.70    6.50
 -11   1   3    4.30    7.40
  10  -1  -3   31.50    8.70
 -10   1   3   30.10    9.70
 -10   1   3    4.70    7.90
   9  -1  -3    6.90    5.50
  -9   1   3   11.90    7.50
  -9   1   3   13.20    7.70
   8  -1  -3   22.70    6.80
   8  -1  -3    7.20    6.30
  -8   1   3   16.80    6.80
  -8   1   3    0.30    6.10
   7  -1  -3   84.69   13.20
   7  -1  -3   92.49   13.50
   7  -1  -3   68.39   12.60
  -7   1   3   92.39   13.80
  -7   1   3   65.69   13.20
   6  -1  -3  139.99   18.90
   6  -1  -3   88.99   18.40
   6  -1  -3  135.09   19.50
  -6   1   3  155.38   19.10
  -6   1   3  163.68   19.40
  -6   1   3  156.98   19.10
   5  -1  -3   12.80    4.90
   5  -1  -3    8.70    4.70
   5  -1  -3    0.80    4.60
  -5   1   3    7.20    4.70
  -5   1   3    4.50    4.60
  -5   1   3    2.10    4.50
   4  -1  -3    5.90    4.80
   4  -1  -3   19.70    5.10
   4  -1  -3    6.60    4.30
  -4   1   3    5.40    4.60
  -4   1   3   17.10    5.00
  -4   1   3   20.20    5.40
   3  -1  -3  739.23   85.99
   3  -1  -3  737.23   85.99
   3  -1  -3  652.23   85.69
  -3   1   3  708.93   85.89
  -3   1   3  716.63   85.99
  -3   1   3  719.73   86.09
   2  -1  -3   19.80    5.50
   2  -1  -3   29.30    5.80
   2  -1  -3   33.00    6.40
  -2   1   3   24.30    5.70
  -2   1   3   23.70    5.50
  -2   1   3   27.90    5.80
   1  -1  -3   -4.30    3.50
   1  -1  -3    3.80    3.60
   1  -1  -3    0.80    3.90
  -1   1   3   -0.40    3.50
  -1   1   3    1.20    3.20
  -1   1   3    3.60    3.70
   0  -1  -3    0.40    3.30
   0  -1  -3   -1.20    2.80
   0  -1  -3    3.00    3.60
   0   1   3    1.10    3.10
   0   1   3    0.00    2.60
   0   1   3    2.80    3.40
  -1  -1  -3  168.38   21.70
  -1  -1  -3  179.88   21.80
  -1  -1  -3  174.78   22.00
   1   1   3  158.68   21.70
   1   1   3  223.08   21.90
   1   1   3  154.18   22.00
  -2  -1  -3  128.99   17.00
  -2  -1  -3  134.09   17.40
  -2  -1  -3  151.98   17.00
   2   1   3  129.29   17.00
   2   1   3  145.49   17.40
  -3  -1  -3  228.28   28.80
  -3  -1  -3  225.38   28.50
  -3  -1  -3  230.48   28.10
  -3  -1  -3  242.88   28.10
   3   1   3  236.38   28.50
   3   1   3  239.88   28.90
  -4  -1  -3   26.10    5.30
  -4  -1  -3   24.70    4.40
   4   1   3   35.30    5.70
   4   1   3   18.80    4.20
  -5  -1  -3   26.60    4.50
  -5  -1  -3   19.90    5.40
   5   1   3   21.00    5.40
   5   1   3   18.20    4.70
  -6  -1  -3   16.50    5.10
  -6  -1  -3    5.70    3.50
   6   1   3    6.80    3.20
   6   1   3   10.00    2.10
   6   1   3   11.50    2.20
   6   1   3   10.10    4.50
  -7  -1  -3   86.49   11.30
  -7  -1  -3   76.89   10.10
   7   1   3   78.19    9.90
   7   1   3   55.89    8.20
   7   1   3   57.29    8.20
   7   1   3   61.29   10.50
  -8  -1  -3   74.09   12.80
  -8  -1  -3   80.39   13.90
   8   1   3   93.59   11.60
   8   1   3   96.49   11.70
   8   1   3   76.99   14.80
   8   1   3   98.19   13.30
  -9  -1  -3  137.59   17.80
  -9  -1  -3  127.09   16.00
   9   1   3  108.59   16.10
   9   1   3  117.39   14.60
   9   1   3  108.09   14.60
   9   1   3   91.59   16.60
 -10  -1  -3    6.20    6.20
 -10  -1  -3   -9.20    4.60
  10   1   3    0.40    2.90
  10   1   3    3.40    4.70
  10   1   3    0.50    3.10
 -11  -1  -3   -6.60    4.70
 -11  -1  -3    6.80    6.20
  11   1   3    6.00    3.60
  11   1   3    0.60    3.60
 -12  -1  -3   -4.80    6.70
 -12  -1  -3    6.80    6.50
  12   1   3   -0.40    3.90
  12   1   3    5.50    4.50
 -13  -1  -3   36.60    9.70
  13   1   3   34.20    7.20
  13   1   3   34.90    7.80
 -14  -1  -3   10.70    8.20
 -14  -1  -3  -10.00    7.30
  14   1   3    4.20    4.90
  14   1   3    7.70    5.80
  12  -2  -3   -1.70    7.60
 -12   2   3    8.70    9.00
 -12   2   3   -2.70    8.30
  11  -2  -3   19.10    8.10
 -11   2   3   10.00    8.40
 -11   2   3   -0.70    7.50
  10  -2  -3    2.50    6.60
 -10   2   3    8.30    7.50
 -10   2   3   17.40    8.50
   9  -2  -3   18.70    7.60
  -9   2   3   38.00    9.00
  -9   2   3   10.10    7.30
   8  -2  -3    2.60    5.70
   8  -2  -3    8.30    7.50
  -8   2   3    1.40    5.40
  -8   2   3    7.10    5.80
   7  -2  -3   50.99   11.80
   7  -2  -3   87.19   13.10
   7  -2  -3   83.09   12.80
   7  -2  -3   70.79   12.20
  -7   2   3   65.49   12.30
  -7   2   3   81.79   12.50
   6  -2  -3   26.10    6.90
   6  -2  -3   14.80    5.30
   6  -2  -3    8.20    5.90
   6  -2  -3    4.60    5.30
  -6   2   3    5.90    5.50
  -6   2   3   13.90    5.90
   5  -2  -3   30.60    7.00
   5  -2  -3   27.20    7.00
   5  -2  -3   27.10    6.90
   5  -2  -3   34.50    7.30
  -5   2   3   34.60    7.50
  -5   2   3   33.20    7.10
   4  -2  -3   77.49   10.70
   4  -2  -3   60.69   10.00
   4  -2  -3   55.09   10.20
   4  -2  -3   55.29   10.00
  -4   2   3   63.79   10.50
  -4   2   3   60.79   10.30
   3  -2  -3    8.20    4.90
   3  -2  -3   23.00    5.20
   3  -2  -3   22.50    5.30
   3  -2  -3   23.10    5.70
  -3   2   3   15.50    5.30
  -3   2   3   15.80    5.20
   2  -2  -3  307.07   37.50
   2  -2  -3  291.17   37.40
   2  -2  -3  291.57   37.50
   2  -2  -3  330.37   37.50
  -2   2   3  284.67   37.50
  -2   2   3  321.97   37.70
   1  -2  -3   87.89   11.70
   1  -2  -3   89.19   12.10
   1  -2  -3   88.89   12.10
   1  -2  -3   74.29   11.90
  -1   2   3   76.59   12.10
  -1   2   3   92.19   11.90
   0  -2  -3  160.98   20.30
   0  -2  -3  157.08   20.30
   0  -2  -3  172.68   20.20
   0  -2  -3  163.88   20.40
   0   2   3  155.68   20.40
   0   2   3  151.58   20.30
  -1  -2  -3  215.58   26.60
  -1  -2  -3  203.68   26.10
  -1  -2  -3  217.08   26.10
  -1  -2  -3  211.48   26.30
   1   2   3  218.58   26.70
  -2  -2  -3  187.98   23.30
  -2  -2  -3  188.38   23.00
  -2  -2  -3  192.58   22.80
  -2  -2  -3  187.88   23.70
   2   2   3  188.38   23.10
   2   2   3  175.38   22.70
  -3  -2  -3   97.49   12.80
  -3  -2  -3   89.39   12.20
  -3  -2  -3   97.99   11.70
   3   2   3   93.49   11.70
   3   2   3   91.39   12.30
  -4  -2  -3   60.59    7.60
  -4  -2  -3   70.69    9.60
  -4  -2  -3   66.59    8.50
   4   2   3   65.59    9.90
   4   2   3   54.39    7.60
   4   2   3   69.39    9.50
  -5  -2  -3  106.39   12.80
  -5  -2  -3   92.59   13.60
  -5  -2  -3  106.49   14.20
   5   2   3  102.99   12.70
   5   2   3  116.19   13.80
   5   2   3  105.59   14.20
  -6  -2  -3   59.29    8.20
  -6  -2  -3   44.60    8.10
  -6  -2  -3   46.00    6.40
   6   2   3   42.90    8.20
   6   2   3   48.10    6.10
   6   2   3   42.40    7.40
  -7  -2  -3   18.30    3.30
  -7  -2  -3   15.80    5.50
  -7  -2  -3   16.90    4.60
   7   2   3   10.70    4.10
   7   2   3   15.40    4.90
   7   2   3   17.30    3.20
  -8  -2  -3    0.20    3.70
  -8  -2  -3    6.00    5.10
   8   2   3    8.20    4.90
   8   2   3    2.10    2.30
   8   2   3    7.20    3.50
  -9  -2  -3  120.19   17.00
  -9  -2  -3  115.89   17.40
   9   2   3  109.49   14.80
   9   2   3  114.79   16.70
   9   2   3  124.69   17.70
   9   2   3  119.49   14.80
 -10  -2  -3    8.10    6.00
 -10  -2  -3   11.40    5.40
  10   2   3    6.40    3.50
  10   2   3    6.80    5.00
  10   2   3    6.70    3.30
 -11  -2  -3    3.80    6.40
 -11  -2  -3   -0.40    5.30
  11   2   3    4.90    3.60
  11   2   3    3.80    3.50
 -12  -2  -3    7.00    7.20
 -12  -2  -3   15.80    6.90
  12   2   3    4.60    4.30
  12   2   3   17.50    5.10
 -13  -2  -3   10.20    7.40
  13   2   3   20.10    5.50
  13   2   3   11.10    5.20
 -14  -2  -3    1.90    8.50
 -14  -2  -3   19.30    9.10
  14   2   3   13.70    5.60
  14   2   3   11.60    6.00
  12  -3  -3   -4.50    6.80
 -12   3   3    4.40    8.50
 -12   3   3   19.90    9.90
  11  -3  -3   24.90    8.30
 -11   3   3    4.50    7.10
 -11   3   3   -3.40    8.10
  10  -3  -3   37.70   10.10
 -10   3   3   51.19   11.10
 -10   3   3   28.20    9.50
   9  -3  -3   14.20    6.90
  -9   3   3   21.80    7.80
  -9   3   3   16.60    7.70
   8  -3  -3    0.80    5.30
  -8   3   3   -3.90    5.00
  -8   3   3    2.50    5.90
   7  -3  -3    9.00    5.30
   7  -3  -3   17.60    7.10
   7  -3  -3   -0.10    5.60
  -7   3   3   13.80    6.30
  -7   3   3    8.60    6.00
   6  -3  -3   89.89   13.50
   6  -3  -3   49.00   10.90
   6  -3  -3   69.79   12.00
   6  -3  -3   51.29   10.70
  -6   3   3   89.19   12.50
  -6   3   3   69.69   11.60
   5  -3  -3   27.60    6.80
   5  -3  -3   26.00    7.00
   5  -3  -3   23.30    6.30
   5  -3  -3   38.50    7.50
  -5   3   3   21.20    6.50
  -5   3   3   22.80    6.60
   4  -3  -3    3.50    4.20
   4  -3  -3   -1.30    3.50
   4  -3  -3    6.60    5.10
   4  -3  -3    1.20    4.00
  -4   3   3   -4.30    3.60
  -4   3   3    9.50    4.30
   3  -3  -3    8.30    4.10
   3  -3  -3    1.80    3.90
   3  -3  -3   -0.30    4.10
   3  -3  -3    3.70    4.30
  -3   3   3    5.40    4.30
  -3   3   3   -4.80    3.60
   2  -3  -3  219.88   29.30
   2  -3  -3  217.48   29.30
   2  -3  -3  253.97   29.50
   2  -3  -3  221.48   29.20
  -2   3   3  254.87   29.60
  -2   3   3  242.78   29.60
   1  -3  -3  110.29   13.50
   1  -3  -3   94.49   13.60
   1  -3  -3   93.49   12.90
  -1   3   3  104.19   13.30
  -1   3   3   93.19   13.20
  -1   3   3   74.79   13.20
   0  -3  -3    9.70    3.90
   0  -3  -3    6.40    4.00
   0  -3  -3    7.00    3.50
   0   3   3   15.60    7.50
   0   3   3    5.00    3.70
   0   3   3    3.20    3.70
  -1  -3  -3   14.00    3.90
  -1  -3  -3   12.70    3.60
   1   3   3    6.30    3.70
   1   3   3   22.90    5.50
  -2  -3  -3    9.60    3.30
  -2  -3  -3   -0.10    4.30
  -2  -3  -3    7.90    2.70
  -2  -3  -3   10.00    3.80
   2   3   3    6.90    3.20
   2   3   3   11.40    4.60
  -3  -3  -3   83.09   11.20
  -3  -3  -3   75.69   10.40
  -3  -3  -3   67.09    9.70
   3   3   3   96.19   11.50
   3   3   3   81.89   10.80
   3   3   3   75.19    9.90
  -4  -3  -3    5.70    3.80
  -4  -3  -3    0.60    1.80
  -4  -3  -3    4.50    3.00
   4   3   3    4.40    2.00
   4   3   3    2.70    3.30
   4   3   3    1.30    2.60
  -5  -3  -3    5.00    2.10
  -5  -3  -3    3.40    3.20
  -5  -3  -3    6.80    4.00
   5   3   3    3.20    1.80
   5   3   3    2.60    3.80
   5   3   3    9.90    3.40
  -6  -3  -3    9.10    4.10
  -6  -3  -3    6.90    3.60
  -6  -3  -3    4.20    2.20
   6   3   3    6.80    4.00
   6   3   3    9.80    3.60
   6   3   3    4.80    2.10
  -7  -3  -3  138.49   18.50
  -7  -3  -3  138.89   17.70
  -7  -3  -3  126.29   18.90
   7   3   3  139.79   18.50
   7   3   3  135.59   18.90
   7   3   3  154.38   17.50
  -8  -3  -3  135.19   19.70
  -8  -3  -3  133.89   19.20
  -8  -3  -3  149.79   18.30
   8   3   3  151.08   18.10
   8   3   3  146.99   19.90
   8   3   3  145.69   19.30
  -9  -3  -3   35.60    6.40
  -9  -3  -3   55.79    9.00
  -9  -3  -3   61.49   10.00
   9   3   3   31.80    8.40
   9   3   3   42.00    7.90
   9   3   3   31.70    6.80
 -10  -3  -3    3.70    6.10
 -10  -3  -3   13.50    5.70
  10   3   3    2.50    3.00
 -11  -3  -3   -6.40    5.90
 -11  -3  -3   -2.00    5.20
  11   3   3   -2.90    3.10
  11   3   3    5.90    3.60
 -12  -3  -3   29.30    9.70
 -12  -3  -3   28.10    8.80
  12   3   3   20.80    5.70
  12   3   3   34.30    6.50
 -13  -3  -3    1.60    7.20
  13   3   3   11.40    5.20
  13   3   3    6.50    4.60
 -14  -3  -3    7.30    8.60
 -14  -3  -3    1.40    9.50
  14   3   3    7.00    5.40
  14   3   3   14.10    5.90
  11  -4  -3    0.00    7.80
 -11   4   3    0.10    8.50
 -11   4   3   -0.80    7.30
  10  -4  -3   48.60   10.70
 -10   4   3   55.79   12.50
 -10   4   3   40.10   11.10
   9  -4  -3    7.90    6.20
  -9   4   3  -13.90    5.50
  -9   4   3   -1.50    7.50
   8  -4  -3    8.90    6.20
  -8   4   3    3.90    6.40
  -8   4   3    2.80    6.50
   7  -4  -3    1.00    5.60
   7  -4  -3    2.40    5.40
  -7   4   3   18.40    6.60
  -7   4   3    3.60    6.20
   6  -4  -3   54.19   10.90
   6  -4  -3   56.39   10.60
   6  -4  -3   64.19   10.70
   6  -4  -3   45.00   10.10
  -6   4   3   78.99   12.20
  -6   4   3   55.49   10.40
   5  -4  -3   71.29   12.30
   5  -4  -3   92.99   15.80
   5  -4  -3   68.39   12.30
   5  -4  -3   91.79   13.10
  -5   4   3   77.49   15.70
   4  -4  -3    3.90    4.90
   4  -4  -3    6.30    4.90
   4  -4  -3   16.60    5.30
   4  -4  -3   18.30    5.40
  -4   4   3   11.60    4.90
  -4   4   3    6.60    4.60
   3  -4  -3  140.59   17.40
   3  -4  -3  112.39   17.00
   3  -4  -3  145.59   18.30
   3  -4  -3  136.99   17.70
  -3   4   3  110.89   17.80
  -3   4   3  127.79   17.50
   2  -4  -3   12.40    4.50
   2  -4  -3   12.10    4.50
   2  -4  -3   10.80    5.20
  -2   4   3   10.20    5.00
  -2   4   3   13.80    4.70
  -2   4   3    8.30    4.50
   1  -4  -3  137.39   18.50
   1  -4  -3  146.59   18.80
   1  -4  -3  155.58   19.00
  -1   4   3  131.79   19.00
  -1   4   3  146.59   18.50
  -1   4   3  136.79   18.70
   0  -4  -3   71.89   11.50
   0  -4  -3   82.99   11.40
   0  -4  -3   88.09   11.60
   0  -4  -3   67.29   11.70
   0   4   3   80.09   12.40
   0   4   3   86.99   11.20
  -1  -4  -3   45.10    6.80
  -1  -4  -3   22.60    6.50
  -1  -4  -3   34.80    6.40
   1   4   3   36.60    6.50
   1   4   3   37.90    7.60
   1   4   3   47.20    6.80
  -2  -4  -3    0.80    4.40
  -2  -4  -3    4.80    3.20
  -2  -4  -3    7.20    3.10
   2   4   3    8.00    3.40
   2   4   3    5.10    4.60
   2   4   3    3.30    3.70
  -3  -4  -3   -1.30    2.80
  -3  -4  -3   -0.50    2.30
  -3  -4  -3    4.20    3.70
  -3  -4  -3   -1.20    4.10
   3   4   3    1.40    2.60
   3   4   3   -3.70    2.70
  -4  -4  -3   40.30    6.10
  -4  -4  -3   39.60    6.70
  -4  -4  -3   35.80    7.50
   4   4   3   32.00    6.50
   4   4   3   50.49    8.30
   4   4   3   43.50    6.20
  -5  -4  -3    8.30    2.80
  -5  -4  -3    6.60    4.00
  -5  -4  -3   10.00    3.70
   5   4   3   10.80    4.40
   5   4   3    7.60    2.80
   5   4   3    7.70    3.70
  -6  -4  -3    5.20    4.30
  -6  -4  -3    0.40    3.30
  -6  -4  -3    7.40    2.50
   6   4   3   12.70    4.50
   6   4   3    3.10    3.70
   6   4   3    3.70    2.40
  -7  -4  -3   -1.00    2.40
  -7  -4  -3    5.40    4.40
  -7  -4  -3    5.80    3.50
   7   4   3   -5.50    2.50
   7   4   3    4.20    2.40
   7   4   3    2.90    4.20
  -8  -4  -3  122.79   16.70
  -8  -4  -3  109.59   15.60
  -8  -4  -3  134.29   18.20
   8   4   3  115.99   18.00
   8   4   3  121.29   16.60
   8   4   3  146.19   17.40
  -9  -4  -3   17.60    6.00
  -9  -4  -3   38.20    6.00
  -9  -4  -3   43.30    8.30
   9   4   3   23.00    7.70
   9   4   3   25.80    5.10
   9   4   3    9.00    5.50
 -10  -4  -3   -4.00    3.70
 -10  -4  -3   -3.30    4.90
 -10  -4  -3    4.80    6.30
  10   4   3    5.90    3.60
 -11  -4  -3    8.40    4.30
 -11  -4  -3   -0.10    5.50
 -11  -4  -3    4.60    6.80
  11   4   3    3.30    3.70
 -12  -4  -3   -4.20    6.10
 -12  -4  -3    3.10    7.70
  12   4   3    3.40    4.30
 -13  -4  -3   21.50    9.60
 -13  -4  -3   38.00   15.10
  13   4   3   33.60    7.30
  13   4   3   34.80    7.30
 -14  -4  -3   11.30    8.70
 -14  -4  -3   -1.40    8.60
  14   4   3   -1.70    5.00
  14   4   3   -1.10    5.10
  11  -5  -3   12.30    7.90
 -11   5   3    1.70    8.50
 -11   5   3    3.30    8.30
  10  -5  -3    9.30    7.50
 -10   5   3   33.10    9.90
   9  -5  -3   20.70    8.40
  -9   5   3   29.30    9.70
  -9   5   3   37.50   10.00
   8  -5  -3    5.10    5.70
  -8   5   3   12.10    7.50
  -8   5   3    0.50    6.40
   7  -5  -3   26.00    7.50
  -7   5   3   26.30    7.70
  -7   5   3   11.70    7.00
   6  -5  -3   22.30    9.90
   6  -5  -3    6.60    5.50
   6  -5  -3   11.30    6.20
   6  -5  -3   19.20    6.20
  -6   5   3   12.30    6.60
  -6   5   3    7.30    6.10
   5  -5  -3  153.28   21.20
   5  -5  -3  155.28   22.10
   5  -5  -3  156.48   21.70
   5  -5  -3  153.68   21.20
  -5   5   3  172.08   21.90
  -5   5   3  157.78   21.60
   4  -5  -3   19.40    6.30
   4  -5  -3   15.70    5.40
   4  -5  -3   11.90    5.40
  -4   5   3   20.90    6.20
  -4   5   3    1.20    4.90
  -4   5   3   11.50    5.40
   3  -5  -3  160.88   19.90
   3  -5  -3  126.89   20.60
   3  -5  -3  147.49   19.80
  -3   5   3  145.29   20.10
  -3   5   3  148.19   19.70
  -3   5   3  167.68   20.60
   2  -5  -3   58.99    9.10
   2  -5  -3   56.39    9.10
   2  -5  -3   59.49    9.90
  -2   5   3   50.89    9.20
  -2   5   3   42.40    9.20
  -2   5   3   40.00    8.80
   1  -5  -3   70.99   11.30
   1  -5  -3   81.19   11.00
   1  -5  -3   54.39   10.20
   1  -5  -3   83.49   11.40
  -1   5   3   70.29   10.70
  -1   5   3   60.79   11.20
   0  -5  -3   -0.50    3.10
   0  -5  -3    3.70    3.60
   0  -5  -3   -0.40    3.30
   0  -5  -3    5.30    4.00
   0   5   3    0.90    3.40
   0   5   3    2.30    4.10
  -1  -5  -3    4.90    4.60
  -1  -5  -3    0.20    2.90
  -1  -5  -3    0.70    2.80
   1   5   3    9.00    3.80
   1   5   3    6.30    3.70
   1   5   3    4.90    4.30
  -2  -5  -3   21.60    5.50
  -2  -5  -3   34.80    5.70
  -2  -5  -3   28.60    6.60
   2   5   3   25.70    5.80
   2   5   3   32.50    7.30
   2   5   3   22.10    5.30
  -3  -5  -3   16.50    4.70
  -3  -5  -3   19.10    4.40
  -3  -5  -3    9.70    3.70
  -3  -5  -3   15.20    5.80
   3   5   3    9.00    3.80
   3   5   3   16.50    4.40
  -4  -5  -3   46.50    9.30
  -4  -5  -3   58.79    8.40
  -4  -5  -3   63.69    8.00
  -4  -5  -3   52.99    8.80
   4   5   3   48.10    8.40
   4   5   3   37.60    7.20
  -5  -5  -3   94.59   12.60
  -5  -5  -3   73.09   10.90
  -5  -5  -3   78.29   12.40
   5   5   3   81.89   12.30
   5   5   3   82.89   11.80
   5   5   3  100.99   13.30
  -6  -5  -3   40.80    7.60
  -6  -5  -3   51.29    7.20
  -6  -5  -3   52.19    8.60
   6   5   3   47.50    6.90
   6   5   3   26.70    7.10
   6   5   3   47.20    8.30
  -7  -5  -3   11.70    3.80
  -7  -5  -3   17.00    4.80
  -7  -5  -3    8.20    7.90
   7   5   3    9.50    3.00
   7   5   3   13.80    5.20
   7   5   3   14.00    6.20
  -8  -5  -3    6.40    4.40
  -8  -5  -3   -3.00    2.60
  -8  -5  -3   -2.10    4.60
   8   5   3   -6.50    4.30
   8   5   3    4.60    2.90
   8   5   3   -2.50    3.90
  -9  -5  -3  147.89   20.50
  -9  -5  -3  170.08   22.10
  -9  -5  -3  155.58   21.70
   9   5   3  174.18   20.60
 -10  -5  -3   -1.00    4.20
 -10  -5  -3   -0.40    4.60
 -10  -5  -3    5.80    6.10
  10   5   3    3.40    3.90
 -11  -5  -3    6.80    6.90
 -11  -5  -3   20.40    8.60
 -11  -5  -3   20.30    6.00
  11   5   3   22.80    5.40
 -12  -5  -3    9.60    4.90
 -12  -5  -3    3.60    6.80
 -12  -5  -3   -3.30    7.30
  12   5   3    1.00    4.70
 -13  -5  -3   -0.20    7.20
 -13  -5  -3   21.80    9.30
  13   5   3    7.50    5.40
  11  -6  -3   11.00    8.40
 -11   6   3   12.60    9.10
 -11   6   3    9.00    9.30
  10  -6  -3    9.90    7.30
 -10   6   3   24.50    9.70
 -10   6   3   13.80    8.90
   9  -6  -3   30.40    9.50
  -9   6   3   47.90   11.20
  -9   6   3   45.90   11.20
   8  -6  -3    5.80    6.20
  -8   6   3   14.00    8.50
  -8   6   3   11.60    6.80
   7  -6  -3   -0.60    4.90
  -7   6   3    2.80    5.60
  -7   6   3   13.80    7.40
   6  -6  -3   82.89   19.90
   6  -6  -3  105.29   16.70
  -6   6   3  126.89   18.00
  -6   6   3  113.69   17.80
   5  -6  -3   -6.40    4.50
   5  -6  -3    5.00    5.40
   5  -6  -3   -1.50    4.50
  -5   6   3   10.40    5.80
  -5   6   3   -0.10    5.10
   4  -6  -3    4.50    4.70
   4  -6  -3   -3.60    4.30
   4  -6  -3    6.00    5.50
  -4   6   3   -0.30    4.60
  -4   6   3   -0.30    6.90
  -4   6   3    0.90    4.30
   3  -6  -3   17.10    5.70
   3  -6  -3   14.50    5.10
   3  -6  -3   10.00    6.00
  -3   6   3   14.50    5.00
  -3   6   3   10.80    5.40
  -3   6   3   15.20    6.10
   2  -6  -3  414.76   50.39
   2  -6  -3  397.56   50.39
   2  -6  -3  396.46   50.59
  -2   6   3  418.86   50.99
  -2   6   3  413.86   50.29
  -2   6   3  411.56   50.59
   1  -6  -3   20.10    5.20
   1  -6  -3   21.10    5.30
   1  -6  -3   22.80    6.00
   1  -6  -3   17.30    5.60
  -1   6   3   22.90    5.60
  -1   6   3   15.00    6.10
   0  -6  -3   42.30    7.70
   0  -6  -3   47.00    8.70
   0  -6  -3   46.40    8.30
   0  -6  -3   43.90    7.80
   0   6   3   33.00    8.30
   0   6   3   40.70    7.80
  -1  -6  -3  400.26   48.10
  -1  -6  -3  391.66   48.60
  -1  -6  -3  377.86   48.00
   1   6   3  414.06   48.30
   1   6   3  378.06   48.60
   1   6   3  390.36   48.00
  -2  -6  -3  273.27   34.20
  -2  -6  -3  254.77   34.70
  -2  -6  -3  285.07   34.10
   2   6   3  289.27   34.30
   2   6   3  278.77   34.10
   2   6   3  263.17   34.80
  -3  -6  -3  408.66   51.99
  -3  -6  -3  425.16   51.49
  -3  -6  -3  438.16   52.39
  -3  -6  -3  415.96   51.69
   3   6   3  434.36   51.89
   3   6   3  417.66   51.49
  -4  -6  -3   17.50    5.20
  -4  -6  -3    7.50    4.00
  -4  -6  -3   16.70    4.70
  -4  -6  -3   28.60    6.80
   4   6   3   13.70    4.60
   4   6   3   19.20    4.30
  -5  -6  -3   86.39   13.10
  -5  -6  -3   98.79   14.20
  -5  -6  -3   94.69   13.90
  -5  -6  -3  113.99   15.90
   5   6   3  101.19   12.70
   5   6   3   81.99   13.70
  -6  -6  -3   33.20    6.60
  -6  -6  -3   28.60    6.20
  -6  -6  -3   18.90    4.80
   6   6   3   28.60    7.00
   6   6   3   19.90    9.00
   6   6   3   19.30    4.90
  -7  -6  -3    5.30    3.60
  -7  -6  -3   11.60    5.00
  -7  -6  -3   16.20    4.80
   7   6   3    7.70    4.40
   7   6   3    7.90    5.30
   7   6   3   18.30    4.30
  -8  -6  -3   34.40    8.10
  -8  -6  -3   40.80    8.40
  -8  -6  -3   30.50    6.60
   8   6   3   35.10    6.40
   8   6   3   49.80    9.20
  -9  -6  -3   36.40    9.00
  -9  -6  -3   35.70    8.30
  -9  -6  -3   42.30    7.50
   9   6   3   34.70    6.80
 -10  -6  -3   45.70    8.30
 -10  -6  -3   50.79   10.50
 -10  -6  -3   50.69    9.80
  10   6   3   37.20    7.50
 -11  -6  -3   -0.10    4.70
 -11  -6  -3    7.10    6.30
 -11  -6  -3    1.00    6.90
  11   6   3    5.10    4.40
 -12  -6  -3    3.70    5.30
 -12  -6  -3    3.80    7.50
 -12  -6  -3   -7.10    6.50
  12   6   3    8.50    5.10
 -13  -6  -3    4.10    5.30
 -13  -6  -3   -3.20    6.80
 -13  -6  -3    6.30    7.90
  13   6   3   -2.10    5.00
  10  -7  -3   22.50   11.10
 -10   7   3   14.50    8.70
 -10   7   3    7.30    9.60
   9  -7  -3   -0.80    6.00
  -9   7   3   11.50    8.30
   8  -7  -3    3.40    5.80
  -8   7   3    4.90    7.10
  -8   7   3    1.70    7.10
   7  -7  -3    4.20    5.80
  -7   7   3   -4.40    6.60
  -7   7   3   -6.40    5.70
   6  -7  -3   39.60    9.10
  -6   7   3   40.50    9.60
  -6   7   3   56.49   11.60
   5  -7  -3   65.59   11.90
   5  -7  -3   66.09   12.00
  -5   7   3   59.19   11.90
  -5   7   3   68.09   12.30
   4  -7  -3    6.70    4.60
   4  -7  -3    0.00    4.60
   4  -7  -3   -1.70    4.60
  -4   7   3    6.20    5.70
  -4   7   3    3.20    4.60
  -4   7   3   -0.10    5.10
   3  -7  -3  135.69   19.80
   3  -7  -3  163.98   23.30
   3  -7  -3  152.88   20.40
  -3   7   3  164.38   21.20
  -3   7   3  116.69   20.70
  -3   7   3  183.88   26.60
   2  -7  -3   12.10    6.20
   2  -7  -3    2.80    4.50
   2  -7  -3   -0.30    3.50
   2  -7  -3    5.70    7.30
  -2   7   3    2.50    5.80
  -2   7   3    5.50    4.60
   1  -7  -3  229.28   25.40
   1  -7  -3  215.48   25.10
   1  -7  -3  177.48   25.30
   1  -7  -3  175.88   24.70
  -1   7   3  189.68   24.90
  -1   7   3  176.08   25.50
   0  -7  -3    5.10    4.80
   0  -7  -3    9.30    5.20
   0  -7  -3    7.40    3.90
   0  -7  -3   12.20    4.70
   0   7   3    3.40    4.20
   0   7   3    5.70    4.80
  -1  -7  -3   65.89   11.30
  -1  -7  -3   79.99   11.70
  -1  -7  -3   66.19   12.20
   1   7   3   96.29   12.00
   1   7   3   58.29   11.00
   1   7   3   78.59   12.70
  -2  -7  -3  113.39   15.70
  -2  -7  -3  102.59   17.40
  -2  -7  -3  116.99   15.80
   2   7   3  153.68   18.60
   2   7   3  115.69   15.60
   2   7   3  114.69   15.90
  -3  -7  -3    4.00    3.20
  -3  -7  -3    7.20    3.70
  -3  -7  -3   11.60    4.90
  -3  -7  -3    6.10    4.20
   3   7   3    0.30    3.20
   3   7   3    2.30    3.40
  -4  -7  -3   24.30    5.70
  -4  -7  -3   28.90    7.70
  -4  -7  -3   24.30    5.50
  -4  -7  -3   19.20    5.80
   4   7   3   32.30    6.30
   4   7   3   18.50    5.30
  -5  -7  -3   45.90    9.00
  -5  -7  -3   30.70    7.10
  -5  -7  -3   36.70    6.90
  -5  -7  -3   24.10    5.90
   5   7   3   24.80    6.50
   5   7   3   24.70    5.90
  -6  -7  -3   60.69    9.20
  -6  -7  -3   59.79    9.90
  -6  -7  -3   96.79   13.90
   6   7   3   41.80    9.00
   6   7   3   49.60    8.60
  -7  -7  -3   -6.80    4.50
  -7  -7  -3    2.30    3.60
  -7  -7  -3   -3.50    3.70
   7   7   3   -0.20    3.30
   7   7   3   -3.10    4.30
  -8  -7  -3   -1.10    4.30
  -8  -7  -3   -1.20    4.60
  -8  -7  -3    1.40    3.50
   8   7   3   -0.20    3.90
   8   7   3   -5.40    5.10
  -9  -7  -3    1.40    3.70
  -9  -7  -3   -4.10    4.80
  -9  -7  -3   -6.60    5.00
   9   7   3    6.30    4.20
 -10  -7  -3   11.20    5.90
 -10  -7  -3   14.20    5.20
 -10  -7  -3   23.40    7.80
  10   7   3    5.60    4.50
 -11  -7  -3   -7.70    6.00
 -11  -7  -3    3.60    5.60
 -11  -7  -3   -2.90    4.50
  11   7   3    2.60    4.60
 -12  -7  -3    3.60    8.00
 -12  -7  -3    1.90    6.40
  12   7   3   -3.20    4.90
 -13  -7  -3   24.80    7.90
 -13  -7  -3   13.90    9.30
 -13  -7  -3   24.80    9.70
  10  -8  -3   16.20    8.30
 -10   8   3    2.60    9.70
 -10   8   3    7.90    8.00
   9  -8  -3   17.40    8.60
  -9   8   3    1.00    7.00
  -9   8   3   11.50    8.90
   8  -8  -3    0.10    6.30
  -8   8   3  -10.40    6.80
  -8   8   3  -15.30    6.30
   7  -8  -3   11.60    6.40
  -7   8   3   20.00    8.60
  -7   8   3    8.60    7.70
   6  -8  -3    2.40    5.70
  -6   8   3    2.80    6.50
  -6   8   3    8.90    5.90
   5  -8  -3   16.90    6.50
  -5   8   3   20.10    8.10
  -5   8   3   33.20    8.30
   4  -8  -3    7.60    4.90
   4  -8  -3   11.30    5.60
  -4   8   3    1.90    5.20
   3  -8  -3  153.28   18.80
   3  -8  -3  136.29   19.80
   3  -8  -3  150.98   18.60
   3  -8  -3  117.09   19.60
  -3   8   3   98.19   19.40
  -3   8   3  132.09   19.40
   2  -8  -3   24.90    7.30
   2  -8  -3   24.90    6.20
   2  -8  -3   23.30    6.10
   2  -8  -3   17.10    6.30
  -2   8   3   18.70    7.10
  -2   8   3   18.90    6.10
   1  -8  -3   67.99   10.90
   1  -8  -3   80.39   12.70
  -1   8   3   39.00   10.50
  -1   8   3   70.19   11.10
   0  -8  -3   68.19   14.60
   0  -8  -3   69.99   11.50
   0  -8  -3   67.79   11.10
   0  -8  -3   65.79   11.80
   0   8   3   54.29   10.80
   0   8   3   84.69   12.70
  -1  -8  -3   26.20    7.50
  -1  -8  -3   45.30    7.70
  -1  -8  -3   32.70    7.50
   1   8   3   42.70    9.20
   1   8   3   52.89    8.20
   1   8   3   38.60    7.90
  -2  -8  -3   76.19   14.80
  -2  -8  -3   71.79   12.80
  -2  -8  -3   77.59   11.70
   2   8   3   58.39   11.40
   2   8   3   78.89   13.20
   2   8   3   83.59   12.20
  -3  -8  -3   -4.40    3.90
  -3  -8  -3   -5.70    3.70
  -3  -8  -3   -3.60    3.00
  -3  -8  -3    4.30    3.40
   3   8   3    4.90    4.40
   3   8   3    6.70    4.20
  -4  -8  -3    5.70    4.10
  -4  -8  -3    5.00    5.80
  -4  -8  -3    6.40    4.30
  -4  -8  -3   11.20    4.60
   4   8   3   16.00    4.90
   4   8   3    7.80    4.20
  -5  -8  -3    2.60    3.80
  -5  -8  -3    3.20    3.60
  -5  -8  -3   -2.50   11.10
  -5  -8  -3    8.60    5.70
   5   8   3    7.90    4.30
   5   8   3    3.50    4.10
  -6  -8  -3   92.49   14.30
  -6  -8  -3   82.69   14.50
  -6  -8  -3   83.29   13.50
  -6  -8  -3  104.39   16.30
   6   8   3  111.39   14.20
  -7  -8  -3   30.60    7.20
  -7  -8  -3   53.29    9.10
  -7  -8  -3   36.50    9.80
  -7  -8  -3   38.30    8.70
   7   8   3   40.00    7.50
  -8  -8  -3   18.20    6.30
  -8  -8  -3   26.40    7.40
  -8  -8  -3   22.10    5.80
   8   8   3   13.20    5.30
  -9  -8  -3   40.50    8.30
  -9  -8  -3   55.89   10.50
  -9  -8  -3   49.70   10.20
   9   8   3   41.40    8.40
 -10  -8  -3    7.80    5.70
 -10  -8  -3    4.60    6.60
 -10  -8  -3    4.70    7.80
  10   8   3    3.00    4.90
 -11  -8  -3   -7.30    5.00
 -11  -8  -3   -0.40    7.00
 -11  -8  -3   11.90   11.60
  11   8   3    5.10    6.70
 -12  -8  -3    3.20    6.90
 -12  -8  -3   11.50    6.40
 -12  -8  -3   11.10    9.50
  12   8   3   -4.20    5.60
   9  -9  -3   50.29   12.80
  -9   9   3   38.60   12.80
   8  -9  -3  -12.10    6.50
  -8   9   3    9.30    8.50
  -8   9   3   -2.40    6.60
   7  -9  -3    7.80    6.60
  -7   9   3   11.10    7.90
  -7   9   3   12.10    7.80
   6  -9  -3   -5.30    5.10
  -6   9   3   -6.50    5.80
  -6   9   3  -14.10    5.30
   5  -9  -3   46.60   10.10
   5  -9  -3   41.50    9.80
  -5   9   3   53.89   11.50
   4  -9  -3   -4.10    4.80
   4  -9  -3    4.00    5.00
  -4   9   3    5.60    6.10
   3  -9  -3    7.50    5.70
   3  -9  -3    9.50    5.90
   3  -9  -3   33.10    7.40
  -3   9   3   19.30    7.40
   2  -9  -3  502.25   67.59
   2  -9  -3  564.34   67.39
   2  -9  -3  534.75   67.59
   2  -9  -3  563.24   67.59
  -2   9   3  578.84   68.39
   1  -9  -3    1.00    4.80
   1  -9  -3   -2.90    3.60
   1  -9  -3   -5.90    4.20
   1  -9  -3    3.00    4.80
  -1   9   3   10.90    5.30
  -1   9   3    4.30    4.90
   0  -9  -3   64.69   10.90
   0  -9  -3   57.99    9.90
   0  -9  -3   48.00    9.60
   0  -9  -3   65.29   11.30
   0   9   3   32.00    9.90
   0   9   3   55.99   10.20
  -1  -9  -3   18.80    5.10
  -1  -9  -3   15.30    5.70
  -1  -9  -3   23.40    6.70
   1   9   3   14.90    5.80
   1   9   3   15.70    7.50
   1   9   3   11.10    5.90
  -2  -9  -3   94.39   13.30
  -2  -9  -3   69.89   13.80
  -2  -9  -3   76.99   13.10
   2   9   3   75.49   13.10
   2   9   3   88.39   14.30
   2   9   3  101.69   13.90
  -3  -9  -3    4.10    5.40
  -3  -9  -3   -3.00    4.20
  -3  -9  -3    0.40    3.90
  -3  -9  -3   -4.10    3.20
   3   9   3    2.40    4.50
  -4  -9  -3    2.60    4.00
  -4  -9  -3   -3.10    3.70
  -4  -9  -3   -0.60    5.20
   4   9   3    0.50    4.30
   4   9   3    1.10    4.30
  -5  -9  -3   62.39   11.70
  -5  -9  -3   78.19   12.50
  -5  -9  -3   84.39   13.60
   5   9   3   57.49   11.40
  -6  -9  -3   13.80    5.50
  -6  -9  -3    1.00    6.20
  -6  -9  -3    3.40    7.10
  -6  -9  -3   -1.60    4.50
   6   9   3    7.50    5.50
  -7  -9  -3   -3.20    4.10
  -7  -9  -3    3.20    4.30
  -7  -9  -3    5.00    5.30
  -8  -9  -3   37.50    8.70
  -8  -9  -3   24.70    6.90
  -8  -9  -3   33.90    8.20
   8   9   3   34.80    7.70
  -9  -9  -3   79.49   12.50
  -9  -9  -3   55.19   10.40
  -9  -9  -3   53.19   11.20
   9   9   3   45.70    9.80
 -10  -9  -3   29.40    9.20
 -10  -9  -3   25.10    6.90
 -10  -9  -3   25.60    8.90
  10   9   3   20.20    7.10
 -11  -9  -3    3.40    7.50
 -11  -9  -3   -2.30    6.30
 -11  -9  -3   -0.60    5.50
  11   9   3    5.60    6.70
 -12  -9  -3   -4.80    7.50
 -12  -9  -3   -2.90    5.40
 -12  -9  -3    9.70    7.70
  12   9   3    3.00   12.20
   9 -10  -3    3.70    7.20
  -9  10   3    6.40    8.10
  -9  10   3   -0.50    9.50
   8 -10  -3    8.00    7.10
  -8  10   3   14.30    9.20
  -8  10   3    1.10    7.40
   7 -10  -3    7.40    7.30
  -7  10   3    1.40    7.90
   6 -10  -3   27.80    9.10
   6 -10  -3   30.70    8.90
  -6  10   3   25.40   10.00
   5 -10  -3   20.40    7.50
   5 -10  -3   29.00    8.10
  -5  10   3   21.20    8.50
   4 -10  -3   34.60    9.20
   4 -10  -3   51.39    9.20
  -4  10   3   28.40    9.90
   3 -10  -3   -2.80    5.20
   3 -10  -3   -7.60    4.50
  -3  10   3    2.90    6.40
   2 -10  -3   11.50    5.50
   2 -10  -3    1.00    5.10
  -2  10   3    0.90    5.10
   1 -10  -3   -2.70    3.90
   1 -10  -3    2.80    4.80
  -1  10   3   -2.50    5.40
   0 -10  -3   11.70    5.40
   0 -10  -3    7.60    6.60
   0 -10  -3   11.40    9.50
   0 -10  -3   10.50    5.10
   0  10   3   16.20    6.90
  -1 -10  -3    2.10    4.40
  -1 -10  -3   -3.80    4.80
  -1 -10  -3    1.00    4.20
   1  10   3    8.60    6.40
   1  10   3    1.70    8.00
  -2 -10  -3   13.90    5.00
  -2 -10  -3    6.30    4.50
  -2 -10  -3    4.90    5.60
   2  10   3    4.60    6.20
   2  10   3    6.00    5.30
  -3 -10  -3   41.70    9.00
  -3 -10  -3   61.39   10.50
  -3 -10  -3   58.99   10.30
  -3 -10  -3   37.00   10.50
   3  10   3   50.59   10.20
  -4 -10  -3   -1.30    4.30
  -4 -10  -3    3.10    4.20
  -4 -10  -3   -3.90    4.60
  -4 -10  -3    4.20    4.50
   4  10   3    0.90    4.70
  -5 -10  -3    5.20    4.50
  -5 -10  -3    5.80    6.80
  -5 -10  -3   10.90    5.40
  -5 -10  -3   12.00    6.10
   5  10   3   11.80    5.10
  -6 -10  -3   21.00    7.00
  -6 -10  -3   17.50    6.90
  -6 -10  -3   38.90    7.00
   6  10   3   21.90    6.40
  -7 -10  -3    6.90    4.90
  -7 -10  -3    7.00    5.30
  -7 -10  -3    7.30    5.80
   7  10   3   13.00    6.30
  -8 -10  -3    2.30    5.40
  -8 -10  -3   15.70    6.10
  -8 -10  -3    0.90    6.20
   8  10   3    5.60    5.60
  -9 -10  -3   -6.80    4.80
  -9 -10  -3    3.20    6.20
  -9 -10  -3    1.90    5.00
 -10 -10  -3   83.99   14.00
 -10 -10  -3   49.90   11.10
 -10 -10  -3   73.99   13.50
 -11 -10  -3   -0.30    6.30
 -11 -10  -3    9.80    8.00
 -11 -10  -3    0.10    5.50
   8 -11  -3   16.40    8.80
   8 -11  -3    9.20    8.10
  -8  11   3   -5.60    7.10
   7 -11  -3   -2.80    7.40
   7 -11  -3   -8.30    5.50
  -7  11   3   13.80    8.00
   6 -11  -3   -1.50    5.70
   5 -11  -3   82.79   14.60
   5 -11  -3   74.89   15.00
  -5  11   3  106.59   17.90
   4 -11  -3   -3.20    5.10
   4 -11  -3   -1.50    5.40
  -4  11   3   13.60    8.30
   3 -11  -3   13.30    6.00
   3 -11  -3    1.50    5.60
  -3  11   3   20.60    8.40
   2 -11  -3   -5.40    3.90
   2 -11  -3    7.70    5.40
  -2  11   3   -6.20    5.60
   1 -11  -3  242.08   30.50
   1 -11  -3  226.98   30.70
  -1  11   3  229.68   31.60
   0 -11  -3   47.90    9.40
   0 -11  -3   48.40    9.70
   0  11   3   34.70   10.10
  -1 -11  -3    1.20    4.10
  -1 -11  -3   -1.00    4.30
   1  11   3    3.50    6.90
  -2 -11  -3   90.89   14.70
  -2 -11  -3   84.09   14.30
   2  11   3   89.99   15.90
  -3 -11  -3    6.20    5.30
  -3 -11  -3    8.30    5.80
  -3 -11  -3    6.30    5.10
  -4 -11  -3    6.10    4.70
  -4 -11  -3   -1.10    3.80
  -4 -11  -3    4.50    5.20
  -5 -11  -3    7.10    5.70
  -5 -11  -3    7.30    4.60
  -5 -11  -3   15.60    5.20
  -6 -11  -3   21.10    7.20
  -6 -11  -3   24.00    7.00
  -6 -11  -3   30.20    7.80
  -7 -11  -3   13.10    6.20
  -7 -11  -3    4.40    5.10
  -7 -11  -3   11.40    6.30
  -8 -11  -3    7.30    6.60
  -8 -11  -3    5.60    5.90
  -8 -11  -3   12.40    7.30
  -9 -11  -3    6.70    7.00
  -9 -11  -3   13.80    6.90
  -9 -11  -3   -4.00    5.20
 -10 -11  -3    2.00    7.70
 -10 -11  -3   -7.00    5.70
 -10 -11  -3    2.20    5.30
   7 -12  -3   -1.80    6.80
   7 -12  -3    5.70    7.20
  -7  12   3    9.60    8.40
   6 -12  -3    1.00    6.70
   6 -12  -3  -11.80    5.60
  -6  12   3   -5.60    8.40
   5 -12  -3   18.50    7.30
   5 -12  -3    2.30    6.50
  -5  12   3   -2.80   12.10
   4 -12  -3   -0.30    5.50
   4 -12  -3   -5.60    5.70
  -4  12   3    2.70    7.80
   3 -12  -3    5.90    5.90
   3 -12  -3    0.30    4.70
  -3  12   3    1.70    6.70
   2 -12  -3   76.39   12.90
   2 -12  -3   53.59   12.30
  -2  12   3   72.69   14.20
   1 -12  -3   -3.90    4.70
   1 -12  -3   -6.10    4.40
  -1  12   3   20.50    8.10
   0 -12  -3    6.60    5.40
   0 -12  -3    3.20    4.80
   0  12   3   28.60    8.50
  -1 -12  -3    5.80    5.20
  -1 -12  -3   -4.00    4.40
   1  12   3    1.50    7.00
  -2 -12  -3   34.10    7.70
  -2 -12  -3   22.80    7.50
   2  12   3   13.50    8.50
  -3 -12  -3    6.20    6.00
  -3 -12  -3   -3.00    4.70
  -3 -12  -3   -0.60    4.80
  -4 -12  -3    2.30    4.90
  -4 -12  -3   -0.10    5.20
  -4 -12  -3    6.60    5.10
  -5 -12  -3   25.70    8.00
  -5 -12  -3   22.20    7.70
  -5 -12  -3   14.60    6.40
  -6 -12  -3  -10.70    5.10
  -6 -12  -3   -0.60    5.30
  -6 -12  -3    0.50    5.30
  -7 -12  -3   40.00    9.70
  -7 -12  -3   44.40    9.70
  -7 -12  -3   26.80   14.20
  -8 -12  -3   -2.50    5.80
  -8 -12  -3   -0.70    6.30
  -8 -12  -3    3.40    6.00
  -9 -12  -3   17.70    7.80
  -9 -12  -3   26.00    9.10
  -9 -12  -3   30.10    9.70
   6 -13  -3    3.70    7.20
   6 -13  -3   -1.80    6.60
  -6  13   3   13.90   10.40
   5 -13  -3    1.00    5.80
   5 -13  -3   -9.40    6.60
  -5  13   3   -4.10    8.10
   4 -13  -3    5.70    5.90
   4 -13  -3    2.40    6.00
  -4  13   3    3.00    6.80
   3 -13  -3    4.90    6.20
   3 -13  -3    9.60    6.80
  -3  13   3   -3.10    6.10
   2 -13  -3   47.40   13.20
   2 -13  -3   46.30   10.30
  -2  13   3   50.79   12.80
   1 -13  -3   22.00    7.30
   1 -13  -3   26.90    9.20
  -1  13   3   35.70   10.60
   0 -13  -3   10.10    6.90
   0 -13  -3    3.20    6.10
   0  13   3    8.20    8.10
  -1 -13  -3    5.40    5.50
  -1 -13  -3    5.80    5.60
   1  13   3    7.30    8.00
  -2 -13  -3    5.90    6.00
  -2 -13  -3   -0.40    5.60
  -3 -13  -3   94.79   15.60
  -3 -13  -3   86.09   15.40
  -3 -13  -3   83.49   15.50
  -4 -13  -3   -0.90    5.20
  -4 -13  -3   -8.30    5.20
  -4 -13  -3   -2.60    5.00
  -5 -13  -3   25.80    8.40
  -5 -13  -3   26.70    8.70
  -5 -13  -3   40.70    9.40
  -6 -13  -3   36.80    8.50
  -6 -13  -3   16.20    8.20
  -6 -13  -3    2.30    6.10
  -7 -13  -3   33.60    8.60
  -7 -13  -3    0.60    5.90
  -7 -13  -3   20.70    8.40
  -8 -13  -3    8.50    7.40
  -8 -13  -3   -0.50    6.50
  -8 -13  -3   -6.40    5.40
   4 -14  -3   11.30    7.10
   4 -14  -3   11.50    8.00
  -4  14   3   10.50    8.70
   3 -14  -3   35.60    9.90
  -3  14   3   20.10   10.80
   2 -14  -3   -4.00    5.30
   2 -14  -3   -6.70    5.70
   1 -14  -3  103.29   18.60
   1 -14  -3  109.09   17.70
  -1  14   3  106.79   20.10
   0 -14  -3   -5.10    5.00
   0 -14  -3    3.50    5.70
   0  14   3    9.00    8.20
  -1 -14  -3    3.00    5.90
  -1 -14  -3   -6.50    7.90
   1  14   3   -5.00    6.70
  -2 -14  -3   49.00   11.40
  -2 -14  -3   61.29   12.60
  -2 -14  -3   56.59   17.50
  -3 -14  -3   14.10    7.50
  -3 -14  -3   27.60    8.90
  -3 -14  -3   30.90   13.30
  -4 -14  -3    1.20    5.50
  -4 -14  -3    0.10    5.40
  -4 -14  -3   -6.30    5.30
  -5 -14  -3    5.50    6.50
  -5 -14  -3   -1.10    6.00
  -5 -14  -3    2.80    5.70
  -6 -14  -3   43.10   10.80
  -6 -14  -3   35.30   10.00
  -6 -14  -3   48.10   11.10
  -7 -14  -3    1.20    6.00
  -7 -14  -3   15.60    8.50
   2 -15  -3   50.09   11.80
   2 -15  -3   25.80    8.80
  -2  15   3   33.40   12.30
   1 -15  -3    7.50    6.60
   1 -15  -3    0.20    6.80
  -1  15   3    8.60    9.90
   0 -15  -3   24.40    8.80
   0 -15  -3   20.20    8.50
   0  15   3   17.50   10.60
  -1 -15  -3    6.20    6.60
  -1 -15  -3   -0.90    6.30
  -2 -15  -3    8.90    7.60
  -2 -15  -3   14.10    7.40
  -2 -15  -3    8.60    7.00
  -3 -15  -3    1.80    6.30
  -3 -15  -3    3.50    6.40
  -3 -15  -3    9.50    7.50
  -4 -15  -3    3.00    6.40
  -4 -15  -3    2.70    5.80
  -4 -15  -3    4.30    6.90
  -1 -14   4   -0.10    6.10
  -1 -14   4    2.10    5.70
  -1 -14   4    7.20    5.30
  -1 -14   4   -1.90    7.10
   0 -14   4    4.20    5.60
   0 -14   4   17.30    8.20
   0 -14   4    5.50    6.70
   0 -14   4    2.70    4.90
   1 -14   4   23.80    9.60
   1 -14   4   33.50    8.90
   1 -14   4   14.20   11.80
  -2  14  -4   -1.30    6.90
   2 -14   4   -6.70    4.50
   2 -14   4    4.00    8.00
   2 -14   4   -5.40    5.50
  -3  14  -4    1.80    6.60
   3 -14   4   -1.80    5.00
   3 -14   4    0.60    6.10
  -4  14  -4   49.40   11.50
   4 -14   4   39.10   11.00
   4 -14   4   42.90    9.30
  -4 -13   4   10.70    4.90
  -4 -13   4    1.90    7.30
  -4 -13   4    8.10    5.80
  -4 -13   4    8.40   11.40
  -3 -13   4   10.50    6.90
  -3 -13   4   23.90    8.70
  -3 -13   4   22.60    5.60
  -3 -13   4   15.30    6.00
  -2 -13   4    2.10    6.80
  -2 -13   4    5.00    6.00
  -2 -13   4    2.00    5.30
  -2 -13   4    7.60    4.50
  -1 -13   4   -1.70    5.90
  -1 -13   4   11.40    5.90
  -1 -13   4    3.60    5.50
  -1 -13   4   -0.90    4.10
   0 -13   4   71.99   11.20
   0 -13   4   87.59   13.00
   0 -13   4   62.29   11.90
   0 -13   4   45.20   12.50
   1 -13   4    6.00    6.80
   1 -13   4   13.90    7.50
   1 -13   4   12.50    5.70
  -2  13  -4   27.00    8.60
   2 -13   4   47.50    8.50
   2 -13   4   38.00    9.70
   2 -13   4    5.00    9.20
  -3  13  -4    2.40    5.90
   3 -13   4   -4.40    7.60
   3 -13   4    3.10    6.20
   3 -13   4   -4.00    4.40
   3 -13   4   -6.30    7.10
  -4  13  -4   36.50   10.00
   4 -13   4   47.80   10.90
   4 -13   4   40.00   11.30
   4 -13   4   41.50    8.60
  -5  13  -4   49.99   12.00
   5 -13   4   34.20   10.10
   5 -13   4   46.00    8.90
   5 -13   4   33.60   10.40
  -6  13  -4   11.70    8.80
   6 -13   4    9.60    8.20
   6 -13   4   10.80    5.30
   6 -13   4   16.20    8.10
  -5 -12   4   -3.60    4.40
  -5 -12   4    3.20    4.80
  -5 -12   4    2.10    7.20
  -5 -12   4    6.00    8.60
  -4 -12   4   43.20    8.00
  -4 -12   4   30.90    9.10
  -4 -12   4   49.30    7.80
  -4 -12   4   54.19   11.40
  -3 -12   4   -2.60    6.40
  -3 -12   4   -5.10    5.30
  -3 -12   4    0.40    4.00
  -3 -12   4   -1.90    4.90
  -2 -12   4   18.20    6.80
  -2 -12   4   11.60    5.20
  -2 -12   4    9.50    4.40
  -1 -12   4    3.80    5.10
  -1 -12   4    2.90    5.50
  -1 -12   4   -2.30    4.90
  -1 -12   4   -1.70    3.80
   0 -12   4   38.40    8.40
   0 -12   4   33.60    7.20
   0 -12   4   31.20    9.60
   0 -12   4   41.00    8.30
  -1  12  -4   59.49   11.90
  -1  12  -4   65.09   11.70
   1 -12   4   51.39   12.20
   1 -12   4   66.89   11.20
   1 -12   4   71.59   11.70
  -2  12  -4    4.80    5.50
   2 -12   4   10.40    6.20
   2 -12   4    4.20    4.60
   2 -12   4    8.80    6.40
  -3  12  -4    1.50    5.90
   3 -12   4    0.00    6.80
   3 -12   4   18.30    7.80
   3 -12   4   16.10    7.10
   3 -12   4   14.20    4.90
  -4  12  -4   24.70    8.10
   4 -12   4   14.30   11.70
   4 -12   4   25.70    8.80
   4 -12   4   12.00    8.70
  -5  12  -4   60.59   14.20
   5 -12   4   57.19   12.40
   5 -12   4  105.39   15.50
   5 -12   4   76.39   11.90
  -6  12  -4   -2.00    5.30
   6 -12   4   15.50    7.10
   6 -12   4    2.40    4.60
   6 -12   4   -4.30    6.80
  -7  12  -4   -4.80    6.80
   7 -12   4   -4.10    7.80
   7 -12   4  -10.80    4.70
   7 -12   4   -3.10    5.00
  -8  12  -4   21.20   10.10
   8 -12   4   29.40    8.80
   8 -12   4   19.10    8.50
   8 -12   4   33.70   11.40
  -7 -11   4    1.20    7.00
  -7 -11   4    9.50    8.50
  -7 -11   4   15.30    5.80
  -7 -11   4    2.20    5.50
  -6 -11   4   18.00    5.90
  -6 -11   4   25.00    6.90
  -6 -11   4   32.40   10.20
  -6 -11   4   -2.20    6.30
  -5 -11   4    3.40    4.40
  -5 -11   4   -2.50    6.80
  -5 -11   4    2.60    6.60
  -5 -11   4   -1.60    4.00
  -4 -11   4   -2.10    5.20
  -4 -11   4    2.90    5.50
  -4 -11   4    3.70    4.20
  -3 -11   4   71.69   11.40
  -3 -11   4   54.79    8.00
  -3 -11   4   37.40    7.90
  -3 -11   4   45.40   11.30
  -2 -11   4    4.50    5.30
  -2 -11   4    4.30    3.60
  -2 -11   4   -6.80    4.90
  -2 -11   4    1.10    4.10
  -1 -11   4   16.40    6.90
  -1 -11   4   25.70    6.00
  -1 -11   4   14.70    6.00
  -1 -11   4   16.70    4.90
   0  11  -4    9.20    5.50
   0 -11   4   14.30    5.50
   0 -11   4   18.80    5.60
   0 -11   4   14.40    4.60
   0 -11   4   -4.40    5.20
  -1  11  -4   97.99   14.10
  -1  11  -4   68.29   13.60
   1 -11   4  100.49   15.80
   1 -11   4  103.49   14.00
   1 -11   4   80.09   13.40
  -2  11  -4    8.70    5.50
  -2  11  -4    0.30    5.10
   2 -11   4   -5.20    4.40
   2 -11   4    4.80    5.90
   2 -11   4    8.40    4.60
  -3  11  -4    3.20    4.80
   3 -11   4    0.10    5.80
   3 -11   4    1.80    4.60
   3 -11   4   -2.90    6.40
   3 -11   4   -3.90    3.50
  -4  11  -4    8.90    7.10
   4 -11   4   11.60    7.60
   4 -11   4    9.50    6.20
   4 -11   4   12.50    6.40
   4 -11   4   15.70    4.60
  -5  11  -4   56.69   12.70
   5 -11   4   77.59   11.50
   5 -11   4   72.59   13.70
   5 -11   4   70.09   13.90
   5 -11   4   83.39   12.60
  -6  11  -4   50.99   11.30
   6 -11   4   43.70    9.20
   6 -11   4   37.50    7.70
   6 -11   4   36.20    9.60
  -7  11  -4   -1.30    6.50
   7 -11   4    5.60    6.10
   7 -11   4    3.00    6.40
   7 -11   4    1.30    4.00
  -8  11  -4   50.79   13.10
   8 -11   4   55.29   11.00
   8 -11   4   45.40   11.70
   8 -11   4   64.29    9.90
  -9  11  -4   28.70   13.80
   9 -11   4    5.40    7.20
  -8 -10   4    1.30    5.90
  -8 -10   4    8.80    8.30
  -8 -10   4    3.00    7.40
  -8 -10   4    0.60    7.20
  -7 -10   4   27.80    7.10
  -7 -10   4   24.00    7.60
  -7 -10   4   33.50   10.00
  -7 -10   4   24.00    9.20
  -6 -10   4   -2.90    4.20
  -6 -10   4   -2.30    4.40
  -6 -10   4   -4.20    5.70
  -6 -10   4    8.10    6.90
  -5 -10   4   11.90    7.10
  -5 -10   4   14.70    4.90
  -5 -10   4   11.30    5.40
  -5 -10   4   14.50    7.10
  -4 -10   4    1.20    3.60
  -4 -10   4    6.00    4.20
  -4 -10   4   12.70    6.40
  -4 -10   4    3.50    5.10
  -3 -10   4   56.39    8.80
  -3 -10   4   54.29   11.70
  -3 -10   4   63.29   11.20
  -2 -10   4    0.60    2.90
  -2 -10   4   -2.50    4.40
  -2 -10   4    2.50    5.10
   1  10  -4   -4.00    4.00
  -1 -10   4   -2.00    2.90
  -1 -10   4    3.10    4.20
  -1 -10   4    4.30    5.50
  -1 -10   4    2.80    4.70
   0 -10   4   19.70    5.30
   0 -10   4   23.90    7.00
   0 -10   4   12.00    6.50
   0 -10   4   11.50    4.40
  -1  10  -4   -5.90    3.90
  -1  10  -4   -2.70    4.10
   1 -10   4    1.50    4.50
   1 -10   4    6.70    3.80
   1 -10   4   -0.30    4.40
  -2  10  -4   12.50    5.10
  -2  10  -4   18.40    5.50
   2 -10   4   13.30    4.80
   2 -10   4   11.70    5.70
   2 -10   4   12.10    5.70
  -3  10  -4    6.80    5.50
   3 -10   4    2.50    5.20
   3 -10   4   -0.30    4.50
   3 -10   4    5.00    3.50
   3 -10   4    4.40    5.50
  -4  10  -4    8.30    5.10
   4 -10   4    7.60    3.90
   4 -10   4    8.60    6.40
   4 -10   4   10.90    5.60
   4 -10   4   13.40    6.00
  -5  10  -4   65.59   13.40
   5 -10   4  103.79   12.40
   5 -10   4   64.19   13.40
   5 -10   4   64.69   13.50
   5 -10   4   80.29   12.40
  -6  10  -4   35.30    9.70
   6 -10   4   39.90    6.70
   6 -10   4   22.60    7.80
   6 -10   4   22.30    6.90
  -7  10  -4    2.20    5.90
   7 -10   4   -1.10    5.40
   7 -10   4    7.70    6.00
   7 -10   4   11.10    4.30
  -8  10  -4   47.60   11.20
   8 -10   4   50.49    9.70
   8 -10   4   24.00    6.80
   8 -10   4   30.90    8.30
  -9  10  -4    9.10    8.70
   9 -10   4   21.30    5.90
   9 -10   4   24.00    7.80
   9 -10   4   15.50    7.10
 -10  10  -4   -0.40    7.40
  10 -10   4   -8.70   11.50
  10 -10   4   -0.40    5.90
  10 -10   4    7.70    8.80
  -8  -9   4   -1.20    6.90
  -8  -9   4   -5.70    5.30
  -8  -9   4   -1.30    7.20
  -8  -9   4    1.80    7.00
  -7  -9   4   12.10    5.70
  -7  -9   4   10.50    7.60
  -7  -9   4    5.80    6.30
  -7  -9   4   20.10    8.20
  -6  -9   4   33.80    6.50
  -6  -9   4   20.60    8.40
  -6  -9   4   23.40    7.80
  -6  -9   4   18.20    6.80
  -5  -9   4    1.40    4.30
  -5  -9   4    5.70    5.90
  -5  -9   4   -4.90    4.50
  -5  -9   4    1.00    3.70
  -4  -9   4    8.80    5.90
  -4  -9   4   -3.20    3.30
  -4  -9   4   -1.80    5.10
  -3  -9   4    9.50    3.40
  -3  -9   4    7.90    3.20
  -3  -9   4    3.40    4.90
  -3  -9   4    0.70    5.30
   2   9  -4    2.30    4.20
  -2  -9   4    1.50    3.10
  -2  -9   4   11.10    4.60
  -2  -9   4    1.90    3.00
  -2  -9   4   -2.70    4.80
   1   9  -4    2.60    4.20
  -1  -9   4    0.70    2.90
  -1  -9   4   -7.00    3.60
  -1  -9   4   -3.50    3.00
   0   9  -4   34.50    7.40
   0  -9   4   36.60    7.50
   0  -9   4   47.90    9.20
  -1   9  -4    7.50    4.50
  -1   9  -4   16.40    5.00
   1  -9   4    7.20    4.10
   1  -9   4   15.30    4.90
   1  -9   4   15.40    6.00
  -2   9  -4   37.90    7.20
  -2   9  -4   32.50    7.30
   2  -9   4   49.10    7.80
   2  -9   4   36.10    8.30
   2  -9   4   28.30    6.50
  -3   9  -4   18.10    6.20
   3  -9   4   31.80    6.90
   3  -9   4   25.70    6.10
   3  -9   4   20.90    6.70
   3  -9   4   16.10    4.50
  -4   9  -4    6.90    5.20
   4  -9   4    3.40    4.60
   4  -9   4    8.20    3.50
   4  -9   4    2.90    4.30
   4  -9   4   14.90    6.50
  -5   9  -4   86.49   15.30
   5  -9   4   87.99   12.40
   5  -9   4  103.09   13.70
   5  -9   4   94.19   15.10
  -6   9  -4   38.50    8.30
   6  -9   4   -1.70    6.60
   6  -9   4    7.80    5.00
   6  -9   4   13.20    4.10
   6  -9   4   20.50    6.60
  -7   9  -4   -2.70    5.70
   7  -9   4   -2.20    4.20
   7  -9   4   -1.60    3.60
   7  -9   4    2.50    5.00
  -8   9  -4   15.70    7.70
   8  -9   4    8.00    4.30
   8  -9   4    8.20    5.80
   8  -9   4    8.20    5.10
  -9   9  -4   34.70   11.00
   9  -9   4   33.40    8.70
   9  -9   4   48.10    8.30
   9  -9   4   47.80   10.00
 -10   9  -4    8.20    9.00
  10  -9   4   16.70    6.80
  10  -9   4   14.20    7.20
  10  -9   4   22.20    6.10
 -11   9  -4   -3.30    8.80
  11  -9   4   -0.20    5.40
  11  -9   4    2.10    6.10
  11  -9   4    5.00    7.60
   9   8  -4   -4.90    7.60
  -9  -8   4    6.20    6.70
  -9  -8   4   -4.10    7.30
  -9  -8   4    4.50    6.40
   8   8  -4    9.40    7.50
  -8  -8   4    3.90    5.70
  -8  -8   4    6.00    7.60
  -8  -8   4   -2.10    6.10
  -7  -8   4    1.60    5.00
  -7  -8   4    6.90    6.70
  -7  -8   4    7.70    7.20
  -6  -8   4  110.79   16.20
  -6  -8   4  115.59   13.70
  -6  -8   4   66.49   14.00
  -6  -8   4   91.09   15.80
  -5  -8   4    3.30    5.20
  -5  -8   4    6.20    3.90
  -5  -8   4    8.30    6.00
  -5  -8   4   -2.60    4.50
  -4  -8   4   -1.70    4.30
  -4  -8   4   10.00    3.40
  -4  -8   4    0.90    3.70
  -4  -8   4   -3.80    4.80
   3   8  -4   85.69   12.50
  -3  -8   4   59.39    9.80
  -3  -8   4   70.09    9.50
  -3  -8   4   82.79   12.20
  -3  -8   4   76.19   12.70
  -2  -8   4   33.70    9.30
  -2  -8   4   56.09   10.60
  -2  -8   4   41.30    7.40
  -2  -8   4   67.89    7.50
   1   8  -4   86.29   12.00
  -1  -8   4   66.49   12.30
  -1  -8   4   65.29    9.70
  -1  -8   4   85.29   10.40
  -1  -8   4   77.99   11.60
   0   8  -4    4.30    4.50
   0   8  -4   14.70    4.30
   0  -8   4   16.20    3.90
   0  -8   4   10.00    4.20
   0  -8   4   14.40    5.10
  -1   8  -4  187.78   24.50
  -1   8  -4  184.28   25.30
  -1   8  -4  203.88   24.50
   1  -8   4  193.28   24.40
   1  -8   4  199.98   25.40
  -2   8  -4   14.20    4.50
   2  -8   4   16.10    4.70
  -3   8  -4    3.30    4.50
  -3   8  -4   -6.00    3.20
   3  -8   4    2.20    4.30
   3  -8   4   -1.70    2.40
   3  -8   4    0.60    4.20
  -4   8  -4   59.49   10.00
  -4   8  -4   36.00    9.30
   4  -8   4   49.10    9.40
   4  -8   4   53.09    8.50
   4  -8   4   54.09    8.00
   4  -8   4   51.59    9.30
  -5   8  -4   66.09   11.70
  -5   8  -4   61.69   11.80
   5  -8   4   54.79    9.50
   5  -8   4   70.69    8.90
   5  -8   4   54.59   10.80
   5  -8   4   63.79   11.20
  -6   8  -4  121.59   19.30
  -6   8  -4  125.39   18.80
   6  -8   4  117.69   18.60
   6  -8   4  121.49   18.70
   6  -8   4  114.79   16.50
   6  -8   4  140.59   16.30
  -7   8  -4    0.90    6.00
  -7   8  -4   23.20   10.50
   7  -8   4   12.70    5.50
   7  -8   4    5.00    8.30
   7  -8   4   10.10    5.00
   7  -8   4   28.20    4.80
  -8   8  -4   51.39   11.80
   8  -8   4   72.29   11.30
   8  -8   4   58.49    9.10
   8  -8   4   47.00    9.30
  -9   8  -4   -4.50    6.10
   9  -8   4    5.70    4.30
   9  -8   4   15.80    5.90
   9  -8   4    8.00    5.80
 -10   8  -4   14.60    8.30
  10  -8   4   -6.60    5.60
  10  -8   4    5.60    5.50
 -11   8  -4    0.60    8.00
  11  -8   4    3.80    6.80
  11  -8   4    5.90    5.20
 -12   8  -4   15.60    8.40
 -12   8  -4   28.10   11.30
  12  -8   4   22.20    7.50
  12  -8   4   28.90   10.20
 -10  -7   4   18.20    8.40
 -10  -7   4   21.20    9.40
 -10  -7   4    9.30    8.50
   9   7  -4    2.80    7.30
  -9  -7   4   12.90    6.80
  -9  -7   4   -5.20    6.90
  -9  -7   4   -5.90    6.10
   8   7  -4   -1.70    6.10
  -8  -7   4    5.80    6.60
  -8  -7   4    8.90    7.70
  -8  -7   4    5.30    7.50
   7   7  -4   21.70    6.50
  -7  -7   4   22.20    6.30
  -7  -7   4   11.10    6.60
  -7  -7   4   25.70    8.30
   6   7  -4    9.80    5.20
  -6  -7   4    7.80    6.70
  -6  -7   4   16.70    5.10
  -6  -7   4   10.60    5.90
  -5  -7   4   21.30    7.40
  -5  -7   4   30.70    5.90
  -5  -7   4   24.00    7.10
   4   7  -4   -4.70    3.90
  -4  -7   4    2.90    3.90
  -4  -7   4   -0.20    3.00
  -4  -7   4   -2.90    4.60
  -4  -7   4    0.20    3.80
   3   7  -4  107.19   17.20
   3   7  -4   93.89   13.60
  -3  -7   4   72.09   11.30
  -3  -7   4   99.29   11.50
  -3  -7   4  104.89   13.90
  -3  -7   4   72.79   13.70
   2   7  -4    8.20    3.80
   2   7  -4    3.50    4.40
  -2  -7   4    4.80    2.40
  -2  -7   4    7.60    3.90
  -2  -7   4    6.70    3.10
  -2  -7   4   17.40    5.40
   1   7  -4   41.10    8.70
   1   7  -4   43.10    8.00
  -1  -7   4   48.20    6.70
  -1  -7   4   42.40    9.10
  -1  -7   4   50.89    8.20
   0   7  -4   73.69   12.10
   0   7  -4   81.89   11.10
   0  -7   4   64.29   11.60
   0  -7   4   70.69    9.70
   0  -7   4   67.39   10.60
  -1   7  -4    5.40    3.10
  -1   7  -4   -1.10    3.50
  -1   7  -4    2.30    2.80
   1  -7   4    1.50    3.90
   1  -7   4    2.90    2.80
   1  -7   4   -0.90    2.70
  -2   7  -4  101.29   13.30
  -2   7  -4   91.39   13.40
   2  -7   4  109.29   13.60
   2  -7   4  112.19   17.30
   2  -7   4   95.49   13.00
  -3   7  -4    4.60    4.60
  -3   7  -4    5.00    3.90
   3  -7   4    4.30    4.00
   3  -7   4    6.00    2.50
  -4   7  -4   96.09   14.20
  -4   7  -4  117.39   16.50
   4  -7   4   86.69   12.50
   4  -7   4   96.89   12.30
   4  -7   4   94.49   13.90
  -5   7  -4   45.60    8.70
   5  -7   4   31.70    8.30
   5  -7   4   45.80    7.00
   5  -7   4   41.80    6.60
   5  -7   4   44.90    9.30
  -6   7  -4  131.89   19.10
   6  -7   4  136.09   17.90
   6  -7   4  170.38   21.20
   6  -7   4  136.09   19.00
   6  -7   4  152.68   18.60
  -7   7  -4    1.60    5.20
  -7   7  -4    3.10    6.00
   7  -7   4   11.40    4.90
   7  -7   4   15.60    4.00
   7  -7   4    9.20    4.10
   7  -7   4    7.20    6.60
  -8   7  -4   31.80    8.10
  -8   7  -4   31.00    9.30
   8  -7   4   33.50    6.70
   8  -7   4   20.70    5.90
   8  -7   4   37.20    7.40
  -9   7  -4   49.99   10.60
  -9   7  -4   52.29   12.20
   9  -7   4   58.79   10.20
   9  -7   4   47.50    9.00
 -10   7  -4   13.40    6.20
 -10   7  -4   -1.70    7.40
  10  -7   4    7.10    5.90
  10  -7   4   20.20    6.00
 -11   7  -4    8.50    6.30
 -11   7  -4    8.10    8.60
  11  -7   4   18.50    6.50
  11  -7   4   26.30   10.60
 -12   7  -4   -2.30    8.80
 -12   7  -4    4.00    6.90
  12  -7   4    2.50    7.10
  12  -7   4   16.20    6.80
 -10  -6   4    5.40    7.80
 -10  -6   4   -2.80    6.60
   9   6  -4   11.70    8.50
  -9  -6   4   20.60    7.60
  -9  -6   4   20.40    8.00
  -9  -6   4    6.50    7.70
   8   6  -4   -3.10   11.10
  -8  -6   4    1.10    5.70
  -8  -6   4    0.50    6.20
   7   6  -4    1.30    4.90
  -7  -6   4    3.20    5.30
  -7  -6   4   -4.20    5.40
  -7  -6   4    8.00    6.50
   6   6  -4   39.30    7.90
  -6  -6   4   40.50    7.90
  -6  -6   4   53.49   10.20
  -6  -6   4   40.70    9.80
   5   6  -4   10.00    3.90
  -5  -6   4    3.20    4.50
  -5  -6   4    3.60    3.90
  -5  -6   4    9.40    5.70
   4   6  -4    0.70    4.20
   4   6  -4    1.30    4.50
  -4  -6   4    2.50    4.60
  -4  -6   4    1.50    4.10
  -4  -6   4    3.50    3.20
   3   6  -4   22.80    5.20
   3   6  -4   12.90    5.10
  -3  -6   4    7.70    4.80
  -3  -6   4    8.70    3.00
  -3  -6   4    8.10    4.90
  -3  -6   4    7.20    3.10
   2   6  -4   58.49   11.50
   2   6  -4   79.39   11.30
  -2  -6   4   69.49    9.40
  -2  -6   4   88.29   11.70
  -2  -6   4   81.19   12.50
   1   6  -4   -0.20    3.30
   1   6  -4    3.40    3.10
  -1  -6   4   -2.10    2.60
  -1  -6   4    0.60    3.90
   0   6  -4   96.69   13.60
   0   6  -4   86.59   12.00
   0  -6   4   88.79   11.00
   0  -6   4   80.39   11.10
   0  -6   4  112.09   14.50
   0  -6   4   96.49   12.00
  -1   6  -4   10.60    3.90
  -1   6  -4    0.80    2.40
  -1   6  -4    3.50    2.60
   1  -6   4    4.00    2.80
   1  -6   4    5.10    3.80
   1  -6   4    2.30    2.70
  -2   6  -4  260.27   29.70
  -2   6  -4  253.07   30.50
  -2   6  -4  241.68   29.90
   2  -6   4  238.58   29.60
   2  -6   4  250.17   30.50
   2  -6   4  216.68   29.70
  -3   6  -4   22.30    5.90
  -3   6  -4   18.10    4.80
   3  -6   4   20.80    3.70
   3  -6   4   16.80    5.00
   3  -6   4   21.00    5.40
  -4   6  -4   17.80    5.20
  -4   6  -4    8.10    4.50
   4  -6   4   13.00    5.00
   4  -6   4   14.70    3.60
   4  -6   4   18.30    3.30
   4  -6   4   19.60    4.90
  -5   6  -4   69.19   12.20
  -5   6  -4   82.99   11.90
   5  -6   4   75.99   11.80
   5  -6   4   82.59   10.30
   5  -6   4   69.39    9.60
   5  -6   4   67.09   11.60
  -6   6  -4   20.50    5.90
  -6   6  -4   16.50    6.10
   6  -6   4   15.90    5.30
   6  -6   4   23.90    6.50
   6  -6   4   22.20    4.50
   6  -6   4   19.70    4.10
  -7   6  -4   -2.50    5.60
  -7   6  -4    7.00    4.70
   7  -6   4   12.10    6.10
   7  -6   4    9.30    4.30
   7  -6   4   -2.00    3.20
  -8   6  -4    2.60    4.40
  -8   6  -4    5.50    5.60
  -8   6  -4    3.70    4.70
   8  -6   4    9.90    4.10
   8  -6   4   -1.90    3.70
  -9   6  -4   71.29   13.20
  -9   6  -4   59.89   11.80
  -9   6  -4   48.90    9.70
   9  -6   4   58.19    9.70
   9  -6   4   59.99   10.10
 -10   6  -4    8.20    5.90
 -10   6  -4   15.00    6.40
 -10   6  -4   11.90    7.00
  10  -6   4    8.50    4.80
  10  -6   4    7.30    5.20
 -11   6  -4    0.60    7.00
 -11   6  -4   -4.50    5.20
 -11   6  -4    4.70    7.00
  11  -6   4   -1.70   10.70
  11  -6   4    6.50    5.20
 -12   6  -4   12.00    7.20
 -12   6  -4   14.20    9.60
  12  -6   4   14.50    7.10
  12  -6   4   21.30    7.00
 -13   6  -4    1.20    7.00
 -13   6  -4   -2.60    8.50
  13  -6   4    7.10    5.90
 -10  -5   4   -3.00    6.70
 -10  -5   4   10.40    7.20
 -10  -5   4    7.70    7.70
   9   5  -4    0.50    7.30
  -9  -5   4   -2.60    9.60
  -9  -5   4    0.10    6.20
  -9  -5   4    6.20    6.70
   8   5  -4    9.00    7.20
  -8  -5   4   18.90    7.60
  -8  -5   4    7.40    7.60
  -8  -5   4   16.20    7.20
   7   5  -4    5.00    5.60
  -7  -5   4   -2.10    4.90
  -7  -5   4    5.70    6.30
  -7  -5   4    0.20    4.50
   6   5  -4   72.29   11.90
  -6  -5   4   89.79   12.10
  -6  -5   4   63.29   12.90
  -6  -5   4   84.49   13.50
   5   5  -4   -0.10    3.40
   5   5  -4   -2.10    4.30
   5   5  -4   -2.20    3.80
  -5  -5   4   -2.90    4.60
  -5  -5   4    2.90    3.80
  -5  -5   4    5.80    4.80
   4   5  -4    1.80    3.90
   4   5  -4    3.60    3.20
   4   5  -4    7.30    5.10
  -4  -5   4    1.10    3.70
  -4  -5   4    4.40    4.60
  -4  -5   4    5.20    3.30
   3   5  -4   10.10    4.50
  -3  -5   4   25.70    5.80
  -3  -5   4   12.40    3.30
  -3  -5   4   15.70    5.70
   2   5  -4    7.80    3.90
   2   5  -4    4.20    3.60
  -2  -5   4   18.50    5.10
  -2  -5   4   15.60    5.00
   1   5  -4   36.30    7.30
   1   5  -4   45.10    6.80
  -1  -5   4   42.60    8.00
  -1  -5   4   36.00    7.00
   0   5  -4   15.00    3.60
   0   5  -4    6.70    3.90
   0  -5   4   13.20    3.50
   0  -5   4   24.10    5.20
  -1   5  -4  200.98   26.50
  -1   5  -4  226.08   25.90
   1  -5   4  200.48   26.60
   1  -5   4  209.68   25.80
   1  -5   4  208.88   25.50
  -2   5  -4    2.50    2.90
  -2   5  -4    0.80    3.10
  -2   5  -4    3.90    2.10
   2  -5   4    1.70    3.30
   2  -5   4   -3.40    2.70
   2  -5   4    3.00    2.10
  -3   5  -4    0.00    3.10
  -3   5  -4    2.00    3.10
   3  -5   4   -0.50    1.80
   3  -5   4   -0.60    3.10
  -4   5  -4    5.40    3.70
  -4   5  -4    4.40    4.10
   4  -5   4    5.60    3.80
   4  -5   4    4.90    2.20
   4  -5   4    2.50    3.00
   4  -5   4   -0.80    2.00
  -5   5  -4  162.78   20.00
  -5   5  -4  152.18   19.60
   5  -5   4  160.38   19.50
   5  -5   4  150.98   18.50
   5  -5   4  154.98   19.80
   5  -5   4  139.39   18.60
  -6   5  -4  126.89   18.20
  -6   5  -4  157.78   20.40
   6  -5   4  174.38   20.30
   6  -5   4  140.99   17.40
   6  -5   4  126.19   18.00
  -7   5  -4    9.30    3.40
  -7   5  -4    2.80    4.10
  -7   5  -4    0.90    5.40
   7  -5   4    4.00    3.20
  -8   5  -4   61.09   10.10
  -8   5  -4   49.20    9.10
  -8   5  -4   76.79   12.50
   8  -5   4   51.69   11.30
   8  -5   4   50.99    9.30
   8  -5   4   68.79    9.30
  -9   5  -4   11.60    5.10
  -9   5  -4    1.00    6.40
  -9   5  -4    0.60    4.90
   9  -5   4   12.40    4.50
   9  -5   4   11.30    4.40
 -10   5  -4   10.50    5.90
 -10   5  -4    6.10    7.50
 -10   5  -4   21.00    6.20
  10  -5   4   19.50    5.50
  10  -5   4   22.70    5.90
 -11   5  -4   -9.70    8.40
 -11   5  -4    0.80    6.90
  11  -5   4    6.70    7.40
  11  -5   4   -2.80    5.00
 -12   5  -4   27.10    8.80
  12  -5   4   13.80    7.10
  12  -5   4   17.80    6.30
  12  -5   4   33.10    8.20
 -13   5  -4    5.40    9.00
 -13   5  -4   -1.80    7.20
  13  -5   4    3.10    7.80
  13  -5   4    6.20    5.40
 -11  -4   4   -1.40    7.00
 -11  -4   4   12.40    8.90
 -11  -4   4    2.50   12.80
 -10  -4   4   39.40   10.50
 -10  -4   4   22.70    9.40
 -10  -4   4   33.70    9.50
  -9  -4   4    1.70    7.50
  -9  -4   4   -5.40    5.60
  -9  -4   4    1.30    6.50
   8   4  -4   17.30    6.80
  -8  -4   4   23.80    7.00
  -8  -4   4   20.10    7.70
  -8  -4   4   17.70    7.40
   7   4  -4    5.50    5.00
  -7  -4   4   -0.50    5.00
  -7  -4   4    2.30    5.50
  -7  -4   4   10.10    5.70
   6   4  -4   56.09   10.60
   6   4  -4   66.89   12.80
  -6  -4   4   58.59   11.50
  -6  -4   4   81.09   11.10
  -6  -4   4   87.09   12.80
   5   4  -4  100.19   14.90
   5   4  -4   97.59   16.10
   5   4  -4  115.79   17.20
  -5  -4   4  133.29   15.00
  -5  -4   4  138.39   17.30
  -5  -4   4   86.59   16.10
   4   4  -4   -0.80    3.40
   4   4  -4   -2.90    3.60
  -4  -4   4    1.00    3.10
  -4  -4   4   15.00    5.20
  -4  -4   4    0.20    4.40
   3   4  -4   81.49   10.70
   3   4  -4   66.89   12.40
   3   4  -4   91.99   12.60
  -3  -4   4   73.49   12.30
  -3  -4   4   98.19   12.90
  -3  -4   4   81.29   10.80
   2   4  -4   -3.20    3.10
   2   4  -4    1.40    2.80
  -2  -4   4   -2.30    2.80
  -2  -4   4   -5.00    3.30
  -2  -4   4    2.60    1.90
   1   4  -4   72.79   10.40
   1   4  -4   74.29   11.10
  -1  -4   4   66.99   10.30
  -1  -4   4   68.09   10.90
   0   4  -4    2.30    3.50
   0  -4   4   -1.20    3.10
   0  -4   4    0.40    2.80
  -1   4  -4   65.99    9.10
  -1   4  -4   73.59    8.90
  -1   4  -4   88.89   11.10
   1  -4   4   63.89    8.70
   1  -4   4   74.79   10.70
   1  -4   4   68.69    9.20
  -2   4  -4   81.79   10.90
  -2   4  -4   83.59   10.10
  -2   4  -4   69.89    9.10
   2  -4   4   80.89   11.10
   2  -4   4   60.49    9.10
   2  -4   4   78.09    9.80
  -3   4  -4   16.20    4.40
  -3   4  -4   12.60    4.20
   3  -4   4   23.00    4.90
   3  -4   4   22.60    4.40
   3  -4   4   20.40    2.90
   3  -4   4   13.00    2.60
  -4   4  -4  101.09   14.00
  -4   4  -4  104.49   14.30
   4  -4   4  104.49   14.00
   4  -4   4  119.19   15.00
  -5   4  -4   -0.20    2.80
  -5   4  -4    6.00    4.20
   5  -4   4    2.30    2.80
   5  -4   4    4.90    3.70
   5  -4   4   -2.20    1.90
   5  -4   4    1.60    2.80
  -6   4  -4   12.40    5.30
  -6   4  -4    4.40    3.60
  -6   4  -4   -0.10    2.60
   6  -4   4    5.20    2.70
   6  -4   4    1.30    4.50
   6  -4   4    2.50    3.00
  -7   4  -4    3.40    3.60
  -7   4  -4    6.50    3.30
  -7   4  -4   12.50    5.90
   7  -4   4    3.20    2.90
   7  -4   4   -1.40    4.80
   7  -4   4   -1.20    2.80
  -8   4  -4  109.29   13.90
  -8   4  -4  109.09   16.20
  -8   4  -4  113.89   14.70
   8  -4   4   95.79   15.80
   8  -4   4   99.99   13.50
   8  -4   4   87.49   13.20
  -9   4  -4   49.50    8.80
  -9   4  -4   32.00    8.40
  -9   4  -4   60.49   11.30
   9  -4   4   62.99    8.90
   9  -4   4   56.49    8.70
 -10   4  -4   18.50    6.20
 -10   4  -4   10.00    7.30
  10  -4   4   20.40    5.20
  10  -4   4   11.70    5.10
 -11   4  -4   -0.80    6.70
 -11   4  -4    8.90    7.30
  11  -4   4   -0.30    8.00
  11  -4   4    6.10    4.40
  11  -4   4    8.60    5.10
 -12   4  -4    9.30    8.40
 -12   4  -4   -8.20    6.00
  12  -4   4   -0.80    4.20
  12  -4   4    3.50    6.00
  12  -4   4    3.90    6.10
 -13   4  -4   16.50    9.90
 -13   4  -4   11.50    8.10
  13  -4   4   17.50    8.70
  13  -4   4   32.10    7.10
 -14   4  -4   -4.50    7.70
 -14   4  -4   -1.40    8.10
  14  -4   4    5.80    7.20
  14  -4   4    3.50    5.70
 -11  -3   4    4.70    7.60
 -11  -3   4    4.30    7.50
 -11  -3   4   24.60    9.90
 -10  -3   4   11.20    8.00
 -10  -3   4    5.40    6.90
 -10  -3   4    4.30    7.50
  -9  -3   4   21.50    7.90
  -9  -3   4   19.10    8.30
  -9  -3   4   37.60    8.90
   8   3  -4   -0.30    5.70
  -8  -3   4    4.30    6.40
  -8  -3   4   13.30    6.40
  -8  -3   4    1.10    5.10
   7   3  -4   22.90    6.90
  -7  -3   4   26.60    6.80
  -7  -3   4   29.00    7.90
  -7  -3   4   23.30    7.80
   6   3  -4   18.80    5.50
   6   3  -4   10.90    6.50
  -6  -3   4   26.20    7.00
  -6  -3   4   15.90    6.60
  -6  -3   4   11.30    5.20
   5   3  -4  207.78   28.70
   5   3  -4  258.37   28.90
   5   3  -4  229.88   28.00
  -5  -3   4  229.08   28.70
  -5  -3   4  183.28   28.40
  -5  -3   4  229.28   28.00
   4   3  -4   -3.60    3.40
   4   3  -4    0.80    3.00
   4   3  -4   -2.30    3.90
  -4  -3   4    1.60    4.20
  -4  -3   4   -2.30    3.10
  -4  -3   4   -0.70    3.90
   3   3  -4    5.70    3.00
   3   3  -4    8.00    4.00
   3   3  -4    6.90    4.30
  -3  -3   4    9.20    3.10
  -3  -3   4   10.80    4.30
  -3  -3   4    6.90    4.40
   2   3  -4   13.20    4.20
   2   3  -4   13.10    2.90
   2   3  -4   15.00    5.00
  -2  -3   4   12.10    4.30
  -2  -3   4   16.10    5.00
   1   3  -4   77.19   11.90
   1   3  -4   86.09   11.40
  -1  -3   4   81.59   11.40
  -1  -3   4   70.09   11.60
   0   3  -4   26.30    5.90
   0   3  -4   37.10    5.60
   0  -3   4   33.90    5.90
   0  -3   4   30.80    6.30
  -1   3  -4    3.30    3.10
  -1   3  -4    4.00    1.70
  -1   3  -4    0.50    1.90
   1  -3   4    1.60    1.50
   1  -3   4    0.90    2.80
   1  -3   4    2.20    2.40
  -2   3  -4   53.19    7.60
  -2   3  -4   66.69    9.10
  -2   3  -4   59.19    8.10
   2  -3   4   74.89    9.40
   2  -3   4   58.59    7.60
   2  -3   4   62.69    8.00
  -3   3  -4   24.50    4.80
  -3   3  -4   11.70    3.90
   3  -3   4   26.70    4.70
   3  -3   4   19.40    4.60
  -4   3  -4   -0.70    2.70
  -4   3  -4    2.00    3.90
   4  -3   4    4.40    3.50
   4  -3   4    2.50    2.70
  -5   3  -4  110.79   14.30
  -5   3  -4  125.59   14.80
  -5   3  -4  112.99   15.60
   5  -3   4  112.79   14.10
   5  -3   4  120.49   14.70
   5  -3   4  107.49   15.40
  -6   3  -4   83.99   10.90
  -6   3  -4   71.49   10.60
  -6   3  -4   85.09   12.60
   6  -3   4   78.49   10.60
   6  -3   4   88.09   12.40
   6  -3   4   79.79   10.20
  -7   3  -4   59.79    8.90
  -7   3  -4   41.60    6.60
  -7   3  -4   31.30    6.20
   7  -3   4   26.30    5.80
   7  -3   4   37.10    7.90
   7  -3   4   40.00    6.30
  -8   3  -4    5.70    4.30
  -8   3  -4    9.30    3.60
  -8   3  -4    9.10    5.30
   8  -3   4    2.90    3.10
   8  -3   4   -4.50    4.60
   8  -3   4   -2.20    2.70
  -9   3  -4  136.69   17.60
  -9   3  -4  137.29   19.50
   9  -3   4  139.89   16.80
   9  -3   4  109.99   16.90
 -10   3  -4   18.80    6.40
 -10   3  -4   26.20    8.00
  10  -3   4   16.80    5.40
  10  -3   4   20.20    5.00
  10  -3   4   21.60    5.70
 -11   3  -4    2.90    6.70
 -11   3  -4   12.20    6.40
  11  -3   4   11.00    5.20
  11  -3   4    4.90    4.00
  11  -3   4    0.70    5.50
 -12   3  -4   11.40    8.50
 -12   3  -4    7.60    6.90
  12  -3   4   10.20    4.60
  12  -3   4   14.50    6.70
  12  -3   4    7.90    5.70
 -13   3  -4    0.30    7.80
 -13   3  -4    5.00    7.70
  13  -3   4   10.80    6.10
  13  -3   4   16.80    5.40
 -14   3  -4   15.10    8.80
 -14   3  -4   27.50   11.50
  14  -3   4   13.40    7.20
  14  -3   4   14.10   12.60
 -11  -2   4    3.80    7.90
 -11  -2   4   -7.60    6.60
 -11  -2   4   19.90    8.50
 -10  -2   4   -1.80    6.50
 -10  -2   4   10.20    7.60
 -10  -2   4    0.30    6.90
  -9  -2   4   32.00    8.50
  -9  -2   4   19.60    7.90
  -9  -2   4   21.10    8.30
   8   2  -4   19.50    7.40
  -8  -2   4   16.90    7.30
  -8  -2   4    8.80    6.30
  -8  -2   4   14.60    6.80
   7   2  -4   -0.50    5.00
  -7  -2   4   -6.70    4.70
  -7  -2   4   -0.40    5.10
  -7  -2   4    4.30    5.20
   6   2  -4   95.09   15.40
   6   2  -4  110.59   14.80
   6   2  -4   91.49   15.60
  -6  -2   4   81.69   14.70
  -6  -2   4   90.39   15.10
  -6  -2   4  120.59   15.20
   5   2  -4    8.60    4.50
   5   2  -4    4.10    4.30
   5   2  -4    4.80    9.10
  -5  -2   4    9.90    7.50
  -5  -2   4   -3.40    4.00
  -5  -2   4   12.00    5.20
   4   2  -4   90.39   14.40
   4   2  -4  111.39   13.50
   4   2  -4  105.69   15.10
  -4  -2   4  105.19   13.40
  -4  -2   4   71.19   14.10
  -4  -2   4  102.39   14.60
   3   2  -4   12.60    5.30
   3   2  -4   24.30    4.70
   3   2  -4   24.00    5.40
  -3  -2   4   15.20    4.40
  -3  -2   4   23.00    5.30
  -3  -2   4   19.70    5.60
   2   2  -4   54.99    9.60
   2   2  -4   54.99    8.10
   2   2  -4   51.99    9.10
  -2  -2   4   64.19    9.90
  -2  -2   4   64.79    8.40
  -2  -2   4   56.49    9.10
   1   2  -4  111.79   13.90
   1   2  -4  120.29   15.20
   1   2  -4  124.99   14.80
  -1  -2   4  105.39   13.90
  -1  -2   4  111.89   14.80
  -1  -2   4  112.69   15.00
   0   2  -4   -0.10    3.10
   0   2  -4   -1.50    3.00
   0  -2   4    0.90    3.10
   0  -2   4    6.00    3.10
  -1   2  -4  220.18   27.30
  -1   2  -4  224.88   27.80
  -1   2  -4  221.98   27.10
   1  -2   4  224.18   27.80
   1  -2   4  233.18   27.40
  -2   2  -4   40.50    6.10
  -2   2  -4   33.70    5.50
  -2   2  -4   35.80    4.70
   2  -2   4   36.70    6.10
   2  -2   4   32.60    5.30
   2  -2   4   33.10    4.80
  -3   2  -4    5.90    3.50
  -3   2  -4    4.10    2.90
   3  -2   4    0.50    2.50
   3  -2   4    7.20    3.30
  -4   2  -4   59.59    7.90
  -4   2  -4   53.99    8.60
   4  -2   4   57.99    8.50
   4  -2   4   48.20    7.70
  -5   2  -4  111.49   13.50
  -5   2  -4  113.19   14.60
   5  -2   4   94.59   14.20
   5  -2   4  102.49   13.10
   5  -2   4  109.59   13.50
  -6   2  -4   48.40    6.30
  -6   2  -4   34.10    6.30
  -6   2  -4   32.00    7.70
   6  -2   4   42.70    7.70
   6  -2   4   36.90    5.90
   6  -2   4   39.80    5.90
  -7   2  -4   11.80    4.60
  -7   2  -4    1.20    2.60
  -7   2  -4    6.50    3.60
   7  -2   4    9.80    2.70
   7  -2   4    9.60    3.30
   7  -2   4    1.20    3.90
  -8   2  -4   20.40    5.60
  -8   2  -4   30.90    7.10
   8  -2   4   21.40    4.90
   8  -2   4   19.80    4.30
   8  -2   4   24.30    6.60
  -9   2  -4    7.60    4.60
  -9   2  -4    6.70    5.70
   9  -2   4    7.40    4.10
   9  -2   4    6.20    3.10
   9  -2   4    4.90    3.10
   9  -2   4    1.20    5.40
 -10   2  -4   12.40    6.00
 -10   2  -4   14.10    7.10
  10  -2   4   22.60    5.70
  10  -2   4   19.10    4.40
  10  -2   4   12.60    4.80
 -11   2  -4    4.70    6.10
 -11   2  -4    8.10    6.90
  11  -2   4   11.40    3.80
  11  -2   4    4.90    4.50
  11  -2   4    6.30    4.90
 -12   2  -4   10.20    7.20
 -12   2  -4   -3.40    6.00
  12  -2   4    4.00    3.90
  12  -2   4    2.60    4.30
  12  -2   4    4.80    7.10
 -13   2  -4   -5.80    7.20
 -13   2  -4    0.20    8.70
  13  -2   4    0.50    4.30
  13  -2   4   -9.20    4.80
 -14   2  -4   15.90    9.70
 -14   2  -4    6.10    8.40
  14  -2   4    3.20    5.60
  14  -2   4    9.90    5.20
 -11  -1   4    3.20    7.30
 -11  -1   4  -13.00    6.60
 -10  -1   4   21.70    9.20
 -10  -1   4   53.19   10.90
  -9  -1   4   -5.10    6.20
  -9  -1   4    5.20    6.30
  -9  -1   4   -5.90    5.40
   8   1  -4    7.80    6.20
  -8  -1   4   -0.20    5.30
  -8  -1   4   11.40    6.40
  -8  -1   4   14.10    7.10
   7   1  -4    0.90    5.20
  -7  -1   4   -1.40    5.30
  -7  -1   4    2.30    5.40
   6   1  -4   46.50    9.20
   6   1  -4   35.40    8.80
   6   1  -4   42.90    8.50
  -6  -1   4   46.70    9.50
  -6  -1   4   54.19    8.90
  -6  -1   4   45.60    9.10
   5   1  -4   66.59    9.40
   5   1  -4   31.00    8.90
   5   1  -4   41.80    9.60
  -5  -1   4   57.89   10.10
  -5  -1   4   68.59    9.60
  -5  -1   4   65.89   10.70
   4   1  -4   -3.20    3.90
   4   1  -4   -0.20    4.10
   4   1  -4    2.10    3.80
  -4  -1   4   -2.90    3.40
  -4  -1   4    8.10    4.60
  -4  -1   4   -0.40    4.20
   3   1  -4   13.80    5.80
   3   1  -4   31.40    6.90
  -3  -1   4   41.90    7.30
  -3  -1   4   33.50    6.60
  -3  -1   4   31.60    5.80
   2   1  -4   -4.00    2.90
   2   1  -4    2.50    3.50
   2   1  -4   12.90    4.30
  -2  -1   4   -4.90    3.10
  -2  -1   4   -3.50    3.10
  -2  -1   4    0.70    3.60
   1   1  -4   39.70    6.10
   1   1  -4   58.69    7.40
   1   1  -4   44.70    7.40
  -1  -1   4   57.29    8.10
  -1  -1   4   27.40    5.80
  -1  -1   4   43.00    7.00
   0   1  -4   59.39    9.20
   0   1  -4   54.89    7.80
   0   1  -4   62.79    8.70
   0  -1   4   57.39    8.60
   0  -1   4   56.89    8.90
   0  -1   4   60.69    9.60
  -1   1  -4  344.77   40.90
  -1   1  -4  322.17   40.90
  -1   1  -4  355.46   41.20
   1  -1   4  334.57   40.90
   1  -1   4  337.37   41.20
  -2   1  -4  177.78   19.70
  -2   1  -4  169.08   19.80
  -2   1  -4  156.58   19.40
   2  -1   4  149.39   19.70
   2  -1   4  151.28   19.40
   2  -1   4  155.88   19.60
  -3   1  -4   80.79   10.30
  -3   1  -4   74.39    9.70
  -3   1  -4   67.09    9.20
  -3   1  -4   78.99    9.30
   3  -1   4   74.29    9.80
   3  -1   4   86.89   10.50
  -4   1  -4   21.90    4.80
  -4   1  -4   16.40    2.80
  -4   1  -4   14.60    3.10
   4  -1   4   15.40    4.30
   4  -1   4   18.80    3.30
   4  -1   4   15.80    2.60
  -5   1  -4    0.30    2.00
  -5   1  -4    0.90    2.30
  -5   1  -4   -0.40    3.50
   5  -1   4    2.50    1.80
   5  -1   4    1.20    1.80
   5  -1   4    5.00    3.90
  -6   1  -4  200.88   23.70
  -6   1  -4  202.68   24.00
  -6   1  -4  189.98   24.90
   6  -1   4  183.48   23.80
   6  -1   4  189.88   23.60
   6  -1   4  199.38   24.80
  -7   1  -4    6.80    4.70
  -7   1  -4   21.90    4.20
   7  -1   4    6.50    4.70
   7  -1   4    9.30    2.60
   7  -1   4   10.80    3.20
  -8   1  -4   36.80    6.80
  -8   1  -4   47.40    8.80
   8  -1   4   35.90    7.70
   8  -1   4   37.90    6.20
   8  -1   4   33.90    5.70
   8  -1   4   26.90    5.00
  -9   1  -4    6.10    4.30
  -9   1  -4   12.40    6.10
   9  -1   4   13.50    5.70
   9  -1   4    4.60    2.80
   9  -1   4    6.30    3.20
   9  -1   4    1.30    3.20
 -10   1  -4   63.59   10.70
 -10   1  -4   50.59   11.60
  10  -1   4   58.39    8.80
  10  -1   4   59.49   11.40
  10  -1   4   65.29   10.20
 -11   1  -4    5.30    7.00
 -11   1  -4    2.60    6.10
  11  -1   4    8.50    3.50
  11  -1   4   17.30    4.70
  11  -1   4   13.80    5.60
 -12   1  -4    8.80    6.50
 -12   1  -4   10.90    7.40
  12  -1   4    2.10    3.60
  12  -1   4    1.00    3.90
 -13   1  -4   25.70    8.30
 -13   1  -4   29.70   11.20
  13  -1   4   13.30    5.60
  13  -1   4   29.60    6.00
 -14   1  -4   -3.50    8.00
 -14   1  -4   18.00    8.20
  14  -1   4    3.40    4.60
  14  -1   4    0.50    4.50
  11   0  -4   -2.00    7.60
 -11   0   4    4.60    8.20
 -11   0   4   -3.20    6.90
  10   0  -4   38.30   10.10
 -10   0   4   -2.60   12.20
 -10   0   4   20.50    8.70
  -9   0   4   26.90    8.60
  -9   0   4   16.50    7.50
  -9   0   4   14.90    7.40
  -8   0   4    6.70    6.50
  -8   0   4   19.90    7.00
  -8   0   4    2.60    5.80
   7   0  -4   21.90    7.50
   7   0  -4    4.60    5.80
  -7   0   4   32.00    7.40
  -7   0   4   31.10    7.90
  -7   0   4   29.10    7.70
   6   0  -4   24.20    6.50
   6   0  -4   17.60    6.60
   6   0  -4   32.80    7.20
  -6   0   4    9.90    6.00
  -6   0   4   28.40    6.70
  -6   0   4   13.60    5.70
   5   0  -4  190.28   31.50
   5   0  -4  271.27   30.60
   5   0  -4  222.38   30.70
  -5   0   4  270.17   31.10
  -5   0   4  270.97   30.70
  -5   0   4  209.48   30.50
   4   0  -4    6.40    4.50
   4   0  -4   11.80    4.70
   4   0  -4   -0.20    4.00
  -4   0   4    7.20    4.80
  -4   0   4    5.20    4.60
  -4   0   4    4.40    3.70
   3   0  -4   54.49    9.10
   3   0  -4   54.79    8.50
   3   0  -4   45.60    9.10
  -3   0   4   50.79    9.00
  -3   0   4   60.69    8.80
  -3   0   4   59.29    9.60
   2   0  -4   89.99   14.60
   2   0  -4  114.99   14.20
   2   0  -4  100.29   13.70
  -2   0   4  111.29   13.90
  -2   0   4   97.59   14.60
  -2   0   4  101.99   14.20
   1   0  -4  139.29   17.70
   1   0  -4  132.69   17.20
   1   0  -4  139.79   17.80
  -1   0   4  153.28   17.80
  -1   0   4  131.09   17.80
  -1   0   4  127.59   17.30
   0   0  -4  219.58   26.70
   0   0  -4  218.78   26.60
   0   0  -4  206.28   27.00
   0   0   4  221.48   27.00
   0   0   4  216.28   26.80
   0   0   4  213.38   26.60
  -1   0  -4  463.95   51.39
  -1   0  -4  411.26   51.49
  -1   0  -4  439.36   51.59
  -1   0  -4  421.56   51.39
   1   0   4  426.56   51.59
   1   0   4  392.86   51.39
  -2   0  -4 9603.44 1169.28
  -2   0  -4 9999.00 1169.48
  -2   0  -4 9811.62 1169.28
  -2   0  -4 9832.02 1169.48
   2   0   4 9659.13 1169.38
   2   0   4 9942.61 1169.48
  -3   0  -4  168.28   19.30
  -3   0  -4  158.68   19.80
   3   0   4  149.69   19.80
   3   0   4  151.38   19.30
   3   0   4  156.58   19.70
  -4   0  -4   27.70    4.80
  -4   0  -4   46.10    5.20
  -4   0  -4   37.90    6.50
   4   0   4   35.80    5.00
   4   0   4   33.20    5.30
   4   0   4   47.90    6.70
  -5   0  -4  225.88   27.60
  -5   0  -4  224.98   28.30
   5   0   4  229.48   27.60
   5   0   4  220.68   28.30
  -6   0  -4  378.66   48.30
  -6   0  -4  392.16   48.90
   6   0   4  390.96   48.90
   6   0   4  449.26   49.40
  -7   0  -4   33.70    5.40
  -7   0  -4   35.10    6.80
   7   0   4   29.10    6.30
   7   0   4   27.50    4.80
   7   0   4   19.70    3.40
  -8   0  -4    0.30    3.60
  -8   0  -4   -3.30    4.30
   8   0   4   -1.70    2.10
   8   0   4    1.40    2.00
   8   0   4    1.90    4.90
   8   0   4   -3.10    2.80
  -9   0  -4  245.08   26.40
  -9   0  -4  226.88   27.10
   9   0   4  175.18   24.90
   9   0   4  191.28   26.80
   9   0   4  232.38   26.10
 -10   0  -4    9.50    6.90
 -10   0  -4    4.40    5.40
  10   0   4    2.90    2.60
  10   0   4    3.80    4.30
  10   0   4    2.20    2.60
 -11   0  -4    2.70    6.70
 -11   0  -4   23.90    6.70
  11   0   4   13.30    5.70
  11   0   4    9.80    3.50
 -12   0  -4   -5.50    5.50
 -12   0  -4    2.30    6.90
  12   0   4    0.00    3.80
  12   0   4    0.30    3.30
 -13   0  -4   12.00    7.80
  13   0   4    7.60    4.40
  13   0   4   12.20    4.30
 -14   0  -4    3.00    7.40
 -14   0  -4   13.30    8.40
  14   0   4    6.40    4.40
  14   0   4    1.80    4.70
  11  -1  -4   -0.20    8.00
 -11   1   4   15.10    9.00
 -11   1   4    7.40    8.20
  10  -1  -4    9.80    8.20
 -10   1   4   10.10    8.80
 -10   1   4   32.40    9.80
   9  -1  -4   25.60    8.30
  -9   1   4   16.20    8.20
  -9   1   4   25.70    8.90
   8  -1  -4   10.40    6.40
  -8   1   4    3.90    6.30
  -8   1   4    1.40    6.20
   7  -1  -4   56.79    9.20
   7  -1  -4   23.10    8.30
  -7   1   4   29.20    8.20
  -7   1   4   16.80    7.30
  -7   1   4   29.00    7.60
   6  -1  -4  205.28   23.80
   6  -1  -4  146.49   22.70
   6  -1  -4  177.08   22.90
  -6   1   4  183.58   23.00
  -6   1   4  156.98   23.10
  -6   1   4  170.48   23.20
   5  -1  -4   21.00    6.00
   5  -1  -4   19.70    6.60
   5  -1  -4   18.80    6.10
  -5   1   4   15.70    5.50
  -5   1   4    1.00    4.90
  -5   1   4   22.50    6.20
   4  -1  -4   49.99    9.40
   4  -1  -4   50.69    9.10
   4  -1  -4   48.80    8.90
  -4   1   4   58.19    9.80
  -4   1   4   52.79    9.30
  -4   1   4   56.59    9.60
   3  -1  -4   10.70    4.60
   3  -1  -4    5.20    4.60
   3  -1  -4    1.10    3.80
  -3   1   4    9.40    4.70
  -3   1   4    4.20    4.30
  -3   1   4   19.80    5.50
   2  -1  -4   62.89    9.90
   2  -1  -4   59.89   10.00
   2  -1  -4   70.59   10.50
  -2   1   4   63.49   10.20
  -2   1   4   77.09   10.80
  -2   1   4   57.29    9.80
   1  -1  -4    5.80    3.50
   1  -1  -4    6.10    4.00
   1  -1  -4   11.90    4.50
  -1   1   4    7.10    3.80
  -1   1   4   12.70    4.40
  -1   1   4    5.90    4.30
   0  -1  -4    7.80    4.80
   0  -1  -4    7.50    3.30
   0  -1  -4    1.30    3.60
   0   1   4    3.00    3.90
   0   1   4    8.00    3.60
   0   1   4    9.10    3.70
  -1  -1  -4  114.69   13.90
  -1  -1  -4  100.59   14.00
  -1  -1  -4   95.79   14.00
   1   1   4   99.29   14.30
   1   1   4   95.99   13.90
   1   1   4  144.69   14.40
  -2  -1  -4  153.98   19.70
  -2  -1  -4  195.98   20.40
  -2  -1  -4  139.49   19.50
  -2  -1  -4  155.18   19.60
  -2  -1  -4  145.19   19.90
   2   1   4  176.28   19.80
  -3  -1  -4   12.90    3.70
  -3  -1  -4   29.80    4.10
  -3  -1  -4   27.30    5.00
   3   1   4   27.10    4.10
   3   1   4   18.60    4.00
  -4  -1  -4   18.70    4.90
  -4  -1  -4   23.30    3.90
   4   1   4   16.30    3.80
   4   1   4   24.70    5.10
  -5  -1  -4   73.19   12.10
  -5  -1  -4   88.59   11.00
   5   1   4   99.29   12.50
   5   1   4   78.19   11.00
  -6  -1  -4    4.90    3.00
  -6  -1  -4    6.80    3.90
   6   1   4    3.00    3.70
   6   1   4    4.40    2.80
  -7  -1  -4  115.59   16.50
  -7  -1  -4  123.79   15.80
   7   1   4  119.99   15.70
   7   1   4  123.39   16.60
  -8  -1  -4    1.20    4.80
  -8  -1  -4   12.60    4.30
   8   1   4    0.80    3.20
   8   1   4   -2.00    4.30
  -9  -1  -4   32.80    8.30
  -9  -1  -4   33.30    6.90
   9   1   4   44.90    6.30
   9   1   4   12.60    6.60
   9   1   4   31.70    6.70
   9   1   4   36.60    5.00
 -10  -1  -4   69.99   12.00
 -10  -1  -4   55.49   10.80
  10   1   4   68.79    8.60
  10   1   4   64.49    8.50
  10   1   4   49.30   10.10
 -11  -1  -4   16.10    7.20
 -11  -1  -4    6.60    6.00
  11   1   4   23.50    4.00
  11   1   4   11.60    3.60
  11   1   4    6.10    5.40
 -12  -1  -4   -7.20    5.30
 -12  -1  -4    2.40    6.90
  12   1   4    5.00    3.40
  12   1   4    7.90    6.00
 -13  -1  -4   -0.80    6.30
  13   1   4    3.60    3.70
  13   1   4   -1.60    3.50
 -14  -1  -4   10.90   10.10
 -14  -1  -4   35.10    9.50
  14   1   4   23.70    5.90
  14   1   4   29.60    6.00
  11  -2  -4    2.80    7.90
 -11   2   4   -1.60    7.50
 -11   2   4    8.10    9.10
  10  -2  -4   15.80    8.30
 -10   2   4   14.70   10.50
 -10   2   4   28.40    9.10
   9  -2  -4   -2.60    5.80
  -9   2   4    7.00    6.40
  -9   2   4    5.60    6.60
   8  -2  -4  -13.80    5.00
  -8   2   4    1.40    5.90
  -8   2   4    2.20    6.20
   7  -2  -4   27.50    7.60
   7  -2  -4   14.70    7.20
  -7   2   4   14.50    6.70
  -7   2   4   20.80    7.10
   6  -2  -4   22.90    6.70
   6  -2  -4   21.40    6.60
   6  -2  -4   10.90    6.50
   6  -2  -4   29.70    7.50
  -6   2   4   31.70    7.60
  -6   2   4   21.30    7.10
   5  -2  -4   57.79    9.40
   5  -2  -4   42.90    8.70
   5  -2  -4   43.50    9.70
  -5   2   4   50.59    9.50
  -5   2   4   37.20    9.00
   4  -2  -4   43.80    9.10
   4  -2  -4   37.00    8.60
   4  -2  -4   65.09    9.40
   4  -2  -4   71.29   10.10
  -4   2   4   42.70    8.70
  -4   2   4   50.49    9.30
   3  -2  -4    0.10    4.20
   3  -2  -4    1.60    3.90
   3  -2  -4    8.80    4.20
  -3   2   4   -3.40    3.60
  -3   2   4    7.80    4.50
   2  -2  -4   -5.40    3.40
   2  -2  -4   -5.20    3.60
   2  -2  -4    2.40    4.10
  -2   2   4    3.40    3.70
  -2   2   4   -0.40    4.10
  -2   2   4   -3.80    3.40
   1  -2  -4   47.40    8.20
   1  -2  -4   57.09    8.80
   1  -2  -4   41.20    7.90
  -1   2   4   52.59    8.70
  -1   2   4   52.69    8.20
  -1   2   4   46.50    8.20
   0  -2  -4   86.39   11.20
   0  -2  -4   76.59   10.70
   0  -2  -4   68.29   10.40
   0   2   4   56.49   10.40
   0   2   4   82.49   11.00
  -1  -2  -4    6.50    3.60
  -1  -2  -4   15.70    4.10
  -1  -2  -4   -6.30    3.20
  -1  -2  -4    3.30    3.10
   1   2   4   -0.20    3.50
   1   2   4    7.60    4.00
  -2  -2  -4    8.00    4.00
  -2  -2  -4    8.60    3.00
  -2  -2  -4    9.30    3.30
  -2  -2  -4    9.00    3.30
  -3  -2  -4    0.60    3.50
  -3  -2  -4    6.00    2.50
  -3  -2  -4    3.90    2.50
  -3  -2  -4    9.50    2.80
   3   2   4    5.80    3.20
   3   2   4    9.70    4.00
  -4  -2  -4   29.10    4.20
  -4  -2  -4   27.20    5.10
  -4  -2  -4   48.90    6.70
   4   2   4   34.10    6.10
   4   2   4   25.70    5.90
  -5  -2  -4   44.50    7.70
  -5  -2  -4   59.79    8.90
   5   2   4   58.49    8.90
   5   2   4   51.99    7.80
  -6  -2  -4  143.49   17.10
  -6  -2  -4  134.89   17.70
   6   2   4  125.89   17.60
   6   2   4  125.79   17.10
  -7  -2  -4   10.80    3.80
  -7  -2  -4    8.10    4.70
   7   2   4    8.50    4.70
   7   2   4   10.10    3.80
  -8  -2  -4   18.80    6.20
  -8  -2  -4   19.20    5.10
   8   2   4   15.10    4.40
   8   2   4   10.20    5.10
  -9  -2  -4   -3.00    3.70
  -9  -2  -4    9.60    5.50
   9   2   4   -2.10    3.70
   9   2   4   -4.10    4.20
   9   2   4    1.80    1.80
 -10  -2  -4   13.50    7.00
 -10  -2  -4   -0.10    5.20
  10   2   4   15.90    3.30
  10   2   4   17.50    5.70
  10   2   4   22.10    3.60
 -11  -2  -4    2.40    6.30
 -11  -2  -4    5.60    5.80
  11   2   4    3.90    2.90
  11   2   4    3.60    2.60
 -12  -2  -4    2.50    5.70
 -12  -2  -4    8.80    8.30
  12   2   4    6.00    3.40
 -13  -2  -4   17.30    8.30
  13   2   4   16.10    5.10
  13   2   4   14.80    4.70
 -14  -2  -4    7.30    8.50
 -14  -2  -4    3.10    7.20
  14   2   4    2.90    3.80
  14   2   4    3.50    4.10
  11  -3  -4   -8.80    7.60
 -11   3   4  -11.20    7.20
 -11   3   4   -4.40    8.30
  10  -3  -4   23.30    8.60
 -10   3   4   22.10    9.70
   9  -3  -4   -3.90    6.10
  -9   3   4   11.50    7.40
  -9   3   4    5.30    7.60
   8  -3  -4    9.60    6.20
  -8   3   4    8.80    7.20
  -8   3   4  -16.40    5.30
   7  -3  -4   -5.40    4.80
  -7   3   4    6.50    6.30
  -7   3   4   -1.40    5.90
   6  -3  -4   14.90    6.20
   6  -3  -4   12.00    6.30
   6  -3  -4    9.90    6.40
   6  -3  -4    5.40    5.50
  -6   3   4    5.80    5.80
  -6   3   4   16.20    6.10
   5  -3  -4   87.79   14.50
   5  -3  -4  106.09   15.40
   5  -3  -4  102.19   15.00
   5  -3  -4   93.59   14.90
  -5   3   4   94.89   15.00
  -5   3   4   89.49   16.00
   4  -3  -4   26.20    6.60
   4  -3  -4   15.70    6.30
   4  -3  -4   25.00    6.80
   4  -3  -4   24.20    6.40
  -4   3   4   32.40    6.90
  -4   3   4   25.00    6.60
   3  -3  -4   77.69   12.40
   3  -3  -4   83.39   12.30
   3  -3  -4   82.79   12.40
   3  -3  -4   88.89   12.70
  -3   3   4   68.79   12.30
  -3   3   4   77.39   12.30
   2  -3  -4   57.79    9.70
   2  -3  -4   61.89    9.60
   2  -3  -4   58.49    9.40
   2  -3  -4   52.99    9.20
  -2   3   4   50.19    9.30
  -2   3   4   53.69    9.90
   1  -3  -4   78.69   11.40
   1  -3  -4   88.09   11.40
   1  -3  -4   99.29   12.00
   1  -3  -4   61.99   11.20
  -1   3   4   70.09   11.20
  -1   3   4   61.29   11.30
   0  -3  -4  115.89   15.00
   0  -3  -4  106.69   15.20
   0  -3  -4  110.69   14.70
   0  -3  -4  110.69   14.90
   0   3   4  104.99   15.00
   0   3   4  117.89   15.30
  -1  -3  -4    1.20    3.80
  -1  -3  -4    1.90    3.60
  -1  -3  -4    5.80    3.30
  -1  -3  -4    7.60    3.50
   1   3   4   -1.00    4.30
  -2  -3  -4   82.29   12.20
  -2  -3  -4   87.09   11.90
  -2  -3  -4   86.39   12.80
  -2  -3  -4  102.49   13.70
   2   3   4  101.19   12.40
   2   3   4   93.39   12.00
  -3  -3  -4   74.19   12.00
  -3  -3  -4   69.29   10.40
  -3  -3  -4   70.19   11.00
  -3  -3  -4   82.19    9.80
   3   3   4   82.59   10.70
   3   3   4   67.19    9.80
  -4  -3  -4   58.49    9.50
  -4  -3  -4   63.89    8.40
  -4  -3  -4   71.89   10.60
   4   3   4   79.09   10.60
   4   3   4   67.99    8.60
   4   3   4   61.39    9.50
  -5  -3  -4    3.20    1.70
  -5  -3  -4   13.50    3.40
  -5  -3  -4    7.90    4.00
   5   3   4   10.00    2.30
   5   3   4    3.00    3.60
   5   3   4    8.90    3.00
  -6  -3  -4   26.80    5.60
  -6  -3  -4    7.90    4.20
  -6  -3  -4   13.60    2.50
   6   3   4   11.20    4.30
   6   3   4   12.70    2.40
   6   3   4   12.40    3.90
  -7  -3  -4    4.00    3.50
  -7  -3  -4    1.20    4.30
  -7  -3  -4    0.30    1.90
   7   3   4    0.30    3.20
   7   3   4    1.90    4.00
   7   3   4    0.90    1.50
  -8  -3  -4    2.80    5.00
  -8  -3  -4    4.60    3.60
   8   3   4    3.40    1.60
   8   3   4   -1.10    4.00
   8   3   4    3.30    3.60
  -9  -3  -4  107.79   16.10
  -9  -3  -4   98.29   15.00
   9   3   4  105.39   12.80
   9   3   4  107.89   15.20
   9   3   4   83.89   15.60
 -10  -3  -4   -2.40    4.50
 -10  -3  -4   -1.20    6.00
  10   3   4    3.40    2.50
  10   3   4    3.30    4.20
  10   3   4    3.80    2.70
 -11  -3  -4    0.00    5.40
 -11  -3  -4   -4.50    6.40
  11   3   4   -3.70    2.60
  11   3   4    4.50    2.80
 -12  -3  -4   -1.70    5.80
 -12  -3  -4    2.90    6.80
  12   3   4   -2.20    3.00
 -13  -3  -4   39.50   10.40
  13   3   4   51.39    8.00
  13   3   4   39.80    7.20
 -14  -3  -4   10.60   13.00
 -14  -3  -4   -3.20    8.50
  14   3   4    7.80    4.50
  14   3   4   11.90    4.50
  11  -4  -4   -3.00    7.60
 -11   4   4   -3.50    7.20
 -11   4   4   14.00    9.60
  10  -4  -4   -1.50    7.70
 -10   4   4    8.90   11.50
 -10   4   4    2.70    7.70
   9  -4  -4   25.00    9.30
  -9   4   4   43.90   10.70
  -9   4   4   16.50    8.30
   8  -4  -4   -0.30    5.50
  -8   4   4    7.80    6.10
  -8   4   4   13.40    6.70
   7  -4  -4    8.50    6.00
  -7   4   4   -0.10    5.40
  -7   4   4   14.20    6.70
   6  -4  -4   14.70    7.00
   6  -4  -4   18.40    6.10
   6  -4  -4    8.50    6.40
  -6   4   4    9.00    5.70
  -6   4   4    5.70    5.90
   5  -4  -4  117.29   16.60
   5  -4  -4  123.59   16.70
   5  -4  -4  118.79   16.80
   5  -4  -4  129.79   17.40
  -5   4   4   96.19   16.30
  -5   4   4   79.79   15.90
   4  -4  -4   92.99   14.40
   4  -4  -4   85.39   14.50
   4  -4  -4  102.69   14.20
   4  -4  -4  119.29   14.90
  -4   4   4   57.99   14.80
  -4   4   4   85.99   14.30
   3  -4  -4   34.80    7.40
   3  -4  -4   37.30    7.20
   3  -4  -4   41.00    7.60
   3  -4  -4   31.90    7.20
  -3   4   4   25.10    7.20
  -3   4   4   28.40    7.30
   2  -4  -4   95.99   14.40
   2  -4  -4  106.39   14.30
   2  -4  -4  103.79   14.30
   2  -4  -4  105.49   14.60
  -2   4   4   74.49   14.00
  -2   4   4   95.49   14.30
   1  -4  -4    1.20    3.80
   1  -4  -4    6.30    3.90
   1  -4  -4    0.90    3.90
  -1   4   4   11.60    4.70
  -1   4   4    8.20    4.90
  -1   4   4    8.70    4.10
   0  -4  -4    6.70    4.20
   0  -4  -4    4.60    3.80
   0  -4  -4   -1.80    3.40
   0   4   4    0.90    4.20
   0   4   4    4.30    3.80
  -1  -4  -4   -1.00    3.10
  -1  -4  -4   -6.20    3.70
  -1  -4  -4   -5.50    3.80
  -1  -4  -4   -6.80    3.10
   1   4   4    2.00    3.40
   1   4   4    8.30    4.80
  -2  -4  -4   14.80    3.60
  -2  -4  -4    7.30    3.50
  -2  -4  -4   20.80    5.50
   2   4   4    4.20    3.80
   2   4   4    4.00    4.90
   2   4   4    2.90    3.60
  -3  -4  -4    2.20    4.50
  -3  -4  -4    5.10    3.80
  -3  -4  -4    1.20    2.90
  -3  -4  -4    0.00    2.30
   3   4   4    1.90    2.60
   3   4   4   -2.00    3.30
  -4  -4  -4    3.30    3.80
  -4  -4  -4    0.60    2.70
  -4  -4  -4    5.80    2.30
   4   4   4    7.30    3.50
   4   4   4    7.50    3.50
   4   4   4   -0.80    2.50
  -5  -4  -4  191.58   22.60
  -5  -4  -4  184.08   21.70
  -5  -4  -4  181.88   23.00
   5   4   4  181.78   22.60
   5   4   4  170.88   22.90
   5   4   4  160.98   21.70
  -6  -4  -4   15.10    4.70
  -6  -4  -4    3.90    3.10
  -6  -4  -4    4.20    2.20
   6   4   4    3.50    3.10
   6   4   4    7.90    2.40
   6   4   4    1.40    3.60
  -7  -4  -4   39.00    7.10
  -7  -4  -4   26.20    7.70
  -7  -4  -4   37.40    5.40
   7   4   4   33.00    7.30
   7   4   4   37.10    7.00
   7   4   4   31.90    5.10
  -8  -4  -4   -0.90    4.20
  -8  -4  -4    6.00    2.50
  -8  -4  -4    1.80    4.50
   8   4   4    5.00    2.20
   8   4   4    7.80    4.70
  -9  -4  -4  107.09   14.20
  -9  -4  -4  140.39   17.50
  -9  -4  -4  106.69   16.30
   9   4   4   95.99   16.00
   9   4   4  114.89   14.10
 -10  -4  -4   28.60    8.30
 -10  -4  -4   40.30    8.50
 -10  -4  -4   25.40    5.20
  10   4   4   29.70    5.00
 -11  -4  -4    4.70    5.80
 -11  -4  -4    9.20    7.40
 -12  -4  -4    5.50    6.90
 -12  -4  -4    1.30    5.80
  12   4   4    2.10    3.60
  12   4   4   -0.60    3.30
 -13  -4  -4   -1.40    6.50
 -13  -4  -4   12.80    8.90
  13   4   4    3.60    3.60
  13   4   4    1.70    3.60
 -14  -4  -4   27.80    9.40
 -14  -4  -4   26.50   10.60
  14   4   4   23.30    5.50
  14   4   4   15.00    5.20
  11  -5  -4  -15.60    6.50
 -11   5   4    3.50    8.50
 -11   5   4    1.20    8.10
  10  -5  -4   30.40    9.80
 -10   5   4   15.10    9.50
 -10   5   4   25.30   10.10
   9  -5  -4   10.10    7.30
  -9   5   4    5.70    7.60
  -9   5   4   19.90    8.80
   8  -5  -4   11.80    6.70
  -8   5   4   12.90    7.50
  -8   5   4    6.30    7.90
   7  -5  -4   12.60    6.70
  -7   5   4    5.50    6.40
  -7   5   4    7.40    6.50
   6  -5  -4   55.19   10.60
  -6   5   4   67.69   12.00
  -6   5   4   52.19   11.10
   5  -5  -4   15.80    7.00
   5  -5  -4   -4.50    4.40
   5  -5  -4    5.00    4.90
   5  -5  -4   11.20    5.90
  -5   5   4   11.90    5.80
  -5   5   4   16.30    6.20
   4  -5  -4   49.90   10.30
   4  -5  -4   61.79   10.90
   4  -5  -4   58.59   10.70
   4  -5  -4   68.59   11.60
  -4   5   4   66.59   11.50
  -4   5   4   74.49   11.70
   3  -5  -4    1.70    4.40
   3  -5  -4    6.90    4.60
   3  -5  -4    5.90    4.70
   3  -5  -4    2.70    4.40
  -3   5   4   -4.90    4.30
  -3   5   4    0.30    4.30
   2  -5  -4   87.29   12.10
   2  -5  -4   82.59   12.60
   2  -5  -4   71.59   11.70
  -2   5   4   80.19   11.80
  -2   5   4   54.39   11.40
  -2   5   4   77.89   12.10
   1  -5  -4   31.60    7.20
   1  -5  -4   42.80    7.80
   1  -5  -4   41.60    8.20
  -1   5   4   37.30    8.20
  -1   5   4   39.60    7.80
  -1   5   4   49.60    8.20
   0  -5  -4   33.20    6.90
   0  -5  -4   32.20    7.40
   0  -5  -4   37.30    7.10
   0  -5  -4   31.60    6.50
   0   5   4   30.20    7.40
   0   5   4   40.70    6.90
  -1  -5  -4   13.30    5.00
  -1  -5  -4   22.40    4.80
  -1  -5  -4   13.00    5.60
  -1  -5  -4   21.40    5.00
   1   5   4   12.10    5.60
   1   5   4   10.50    4.60
  -2  -5  -4    1.10    4.00
  -2  -5  -4    4.40    3.20
  -2  -5  -4    6.60    3.30
   2   5   4   -1.30    4.10
   2   5   4    3.80    3.50
   2   5   4    7.80    3.90
  -3  -5  -4   78.69   11.40
  -3  -5  -4   81.89   13.00
  -3  -5  -4   75.89   12.00
  -3  -5  -4   80.09   10.60
   3   5   4   76.19   11.60
   3   5   4   72.29   11.00
  -4  -5  -4   -8.00    4.10
  -4  -5  -4    0.80    3.30
  -4  -5  -4   -2.10    2.20
  -4  -5  -4   -0.70    2.80
   4   5   4    1.70    3.20
   4   5   4    0.20    3.00
  -5  -5  -4   21.20    5.40
  -5  -5  -4   15.40    4.50
  -5  -5  -4   21.30    4.20
   5   5   4   28.10    5.50
   5   5   4   25.50    4.50
   5   5   4   19.30    5.50
  -6  -5  -4   18.70    3.90
  -6  -5  -4   11.70    5.10
  -6  -5  -4   24.70    5.00
   6   5   4   19.00    4.70
   6   5   4   24.20    6.00
   6   5   4   12.80    3.60
  -7  -5  -4   16.70    5.80
  -7  -5  -4   21.10    4.30
   7   5   4   22.50    4.20
   7   5   4   18.40    5.50
   7   5   4   16.80    6.60
  -8  -5  -4    7.30    4.60
  -8  -5  -4   11.70    3.30
  -8  -5  -4    4.50    4.80
   8   5   4    8.50    3.00
   8   5   4    5.30    4.70
   8   5   4    6.30    4.40
  -9  -5  -4    2.60    4.80
  -9  -5  -4   -2.10    2.50
  -9  -5  -4   -0.20    5.20
 -10  -5  -4   65.19   11.80
 -10  -5  -4   73.49   10.30
 -10  -5  -4   77.49   13.40
  10   5   4   62.19    9.90
 -11  -5  -4   -1.90    5.80
 -11  -5  -4    3.60    5.80
 -11  -5  -4    4.00    3.60
  11   5   4    1.20    3.00
 -12  -5  -4   -3.50    7.10
 -12  -5  -4    5.70    7.10
  12   5   4    4.00    3.50
 -13  -5  -4   -0.80    7.70
 -13  -5  -4    5.80   10.10
  13   5   4   12.20    4.30
  13   5   4   10.40    4.60
 -14  -5  -4    7.60    8.70
 -14  -5  -4   -3.90    7.40
  14   5   4    1.50    4.10
  14   5   4   -1.00    4.30
  10  -6  -4   21.20    9.70
 -10   6   4   22.60   10.00
 -10   6   4   17.90    8.80
   9  -6  -4    9.00    7.40
  -9   6   4   11.80    9.10
  -9   6   4   15.00   11.20
   8  -6  -4   10.90    7.50
  -8   6   4   15.50    8.00
  -8   6   4    7.00    6.50
   7  -6  -4    6.60    6.50
  -7   6   4    1.50    6.20
  -7   6   4   -8.90    5.10
   6  -6  -4    1.60    5.10
  -6   6   4   -0.50    5.50
  -6   6   4   -0.10    6.00
   5  -6  -4  101.09   15.20
  -5   6   4   91.49   15.50
  -5   6   4   81.79   14.90
   4  -6  -4    3.80    5.00
   4  -6  -4    3.40    4.90
   4  -6  -4   17.20    6.50
   4  -6  -4    0.10    4.90
  -4   6   4    2.90    5.10
  -4   6   4    8.50    5.20
   3  -6  -4    3.80    6.00
   3  -6  -4    1.50    4.90
   3  -6  -4    3.90    4.30
  -3   6   4    0.90    4.00
  -3   6   4   -6.00    4.70
  -3   6   4    5.60    5.10
   2  -6  -4   59.39    9.30
   2  -6  -4   55.09    9.80
   2  -6  -4   50.09    8.90
  -2   6   4   51.49    9.20
  -2   6   4   42.70    8.80
  -2   6   4   30.90    9.10
   1  -6  -4    7.80    4.90
   1  -6  -4    9.30    4.50
   1  -6  -4   10.80    4.50
   1  -6  -4   10.90    4.60
  -1   6   4    2.30    4.70
  -1   6   4    5.10    4.10
   0  -6  -4   29.90    5.80
   0  -6  -4    8.10    4.80
   0  -6  -4   23.00    6.30
   0  -6  -4   16.10    4.90
   0   6   4   19.30    5.30
   0   6   4   13.10    5.40
  -1  -6  -4   27.70    6.50
  -1  -6  -4   33.60    7.90
  -1  -6  -4   44.20    7.50
  -1  -6  -4   38.10    6.80
   1   6   4   24.30    7.10
   1   6   4   28.30    6.60
  -2  -6  -4  463.05   53.39
  -2  -6  -4  402.96   53.99
  -2  -6  -4  422.76   53.49
   2   6   4  428.16   53.29
   2   6   4  441.36   54.19
   2   6   4  458.85   53.69
  -3  -6  -4   -3.30    2.40
  -3  -6  -4    3.10    4.80
  -3  -6  -4    6.60    3.10
  -3  -6  -4   -1.10    3.90
   3   6   4    5.00    3.30
   3   6   4    1.60    3.60
  -4  -6  -4   18.20    4.30
  -4  -6  -4   16.50    6.30
  -4  -6  -4   11.00    5.00
  -4  -6  -4   24.70    5.20
   4   6   4   25.20    5.00
   4   6   4   18.80    5.10
  -5  -6  -4    3.60    2.70
  -5  -6  -4   -2.30    4.50
  -5  -6  -4    2.20    3.40
  -5  -6  -4   -8.20    3.40
   5   6   4    5.20    3.20
   5   6   4   -1.40    2.80
  -6  -6  -4   75.39   10.50
  -6  -6  -4   92.59   13.60
   6   6   4   90.49   16.80
   6   6   4   78.79   10.50
   6   6   4   61.89   11.90
  -7  -6  -4   17.50    4.90
  -7  -6  -4   26.90    6.30
  -7  -6  -4   34.50    7.30
   7   6   4   30.30    7.60
   7   6   4   18.90    5.60
   7   6   4   27.60    5.20
  -8  -6  -4    1.20    3.30
  -8  -6  -4    9.80    5.60
  -8  -6  -4    6.80    4.80
   8   6   4    7.70    3.40
   8   6   4   -3.70    3.80
   8   6   4   10.50    5.40
  -9  -6  -4   12.20    4.30
  -9  -6  -4   27.10    7.20
  -9  -6  -4   17.00    5.50
   9   6   4   11.90    3.80
 -10  -6  -4   19.30    7.30
 -10  -6  -4    9.00    4.10
 -10  -6  -4   10.90    5.70
  10   6   4    9.10    4.10
 -11  -6  -4    2.40    6.30
 -11  -6  -4    0.10    4.40
 -11  -6  -4   -0.70    5.10
  11   6   4    2.60    3.80
 -12  -6  -4   -6.00    4.30
 -12  -6  -4   10.50    8.20
 -12  -6  -4    0.60    6.30
  12   6   4    2.00    4.00
 -13  -6  -4   17.70    6.00
 -13  -6  -4   17.60    8.40
 -13  -6  -4    3.60    8.50
  13   6   4   10.90    5.20
  10  -7  -4    1.80    7.10
 -10   7   4    4.10    8.70
 -10   7   4    5.10    8.70
   9  -7  -4    9.10    7.60
  -9   7   4    8.60    8.50
  -9   7   4   -1.90   14.10
   8  -7  -4    5.90    7.20
  -8   7   4    1.00    7.50
  -8   7   4    4.40    7.30
   7  -7  -4   31.30    8.40
  -7   7   4   21.00    9.30
  -7   7   4   27.40    8.80
   6  -7  -4    8.70    6.40
  -6   7   4   -4.70    5.20
  -6   7   4    4.40    6.40
   5  -7  -4   39.50    8.70
  -5   7   4   32.10    9.20
  -5   7   4   30.90    8.50
   4  -7  -4   36.10    8.20
   4  -7  -4   33.20    8.30
  -4   7   4   30.50    8.30
  -4   7   4   38.40    8.80
   3  -7  -4    5.40    5.40
   3  -7  -4   -0.40    5.20
   3  -7  -4    5.00    4.70
  -3   7   4    3.90    5.20
  -3   7   4    1.10    4.40
  -3   7   4    9.20    5.30
   2  -7  -4   60.49   10.70
   2  -7  -4   65.09   10.10
   2  -7  -4   50.49    9.70
   2  -7  -4   46.80    9.60
  -2   7   4   66.69   10.30
  -2   7   4   34.10   10.30
   1  -7  -4    0.00    3.50
   1  -7  -4   -1.60    4.40
   1  -7  -4   -1.90    3.90
   1  -7  -4    4.00    4.60
  -1   7   4   -3.80    3.50
   0  -7  -4   14.70    5.20
   0  -7  -4   14.80    4.80
   0  -7  -4    2.70    4.70
   0  -7  -4    0.20    4.00
   0   7   4    7.00    5.00
   0   7   4    0.20    3.90
  -1  -7  -4    3.00    3.30
  -1  -7  -4    8.00    5.00
  -1  -7  -4    2.90    3.90
  -1  -7  -4    5.70    4.20
   1   7   4    4.60    4.80
   1   7   4    3.10    3.80
  -2  -7  -4   89.39   16.20
  -2  -7  -4  106.99   14.60
  -2  -7  -4   99.99   15.20
   2   7   4  119.09   15.80
   2   7   4  108.69   15.40
   2   7   4  121.09   17.10
  -3  -7  -4   -5.30    2.60
  -3  -7  -4    0.50    3.20
  -3  -7  -4    7.90    4.50
  -3  -7  -4    1.80    4.40
   3   7   4   -1.30    3.60
   3   7   4   -0.30    3.50
  -4  -7  -4   -2.70    3.30
  -4  -7  -4   14.60    6.30
  -4  -7  -4   -3.50    3.20
  -4  -7  -4    0.30    3.00
   4   7   4   11.50    4.20
   4   7   4   -2.10    3.20
  -5  -7  -4   50.49    9.20
  -5  -7  -4   55.09    8.70
   5   7   4   55.19    8.50
   5   7   4   52.69    9.50
  -6  -7  -4    9.90    5.40
  -6  -7  -4   24.80    7.20
  -6  -7  -4   19.50    4.80
  -6  -7  -4   37.20    6.90
   6   7   4   13.60    6.10
   6   7   4   16.20    4.70
  -7  -7  -4  117.59   16.40
  -7  -7  -4  108.89   16.20
  -7  -7  -4  108.59   14.30
   7   7   4  109.69   14.30
   7   7   4   94.69   16.40
   7   7   4   95.89   15.90
  -8  -7  -4    2.80    3.60
  -8  -7  -4   14.30    5.80
  -8  -7  -4    6.00    4.80
   8   7   4    8.20    4.00
  -9  -7  -4   17.30    6.60
  -9  -7  -4   22.30    7.40
  -9  -7  -4   11.80    4.50
   9   7   4   20.10    5.10
 -10  -7  -4   10.30    4.90
 -10  -7  -4   20.60    7.20
 -10  -7  -4   20.90    7.80
  10   7   4    9.60    4.50
 -11  -7  -4   -1.80    5.50
 -11  -7  -4   16.00    7.70
 -11  -7  -4    2.90    4.30
  11   7   4   -3.40    3.90
 -12  -7  -4    0.50    7.70
 -12  -7  -4   -2.40    6.90
 -12  -7  -4    7.60    5.20
  12   7   4    5.00    4.60
 -13  -7  -4    4.80    7.10
 -13  -7  -4    6.00    5.90
 -13  -7  -4   -4.40    8.20
  13   7   4    5.00    5.10
   9  -8  -4    6.60    8.20
  -9   8   4   11.60    8.60
  -9   8   4    0.90    9.50
   8  -8  -4   11.90    7.80
  -8   8   4   -9.70    6.90
  -8   8   4   11.10    8.00
   7  -8  -4   -3.70    6.20
  -7   8   4    6.00    7.50
  -7   8   4    3.60    6.60
   6  -8  -4   -1.00    6.00
  -6   8   4   12.40    7.50
  -6   8   4    2.50    7.60
   5  -8  -4    1.50    5.80
  -5   8   4    8.90    7.70
  -5   8   4   17.30    8.00
   4  -8  -4   -1.70    5.20
  -4   8   4   25.80    7.60
  -4   8   4    8.40    5.60
   3  -8  -4   10.00    5.50
   3  -8  -4    6.80    5.60
   3  -8  -4   25.40    6.40
  -3   8   4   17.70    6.80
   2  -8  -4  149.49   19.60
   2  -8  -4  116.09   17.80
   2  -8  -4  115.89   18.20
   2  -8  -4  117.39   18.20
  -2   8   4  139.09   18.90
  -2   8   4  114.79   19.10
   1  -8  -4    9.30    4.60
   1  -8  -4    8.40    5.30
   1  -8  -4    7.00    4.40
   1  -8  -4    4.70    5.20
  -1   8   4    5.80    5.30
  -1   8   4   11.60    5.20
   0  -8  -4   11.90    5.20
   0  -8  -4    5.30    4.20
   0  -8  -4    5.10    4.10
   0  -8  -4    8.30    5.30
   0   8   4    0.70    4.50
   0   8   4   -1.90    4.60
  -1  -8  -4   17.80    6.30
  -1  -8  -4   20.30    5.70
  -1  -8  -4   16.50    5.10
   1   8   4   21.30    5.90
   1   8   4   21.60    7.30
  -2  -8  -4   28.10    6.40
  -2  -8  -4   28.20    6.40
   2   8   4   30.50    7.00
   2   8   4   23.60   11.70
   2   8   4   31.40    6.60
  -3  -8  -4   61.89    9.70
  -3  -8  -4   49.50   11.50
  -3  -8  -4   51.69    9.50
   3   8   4   52.49    9.50
   3   8   4   58.19    9.90
  -4  -8  -4    3.30    5.10
  -4  -8  -4    9.80    4.60
  -4  -8  -4    3.50    3.50
  -4  -8  -4    7.70    4.00
   4   8   4   -1.30    3.60
   4   8   4   17.40    4.90
  -5  -8  -4  129.99   17.20
  -5  -8  -4  119.19   20.10
  -5  -8  -4  123.79   18.70
  -5  -8  -4  134.29   17.90
   5   8   4  135.09   17.40
   5   8   4  128.59   18.80
  -6  -8  -4   12.50    5.50
  -6  -8  -4   10.80    4.80
  -6  -8  -4    7.50    7.40
  -6  -8  -4   18.20    4.70
   6   8   4   11.00    4.50
  -7  -8  -4   73.59   12.60
  -7  -8  -4   59.69   10.90
  -7  -8  -4   83.39   12.60
   7   8   4   82.19   11.50
  -8  -8  -4    9.30    5.00
  -8  -8  -4    7.10    4.30
  -8  -8  -4    8.60    5.70
   8   8   4    6.10    4.30
  -9  -8  -4    2.40    5.60
  -9  -8  -4    0.70    4.20
  -9  -8  -4    4.30    5.10
   9   8   4    1.70    4.30
 -10  -8  -4   37.60   10.50
 -10  -8  -4   62.59   11.70
 -10  -8  -4   47.60    9.10
  10   8   4   58.39    9.50
 -11  -8  -4    2.40    5.00
 -11  -8  -4    1.70    6.10
 -11  -8  -4    5.90    7.70
  11   8   4    5.80    5.00
 -12  -8  -4   -7.70    6.40
 -12  -8  -4    5.30    5.40
  12   8   4    3.70    5.20
 -13  -8  -4   -0.70    7.50
 -13  -8  -4    1.00    7.50
  13   8   4    6.20    5.80
   9  -9  -4    3.60    7.40
  -9   9   4    6.30    8.70
  -9   9   4   -5.80    8.70
   8  -9  -4   40.20   10.10
  -8   9   4   12.40    8.70
  -8   9   4  -11.00   12.10
   7  -9  -4    9.80    7.20
  -7   9   4    7.40    8.20
   6  -9  -4   14.70    7.50
  -6   9   4   27.90    9.00
  -6   9   4   25.20    9.00
   5  -9  -4   53.79   11.50
  -5   9   4   75.89   12.70
  -5   9   4   38.90   11.60
   4  -9  -4   14.80    7.40
   4  -9  -4   19.00    7.90
  -4   9   4   22.60    8.10
   3  -9  -4   74.29   12.50
   3  -9  -4   56.39   11.50
  -3   9   4   84.09   14.00
   2  -9  -4   21.50    6.50
   2  -9  -4    3.50    5.10
  -2   9   4   29.80    8.10
   1  -9  -4   85.49   13.40
   1  -9  -4   73.49   13.00
   1  -9  -4   67.79   12.30
   1  -9  -4   79.29   17.00
  -1   9   4   72.69   13.70
   0  -9  -4    1.80    4.60
   0  -9  -4    6.30    5.30
   0  -9  -4    2.20    5.70
   0  -9  -4    0.90    3.80
   0   9   4    4.20    5.20
   0   9   4    2.60    4.80
  -1  -9  -4    1.70    4.30
  -1  -9  -4   -2.00    3.60
  -1  -9  -4    1.20    4.50
  -1  -9  -4    5.70    5.20
   1   9   4    2.40    5.60
   1   9   4    3.20    4.70
  -2  -9  -4   93.99   13.70
  -2  -9  -4   90.39   13.60
  -2  -9  -4   77.89   14.70
   2   9   4   95.79   15.40
   2   9   4   91.29   14.00
   2   9   4   68.39   13.40
  -3  -9  -4    2.70    6.40
  -3  -9  -4   22.00    6.20
  -3  -9  -4   16.30    5.60
  -3  -9  -4   24.50    5.90
   3   9   4   34.20    7.10
  -4  -9  -4    4.40    4.20
  -4  -9  -4    0.00    4.20
  -4  -9  -4    6.40    6.40
   4   9   4   -0.30    4.60
  -5  -9  -4    9.00    6.40
  -5  -9  -4    2.10    4.30
  -5  -9  -4    6.80    3.90
  -5  -9  -4   -0.30    4.00
   5   9   4    4.30    4.40
  -6  -9  -4    9.70    4.90
  -6  -9  -4    9.20    6.20
  -6  -9  -4   19.00    5.30
   6   9   4    6.80    5.10
  -7  -9  -4   -4.40    3.80
  -7  -9  -4   -7.20    4.90
  -7  -9  -4   -1.90    3.80
   7   9   4    5.30    4.40
  -8  -9  -4   -3.30    5.50
  -8  -9  -4   -4.30    4.40
  -8  -9  -4    9.30    5.40
   8   9   4    4.50    4.80
  -9  -9  -4   -1.10    5.30
  -9  -9  -4    4.40    6.60
  -9  -9  -4    8.30    6.00
   9   9   4    5.70    5.30
 -10  -9  -4   35.90    8.90
 -10  -9  -4   45.30   10.00
 -10  -9  -4   31.00    8.80
  10   9   4   20.10    9.10
 -11  -9  -4   16.60    8.40
 -11  -9  -4   -1.70    4.60
 -11  -9  -4   -0.20    6.30
  11   9   4    1.50    8.80
 -12  -9  -4    2.30    7.80
 -12  -9  -4   -6.90    6.50
 -12  -9  -4   -1.10    4.60
  12   9   4   -4.70    5.80
   8 -10  -4   -4.80    7.10
  -8  10   4   12.00    9.20
  -8  10   4   -2.20    7.90
   7 -10  -4    5.30    7.10
  -7  10   4   -0.20    8.30
  -7  10   4   -7.40    7.20
   6 -10  -4  -10.60    5.60
   6 -10  -4    2.30    6.30
  -6  10   4    6.90    7.10
   5 -10  -4   22.20    7.90
   5 -10  -4   41.90    9.00
  -5  10   4   15.80    8.30
   4 -10  -4   79.99   13.20
   4 -10  -4   62.29   13.00
  -4  10   4   81.59   15.70
   3 -10  -4   20.30    7.70
   3 -10  -4   41.90    8.40
  -3  10   4   30.90   10.00
   2 -10  -4   10.40    5.80
   2 -10  -4   10.30    6.00
  -2  10   4    6.90    6.60
   1 -10  -4   -1.20    4.10
   1 -10  -4   -1.40    4.40
  -1  10   4    5.30    6.00
   0 -10  -4    1.30    4.30
   0 -10  -4    4.20    5.10
   0  10   4    4.70    6.20
  -1 -10  -4    0.60    4.30
  -1 -10  -4    6.10    4.90
   1  10   4   -2.30    5.50
  -2 -10  -4   12.10    5.70
  -2 -10  -4   16.00    5.80
   2  10   4   15.80    6.10
   2  10   4   15.80    7.60
  -3 -10  -4   17.50    5.90
  -3 -10  -4   14.60    5.90
  -3 -10  -4   24.90    7.20
   3  10   4   22.50    6.90
  -4 -10  -4    1.90    5.40
  -4 -10  -4   -2.90    3.90
  -4 -10  -4   -1.40    3.70
   4  10   4   -5.60    4.20
  -5 -10  -4    4.00    4.80
  -5 -10  -4    4.40    4.40
  -5 -10  -4    5.80    5.20
   5  10   4    4.00    5.00
  -6 -10  -4   -2.90    4.20
  -6 -10  -4   -3.60    4.50
  -6 -10  -4    5.80    5.50
   6  10   4    6.30    5.10
  -7 -10  -4   36.60    8.20
  -7 -10  -4   35.90    8.50
  -7 -10  -4   36.50    9.10
   7  10   4   47.30    8.80
  -8 -10  -4    3.00    4.50
  -8 -10  -4    0.30    4.40
  -8 -10  -4   22.60    7.20
   8  10   4    7.10    5.30
  -9 -10  -4    5.70    6.00
  -9 -10  -4   29.70    9.00
  -9 -10  -4   13.40    5.90
   9  10   4   14.30    6.70
 -10 -10  -4    9.70    6.40
 -10 -10  -4   27.80    8.00
 -10 -10  -4    9.60    7.20
  10  10   4   -1.30    6.00
 -11 -10  -4    1.60    5.30
 -11 -10  -4    1.00    6.40
  11  10   4   21.90    7.70
   7 -11  -4  -11.30    6.10
   7 -11  -4    4.70    7.40
  -7  11   4    4.20    7.30
   6 -11  -4    6.30    7.10
   6 -11  -4    6.40    6.80
  -6  11   4    6.10   18.40
   5 -11  -4   -4.30    5.60
   5 -11  -4    3.30    6.30
  -5  11   4   -2.70    7.90
   4 -11  -4   27.20    8.80
   4 -11  -4   40.80    9.40
  -4  11   4   47.60   11.90
   3 -11  -4    5.30    6.30
   3 -11  -4    5.50    6.10
  -3  11   4   -0.80    6.40
   2 -11  -4   35.80    8.80
   2 -11  -4   33.50    9.20
  -2  11   4   25.20    9.80
   1 -11  -4   30.80    8.10
   1 -11  -4   36.50    8.80
  -1  11   4   35.40   10.40
   0 -11  -4   -5.90    4.50
   0 -11  -4    2.70    4.80
   0  11   4   -6.40    5.90
  -1 -11  -4   12.20    5.20
  -1 -11  -4    2.70    5.20
   1  11   4   13.10    7.80
  -2 -11  -4   19.30    6.10
  -2 -11  -4   18.70    6.30
   2  11   4   20.50    8.00
  -3 -11  -4   30.20    8.20
  -3 -11  -4   33.60    8.90
  -3 -11  -4   36.50    8.10
  -4 -11  -4   32.50    7.10
  -4 -11  -4   14.10    6.40
  -4 -11  -4   19.10    5.90
  -5 -11  -4   24.40    7.00
  -5 -11  -4   20.50    7.20
  -5 -11  -4   22.60    6.60
  -6 -11  -4    9.80    6.60
  -6 -11  -4   -2.30    4.40
  -6 -11  -4   -1.00    4.10
  -7 -11  -4   29.10    7.80
  -7 -11  -4   26.70    7.70
  -7 -11  -4   12.90    6.40
  -8 -11  -4    4.80    6.20
  -8 -11  -4    5.80    5.40
  -8 -11  -4    6.90    5.60
  -9 -11  -4    8.60    6.50
  -9 -11  -4   15.70    6.10
  -9 -11  -4    3.40    6.60
 -10 -11  -4    4.00    5.70
 -10 -11  -4   28.80    9.00
 -10 -11  -4   25.60    8.90
 -11 -11  -4   -2.90    5.00
 -11 -11  -4   -2.10    6.20
   6 -12  -4   17.80    8.50
   6 -12  -4    7.20    7.70
  -6  12   4   10.40    9.90
   5 -12  -4    0.20    6.20
   5 -12  -4    2.30    6.80
  -5  12   4    3.60    9.30
   4 -12  -4   11.00    7.40
   4 -12  -4   13.50    7.40
   3 -12  -4    0.00    5.60
   3 -12  -4    8.20    6.50
  -3  12   4   13.50    7.80
   2 -12  -4    5.00    6.10
   2 -12  -4    1.80    5.60
  -2  12   4    9.20    7.30
   1 -12  -4   42.50    8.90
   1 -12  -4   18.50    7.40
  -1  12   4    8.90    8.10
   0 -12  -4    6.10    5.90
   0 -12  -4   19.00    6.90
   0  12   4    7.60    7.70
  -1 -12  -4    1.00    5.20
  -1 -12  -4   10.50    5.80
   1  12   4    9.70    7.80
  -2 -12  -4    4.40    4.90
  -2 -12  -4    9.30    5.10
   2  12   4    6.00    7.00
  -3 -12  -4   37.80    9.20
  -3 -12  -4   25.80    7.90
  -3 -12  -4   41.10    9.20
  -4 -12  -4    1.80    4.90
  -4 -12  -4   -4.30    4.50
  -4 -12  -4   -0.50    5.50
  -5 -12  -4    8.70    6.00
  -5 -12  -4   15.80    6.40
  -5 -12  -4   12.00    5.50
  -6 -12  -4   15.20    7.70
  -6 -12  -4   27.50    7.70
  -6 -12  -4   47.00    9.40
  -7 -12  -4    7.50    5.90
  -7 -12  -4   -3.50    5.80
  -8 -12  -4    0.90    5.90
  -8 -12  -4   14.00    7.10
  -8 -12  -4    1.80    5.50
  -9 -12  -4    4.70    6.70
  -9 -12  -4   -0.80    6.70
  -9 -12  -4   -3.90    5.10
 -10 -12  -4   17.40    8.70
 -10 -12  -4   -2.30    6.10
 -10 -12  -4   21.50    8.20
   5 -13  -4   17.60    8.80
   5 -13  -4   22.90    9.00
  -5  13   4   26.30   12.50
   4 -13  -4    7.40    9.50
   4 -13  -4   -0.30    6.60
  -4  13   4    8.70    7.70
   3 -13  -4    4.10    6.50
   3 -13  -4    5.10    6.20
  -3  13   4   -2.30    7.80
   2 -13  -4   17.80    7.70
   2 -13  -4   24.50    9.40
  -2  13   4   35.50   10.40
   1 -13  -4   33.70   10.00
   1 -13  -4   29.50    8.60
  -1  13   4   29.80   10.40
   0 -13  -4    0.00    5.60
   0 -13  -4    5.60    5.60
   0  13   4    5.50    8.10
  -1 -13  -4   17.30    7.20
  -1 -13  -4    8.10    6.60
   1  13   4    2.80    8.10
  -2 -13  -4   92.89   15.70
  -2 -13  -4  101.79   15.80
   2  13   4   70.09   16.60
  -3 -13  -4    6.90    6.50
  -3 -13  -4    3.20    6.10
  -3 -13  -4    3.20    6.30
  -4 -13  -4   29.80    8.40
  -4 -13  -4   19.40    7.70
  -4 -13  -4   27.40    8.60
  -5 -13  -4   -6.40    5.20
  -5 -13  -4    5.10    9.00
  -5 -13  -4   -6.00    4.90
  -6 -13  -4   10.50    6.50
  -6 -13  -4   14.60    6.80
  -6 -13  -4   25.90    8.50
  -7 -13  -4   32.20    8.90
  -7 -13  -4   34.30    9.90
  -7 -13  -4   31.10    8.60
  -8 -13  -4    0.20    6.20
  -8 -13  -4    8.10    7.20
  -8 -13  -4    6.50    7.10
   4 -14  -4   35.10   10.30
  -4  14   4   41.50   12.50
   3 -14  -4   -0.60    6.80
   3 -14  -4   17.60    8.80
  -3  14   4   -3.20    8.20
   2 -14  -4   16.90    8.40
   2 -14  -4   44.20   10.20
  -2  14   4   18.40   10.70
   1 -14  -4    2.80    6.70
   1 -14  -4   12.70    7.80
  -1  14   4   14.30   10.40
   0 -14  -4   18.00    7.30
   0  14   4   24.10   10.20
  -1 -14  -4   -0.80    5.90
   1  14   4   -5.10    7.60
  -2 -14  -4    4.60    7.60
  -3 -14  -4   72.89   14.50
  -3 -14  -4   58.39   12.80
  -3 -14  -4   70.29   13.20
  -4 -14  -4    9.50    6.70
  -4 -14  -4    3.30    6.60
  -4 -14  -4   -7.50    5.20
  -5 -14  -4   -7.00    6.00
  -5 -14  -4    2.90    6.10
  -5 -14  -4   -0.50    6.20
  -6 -14  -4    0.10    5.70
  -6 -14  -4   -3.60    5.20
  -6 -14  -4    8.40    7.50
  -7 -14  -4   36.10   10.70
  -7 -14  -4   39.50    9.80
   1 -15  -4   14.70    7.40
   1 -15  -4   10.10    7.90
  -1  15   4   43.60   13.10
   0 -15  -4   -1.90    5.50
   0 -15  -4   -0.80    6.70
   0  15   4   -6.60    8.50
  -1 -15  -4   -2.20    5.80
  -1 -15  -4    7.70    7.00
   1  15   4   -3.30    8.00
  -2 -15  -4   -5.00    6.50
  -2 -15  -4   -5.40    5.90
  -2 -15  -4    4.10    6.80
  -3 -15  -4   18.60    8.50
  -3 -15  -4   25.30    8.80
  -3 -15  -4   29.30   10.90
  -4 -15  -4   11.10    7.00
  -4 -15  -4    2.70    7.70
  -4 -15  -4    7.30    6.30
   1 -14   5   19.30    9.00
   2 -14   5   12.60   10.90
   2 -14   5    5.50    5.90
   2 -14   5   28.20    9.10
  -3 -13   5    7.20    7.90
  -3 -13   5   13.20    7.60
  -2 -13   5   -1.20    5.90
  -1 -13   5    5.40    7.40
  -1 -13   5    4.60    3.80
  -1 -13   5    5.40    7.70
  -1 -13   5    3.70    5.60
   0 -13   5   15.10    6.40
   0 -13   5    8.30    5.30
   0 -13   5    0.10    6.50
   0 -13   5   12.10    4.50
   1 -13   5  125.29   21.00
   1 -13   5  131.09   18.10
   1 -13   5  121.39   17.10
   1 -13   5  134.89   19.00
  -2  13  -5    6.50    6.40
   2 -13   5   -1.00    5.00
   2 -13   5    6.80    7.70
   2 -13   5   -4.00    6.40
  -3  13  -5    3.50    6.30
   3 -13   5   -0.20    4.40
   3 -13   5   16.50    8.80
   3 -13   5   19.50    8.00
   3 -13   5    4.20   10.40
  -4  13  -5   18.80    7.60
   4 -13   5   27.00    9.00
   4 -13   5   21.90    6.30
   4 -13   5    4.30    8.10
   4 -13   5   32.20    9.20
  -5  13  -5   25.80    9.80
   5 -13   5   49.10   15.00
   5 -13   5   26.50    9.00
  -6  13  -5   28.60   10.30
   6 -13   5   32.50    6.90
   6 -13   5    5.70    7.70
   6 -13   5   20.10    8.40
  -4 -12   5    1.80    6.40
  -4 -12   5    3.30    7.50
  -3 -12   5   49.30   11.50
  -3 -12   5   40.40   10.40
  -2 -12   5   -2.80    5.00
  -2 -12   5    0.60    6.40
  -1 -12   5    0.90    3.20
  -1 -12   5    4.10    5.60
  -1 -12   5    6.80    6.60
  -1 -12   5    8.50    5.30
   0 -12   5   26.60    5.70
   0 -12   5   19.90    5.90
   0 -12   5   21.80   10.10
   0 -12   5   20.40    5.90
   0 -12   5   36.80    7.60
  -1  12  -5   22.50    8.00
   1 -12   5   20.90    6.50
   1 -12   5   34.20    7.10
   1 -12   5   20.00   12.50
  -2  12  -5   73.39   11.80
  -2  12  -5   47.00   11.20
   2 -12   5   78.09   11.50
   2 -12   5   69.49   13.90
   2 -12   5   51.29   10.80
  -3  12  -5    2.30    5.10
   3 -12   5    1.20    5.70
   3 -12   5   -9.90    6.90
   3 -12   5   -0.90    6.30
   3 -12   5    1.50    4.70
  -4  12  -5    7.10    5.70
   4 -12   5   -1.90    7.10
   4 -12   5    6.30    4.40
   4 -12   5   -4.00    5.50
   4 -12   5   11.60    6.80
  -5  12  -5    5.00    6.40
   5 -12   5   -3.10    3.60
   5 -12   5    8.90   10.40
   5 -12   5    1.10    5.50
  -6  12  -5   43.30   11.30
   6 -12   5   54.89    9.20
   6 -12   5   53.29   10.30
   6 -12   5   67.49   15.90
  -7  12  -5    6.40    8.00
   7 -12   5    9.60    6.70
   7 -12   5   -4.50    3.50
   7 -12   5    7.50    6.40
  -8  12  -5    1.70    7.80
   8 -12   5   15.80    5.10
   8 -12   5    6.00    6.60
   8 -12   5    7.60    7.10
  -6 -11   5    3.20    3.90
  -6 -11   5   -4.60    6.00
  -6 -11   5    2.10    7.90
  -5 -11   5    3.00    7.20
  -5 -11   5   -1.20    5.90
  -4 -11   5    0.60    6.30
  -4 -11   5    4.20    6.50
  -3 -11   5   -3.70   11.40
  -3 -11   5   12.70    6.50
  -2 -11   5   16.60    8.00
  -2 -11   5   23.20    7.10
  -1 -11   5   -5.90    5.00
  -1 -11   5    4.40    5.10
  -1 -11   5    6.60    3.40
   0  11  -5    9.90    5.70
   0 -11   5    0.50    6.10
   0 -11   5   -1.30    6.50
   0 -11   5   -2.30    4.20
   0 -11   5   -1.80    6.60
   0 -11   5    5.50    3.00
  -1  11  -5    5.70    5.30
   1 -11   5    4.20    4.60
   1 -11   5    2.70    4.40
   1 -11   5    6.70    6.00
  -2  11  -5   70.29   11.60
  -2  11  -5   60.79   11.40
   2 -11   5   80.69   14.00
   2 -11   5   76.79   11.40
   2 -11   5   61.09   11.10
  -3  11  -5    0.40    4.50
   3 -11   5    3.20    3.70
   3 -11   5    4.20    5.80
   3 -11   5    0.90    5.80
   3 -11   5   -6.50    4.50
   4 -11   5   19.90    7.80
   4 -11   5   25.60    7.80
   4 -11   5   29.30    6.40
   4 -11   5   33.30    8.40
  -5  11  -5   73.69   16.00
   5 -11   5   87.59   17.00
   5 -11   5  110.69   14.80
   5 -11   5   95.29   16.70
   5 -11   5  144.69   16.20
  -6  11  -5   17.00    8.20
   6 -11   5   26.30    5.80
   6 -11   5   24.10    8.60
   6 -11   5   28.50    7.00
  -7  11  -5   -4.00    6.10
   7 -11   5   -2.20    3.20
   7 -11   5    3.80    5.40
   7 -11   5   -5.80    4.90
  -8  11  -5   13.10    8.20
   8 -11   5   -1.80    5.40
   8 -11   5    8.40    4.20
   8 -11   5   -3.20    5.80
  -9  11  -5   49.00   12.90
   9 -11   5   58.69   11.80
   9 -11   5   49.50    8.60
   9 -11   5   48.40    9.90
  -7 -10   5   -2.20    6.60
  -7 -10   5    6.30    5.10
  -7 -10   5   22.50    9.30
  -7 -10   5    6.60    5.20
  -6 -10   5   32.70    9.40
  -6 -10   5   24.70    5.70
  -6 -10   5   20.70    7.90
  -6 -10   5   43.10   16.10
  -5 -10   5    4.80    3.60
  -5 -10   5    3.90    3.70
  -5 -10   5    2.00    6.50
  -5 -10   5   -9.10    9.90
  -4 -10   5   18.00    7.90
  -4 -10   5   10.70    7.20
  -3 -10   5   -0.20    5.90
  -3 -10   5    6.70    6.40
  -2 -10   5   21.10    6.70
  -2 -10   5   27.40    8.90
   1  10  -5    3.20    4.60
  -1 -10   5   21.60    6.10
  -1 -10   5    2.20    6.00
   0  10  -5   11.90    5.50
   0 -10   5   16.90    5.40
   0 -10   5   10.90    6.20
   0 -10   5   13.60    3.50
   0 -10   5   12.30    3.90
  -1  10  -5   72.19   12.80
   1 -10   5   72.89   14.10
   1 -10   5   89.59   12.30
   1 -10   5   87.59   12.70
  -2  10  -5    3.60    4.50
  -2  10  -5    2.30    4.30
   2 -10   5    5.90    5.50
   2 -10   5    8.30    4.20
   2 -10   5    2.80    4.50
  -3  10  -5    5.80    4.80
   3 -10   5   -2.80    4.20
   3 -10   5    2.80    3.30
   3 -10   5    4.20    4.90
  -4  10  -5    1.30    4.50
   4 -10   5    1.90    5.80
   4 -10   5   -1.50    3.90
   4 -10   5    6.20    4.90
   4 -10   5    0.20    3.10
  -5  10  -5    3.50    5.80
   5 -10   5    1.20    2.90
   5 -10   5   -1.30    6.60
   5 -10   5   -5.80    4.20
   5 -10   5    1.90    4.40
  -6  10  -5    4.20    5.60
   6 -10   5    2.30    4.60
   6 -10   5    9.10    3.40
   6 -10   5   10.50    7.60
   6 -10   5   -0.90    5.00
  -7  10  -5   18.80    8.60
   7 -10   5   41.80    6.60
   7 -10   5   33.70    7.00
   7 -10   5   26.20    8.60
  -8  10  -5   28.00   10.80
   8 -10   5   32.10    6.00
   8 -10   5   38.30    9.00
   8 -10   5   20.70    6.50
  -9  10  -5   21.60    9.20
   9 -10   5   29.70    6.40
   9 -10   5   33.90    7.60
   9 -10   5   30.10    9.10
  10 -10   5   39.90    9.80
  10 -10   5   27.40    7.50
  10 -10   5   19.40    5.90
  -8  -9   5    1.20    7.70
  -8  -9   5    1.90    7.30
  -8  -9   5    0.70    7.40
  -8  -9   5    2.10    5.40
  -7  -9   5   -7.60    6.40
  -7  -9   5    4.80    5.80
  -7  -9   5   -3.90    4.70
  -7  -9   5    1.00    7.70
  -6  -9   5   13.30    7.60
  -6  -9   5   35.80    9.10
  -6  -9   5   18.30    5.60
  -6  -9   5   25.20    5.60
  -5  -9   5    4.10    6.00
  -5  -9   5    0.20    3.50
  -5  -9   5    6.60    6.40
  -5  -9   5    3.40    4.00
  -4  -9   5   11.60    6.30
  -4  -9   5   13.60    6.50
  -3  -9   5   32.30    8.20
  -3  -9   5   34.70    9.10
   2   9  -5    9.80    5.20
  -2  -9   5    2.00    4.80
  -2  -9   5   -1.60    5.00
   1   9  -5    6.00    4.90
  -1  -9   5   12.00    4.80
  -1  -9   5   11.90    6.30
   0   9  -5    3.80    3.90
   0  -9   5    5.60    3.00
   0  -9   5    4.70    5.60
   0  -9   5    3.80    2.50
   0  -9   5    5.30    4.10
  -1   9  -5  116.99   15.80
  -1   9  -5  114.39   15.20
   1  -9   5  111.39   15.50
   1  -9   5  112.59   15.00
   1  -9   5  143.39   18.90
  -2   9  -5   55.29    9.40
  -2   9  -5   46.00    9.10
   2  -9   5   54.49    9.00
   2  -9   5   60.29   11.00
   2  -9   5   77.89    9.80
  -3   9  -5   18.90    6.20
   3  -9   5   17.70    6.60
   3  -9   5   31.00    5.70
   3  -9   5   30.70    6.60
  -4   9  -5   27.90    7.10
   4  -9   5   35.10    8.00
   4  -9   5   12.20    6.40
   4  -9   5   26.20    5.20
   4  -9   5   29.30    6.20
  -5   9  -5    1.60    5.20
   5  -9   5    7.90    5.10
   5  -9   5    5.70    5.60
   5  -9   5    1.70    2.80
   5  -9   5   -2.00    3.60
  -6   9  -5  159.98   21.90
   6  -9   5  158.88   18.60
   6  -9   5  133.39   20.80
   6  -9   5  128.19   18.90
   6  -9   5  155.78   20.30
  -7   9  -5   -3.00    5.70
   7  -9   5    4.00    3.00
   7  -9   5   -0.50    4.70
   7  -9   5    4.20    4.20
  -8   9  -5    7.10    7.50
   8  -9   5   11.00    3.70
   8  -9   5    2.90    4.60
   8  -9   5    3.40    5.50
   9  -9   5   63.49   11.50
   9  -9   5   62.69    9.90
   9  -9   5   51.69    9.20
 -10   9  -5   -1.70    7.50
  10  -9   5   11.10    4.70
  10  -9   5    6.20    6.40
  10  -9   5   11.70    6.00
 -11   9  -5   12.00    9.60
  11  -9   5    7.00    5.20
  11  -9   5   -0.30    5.70
  11  -9   5    0.90    5.80
  -8  -8   5   -7.80    7.50
  -8  -8   5   -2.90    5.10
  -8  -8   5   -2.80    7.10
  -7  -8   5   16.80    9.10
  -7  -8   5   25.00    8.30
  -7  -8   5    9.70    5.50
  -6  -8   5    5.80    4.60
  -6  -8   5   -2.80    5.30
  -6  -8   5   -1.50    4.50
  -6  -8   5   -1.30    6.50
  -5  -8   5   42.30    9.90
  -5  -8   5   37.10   10.00
  -5  -8   5   49.50    7.30
  -4  -8   5   10.20    6.10
  -4  -8   5    3.50    5.10
  -4  -8   5    2.60    3.10
   3   8  -5   54.89   10.30
  -3  -8   5   48.70   10.90
  -3  -8   5   64.49   10.60
   2   8  -5   55.29    9.80
  -2  -8   5   52.49   11.00
  -2  -8   5   62.49   10.30
   1   8  -5   31.30    7.00
  -1  -8   5   36.10    8.60
  -1  -8   5   37.00    7.30
   0   8  -5    2.60    3.40
   0  -8   5    3.80    4.50
   0  -8   5   -2.30    3.40
  -1   8  -5    0.80    3.20
  -1   8  -5    3.40    3.00
   1  -8   5    6.60    3.50
   1  -8   5    2.50    2.80
   1  -8   5    4.20    4.20
  -2   8  -5  172.58   21.50
  -2   8  -5  167.58   21.50
  -2   8  -5  206.68   26.20
   2  -8   5  165.38   22.60
   2  -8   5  161.28   21.30
  -3   8  -5   16.80    5.00
   3  -8   5    9.20    4.70
   3  -8   5   21.90    4.00
   3  -8   5   19.10    5.40
  -4   8  -5   36.50    7.10
  -4   8  -5   23.60    6.00
   4  -8   5   15.50    4.00
   4  -8   5   25.00    6.50
   4  -8   5   10.30    5.30
  -5   8  -5   99.59   14.60
  -5   8  -5   90.29   13.90
   5  -8   5   93.69   11.90
   5  -8   5   73.29   13.00
   5  -8   5  110.29   14.60
   5  -8   5   72.79   10.90
  -6   8  -5   39.70   10.80
  -6   8  -5   59.79   11.30
   6  -8   5   65.19   11.20
   6  -8   5   61.09    8.90
   6  -8   5   64.39    8.70
  -7   8  -5   46.40   10.60
   7  -8   5   57.89   11.20
   7  -8   5   57.09   10.00
   7  -8   5   53.29    7.90
  -8   8  -5   12.70    7.20
   8  -8   5    3.30    3.10
   8  -8   5   -4.30    3.70
   8  -8   5   11.40    5.60
  -9   8  -5   63.99   16.00
   9  -8   5  113.79   16.30
   9  -8   5  102.79   13.70
   9  -8   5  101.09   14.00
 -10   8  -5    3.10    7.50
  10  -8   5    8.80    5.50
  10  -8   5   13.60    5.90
  10  -8   5   11.70    4.80
  11  -8   5   47.10    9.40
  11  -8   5   43.30    8.60
  11  -8   5   50.19   10.40
 -12   8  -5   -3.20    8.30
  12  -8   5    2.00    5.50
   9   7  -5    2.90    7.60
  -9  -7   5    0.10    6.60
  -9  -7   5    8.90    6.50
  -9  -7   5    5.20    7.10
   8   7  -5    0.20    5.90
  -8  -7   5   -1.90    6.40
  -8  -7   5    2.70    5.10
  -8  -7   5    2.40    7.20
   7   7  -5    6.70    5.70
  -7  -7   5   -2.30    6.50
  -7  -7   5    5.40    6.40
  -7  -7   5    2.00    4.80
  -6  -7   5   16.50    7.60
  -6  -7   5    8.60    6.90
  -6  -7   5   22.40    5.40
  -5  -7   5   -0.10    3.60
  -5  -7   5    0.80    5.50
  -5  -7   5   -1.10    4.80
  -4  -7   5   16.30    3.90
  -4  -7   5   15.70    6.10
  -4  -7   5   20.10    3.90
  -4  -7   5   14.10    6.20
   3   7  -5    1.20    4.40
  -3  -7   5   13.70    5.60
  -3  -7   5    9.20    5.60
   2   7  -5   59.29   10.70
  -2  -7   5   71.29   12.10
  -2  -7   5   80.59   12.00
   1   7  -5   37.10    7.70
   1   7  -5   20.90    6.10
  -1  -7   5   31.00    7.60
  -1  -7   5   45.30    7.50
   0   7  -5    1.10    4.30
   0   7  -5    3.30    3.10
   0  -7   5    0.30    3.00
   0  -7   5    0.50    4.40
  -1   7  -5   50.89    8.90
  -1   7  -5   35.80    6.00
  -1   7  -5   38.70    6.70
   1  -7   5   43.60    8.50
   1  -7   5   37.20    5.80
   1  -7   5   41.80    6.90
  -2   7  -5   -0.10    3.20
  -2   7  -5    0.50    2.60
  -2   7  -5    4.80    3.80
   2  -7   5    9.10    3.20
   2  -7   5   -3.00    4.00
   2  -7   5    7.80    2.90
  -3   7  -5   68.89   11.10
  -3   7  -5   69.59    9.00
  -3   7  -5   53.19    9.50
   3  -7   5   65.09    8.80
   3  -7   5   49.10   10.20
   3  -7   5   60.79    9.30
  -4   7  -5   14.60    5.00
  -4   7  -5   16.00    5.50
   4  -7   5   13.70    3.60
   4  -7   5   12.80    5.20
   4  -7   5    5.80    4.50
   4  -7   5   12.60    2.90
  -5   7  -5   93.79   13.10
  -5   7  -5   82.09   12.20
   5  -7   5   84.49   12.30
   5  -7   5   73.99   11.50
   5  -7   5   63.99    9.50
   5  -7   5   69.09    9.30
  -6   7  -5    9.80    6.30
  -6   7  -5   10.70    5.40
   6  -7   5   15.70    3.60
   6  -7   5    4.60    5.90
   6  -7   5   11.20    5.00
   6  -7   5   16.40    3.10
  -7   7  -5   68.49   11.60
  -7   7  -5   49.80   10.30
   7  -7   5   48.70    7.80
   7  -7   5   59.09   11.20
   7  -7   5   58.69    7.80
   7  -7   5   46.20    9.40
  -8   7  -5    4.20    5.50
  -8   7  -5   -7.60    5.80
   8  -7   5    4.70    3.10
   8  -7   5   10.20    5.90
   8  -7   5    9.20    4.90
  -9   7  -5   26.90    7.70
  -9   7  -5   27.00    8.70
   9  -7   5   22.40    6.40
   9  -7   5   22.30    5.70
   9  -7   5   18.90    5.00
 -10   7  -5   26.90    8.80
 -10   7  -5   27.70   10.10
  10  -7   5   36.50    6.90
  10  -7   5   38.20    8.30
 -11   7  -5   -3.90    5.10
 -11   7  -5    5.00    8.30
  11  -7   5   -1.00    4.90
  11  -7   5   -1.50    4.50
 -12   7  -5   -1.80    9.80
 -12   7  -5   27.70    9.70
  12  -7   5    2.60    5.40
  12  -7   5    1.40   10.30
   9   6  -5   -5.10    7.70
  -9  -6   5   -4.00    6.20
  -9  -6   5    8.20    6.30
  -9  -6   5   -3.50    6.80
   8   6  -5    2.70    6.80
  -8  -6   5   -1.20    8.60
  -8  -6   5    1.80    5.80
  -8  -6   5   -2.30    5.60
   7   6  -5    0.90    5.30
  -7  -6   5   -4.40    4.40
  -7  -6   5   -3.10    6.10
  -7  -6   5   -2.80    4.30
   6   6  -5   24.10    6.00
  -6  -6   5   15.80    7.70
  -6  -6   5   20.10    7.90
  -6  -6   5   22.60    5.70
   5   6  -5    9.50    4.20
  -5  -6   5   -0.80    5.60
  -5  -6   5    7.90    3.90
  -5  -6   5   10.40    6.00
   4   6  -5    7.40    5.40
  -4  -6   5   -3.60    4.30
  -4  -6   5    5.30    4.70
  -4  -6   5    6.20    3.20
   3   6  -5   75.29   12.80
  -3  -6   5  112.59   14.10
  -3  -6   5   70.89   13.10
   2   6  -5   11.00    4.50
   2   6  -5   11.20    5.10
  -2  -6   5   14.00    4.60
  -2  -6   5   12.90    5.70
   1   6  -5   26.40    7.00
   1   6  -5   37.10    6.80
  -1  -6   5   48.20    7.40
  -1  -6   5   32.40    7.40
   0   6  -5    2.50    3.00
   0   6  -5    4.50    4.00
   0  -6   5   -0.20    3.70
   0  -6   5   -2.00    3.10
  -1   6  -5  587.44   69.39
  -1   6  -5  573.14   70.19
   1  -6   5  566.94   69.39
   1  -6   5  574.84   68.69
   1  -6   5  560.24   72.59
  -2   6  -5   83.39   10.80
  -2   6  -5   70.89   10.20
  -2   6  -5   77.89   12.40
   2  -6   5   89.19   12.50
   2  -6   5   84.89   10.80
   2  -6   5   68.89   10.10
  -3   6  -5  211.98   27.40
  -3   6  -5  233.08   27.00
  -3   6  -5  226.08   28.20
   3  -6   5  212.28   26.90
   3  -6   5  224.08   28.10
  -4   6  -5   19.40    5.50
  -4   6  -5   34.30    6.30
   4  -6   5   16.60    3.60
   4  -6   5   11.90    4.90
   4  -6   5   20.70    5.50
   4  -6   5   24.40    3.70
  -5   6  -5   70.19   10.70
  -5   6  -5   64.49   10.80
   5  -6   5   53.39    8.50
   5  -6   5   66.29   10.40
   5  -6   5   62.69   10.20
  -6   6  -5  212.38   27.60
  -6   6  -5  204.58   27.10
   6  -6   5  216.68   27.00
   6  -6   5  225.28   26.00
   6  -6   5  199.48   25.80
   6  -6   5  221.68   27.40
  -7   6  -5   -3.30    4.30
  -7   6  -5   -0.60    5.50
   7  -6   5    1.00    2.30
   7  -6   5    6.20    4.50
   7  -6   5    3.70    5.60
   7  -6   5    0.70    2.70
  -8   6  -5   -6.70    5.20
  -8   6  -5    5.10    4.50
   8  -6   5    4.80    3.00
   8  -6   5    8.00    4.70
   8  -6   5    9.60    6.60
   8  -6   5    2.20    3.80
  -9   6  -5   -0.70    5.90
  -9   6  -5    1.00    6.30
  -9   6  -5   -1.20    4.20
   9  -6   5   -0.30    3.40
 -10   6  -5   60.69   12.30
 -10   6  -5   50.99    9.40
 -10   6  -5   35.50    8.20
  10  -6   5   40.70    8.10
  10  -6   5   52.29    8.90
 -11   6  -5    2.70    5.90
 -11   6  -5   16.60    8.60
 -11   6  -5    9.00    6.50
  11  -6   5    7.90    5.40
  11  -6   5   13.00    5.20
 -12   6  -5   -4.80   10.60
 -12   6  -5   -5.60    7.90
  12  -6   5    1.00    4.40
  12  -6   5   -2.70    7.40
 -13   6  -5   -3.80    6.50
 -13   6  -5   18.10   10.00
  13  -6   5    4.40    7.00
  13  -6   5   11.00    5.60
 -10  -5   5   18.90    8.00
 -10  -5   5    5.20    8.70
 -10  -5   5   22.20    9.50
   9   5  -5   -5.10    9.80
  -9  -5   5    0.40    7.20
  -9  -5   5    0.90    5.90
  -9  -5   5   25.20    9.10
   8   5  -5    1.20    6.90
  -8  -5   5    5.70    6.90
  -8  -5   5    3.50    9.60
  -8  -5   5   10.00    6.60
   7   5  -5   18.50    6.80
  -7  -5   5   34.60    8.20
  -7  -5   5   16.80    7.30
  -7  -5   5   17.40    6.10
   6   5  -5    2.80    4.60
  -6  -5   5    4.80    4.50
  -6  -5   5    9.50    6.00
  -6  -5   5    0.50    4.80
   5   5  -5   45.40    8.30
  -5  -5   5   59.79   11.00
  -5  -5   5   59.79    8.70
  -5  -5   5   56.19   10.40
   4   5  -5    0.80    2.90
   4   5  -5    6.30    4.80
  -4  -5   5   13.20    3.60
  -4  -5   5   12.30    5.30
  -4  -5   5    3.10    4.00
   3   5  -5  148.39   19.30
   3   5  -5  154.58   19.90
  -3  -5   5  106.79   19.80
  -3  -5   5  165.18   19.80
   2   5  -5   46.90    9.50
   2   5  -5   52.09    9.10
  -2  -5   5   74.59    9.90
  -2  -5   5   40.00    8.70
   1   5  -5   45.50    9.00
   1   5  -5   50.59    8.20
  -1  -5   5   53.19    8.60
  -1  -5   5   48.80   10.30
   0   5  -5   10.30    3.60
   0   5  -5    8.00    4.40
   0  -5   5   19.70    4.40
   0  -5   5   18.30    5.10
  -1   5  -5   32.00    6.60
  -1   5  -5   32.20    6.40
   1  -5   5   15.60    5.80
   1  -5   5   26.70    5.10
  -2   5  -5  335.47   40.60
  -2   5  -5  345.37   41.50
  -2   5  -5  325.07   40.60
   2  -5   5  327.87   40.60
   2  -5   5  339.37   41.50
   2  -5   5  344.07   40.50
  -3   5  -5   -2.00    2.90
  -3   5  -5    0.80    3.40
  -3   5  -5   -1.40    1.80
   3  -5   5    5.20    2.80
   3  -5   5   11.50    4.10
  -4   5  -5   -3.40    3.10
  -4   5  -5   11.90    4.20
   4  -5   5    1.50    3.40
   4  -5   5    2.10    3.50
  -5   5  -5   70.79   10.40
  -5   5  -5   55.29    9.40
   5  -5   5   49.70    9.40
   5  -5   5   56.99    9.40
  -6   5  -5   88.59   16.00
  -6   5  -5  127.99   16.00
   6  -5   5  131.09   16.50
   6  -5   5  100.39   15.30
  -7   5  -5   36.00    7.40
   7  -5   5   29.00    7.80
   7  -5   5   40.50    7.30
   7  -5   5   36.20    5.50
  -8   5  -5    2.00    3.90
  -8   5  -5    1.30    3.40
  -8   5  -5    1.70    5.70
   8  -5   5   -2.20    3.40
   8  -5   5   -2.60    2.70
   8  -5   5    4.50    5.70
  -9   5  -5  117.09   17.20
  -9   5  -5  126.19   20.00
  -9   5  -5  128.79   17.60
   9  -5   5  131.89   16.70
   9  -5   5  142.59   17.40
 -10   5  -5    2.60    4.80
 -10   5  -5    2.10    6.90
 -10   5  -5    4.30    4.70
  10  -5   5    2.50    3.80
  10  -5   5   -1.70    3.40
 -11   5  -5   50.89   12.50
 -11   5  -5   44.90    9.50
 -11   5  -5   48.10    9.60
  11  -5   5   56.09    9.10
  11  -5   5   47.30    9.00
 -12   5  -5    4.00    6.30
 -12   5  -5  -17.50   10.60
 -13   5  -5   -0.70    8.70
 -13   5  -5   19.20    7.60
  13  -5   5   18.70    7.40
  13  -5   5    6.40    7.20
  13  -5   5   14.40    5.80
 -10  -4   5    3.20    7.00
 -10  -4   5    3.10    8.40
 -10  -4   5   -7.30    6.70
  -9  -4   5   11.50    8.10
  -9  -4   5   14.10    7.40
  -9  -4   5   18.20    8.40
   8   4  -5    2.30    6.40
  -8  -4   5    6.70    5.50
  -8  -4   5   -4.30    5.90
  -8  -4   5    1.70    6.30
   7   4  -5    5.90    5.50
  -7  -4   5    9.10    6.50
  -7  -4   5    9.60    5.10
  -7  -4   5   17.20    7.50
   6   4  -5   14.00    5.50
  -6  -4   5   24.00    7.00
  -6  -4   5   23.00    5.70
  -6  -4   5   26.90    7.20
   5   4  -5   25.30    5.40
  -5  -4   5   13.30    5.80
  -5  -4   5   21.20    5.50
  -5  -4   5   26.20    7.10
   4   4  -5    0.30    4.10
   4   4  -5   -3.00    3.80
   4   4  -5   12.70    5.60
  -4  -4   5   -2.90    4.00
  -4  -4   5    7.80    5.00
  -4  -4   5   -1.80    3.00
   3   4  -5    3.30    3.90
   3   4  -5    3.10    2.50
   3   4  -5    9.60    5.10
  -3  -4   5    5.50    2.70
  -3  -4   5    6.90    4.10
  -3  -4   5    5.80    4.50
   2   4  -5  148.29   17.80
   2   4  -5  128.89   18.20
  -2  -4   5  136.09   18.30
  -2  -4   5  125.69   17.90
   1   4  -5    2.10    3.40
   1   4  -5    1.00    3.00
  -1  -4   5    9.50    4.10
  -1  -4   5    7.20    3.80
   0   4  -5   26.20    5.20
   0   4  -5   27.10    6.20
   0  -4   5   24.00    6.40
   0  -4   5   34.00    5.70
  -1   4  -5   48.10    7.20
  -1   4  -5   50.39    8.60
   1  -4   5   43.20    8.20
   1  -4   5   53.29    7.50
  -2   4  -5  159.08   19.00
  -2   4  -5  144.79   18.00
  -2   4  -5  136.39   18.10
   2  -4   5  151.28   19.10
   2  -4   5  140.79   18.10
   2  -4   5  157.08   18.10
  -3   4  -5   82.09   10.30
  -3   4  -5   56.49   10.40
   3  -4   5   55.69   10.40
   3  -4   5   83.99   10.10
  -4   4  -5   17.50    4.60
  -4   4  -5    8.90    3.60
   4  -4   5   10.80    4.00
   4  -4   5   10.10    3.90
  -5   4  -5   70.99   10.10
  -5   4  -5   53.59   10.30
   5  -4   5   55.29    9.60
   5  -4   5   84.59   10.70
  -6   4  -5    1.50    4.30
  -6   4  -5   -4.50    2.80
   6  -4   5    2.60    4.20
   6  -4   5   -3.80    2.50
  -7   4  -5   48.20    7.50
  -7   4  -5   65.59    9.00
  -7   4  -5   52.19   10.10
   7  -4   5   54.59    7.30
   7  -4   5   49.80    8.30
   7  -4   5   49.70    9.50
  -8   4  -5    3.70    3.80
  -8   4  -5    0.70    3.30
  -8   4  -5   -3.50    5.00
   8  -4   5    4.00    5.40
   8  -4   5    6.80    2.70
   8  -4   5    6.90    3.50
  -9   4  -5  131.69   19.10
  -9   4  -5  109.79   16.30
  -9   4  -5  108.29   16.50
   9  -4   5  129.19   16.10
   9  -4   5  145.19   16.50
 -10   4  -5   55.09   11.80
 -10   4  -5   82.79   14.90
 -10   4  -5   94.69   12.70
  10  -4   5   99.79   11.80
  10  -4   5   83.09   12.00
 -11   4  -5    6.60    7.50
 -11   4  -5    7.40    6.00
  11  -4   5    9.90    4.20
  11  -4   5    4.50    4.60
  11  -4   5    2.80    4.80
 -12   4  -5   11.90    8.60
 -12   4  -5   -2.10    6.40
  12  -4   5   -0.20    5.50
  12  -4   5    0.90    4.10
  12  -4   5    5.10    5.50
 -13   4  -5    3.20    8.40
 -13   4  -5   -7.90    6.80
  13  -4   5   -1.50    5.70
  13  -4   5    3.70    4.50
  13  -4   5    1.40    6.20
 -14   4  -5   -1.50    8.90
 -14   4  -5   11.50    8.30
  14  -4   5   22.10    6.80
  14  -4   5    4.90    6.90
 -10  -3   5   26.80   14.90
 -10  -3   5   11.80    7.20
 -10  -3   5    7.70    7.80
  -9  -3   5   -6.60    6.30
  -9  -3   5    4.80   13.00
  -9  -3   5   -5.00    5.50
   8   3  -5    9.30    7.10
  -8  -3   5   20.40    8.00
  -8  -3   5   18.60    7.90
  -8  -3   5   18.70    7.50
   7   3  -5   -3.50    5.20
  -7  -3   5   19.20    6.80
  -7  -3   5   -6.30    5.50
  -7  -3   5    0.00    5.20
   6   3  -5   28.90    6.80
  -6  -3   5   11.40    6.80
  -6  -3   5   27.00    7.20
  -6  -3   5   29.50    7.00
   5   3  -5   40.80    8.10
   5   3  -5   49.10    9.70
   5   3  -5   44.10    9.70
  -5  -3   5   50.09    9.80
  -5  -3   5   38.50    9.20
  -5  -3   5   63.49    8.80
   4   3  -5   64.69    8.20
   4   3  -5   61.19   10.10
   4   3  -5   43.70    9.10
  -4  -3   5   38.30    8.70
  -4  -3   5   54.39    9.40
  -4  -3   5   37.70    7.80
   3   3  -5    0.00    3.60
   3   3  -5    1.20    4.50
   3   3  -5   -5.80    2.50
  -3  -3   5   -3.60    3.50
  -3  -3   5    2.80    7.20
  -3  -3   5   -4.60    2.80
   2   3  -5   12.70    4.10
   2   3  -5    5.70    2.40
   2   3  -5   14.90    5.00
  -2  -3   5   10.50    4.30
  -2  -3   5    6.10    4.50
   1   3  -5   29.60    5.90
   1   3  -5   47.80    7.80
  -1  -3   5   20.60    6.10
  -1  -3   5   36.20    6.30
   0   3  -5   15.30    3.60
   0   3  -5    6.40    3.90
   0  -3   5   10.30    4.10
   0  -3   5    3.80    3.40
  -1   3  -5   15.10    5.50
  -1   3  -5   29.90    4.70
   1  -3   5   32.80    6.10
   1  -3   5   27.10    5.00
  -2   3  -5   83.39   10.50
  -2   3  -5   76.19   10.20
  -2   3  -5   79.19   11.80
   2  -3   5   74.99   10.40
   2  -3   5  104.69   12.30
   2  -3   5   87.79   11.20
  -3   3  -5   50.89    8.70
  -3   3  -5   57.39    9.30
   3  -3   5   67.39    9.50
   3  -3   5   71.69    8.90
  -4   3  -5    2.10    6.90
  -4   3  -5   -0.50    2.70
   4  -3   5    1.60    2.70
   4  -3   5    3.60    2.90
  -5   3  -5   49.50    7.30
  -5   3  -5   29.40    7.60
   5  -3   5   52.79    8.00
   5  -3   5   48.30    7.30
  -6   3  -5   83.49   11.40
  -6   3  -5   93.29   12.00
  -6   3  -5   89.19   13.70
   6  -3   5   87.19   11.10
   6  -3   5   95.99   12.00
   6  -3   5  122.79   14.10
  -7   3  -5    0.60    4.60
  -7   3  -5    4.80    2.90
  -7   3  -5    5.30    3.30
   7  -3   5    4.90    4.70
   7  -3   5    7.90    3.10
   7  -3   5    2.90    2.20
  -8   3  -5    6.00    3.60
  -8   3  -5   -6.10    4.70
  -8   3  -5   -0.40    3.10
   8  -3   5    2.00    2.80
   8  -3   5   -0.50    4.70
  -9   3  -5    1.10    3.50
  -9   3  -5    4.60    5.80
  -9   3  -5    1.20    4.30
   9  -3   5    0.50    2.60
   9  -3   5   -3.60    2.60
 -10   3  -5   17.00    6.00
 -10   3  -5   18.60    7.80
  10  -3   5   15.80    4.40
  10  -3   5   19.00    4.70
 -11   3  -5    2.60    5.50
 -11   3  -5    7.60    7.20
  11  -3   5    4.10    3.40
  11  -3   5    1.00    4.30
  11  -3   5    9.10    4.80
 -12   3  -5    0.50    7.00
 -12   3  -5   -7.30    6.40
  12  -3   5   -1.20    3.20
  12  -3   5   -4.20    4.60
  12  -3   5    1.50    4.70
 -13   3  -5   -4.00    8.00
 -13   3  -5   -1.40    6.70
  13  -3   5    7.20    4.60
  13  -3   5    5.60    5.10
 -14   3  -5   10.00    8.20
 -14   3  -5    2.20    8.50
  14  -3   5    8.60    6.50
  14  -3   5   18.30    5.30
 -10  -2   5    7.40    7.30
 -10  -2   5   22.10    8.60
 -10  -2   5   -6.80    7.30
  -9  -2   5   17.30    8.00
  -9  -2   5   16.00    8.30
  -9  -2   5   11.50    7.60
   8   2  -5   -8.80    6.20
  -8  -2   5    2.10    5.90
  -8  -2   5    1.80    7.00
  -8  -2   5    0.20    6.20
   7   2  -5   13.40    7.50
  -7  -2   5   10.50    6.50
  -7  -2   5   -3.50    5.70
  -7  -2   5   -4.80    5.50
   6   2  -5   11.70    5.80
  -6  -2   5   13.20    6.20
  -6  -2   5   14.40    6.60
  -6  -2   5   14.90    5.40
   5   2  -5   81.29   12.70
   5   2  -5   87.79   11.90
   5   2  -5   55.69   12.00
  -5  -2   5   96.99   13.50
  -5  -2   5   73.19   12.50
  -5  -2   5   63.59   11.30
   4   2  -5    3.70    4.10
   4   2  -5    5.10    8.20
   4   2  -5    5.90    5.10
  -4  -2   5    4.60    4.00
  -4  -2   5   10.60    6.40
  -4  -2   5    4.20    4.60
   3   2  -5  178.28   21.80
   3   2  -5  157.98   22.80
   3   2  -5  163.98   22.70
  -3  -2   5  180.28   21.90
  -3  -2   5  167.88   22.70
  -3  -2   5  188.98   22.90
   2   2  -5    4.00    4.10
   2   2  -5    8.20    3.00
   2   2  -5    2.10    4.40
  -2  -2   5    3.60    2.70
  -2  -2   5    3.00    4.00
  -2  -2   5    5.50    4.30
   1   2  -5  255.47   31.90
   1   2  -5  265.97   31.60
  -1  -2   5  272.47   31.00
  -1  -2   5  237.08   31.50
  -1  -2   5  229.58   31.70
   0   2  -5   20.90    3.70
   0   2  -5   18.70    5.60
   0   2  -5   23.30    5.30
   0   2  -5   26.40    3.70
   0  -2   5   32.00    5.40
   0  -2   5   29.30    5.80
  -1   2  -5    9.40    2.50
  -1   2  -5    9.10    2.50
  -1   2  -5    7.80    3.70
  -1   2  -5    3.40    3.20
   1  -2   5    5.50    3.50
   1  -2   5    7.40    3.30
  -2   2  -5   69.69    9.80
  -2   2  -5   87.49   10.50
  -2   2  -5   96.69   11.50
   2  -2   5   71.39   10.00
   2  -2   5   81.59   11.20
  -3   2  -5   39.10    7.20
  -3   2  -5   51.99    7.40
   3  -2   5   51.49    7.20
   3  -2   5   44.80    7.30
  -4   2  -5   22.10    5.00
  -4   2  -5   22.40    4.10
   4  -2   5   15.90    4.30
   4  -2   5   12.50    3.70
  -5   2  -5   55.99    8.90
  -5   2  -5   49.70    7.60
   5  -2   5   58.39    8.80
   5  -2   5   49.10    7.50
  -6   2  -5  230.38   28.50
  -6   2  -5  208.48   29.50
  -6   2  -5  235.48   28.70
   6  -2   5  235.68   28.70
   6  -2   5  234.78   29.50
   6  -2   5  246.78   28.40
  -7   2  -5   65.99    9.90
  -7   2  -5   63.89    9.30
  -7   2  -5   65.79   11.70
   7  -2   5   71.09   11.30
   7  -2   5   71.89    9.10
   7  -2   5   73.49    9.30
  -8   2  -5   10.30    4.10
  -8   2  -5    9.90    5.40
  -8   2  -5    7.60    3.20
   8  -2   5    4.40    2.70
   8  -2   5   10.20    5.30
   8  -2   5    7.60    3.00
  -9   2  -5   41.50    7.60
  -9   2  -5   27.50    8.90
   9  -2   5   36.90    6.50
   9  -2   5   40.70    6.10
   9  -2   5   36.30    8.70
 -10   2  -5    5.00    6.40
 -10   2  -5    7.20    4.80
  10  -2   5   -0.10    2.50
  10  -2   5    0.10    4.30
  10  -2   5   -4.70    3.40
 -11   2  -5   60.19   10.40
 -11   2  -5   63.09   12.10
  11  -2   5   48.70    8.10
  11  -2   5   61.69    9.80
  11  -2   5   56.69    8.90
 -12   2  -5   30.20    9.60
 -12   2  -5   34.50    8.40
  12  -2   5   43.60    8.50
  12  -2   5   37.00    6.30
  12  -2   5   30.50    6.50
 -13   2  -5    6.10    7.90
 -13   2  -5    1.20    7.30
  13  -2   5   11.80    4.90
  13  -2   5    7.40    3.90
 -14   2  -5    4.50    9.00
 -14   2  -5   11.00    8.70
  14  -2   5   -1.40    3.80
  14  -2   5   -0.40    4.50
 -11  -1   5   11.70    9.30
 -11  -1   5    3.10    8.00
 -10  -1   5   14.10    8.40
 -10  -1   5   -5.80    8.20
 -10  -1   5   17.10    8.30
  -9  -1   5   47.10   11.10
  -9  -1   5   27.90    9.90
  -9  -1   5   55.39   10.80
   8   1  -5   -3.90    8.00
  -8  -1   5   -4.60    5.60
  -8  -1   5    7.20    5.90
  -8  -1   5   -3.90    6.20
   7   1  -5    0.20    6.50
  -7  -1   5   21.00    7.70
  -7  -1   5   26.80    7.60
  -7  -1   5   10.70    5.90
   6   1  -5   -2.60    5.40
  -6  -1   5    6.60    4.90
  -6  -1   5    6.00    5.40
  -6  -1   5   10.90    6.10
   5   1  -5   90.29   14.50
   5   1  -5   97.69   13.70
   5   1  -5   64.59   14.30
  -5  -1   5   82.69   14.20
  -5  -1   5   87.89   14.70
  -5  -1   5  129.19   14.00
   4   1  -5   19.50    9.60
   4   1  -5    0.00    4.40
   4   1  -5  -11.50    3.30
  -4  -1   5    6.00    4.20
  -4  -1   5    1.30    6.30
  -4  -1   5   -4.00    4.60
   3   1  -5    5.30    3.90
   3   1  -5    6.50    4.60
   3   1  -5    5.40    4.10
  -3  -1   5   10.40    3.80
  -3  -1   5    5.20    4.20
  -3  -1   5    2.00    4.40
   2   1  -5  158.78   21.30
   2   1  -5  152.28   20.40
   2   1  -5  196.98   21.30
  -2  -1   5  149.29   20.50
  -2  -1   5  162.38   21.20
  -2  -1   5  170.18   21.10
   1   1  -5    6.60    3.90
   1   1  -5    4.70    4.00
   1   1  -5   -3.20    2.40
  -1  -1   5    0.80    2.90
  -1  -1   5    1.80    3.70
  -1  -1   5    3.50    3.90
   0   1  -5    4.10    4.00
   0   1  -5    1.20    2.40
   0   1  -5    3.70    3.60
   0  -1   5    2.00    2.60
   0  -1   5    2.80    3.30
   0  -1   5   10.10    4.10
  -1   1  -5    2.80    2.40
  -1   1  -5   -0.40    2.80
  -1   1  -5    1.70    3.30
  -1   1  -5    5.10    2.50
   1  -1   5   -3.40    2.80
   1  -1   5    6.40    3.20
  -2   1  -5  478.85   56.09
  -2   1  -5  474.45   55.39
  -2   1  -5  457.75   55.29
   2  -1   5  457.45   55.29
   2  -1   5  448.86   55.39
   2  -1   5  444.56   55.69
  -3   1  -5   46.30    6.30
  -3   1  -5   44.50    7.10
  -3   1  -5   47.90    6.10
   3  -1   5   48.40    7.20
   3  -1   5   41.20    7.00
  -4   1  -5   29.40    4.10
  -4   1  -5   44.30    6.60
  -4   1  -5   33.50    4.90
   4  -1   5   30.60    5.10
   4  -1   5   20.50    5.30
  -5   1  -5   70.19    9.80
  -5   1  -5   76.59    9.80
  -5   1  -5   85.19   11.60
   5  -1   5   83.29   11.40
   5  -1   5   73.69    9.60
   5  -1   5   78.09    9.80
  -6   1  -5   45.70    8.40
  -6   1  -5   39.50    6.60
   6  -1   5   49.80    8.30
   6  -1   5   49.90    6.30
  -7   1  -5  244.68   29.40
  -7   1  -5  236.68   27.90
  -7   1  -5  225.98   28.30
   7  -1   5  227.78   28.20
   7  -1   5  226.78   27.90
   7  -1   5  219.88   29.20
  -8   1  -5   17.40    4.80
  -8   1  -5   15.90    6.20
   8  -1   5   18.20    6.40
   8  -1   5   20.50    3.50
   8  -1   5   22.10    4.50
  -9   1  -5   57.39   11.90
  -9   1  -5   65.59   10.80
   9  -1   5   71.69    9.40
   9  -1   5   64.59   12.10
   9  -1   5   64.89    8.90
   9  -1   5   77.99   10.30
 -10   1  -5   45.00    9.20
 -10   1  -5   50.89   10.70
  10  -1   5   49.60    7.40
  10  -1   5   53.29    7.70
  10  -1   5   68.89    9.40
 -11   1  -5   92.39   16.90
  11  -1   5  116.29   13.80
  11  -1   5  107.49   14.00
  11  -1   5   95.39   15.60
 -12   1  -5    9.60    6.20
 -12   1  -5    6.90    7.40
  12  -1   5    0.20    5.50
  12  -1   5    6.60    5.20
  12  -1   5    4.50    3.20
 -13   1  -5   13.40   10.40
 -13   1  -5   24.70    8.30
  13  -1   5   11.10    6.60
  13  -1   5   11.40    4.00
 -14   1  -5   -6.40    7.00
 -14   1  -5   13.00    9.20
  14  -1   5    3.80    4.40
  14  -1   5    7.00    3.80
  11   0  -5   -0.80    8.80
 -11   0   5    2.70    8.40
 -11   0   5    0.00    9.10
  10   0  -5    1.00    7.40
 -10   0   5   16.50    8.30
 -10   0   5   35.20   10.10
  -9   0   5   35.40    9.70
  -9   0   5   18.10    8.10
  -9   0   5   28.50    8.90
  -8   0   5   12.00    7.10
  -8   0   5   15.60    8.00
  -8   0   5   19.30    7.80
   7   0  -5    2.20    7.40
  -7   0   5   -3.90    5.50
  -7   0   5    1.90    5.30
  -7   0   5    3.00    6.30
   6   0  -5   54.59    9.60
  -6   0   5   55.79   10.40
  -6   0   5   42.60    9.90
  -6   0   5   52.99   10.50
   5   0  -5    1.30    4.90
   5   0  -5    0.70    4.90
   5   0  -5    4.60    4.90
  -5   0   5    4.00    5.20
  -5   0   5   -2.80    4.50
  -5   0   5   10.80    5.60
   4   0  -5   26.80    7.60
   4   0  -5   32.60    6.80
   4   0  -5   38.70    7.70
  -4   0   5   31.20    6.90
  -4   0   5   26.10    9.60
   3   0  -5   73.29   11.50
   3   0  -5   82.59   11.10
   3   0  -5   78.59   12.00
  -3   0   5   61.39   10.80
  -3   0   5   78.69   11.50
  -3   0   5   68.59   11.80
   2   0  -5  320.07   37.90
   2   0  -5  286.97   37.40
   2   0  -5  295.37   38.10
  -2   0   5  305.47   38.10
  -2   0   5  324.77   38.00
   1   0  -5   79.39   10.60
   1   0  -5   85.69   11.50
   1   0  -5   71.29   11.90
  -1   0   5   64.49   10.80
  -1   0   5   82.39   11.90
  -1   0   5   86.09   11.60
   0   0  -5   19.00    4.20
   0   0  -5   17.10    4.80
   0   0  -5   21.70    5.00
   0   0   5   22.20    5.00
   0   0   5   18.60    4.30
   0   0   5   14.70    4.90
  -1   0  -5  565.84   64.19
  -1   0  -5  513.55   64.19
  -1   0  -5  535.05   64.19
  -1   0  -5  566.54   64.49
   1   0   5  511.65   64.19
   1   0   5  499.95   64.39
  -2   0  -5   55.19    8.70
  -2   0  -5   61.39    9.20
  -2   0  -5   64.89    9.40
  -2   0  -5   65.79    9.10
   2   0   5   65.69    9.40
   2   0   5   64.99    8.90
  -3   0  -5 1638.24  196.18
  -3   0  -5 1608.54  196.18
  -3   0  -5 1706.43  196.58
  -3   0  -5 1659.33  196.28
   3   0   5 1671.33  196.38
   3   0   5 1565.74  196.78
  -4   0  -5   15.00    2.90
  -4   0  -5   15.10    4.70
  -4   0  -5   13.80    2.90
   4   0   5   18.10    3.40
   4   0   5    8.50    2.90
   4   0   5   15.70    4.20
  -5   0  -5   13.90    3.00
  -5   0  -5   23.80    5.00
  -5   0  -5    8.40    2.40
   5   0   5   20.10    2.90
   5   0   5   24.20    4.90
   5   0   5   16.00    3.10
  -6   0  -5  114.89   15.20
  -6   0  -5  103.49   13.40
   6   0   5  104.49   13.40
   6   0   5  101.19   14.90
  -7   0  -5  214.58   26.80
  -7   0  -5  233.68   27.90
   7   0   5  205.28   26.70
   7   0   5  221.98   27.70
  -8   0  -5   21.60    6.20
  -8   0  -5   26.20    5.20
   8   0   5    8.30    5.10
   8   0   5   20.40    4.30
  -9   0  -5   20.40    5.20
  -9   0  -5   24.00    6.70
   9   0   5   12.70    4.30
   9   0   5   19.40    6.10
 -10   0  -5  245.08   28.00
 -10   0  -5  228.98   26.90
  10   0   5  172.28   26.30
 -11   0  -5    4.60    5.50
 -11   0  -5    0.70    6.80
  11   0   5   -7.30    3.70
 -12   0  -5   24.50    8.40
 -12   0  -5   14.90    6.40
  12   0   5    3.90    2.80
  12   0   5    8.50    2.70
  12   0   5    0.70    4.90
 -13   0  -5    6.50    6.60
  13   0   5    0.90    2.80
  13   0   5   -2.10    2.60
 -14   0  -5   36.20   11.10
 -14   0  -5   20.60    9.70
  11  -1  -5   -5.90    8.10
 -11   1   5    5.00    7.90
 -11   1   5   -5.50    7.90
  10  -1  -5   11.20    9.20
 -10   1   5   -1.50    6.90
 -10   1   5   17.00    8.90
   9  -1  -5   13.10    7.80
  -9   1   5   15.20    8.20
  -9   1   5    6.70    7.40
   8  -1  -5   -1.60    6.20
  -8   1   5    4.40    6.50
  -8   1   5    4.30    6.20
   7  -1  -5   15.90    7.00
  -7   1   5   14.10    7.00
  -7   1   5   28.00    7.70
  -7   1   5   12.60    6.90
   6  -1  -5   41.40    9.80
  -6   1   5   64.39   10.30
  -6   1   5   32.50    9.40
  -6   1   5   51.49   10.40
   5  -1  -5  218.68   26.90
   5  -1  -5  214.48   26.20
   5  -1  -5  176.78   26.20
  -5   1   5  196.98   26.60
  -5   1   5  220.78   26.80
  -5   1   5  186.68   26.10
   4  -1  -5   -0.60    4.70
   4  -1  -5    2.30    5.50
   4  -1  -5    2.90    4.50
  -4   1   5    2.80    4.10
  -4   1   5   10.80    8.30
   3  -1  -5   29.50    6.40
   3  -1  -5   19.30    6.10
   3  -1  -5   25.60    6.50
  -3   1   5   31.40    6.50
  -3   1   5   28.30    6.80
  -3   1   5   25.00    6.60
   2  -1  -5   25.50    6.60
   2  -1  -5   37.10    6.50
   2  -1  -5   26.90    6.50
  -2   1   5   39.00    6.90
  -2   1   5   23.80    6.40
  -2   1   5   28.50    6.80
   1  -1  -5   85.09   13.10
   1  -1  -5   99.59   13.80
   1  -1  -5   93.29   13.30
  -1   1   5  104.39   13.20
  -1   1   5  103.19   14.30
  -1   1   5   84.89   13.20
   0  -1  -5   42.00    7.50
   0  -1  -5   56.09    8.20
   0  -1  -5   58.49    8.50
   0   1   5   41.80    7.60
   0   1   5   33.80    7.20
   0   1   5   69.79    9.10
  -1  -1  -5   83.09   11.60
  -1  -1  -5   57.29   10.30
  -1  -1  -5   75.99   10.70
   1   1   5   71.59   10.50
   1   1   5   79.19   11.10
   1   1   5   82.99   11.00
  -2  -1  -5  486.75   53.99
  -2  -1  -5  427.56   53.29
  -2  -1  -5  439.36   53.19
  -2  -1  -5  427.36   53.19
  -2  -1  -5  420.46   53.09
   2   1   5  448.76   53.19
  -3  -1  -5  156.48   19.20
  -3  -1  -5  161.48   19.20
  -3  -1  -5  169.18   19.80
  -3  -1  -5  142.89   19.30
   3   1   5  149.99   19.30
   3   1   5  146.89   19.70
  -4  -1  -5   11.00    2.80
  -4  -1  -5    7.80    2.50
  -4  -1  -5   10.80    3.90
   4   1   5   18.00    4.50
   4   1   5   10.10    3.20
  -5  -1  -5   -3.50    3.50
  -5  -1  -5    2.30    2.30
   5   1   5    1.90    2.50
   5   1   5   -0.10    3.10
  -6  -1  -5  251.77   32.40
  -6  -1  -5  251.77   31.70
   6   1   5  263.37   31.70
   6   1   5  268.17   32.50
  -7  -1  -5   89.99   12.20
  -7  -1  -5   96.99   13.90
   7   1   5   81.69   13.60
   7   1   5   94.09   12.20
  -8  -1  -5    9.10    3.90
  -8  -1  -5    1.40    4.70
   8   1   5    4.90    3.10
   8   1   5    0.50    4.00
  -9  -1  -5    1.80    5.20
  -9  -1  -5   14.10    4.30
   9   1   5    6.30    4.50
   9   1   5    2.00    3.20
 -10  -1  -5   19.00    6.00
 -10  -1  -5   12.40    6.90
  10   1   5    9.00    4.60
 -11  -1  -5   19.20    7.00
 -11  -1  -5   23.50    8.20
  11   1   5   25.10    6.60
 -12  -1  -5    1.20    5.70
 -12  -1  -5   -5.70    6.70
 -13  -1  -5    0.70    6.30
 -14  -1  -5   -1.80    7.80
 -14  -1  -5   -3.20    6.40
  11  -2  -5   -1.70    7.80
 -11   2   5   13.50    9.00
 -11   2   5    7.70    9.00
  10  -2  -5   15.30    8.60
 -10   2   5    1.90    8.10
 -10   2   5    1.70    7.70
   9  -2  -5    4.10    7.60
  -9   2   5   14.80    7.60
  -9   2   5   14.60    7.90
   8  -2  -5    2.30    6.70
  -8   2   5   -3.90    6.20
  -8   2   5    4.40    6.80
   7  -2  -5    2.00    6.30
  -7   2   5    3.40    6.00
  -7   2   5   24.10    7.30
   6  -2  -5   12.40    6.00
   6  -2  -5    2.50    6.30
  -6   2   5    6.20    5.60
  -6   2   5   19.30    6.20
   5  -2  -5   36.00    8.70
   5  -2  -5   45.20    9.00
   5  -2  -5   38.30    8.30
   5  -2  -5   43.00    8.60
  -5   2   5   43.60    8.70
  -5   2   5   37.20    8.40
   4  -2  -5   17.80    6.20
   4  -2  -5   25.10    7.00
  -4   2   5   27.50    6.70
  -4   2   5   27.30    6.70
  -4   2   5   16.80    7.10
   3  -2  -5   47.20    7.40
   3  -2  -5   20.60    5.90
   3  -2  -5    9.00    5.20
  -3   2   5   31.30    6.60
  -3   2   5   11.10    4.80
  -3   2   5   15.80    5.90
   2  -2  -5  157.48   21.20
   2  -2  -5  167.48   21.10
   2  -2  -5  154.88   21.00
  -2   2   5  158.28   21.20
  -2   2   5  157.88   21.40
  -2   2   5  173.88   21.30
   1  -2  -5   24.60    5.50
   1  -2  -5   24.20    5.40
   1  -2  -5   10.70    5.10
  -1   2   5   17.90    5.30
  -1   2   5    9.70    4.80
  -1   2   5   22.30    5.90
   0  -2  -5   48.70    7.90
   0  -2  -5   55.59    7.90
   0  -2  -5   30.90    7.10
   0   2   5   47.80    7.80
   0   2   5   34.70    7.40
   0   2   5   49.20    8.20
  -1  -2  -5   30.20    5.60
  -1  -2  -5   29.70    5.70
  -1  -2  -5   12.40    4.90
   1   2   5   40.50    6.30
   1   2   5   30.80    5.90
   1   2   5   22.80    6.10
  -2  -2  -5   94.29   12.90
  -2  -2  -5  102.99   12.90
  -2  -2  -5   99.09   14.10
  -2  -2  -5   97.09   13.30
  -2  -2  -5   98.89   13.10
  -2  -2  -5   97.89   12.90
  -3  -2  -5   36.10    5.50
  -3  -2  -5   35.30    6.00
  -3  -2  -5   21.50    4.90
  -3  -2  -5   32.90    5.10
  -3  -2  -5   21.80    6.30
  -4  -2  -5   21.30    4.50
  -4  -2  -5   21.40    5.50
  -4  -2  -5   35.30    4.50
  -4  -2  -5   26.00    4.10
   4   2   5   22.40    5.40
   4   2   5   20.50    4.80
  -5  -2  -5   28.30    6.10
  -5  -2  -5   27.40    4.80
   5   2   5   29.00    5.80
   5   2   5   16.40    4.50
  -6  -2  -5   77.19   10.60
  -6  -2  -5   75.79   11.90
   6   2   5   81.19   12.00
   6   2   5   75.59   10.60
  -7  -2  -5  124.69   18.40
  -7  -2  -5  139.79   17.70
   7   2   5  144.49   17.80
   7   2   5  135.09   18.40
  -8  -2  -5    8.80    5.40
  -8  -2  -5   18.60    4.60
   8   2   5   17.00    5.20
   8   2   5   10.70    4.50
  -9  -2  -5   46.30    9.50
  -9  -2  -5   45.10    8.20
   9   2   5   38.80    7.70
   9   2   5   47.10    9.20
 -10  -2  -5   13.60    5.90
 -10  -2  -5   14.30    7.20
  10   2   5   11.10    4.90
 -11  -2  -5    5.90    7.20
 -11  -2  -5   24.00    6.80
  11   2   5   11.20    5.20
 -12  -2  -5   10.90    6.40
 -12  -2  -5    4.50    7.20
 -13  -2  -5    6.60    7.00
 -14  -2  -5   21.00    8.70
 -14  -2  -5   17.70    9.70
  10  -3  -5   -7.20    8.70
 -10   3   5   -1.80    7.60
   9  -3  -5   29.40    9.90
  -9   3   5   35.80   10.00
  -9   3   5   21.20    9.60
   8  -3  -5    6.30    7.10
  -8   3   5    6.00    6.70
  -8   3   5   19.70    7.80
   7  -3  -5   15.20    7.50
  -7   3   5   19.30    7.70
  -7   3   5   20.50    7.90
   6  -3  -5   30.10    8.60
   6  -3  -5   37.80    9.20
  -6   3   5   37.40    9.20
  -6   3   5   30.00    8.70
   5  -3  -5   69.59   11.30
   5  -3  -5   68.59   11.20
   5  -3  -5   59.59   11.20
   5  -3  -5   46.50   10.40
  -5   3   5   51.49   10.20
  -5   3   5   52.99   10.70
   4  -3  -5   16.00    6.40
   4  -3  -5   24.90    6.60
   4  -3  -5   27.10    7.00
   4  -3  -5   19.80    6.20
  -4   3   5   13.20    5.90
  -4   3   5   13.00    5.70
   3  -3  -5   18.20    5.50
   3  -3  -5    2.20    4.90
   3  -3  -5   22.60    6.10
   3  -3  -5   19.90    5.70
  -3   3   5    7.20    4.80
  -3   3   5    4.90    4.50
   2  -3  -5  325.27   40.10
   2  -3  -5  335.87   40.20
   2  -3  -5  312.27   40.10
   2  -3  -5  314.77   40.20
  -2   3   5  319.77   40.30
  -2   3   5  327.67   40.50
   1  -3  -5   35.60    6.90
   1  -3  -5   27.40    6.80
   1  -3  -5   26.00    6.40
   1  -3  -5   36.80    6.80
  -1   3   5   27.90    6.70
  -1   3   5   35.30    7.10
   0  -3  -5   36.30    7.60
   0  -3  -5   49.10    7.80
   0  -3  -5   46.20    8.10
   0  -3  -5   38.90    7.80
   0   3   5   58.59    8.40
   0   3   5   36.90    7.90
  -1  -3  -5    9.00    3.80
  -1  -3  -5    4.90    4.50
  -1  -3  -5   15.40    4.50
  -1  -3  -5    6.00    3.90
   1   3   5    7.40    4.70
  -2  -3  -5   30.00    5.40
  -2  -3  -5   20.80    5.90
  -2  -3  -5   31.50    5.80
  -2  -3  -5   35.50    6.80
  -2  -3  -5   37.20    6.50
  -3  -3  -5   89.79   13.00
  -3  -3  -5   73.09   11.10
  -3  -3  -5   80.39   12.20
  -3  -3  -5   89.59   11.40
  -3  -3  -5   86.39   11.00
   3   3   5   85.19   11.80
  -4  -3  -5   -2.80    2.30
  -4  -3  -5   -2.00    2.60
  -4  -3  -5   -3.00    2.00
  -4  -3  -5    6.80    4.20
   4   3   5   -0.60    3.30
   4   3   5   -5.60    2.80
  -5  -3  -5  120.79   15.30
  -5  -3  -5  118.39   16.10
   5   3   5  112.19   15.30
   5   3   5  118.59   16.00
  -6  -3  -5   19.70    5.30
  -6  -3  -5   18.30    4.30
   6   3   5    9.00    3.70
   6   3   5   19.40    5.40
  -7  -3  -5   70.89   11.00
  -7  -3  -5   70.39    9.90
   7   3   5   57.99    9.40
   7   3   5   48.40   10.10
  -8  -3  -5    6.10    5.00
  -8  -3  -5    1.40    3.20
   8   3   5    5.10    4.20
   8   3   5    1.00    3.40
  -9  -3  -5   81.19   14.90
  -9  -3  -5   70.69   12.70
   9   3   5   72.59   12.60
 -10  -3  -5  114.09   16.10
 -10  -3  -5  120.79   17.60
  10   3   5   92.89   15.80
 -11  -3  -5    8.40    5.70
 -11  -3  -5    8.10    7.10
 -12  -3  -5    4.10    5.90
 -12  -3  -5    7.00    7.40
 -13  -3  -5   20.60   15.60
 -13  -3  -5    6.60    6.60
 -14  -3  -5   13.90    8.50
 -14  -3  -5    5.10    8.70
  10  -4  -5   30.00   10.20
 -10   4   5    3.00    7.80
 -10   4   5   -2.20    7.10
   9  -4  -5   -7.50    6.30
  -9   4   5    5.60    9.20
  -9   4   5    2.40    6.80
   8  -4  -5   27.30    8.30
  -8   4   5   17.50    7.90
  -8   4   5   21.10    8.20
   7  -4  -5   -6.70    5.30
  -7   4   5    7.80    6.40
  -7   4   5   12.10    6.90
   6  -4  -5   -2.70    4.80
  -6   4   5    2.30    5.80
  -6   4   5    3.90    6.10
   5  -4  -5   50.39   10.70
   5  -4  -5   42.60   11.50
   5  -4  -5   69.49   11.70
  -5   4   5   76.79   11.50
  -5   4   5   52.19   11.00
   4  -4  -5   17.20    7.00
   4  -4  -5   16.10    6.40
   4  -4  -5    6.10    5.40
   4  -4  -5   21.00    5.70
  -4   4   5   10.60    6.00
  -4   4   5   12.90    6.30
   3  -4  -5   27.00    7.20
   3  -4  -5   31.00    7.10
   3  -4  -5   31.90    7.40
  -3   4   5   19.40    6.80
   2  -4  -5    4.50    5.00
   2  -4  -5   -1.50    3.80
   2  -4  -5    1.10    3.80
   2  -4  -5   -5.40    3.80
  -2   4   5   -4.60    4.20
  -2   4   5    5.80    4.70
   1  -4  -5   57.49    8.70
   1  -4  -5   38.60    8.30
   1  -4  -5   48.70    8.90
   1  -4  -5   51.39    8.50
  -1   4   5   41.50    8.10
  -1   4   5   35.70    8.80
   0  -4  -5   -5.30    3.10
   0  -4  -5    0.70    3.90
   0  -4  -5   -2.90    3.90
   0  -4  -5    1.40    4.00
   0   4   5   -1.10    3.30
   0   4   5    3.60    3.90
  -1  -4  -5    2.80    3.40
  -1  -4  -5   -6.20    3.70
  -1  -4  -5    0.20    3.20
  -1  -4  -5   -3.30    3.70
   1   4   5   -8.10    4.00
  -2  -4  -5   31.20    6.50
  -2  -4  -5   56.79    8.00
  -2  -4  -5   28.30    6.40
  -2  -4  -5   33.50    7.60
   2   4   5   47.00    6.90
   2   4   5   40.70    8.20
  -3  -4  -5   52.59    9.20
  -3  -4  -5   71.59   10.40
  -3  -4  -5   60.49   11.10
  -3  -4  -5   68.89    8.90
   3   4   5   64.69    9.70
  -4  -4  -5    0.10    2.10
  -4  -4  -5    1.00    2.90
  -4  -4  -5   -3.40    3.20
  -4  -4  -5   -4.00    4.10
   4   4   5    6.60    2.80
   4   4   5   -7.40    3.00
  -5  -4  -5    8.80    4.10
  -5  -4  -5    2.30    1.90
  -5  -4  -5   -1.10    2.80
   5   4   5   -4.20    2.20
   5   4   5   -3.10    2.60
   5   4   5    2.00    3.80
  -6  -4  -5   38.50    7.80
  -6  -4  -5   42.60    6.00
  -6  -4  -5   40.20    7.40
   6   4   5   42.60    8.50
   6   4   5   50.29    6.30
   6   4   5   42.50    7.40
  -7  -4  -5    7.00    4.80
  -7  -4  -5    2.10    3.50
   7   4   5    0.40    3.50
   7   4   5   -0.60    1.70
  -8  -4  -5    7.90    4.20
  -8  -4  -5    2.30    5.00
   8   4   5    2.80    3.50
   8   4   5    1.20    4.00
  -9  -4  -5   22.50    6.20
  -9  -4  -5   36.00    8.10
   9   4   5   21.40    6.20
 -10  -4  -5   63.19   11.40
 -10  -4  -5   46.10    9.80
 -11  -4  -5   10.70    7.10
 -11  -4  -5    6.20    5.70
 -12  -4  -5    6.00    6.50
 -12  -4  -5    1.30    7.10
 -13  -4  -5    8.80    7.70
 -13  -4  -5   -1.70    7.30
 -14  -4  -5    3.50    8.30
 -14  -4  -5    6.90   10.80
  10  -5  -5    1.50    7.30
 -10   5   5   -7.00    7.10
 -10   5   5    7.90    8.70
   9  -5  -5   46.80   10.80
  -9   5   5   32.80   11.60
  -9   5   5   31.90   11.40
   8  -5  -5   10.90    7.40
  -8   5   5    7.50    7.30
  -8   5   5    9.70    7.50
   7  -5  -5   10.00    6.40
  -7   5   5    3.20    6.80
  -7   5   5    3.50    6.50
   6  -5  -5    6.40    6.60
  -6   5   5    7.20    6.80
  -6   5   5   10.60    6.90
   5  -5  -5  166.98   22.70
  -5   5   5  181.68   23.30
  -5   5   5  143.59   23.60
   4  -5  -5   47.80    9.90
   4  -5  -5   39.90    9.70
   4  -5  -5   56.79   10.10
   4  -5  -5   56.39   10.30
  -4   5   5   37.80    9.70
  -4   5   5   60.49   10.80
   3  -5  -5   18.70    9.30
   3  -5  -5    4.80    4.40
   3  -5  -5   14.40    5.50
   3  -5  -5    6.80    5.00
  -3   5   5    6.10    5.30
  -3   5   5    0.50    4.20
   2  -5  -5   62.09   11.40
   2  -5  -5   69.39   11.70
   2  -5  -5   68.19   12.00
   2  -5  -5   70.99   11.50
  -2   5   5   82.89   12.20
  -2   5   5   73.29   12.20
   1  -5  -5   -3.60    4.00
   1  -5  -5   10.20    4.70
   1  -5  -5    8.60    4.20
   1  -5  -5   -2.00    3.60
  -1   5   5    1.70    4.20
  -1   5   5   -4.70    4.20
   0  -5  -5   90.09   13.20
   0  -5  -5   89.19   13.00
   0  -5  -5   97.39   14.20
   0  -5  -5   72.49   12.90
   0   5   5   89.99   13.80
   0   5   5   89.09   13.00
  -1  -5  -5   -4.50    4.20
  -1  -5  -5   -2.00    3.30
  -1  -5  -5   -2.50    3.10
  -1  -5  -5    2.30    4.10
   1   5   5   -0.30    3.50
   1   5   5   -5.00    4.70
  -2  -5  -5  142.69   19.10
  -2  -5  -5  158.18   19.40
  -2  -5  -5  136.09   20.00
  -2  -5  -5  156.78   19.70
   2   5   5  151.88   19.10
   2   5   5  142.09   20.30
  -3  -5  -5   94.69   12.90
  -3  -5  -5   90.19   13.50
  -3  -5  -5   95.39   12.00
  -3  -5  -5   73.89   13.50
   3   5   5   87.09   12.80
   3   5   5   82.79   11.90
  -4  -5  -5   17.30    6.80
  -4  -5  -5   16.50    5.50
  -4  -5  -5   24.20    4.50
  -4  -5  -5   17.50    4.80
   4   5   5   25.60    4.70
   4   5   5   17.80    5.30
  -5  -5  -5   20.40    4.80
  -5  -5  -5   16.50    6.10
  -5  -5  -5    8.10    2.90
  -5  -5  -5   11.10    5.10
   5   5   5   13.00    4.10
   5   5   5    9.00    3.50
  -6  -5  -5   71.29   11.30
  -6  -5  -5   46.80   11.40
  -6  -5  -5   77.19    9.80
   6   5   5   70.89   12.30
   6   5   5   78.99    9.90
   6   5   5   87.09   11.80
  -7  -5  -5  131.09   16.40
  -7  -5  -5  121.89   18.80
  -7  -5  -5  127.49   18.00
   7   5   5  117.39   18.70
   7   5   5  140.89   17.70
   7   5   5  135.69   16.50
  -8  -5  -5    2.60    3.90
  -8  -5  -5    4.70    5.10
  -8  -5  -5    0.10    2.20
   8   5   5   -1.10    3.60
   8   5   5    1.50    2.40
   8   5   5    1.30    4.50
  -9  -5  -5   -0.30    4.90
  -9  -5  -5    5.20    2.60
  -9  -5  -5    5.00    4.40
   9   5   5    0.20    4.20
   9   5   5    2.50    2.30
 -10  -5  -5    5.30    6.30
 -10  -5  -5   -0.40    2.80
 -10  -5  -5   -0.60    4.80
  10   5   5    1.90    2.10
 -11  -5  -5   31.90    8.30
 -11  -5  -5   29.30    9.00
  11   5   5   30.40    4.90
 -12  -5  -5   -5.90    5.30
 -12  -5  -5    8.90    7.40
 -13  -5  -5    9.60    7.70
 -13  -5  -5    4.40    7.60
 -14  -5  -5   -1.50    8.30
 -14  -5  -5   10.20    8.30
  10  -6  -5   -2.20    7.20
 -10   6   5    2.50    8.40
 -10   6   5   -0.90    7.80
   9  -6  -5   16.20    9.90
  -9   6   5   15.00    9.30
  -9   6   5   12.80    8.20
   8  -6  -5   13.00    7.40
  -8   6   5    6.50    7.70
  -8   6   5   -1.40    6.60
   7  -6  -5    9.50    6.60
  -7   6   5    0.20    7.00
  -7   6   5   -2.60    5.90
   6  -6  -5   -4.80    5.30
  -6   6   5   -3.00    5.50
  -6   6   5   -4.80    5.50
   5  -6  -5    7.20    5.90
  -5   6   5    2.70    5.80
  -5   6   5    3.60    6.20
   4  -6  -5   43.20    9.80
  -4   6   5   67.39   11.50
  -4   6   5   51.49   10.60
   3  -6  -5   -3.00    4.10
   3  -6  -5    2.90    4.80
   3  -6  -5    0.30    5.20
   3  -6  -5   -6.90    4.60
  -3   6   5    0.70    4.90
  -3   6   5    7.00    4.90
   2  -6  -5  120.29   19.30
   2  -6  -5  134.29   18.90
   2  -6  -5  115.79   18.40
  -2   6   5  138.29   20.00
  -2   6   5  149.09   19.50
   1  -6  -5   -1.90    3.70
   1  -6  -5    0.60    4.30
   1  -6  -5    7.20    4.60
  -1   6   5   -2.80    3.60
  -1   6   5    1.10    4.20
   0  -6  -5   71.19    9.70
   0  -6  -5   39.90    9.60
   0  -6  -5   61.09   10.10
   0  -6  -5   69.89   10.20
   0   6   5   43.40    9.80
   0   6   5   58.79    9.70
  -1  -6  -5    0.30    4.50
  -1  -6  -5    1.10    4.60
  -1  -6  -5    1.50    4.00
  -1  -6  -5   -0.40    3.30
   1   6   5    3.50    5.00
   1   6   5    5.00    3.80
  -2  -6  -5  113.19   20.20
  -2  -6  -5  153.68   19.10
  -2  -6  -5  125.79   19.40
  -2  -6  -5  151.38   19.20
   2   6   5  160.08   19.10
   2   6   5  166.78   20.40
  -3  -6  -5  218.08   25.10
  -3  -6  -5  178.48   24.10
  -3  -6  -5  200.78   24.50
  -3  -6  -5  191.88   25.40
   3   6   5  180.78   24.20
   3   6   5  189.48   24.60
  -4  -6  -5   15.40    4.40
  -4  -6  -5    7.50    6.00
  -4  -6  -5   12.50    4.60
  -4  -6  -5    1.30    3.00
   4   6   5    9.90    3.60
   4   6   5    4.40    4.50
  -5  -6  -5   15.50    5.70
  -5  -6  -5    0.70    2.70
  -5  -6  -5    2.70    6.10
  -5  -6  -5    1.60    3.60
   5   6   5   -0.30    3.40
   5   6   5   11.60    3.80
  -6  -6  -5    4.70    2.80
  -6  -6  -5    4.70    4.20
  -6  -6  -5   -4.20    3.10
  -6  -6  -5    0.70    5.30
   6   6   5   -2.70    2.80
  -7  -6  -5  164.88   19.80
  -7  -6  -5  145.99   18.10
  -7  -6  -5  153.98   19.10
   7   6   5  127.89   19.10
   7   6   5  135.99   20.60
   7   6   5  133.09   18.00
  -8  -6  -5    9.10    3.30
  -8  -6  -5    4.20    4.10
  -8  -6  -5    5.80    5.30
   8   6   5    0.60    3.80
  -9  -6  -5   -2.10    5.20
  -9  -6  -5   12.00    5.10
  -9  -6  -5    1.90    3.00
 -10  -6  -5   34.20    6.90
 -10  -6  -5   67.69   11.60
 -10  -6  -5   58.89   10.10
 -11  -6  -5    7.80    6.40
 -11  -6  -5    2.40    4.00
 -11  -6  -5   29.30    7.70
 -12  -6  -5   17.20    8.40
 -12  -6  -5    8.60    4.20
 -12  -6  -5   17.10    7.60
 -13  -6  -5    6.50    8.50
 -13  -6  -5    1.60    7.40
  13   6   5    5.60    4.00
   9  -7  -5   19.00    8.70
  -9   7   5    5.50    8.80
  -9   7   5   22.10   10.90
   8  -7  -5   -3.40    6.30
  -8   7   5   -1.00    8.50
   7  -7  -5    3.70    6.30
  -7   7   5   -1.90    6.30
  -7   7   5   -6.50    6.90
   6  -7  -5   43.60    9.50
  -6   7   5   52.19   10.90
  -6   7   5   18.50    8.80
   5  -7  -5   -4.20    4.90
  -5   7   5   -7.80    5.70
  -5   7   5   -2.70    5.60
   4  -7  -5   22.80    7.80
  -4   7   5   63.89   10.40
  -4   7   5   19.50    7.30
   3  -7  -5   12.70    7.40
   3  -7  -5   26.10    6.70
  -3   7   5   16.10    7.20
  -3   7   5    7.50    6.20
   2  -7  -5   67.09   10.80
   2  -7  -5   62.59   11.60
   2  -7  -5   45.70   10.20
  -2   7   5   51.89   10.60
  -2   7   5   73.09   12.30
   1  -7  -5   94.29   15.30
   1  -7  -5   85.99   14.90
   1  -7  -5  107.79   16.40
   1  -7  -5  116.09   16.10
  -1   7   5   79.89   15.70
  -1   7   5  159.68   17.10
   0  -7  -5    2.50    4.10
   0  -7  -5    2.20    4.70
   0  -7  -5   -1.40    4.40
   0  -7  -5    3.90    4.00
   0   7   5   -0.50    3.90
   0   7   5   -3.40    4.30
  -1  -7  -5   53.29   10.20
  -1  -7  -5   49.99    9.10
  -1  -7  -5   43.80    9.60
   1   7   5   55.09    9.10
  -2  -7  -5   15.40    4.50
  -2  -7  -5   22.40    6.90
  -2  -7  -5   15.10    5.10
   2   7   5   19.90    7.70
   2   7   5   13.70    5.00
  -3  -7  -5  191.68   23.50
  -3  -7  -5  138.89   26.70
  -3  -7  -5  163.08   26.40
  -3  -7  -5  168.38   24.70
   3   7   5  182.68   23.50
   3   7   5  221.98   24.30
  -4  -7  -5   16.40    4.30
  -4  -7  -5    5.30    3.80
  -4  -7  -5    8.00    5.50
   4   7   5   15.60    4.50
   4   7   5    4.60    6.20
  -5  -7  -5   37.60    6.50
  -5  -7  -5   31.60    7.70
  -5  -7  -5   32.20    8.90
  -5  -7  -5   31.20    7.40
   5   7   5   44.00    7.90
   5   7   5   39.20    6.80
  -6  -7  -5   81.39   13.90
  -6  -7  -5  100.59   15.90
  -6  -7  -5   90.29   13.60
  -6  -7  -5   84.09   11.90
   6   7   5   86.79   13.60
   6   7   5   90.19   12.60
  -7  -7  -5    4.70    6.80
  -7  -7  -5   12.20    3.80
  -7  -7  -5    9.00    5.60
  -7  -7  -5    4.20    4.10
   7   7   5    8.40    4.90
   7   7   5   -0.10    3.60
  -8  -7  -5   25.50    5.50
  -8  -7  -5   35.90    7.60
  -8  -7  -5   33.50    7.80
   8   7   5   22.70    5.40
  -9  -7  -5    1.10    4.80
  -9  -7  -5    5.10    4.00
  -9  -7  -5    0.50    6.40
   9   7   5   -0.10    3.40
 -10  -7  -5   38.50    8.00
 -10  -7  -5   67.39   11.80
 -10  -7  -5   71.19   11.20
  10   7   5   52.79    8.10
 -11  -7  -5    4.00    5.80
 -11  -7  -5   -4.20    3.50
 -11  -7  -5    8.40    7.40
  11   7   5    4.90    3.70
 -12  -7  -5    8.40    6.80
 -12  -7  -5    5.00    4.60
 -12  -7  -5   17.30   10.60
  12   7   5    7.30    4.00
 -13  -7  -5   -1.40    6.70
 -13  -7  -5   20.80    9.50
 -13  -7  -5    7.30    4.80
  13   7   5   -0.30    4.10
   9  -8  -5   14.10    9.40
  -9   8   5    4.00    8.00
  -9   8   5    0.70    8.90
   8  -8  -5    9.60    7.50
  -8   8   5    7.40    7.90
  -8   8   5   23.30    9.40
   7  -8  -5   -4.00    6.40
  -7   8   5   -3.10    6.40
  -7   8   5   -3.80    6.40
   6  -8  -5   -1.20    5.60
  -6   8   5   -8.30    6.60
  -6   8   5   -1.70    5.40
   5  -8  -5   24.30    8.70
  -5   8   5   36.30    9.60
  -5   8   5   50.59   10.60
   4  -8  -5    7.70    6.00
  -4   8   5    0.10    6.10
  -4   8   5    5.00    6.70
   3  -8  -5   -0.40    5.60
  -3   8   5   19.90    7.50
   2  -8  -5   54.59   10.20
   2  -8  -5   44.90    9.40
  -2   8   5   50.69   11.30
   1  -8  -5   54.69   12.30
   1  -8  -5  100.59   13.00
   1  -8  -5   76.79   12.80
   1  -8  -5   79.89   13.10
  -1   8   5   64.89   13.10
  -1   8   5   88.39   13.20
   0  -8  -5   57.59   11.00
   0  -8  -5   52.89   10.20
   0  -8  -5   59.09   10.60
   0  -8  -5   68.19   11.50
   0   8   5   60.99   10.60
   0   8   5   46.10   10.70
  -1  -8  -5    7.60    5.30
  -1  -8  -5   13.10    4.40
  -1  -8  -5   -2.20    4.40
  -1  -8  -5    7.90    4.20
   1   8   5   15.90    6.80
   1   8   5    8.10    8.40
  -2  -8  -5  155.18   20.30
  -2  -8  -5  157.68   22.80
  -2  -8  -5  153.98   20.20
   2   8   5  140.39   20.20
   2   8   5  164.58   22.90
  -3  -8  -5    6.80    4.30
  -3  -8  -5    5.70    5.10
  -3  -8  -5    8.80    4.60
  -3  -8  -5    9.90    3.90
   3   8   5    3.30    4.40
   3   8   5    8.90    4.30
  -4  -8  -5   69.99   14.60
  -4  -8  -5   90.89   13.50
  -4  -8  -5   97.39   13.80
  -4  -8  -5   97.09   15.00
   4   8   5   89.59   14.40
   4   8   5  101.29   14.00
  -5  -8  -5    4.70    3.90
  -5  -8  -5    5.90    4.60
  -5  -8  -5    7.40    3.90
  -5  -8  -5   -2.80    5.70
   5   8   5    7.80    4.40
   5   8   5    5.10    4.90
  -6  -8  -5  134.79   17.00
  -6  -8  -5  130.29   19.30
  -6  -8  -5  145.49   18.00
  -6  -8  -5  109.19   20.60
   6   8   5  114.59   16.90
  -7  -8  -5   27.70    6.00
  -7  -8  -5   34.90    8.00
  -7  -8  -5   24.20    7.10
   7   8   5   34.60    6.70
  -8  -8  -5  109.69   16.90
  -8  -8  -5   84.29   16.40
  -8  -8  -5  121.19   15.00
   8   8   5  110.19   14.90
  -9  -8  -5   -2.20    4.00
  -9  -8  -5   -0.40    3.80
  -9  -8  -5   -0.80    5.80
   9   8   5   -1.50    4.10
 -10  -8  -5   -5.20    4.90
 -10  -8  -5   -0.50    3.70
 -10  -8  -5   -5.80    5.40
  10   8   5    1.60    3.90
 -11  -8  -5   23.00    8.80
 -11  -8  -5   16.50    5.50
 -11  -8  -5   17.70    7.50
  11   8   5   22.20    5.70
 -12  -8  -5    0.80    5.90
 -12  -8  -5    0.50    4.60
 -12  -8  -5    4.90    7.70
  12   8   5    2.20    4.30
 -13  -8  -5    2.10    7.00
 -13  -8  -5    1.50    8.20
 -13  -8  -5   -4.60    4.60
  13   8   5   -1.10    4.50
   8  -9  -5  -10.00    6.90
  -8   9   5   -6.10    7.90
  -8   9   5   11.40    9.30
   7  -9  -5    3.10    6.70
  -7   9   5    0.30   13.80
  -7   9   5   -4.50    7.40
   6  -9  -5   21.50    7.80
  -6   9   5   15.00    7.60
  -6   9   5    4.80    8.20
   5  -9  -5   22.50    8.10
  -5   9   5   40.50   10.30
  -5   9   5   17.60    8.80
   4  -9  -5   88.69   14.50
   4  -9  -5   89.29   15.20
  -4   9   5   68.39   14.50
   3  -9  -5   -3.00    5.50
   3  -9  -5    3.60    5.10
  -3   9   5   -5.80    6.60
   2  -9  -5   69.29   12.40
   2  -9  -5   60.69   11.30
  -2   9   5   61.69   12.70
   1  -9  -5    1.80    4.50
   1  -9  -5   -1.80    4.20
  -1   9   5   -9.30    4.50
   0  -9  -5   71.89   13.40
   0  -9  -5   96.49   13.90
   0   9   5   92.69   14.00
   0   9   5   74.99   14.80
  -1  -9  -5    7.30    8.00
  -1  -9  -5   20.50    5.60
  -1  -9  -5   11.60    5.10
   1   9   5    3.70    5.10
   1   9   5   17.10    7.20
  -2  -9  -5   10.50    6.40
  -2  -9  -5   12.00    5.20
  -2  -9  -5    6.40    4.70
   2   9   5    6.60    5.20
   2   9   5   10.90    7.00
  -3  -9  -5   71.49   11.20
  -3  -9  -5   51.09   11.90
  -3  -9  -5   51.79   10.00
  -3  -9  -5   61.69   10.10
   3   9   5   41.60    9.80
  -4  -9  -5    6.90    5.30
  -4  -9  -5   -0.30    6.30
  -4  -9  -5    1.20    4.00
   4   9   5   -5.40    4.10
  -5  -9  -5    0.80    3.60
  -5  -9  -5    6.40    4.80
  -5  -9  -5    2.30    4.80
   5   9   5    0.50    4.40
  -6  -9  -5    3.90    5.20
  -6  -9  -5   -3.50    3.80
  -6  -9  -5    1.90    4.30
   6   9   5    3.10    4.40
  -7  -9  -5   22.20    5.70
  -7  -9  -5   14.50    5.60
  -7  -9  -5   17.20    7.30
   7   9   5   20.40    6.00
  -8  -9  -5   25.00    7.00
  -8  -9  -5   13.90    6.60
  -8  -9  -5   15.00    5.50
   8   9   5   15.30    5.60
  -9  -9  -5   46.90    9.90
  -9  -9  -5   37.00    8.20
  -9  -9  -5   39.50   10.20
   9   9   5   65.09    9.60
 -10  -9  -5   15.20    7.60
 -10  -9  -5    6.20    6.10
 -10  -9  -5    2.50    5.00
  10   9   5   10.80    5.30
 -11  -9  -5    3.50    6.80
 -11  -9  -5    1.80    6.80
  11   9   5    7.00    5.10
 -12  -9  -5    8.20    5.90
 -12  -9  -5   -4.80    5.80
 -12  -9  -5   -4.40    7.40
  12   9   5    8.60    5.60
   8 -10  -5   18.10    9.60
  -8  10   5   21.20   11.50
   7 -10  -5    1.80    7.70
  -7  10   5    5.90    8.60
  -7  10   5    1.50    7.80
   6 -10  -5    5.10    6.10
  -6  10   5   -3.20    6.30
   5 -10  -5   -0.80    7.30
   5 -10  -5    6.70    6.80
  -5  10   5    1.30    7.70
   4 -10  -5    9.90    6.80
   4 -10  -5   31.40    9.00
  -4  10   5   24.60    9.40
   3 -10  -5   -4.50    4.90
   3 -10  -5   -1.50    5.30
  -3  10   5   11.30    7.70
   2 -10  -5    6.90    5.60
   2 -10  -5   -6.00    4.30
  -2  10   5   -4.00    5.50
   1 -10  -5   -3.70    5.00
   1 -10  -5    2.70    5.10
  -1  10   5   -0.40    5.70
   0 -10  -5   -3.90    5.10
   0 -10  -5    6.70    4.90
   0  10   5   -4.00    5.30
  -1 -10  -5    1.50    4.90
  -1 -10  -5    1.10    4.50
   1  10   5    6.30    6.90
  -2 -10  -5   -5.50    4.00
  -2 -10  -5    2.90    4.20
   2  10   5   -1.40    5.70
  -3 -10  -5   42.80    9.30
  -3 -10  -5   33.60    8.20
  -3 -10  -5   39.90    8.20
   3  10   5   36.70    8.40
  -4 -10  -5   10.40    5.90
  -4 -10  -5   -3.40    4.00
  -4 -10  -5    0.00    3.90
   4  10   5   -3.40    4.80
  -5 -10  -5   -1.30    4.10
  -5 -10  -5    0.50    3.90
  -5 -10  -5    4.00    5.10
   5  10   5    5.40    5.20
  -6 -10  -5   -1.40    4.10
  -6 -10  -5   -1.60    5.00
  -6 -10  -5    4.90    4.50
   6  10   5    9.50    5.40
  -7 -10  -5    9.50    5.00
  -7 -10  -5   12.00    6.50
  -7 -10  -5    5.20    5.10
   7  10   5   16.60    6.50
  -8 -10  -5    5.30    4.40
  -8 -10  -5   14.50    6.80
  -8 -10  -5    8.20    6.00
   8  10   5   14.90    6.00
  -9 -10  -5   -1.20    5.70
  -9 -10  -5   -2.10    4.70
  -9 -10  -5   -6.20    4.70
   9  10   5   -4.00    5.30
 -10 -10  -5   22.30    6.40
 -10 -10  -5   24.40    8.40
 -10 -10  -5    9.80    7.10
  10  10   5   32.00    7.70
 -11 -10  -5    5.10    7.60
 -11 -10  -5   10.90    7.60
 -11 -10  -5   -0.40    4.60
  11  10   5    1.10    6.30
   7 -11  -5   15.10    8.60
   7 -11  -5    3.10    7.50
  -7  11   5    8.10    9.60
   6 -11  -5   -2.80    6.90
   6 -11  -5    1.40    7.10
  -6  11   5   -0.50    8.00
   5 -11  -5   12.10    7.70
   5 -11  -5    9.50    7.00
  -5  11   5    8.10    8.80
   4 -11  -5   -6.10    5.50
   4 -11  -5    2.90    5.70
  -4  11   5  -14.50    7.20
   3 -11  -5   19.00    7.70
   3 -11  -5   19.90    7.80
  -3  11   5   28.40    9.50
   2 -11  -5   -1.90    5.00
   2 -11  -5   -2.10    5.50
  -2  11   5   -4.00    5.60
   1 -11  -5   36.70    8.80
   1 -11  -5   21.80    7.30
  -1  11   5   17.20    8.70
   0 -11  -5    5.80    5.60
   0 -11  -5   -4.20    5.00
   0  11   5    5.40    6.80
  -1 -11  -5    4.00    5.40
  -1 -11  -5   15.40    6.10
   1  11   5    3.60    7.10
  -2 -11  -5   17.20    6.10
  -2 -11  -5   15.40    6.00
   2  11   5   11.00    7.80
  -3 -11  -5   22.90    7.20
  -3 -11  -5   13.90    5.60
  -3 -11  -5   19.60    6.30
  -4 -11  -5   24.40    6.60
  -4 -11  -5   31.80    8.20
  -4 -11  -5   14.10    6.60
  -5 -11  -5    8.40    4.90
  -5 -11  -5    9.80    5.80
  -5 -11  -5   15.40    5.60
  -6 -11  -5   55.39   10.60
  -6 -11  -5   62.99   12.10
  -6 -11  -5   62.89   11.70
  -7 -11  -5    8.90    5.80
  -7 -11  -5    8.70    5.90
  -7 -11  -5    9.10    5.20
  -8 -11  -5   18.20    7.00
  -8 -11  -5   20.00    6.50
  -8 -11  -5    4.40    6.50
   8  11   5   13.40    7.90
  -9 -11  -5    7.00    6.20
  -9 -11  -5    0.20    5.60
  -9 -11  -5    2.30    5.30
   9  11   5   -2.80    7.10
 -10 -11  -5   12.10    7.30
 -10 -11  -5    7.90    5.60
 -11 -11  -5   17.30    6.40
 -11 -11  -5   10.80    8.30
 -11 -11  -5   26.50    9.00
   6 -12  -5    6.20    7.50
   6 -12  -5   -3.80    6.60
  -6  12   5    0.70    9.70
   5 -12  -5   18.30    8.40
   5 -12  -5   28.10    9.50
  -5  12   5   31.70   12.70
   4 -12  -5   22.80   12.70
   4 -12  -5   17.70    8.60
  -4  12   5   11.90    8.80
   3 -12  -5   -8.20    9.60
   3 -12  -5    7.40    7.30
   2 -12  -5   24.80    8.30
   2 -12  -5    9.10    6.40
  -2  12   5    8.90    8.10
   1 -12  -5    2.50    5.90
   1 -12  -5   -3.20    4.90
  -1  12   5   14.40    7.60
   0 -12  -5   42.10   10.40
   0 -12  -5   46.40   10.30
   0  12   5   72.29   13.70
  -1 -12  -5    4.60    5.30
  -1 -12  -5   -0.90    5.20
   1  12   5   -4.10    7.30
  -2 -12  -5    8.70    5.90
  -2 -12  -5    5.80    5.80
   2  12   5    6.50    7.30
  -3 -12  -5   29.60    8.40
  -3 -12  -5   49.80   10.50
  -3 -12  -5   39.90    9.50
  -4 -12  -5   16.60    6.80
  -4 -12  -5   40.90    9.10
  -4 -12  -5   12.60    6.20
  -5 -12  -5    5.80    5.40
  -5 -12  -5   -4.00    5.10
  -5 -12  -5    1.90    4.60
  -6 -12  -5   16.50    6.50
  -6 -12  -5    9.40    6.20
  -6 -12  -5   26.60    8.50
  -7 -12  -5   44.00    9.30
  -7 -12  -5   32.60    9.60
  -7 -12  -5   33.60   10.80
  -8 -12  -5    3.70    5.70
  -8 -12  -5   10.50    7.50
  -8 -12  -5    8.20    6.10
  -9 -12  -5   -4.20    5.70
  -9 -12  -5   -6.20    5.10
 -10 -12  -5    7.10    7.10
 -10 -12  -5    8.90    8.20
 -10 -12  -5    0.90    6.10
   4 -13  -5   27.30   10.00
   4 -13  -5   32.80   10.70
  -4  13   5   30.50   11.00
   3 -13  -5   -0.30    6.90
   3 -13  -5    1.40    6.80
  -3  13   5   -6.50    7.00
   2 -13  -5   10.70    7.30
  -2  13   5   10.40    9.40
   1 -13  -5   22.80    8.10
  -1  13   5   31.10   11.60
   0 -13  -5   38.70    9.50
   0 -13  -5   39.30   10.40
   0  13   5   28.40   11.00
  -1 -13  -5   -2.60    4.70
  -1 -13  -5    4.70    6.30
   1  13   5    1.00    8.40
  -2 -13  -5    1.10    5.50
  -2 -13  -5    1.00    5.30
   2  13   5   -5.30    7.10
  -3 -13  -5  112.89   17.40
  -3 -13  -5   87.69   16.80
  -3 -13  -5  103.99   17.20
  -4 -13  -5   -4.20    4.60
  -4 -13  -5    2.50    6.10
  -4 -13  -5    6.90    6.50
  -5 -13  -5   -0.20    5.40
  -5 -13  -5   -7.90    5.30
  -5 -13  -5    2.00    5.80
  -6 -13  -5    3.00    6.20
  -6 -13  -5   18.60    8.30
  -6 -13  -5    2.70    5.90
  -7 -13  -5   21.40    8.50
  -7 -13  -5   23.40    7.70
  -7 -13  -5   33.50    8.90
  -8 -13  -5   28.40    9.50
  -8 -13  -5   47.90   10.10
  -8 -13  -5   45.30   12.20
   3 -14  -5    8.00    7.10
   3 -14  -5    6.30    7.20
  -3  14   5    5.70    8.50
   2 -14  -5   10.30    7.40
   2 -14  -5    1.00    7.10
  -2  14   5   -5.00    8.00
   1 -14  -5   29.70    9.40
   1 -14  -5   37.40   10.60
  -1  14   5   36.00   11.50
   0 -14  -5   14.40    7.80
   0 -14  -5   14.80    7.10
   0  14   5   -6.30    7.60
  -1 -14  -5    2.70    5.60
  -1 -14  -5   -5.00    4.80
   1  14   5    0.40   10.80
  -2 -14  -5   -0.10    5.20
  -2 -14  -5    4.10   11.70
  -3 -14  -5   11.00    6.90
  -3 -14  -5   16.30    9.30
  -3 -14  -5   10.50    6.80
  -4 -14  -5   13.40    7.20
  -4 -14  -5   22.00    8.20
  -4 -14  -5   28.80   10.30
  -5 -14  -5   -8.40    5.20
  -5 -14  -5    6.70    6.10
  -6 -14  -5   32.60    9.40
  -6 -14  -5   12.70    7.50
  -6 -14  -5   11.40    8.70
  -7 -14  -5   -2.70    6.40
  -7 -14  -5   -3.90    5.30
  -7 -14  -5    0.40    5.40
   0 -15  -5   16.50    8.10
   0 -15  -5   13.60    7.90
   0  15   5   28.40   12.10
  -1 -15  -5   -3.20    6.10
  -1 -15  -5    5.90    6.50
   1  15   5   -8.00    8.20
  -2 -15  -5    2.90    7.20
  -2 -15  -5   -0.70    6.80
  -2 -15  -5    1.00    6.00
  -3 -15  -5    9.20    8.00
  -3 -15  -5   -3.80    5.60
  -3 -15  -5    1.80    6.40
  -4 -15  -5   10.00    7.60
  -4 -15  -5   23.90    8.40
  -4 -15  -5   16.60    8.50
  -1 -13   6   13.80    7.20
  -1 -13   6   19.30    9.60
   0 -13   6    3.80    7.10
   0 -13   6    4.80    5.70
   1 -13   6   -4.50    6.20
   1 -13   6   -4.80    3.40
   1 -13   6    3.90    5.30
  -2  13  -6  125.79   17.90
   2 -13   6   89.29   17.60
   2 -13   6   84.89   14.60
   2 -13   6  129.09   16.30
  -3  13  -6    7.00    6.40
   3 -13   6   -2.10    4.70
   3 -13   6   -1.60    6.00
   3 -13   6   -1.60    7.80
   3 -13   6    4.10    7.00
  -4  13  -6    1.50    5.50
   4 -13   6   -0.50    7.30
   4 -13   6   -3.90    6.20
   4 -13   6    2.70    4.50
   4 -13   6   -4.90   10.90
  -5  13  -6    2.50    7.10
   5 -13   6   15.80   12.00
   5 -13   6   24.60    5.90
   5 -13   6   12.90    7.30
   5 -13   6   18.60    8.50
  -3 -12   6    6.10    7.50
  -3 -12   6    6.00    7.80
  -2 -12   6   38.10   10.80
  -2 -12   6   28.40    9.00
  -1 -12   6    1.20    6.50
  -1 -12   6    4.40    6.10
   0 -12   6    1.40    6.00
   0 -12   6    6.10    5.30
  -1  12  -6   40.70    9.90
   1 -12   6   32.40   10.00
   1 -12   6   36.60    6.20
   1 -12   6   21.20    6.90
   1 -12   6   63.39    9.50
  -2  12  -6    6.60    6.30
   2 -12   6    5.10    4.50
   2 -12   6   -1.30    6.20
   2 -12   6    6.80    4.90
  -3  12  -6   19.80    6.60
   3 -12   6    6.70    6.80
   3 -12   6   16.50    6.60
   3 -12   6   15.20    7.90
   3 -12   6   27.70    6.20
  -4  12  -6    9.00    7.50
   4 -12   6   10.70    7.10
   4 -12   6   29.50    7.50
   4 -12   6    7.10    6.80
   4 -12   6   15.50    5.00
  -5  12  -6   34.90   10.40
   5 -12   6   16.60    9.80
   5 -12   6   39.90   10.40
   5 -12   6   51.59    9.40
   5 -12   6   68.39    8.60
  -6  12  -6    2.70    7.00
   6 -12   6   -0.90    5.70
   6 -12   6    6.60    5.40
   6 -12   6    8.50    4.00
  -7  12  -6    7.90    7.90
   7 -12   6   14.30    4.50
   7 -12   6   13.20    7.30
   7 -12   6   32.50    6.60
  -5 -11   6    1.20    7.40
  -5 -11   6    1.10    6.90
  -4 -11   6   -2.50    6.80
  -4 -11   6   -1.30    6.40
  -3 -11   6   21.80    8.10
  -3 -11   6   31.30    9.40
  -2 -11   6   14.70    6.90
  -2 -11   6    4.30    6.60
  -1 -11   6   16.90   12.50
  -1 -11   6    1.80    5.60
   0  11  -6    2.90    5.70
   0 -11   6   -6.70    5.50
   0 -11   6   -1.10    4.30
  -1  11  -6   85.89   13.00
   1 -11   6   66.79    9.90
   1 -11   6   59.09   13.30
   1 -11   6   86.69   12.10
  -2  11  -6    5.20    5.30
  -2  11  -6    7.90    4.80
   2 -11   6   -2.90    5.00
   2 -11   6    2.60    4.20
   2 -11   6   -3.20    3.80
  -3  11  -6   30.70    6.90
   3 -11   6   12.50    6.20
   3 -11   6   33.20    6.50
   3 -11   6   36.30    9.50
  -4  11  -6    2.20    5.40
   4 -11   6    3.70    3.90
   4 -11   6   10.60    6.10
   4 -11   6   -3.70    5.10
   4 -11   6   -4.10    4.80
  -5  11  -6    3.20    5.70
   5 -11   6    4.50    4.70
   5 -11   6    0.90    8.50
   5 -11   6    6.20    6.00
   5 -11   6    1.40    3.30
  -6  11  -6   42.90   10.00
   6 -11   6   53.69   10.90
   6 -11   6   45.60    7.30
   6 -11   6   36.10   10.60
   6 -11   6   47.00    8.30
  -7  11  -6    5.60    7.00
   7 -11   6   -6.50    4.60
   7 -11   6    2.50    3.10
   7 -11   6   10.30    5.30
  -8  11  -6   -0.10    7.60
   8 -11   6   -0.80    5.90
   8 -11   6   -1.20    2.80
   8 -11   6   -2.40    7.60
  -9  11  -6    6.90    8.50
   9 -11   6   -3.70    7.70
   9 -11   6   -1.10    7.10
   9 -11   6    1.40    2.80
  -6 -10   6   -0.30    6.40
  -6 -10   6   11.60    8.80
  -5 -10   6   14.10    8.00
  -5 -10   6   16.50    8.10
  -4 -10   6    1.80    6.70
  -4 -10   6    7.50    6.40
  -3 -10   6   61.79   15.20
  -3 -10   6   61.39   11.90
  -2 -10   6    0.50    5.90
  -2 -10   6    3.90    6.00
   1  10  -6   13.80    6.10
  -1 -10   6   14.40    6.30
  -1 -10   6    7.50    6.10
   0  10  -6    5.60    4.90
   0 -10   6   -0.30    4.20
   0 -10   6   -4.80    5.30
  -1  10  -6    5.00    4.70
   1 -10   6   13.70    7.10
   1 -10   6   13.40    4.80
  -2  10  -6  112.09   16.30
  -2  10  -6  150.78   17.90
   2 -10   6  113.39   16.50
   2 -10   6  154.18   20.60
  -3  10  -6   -3.30    3.70
   3 -10   6   -2.10    3.40
   3 -10   6    2.80    4.20
   3 -10   6    7.90    6.20
  -4  10  -6    3.10    4.70
   4 -10   6   17.40    6.90
   4 -10   6    6.30    4.70
   4 -10   6    0.30    5.10
   4 -10   6    3.10    3.10
  -5  10  -6   -1.20    5.00
   5 -10   6   -0.90    3.80
   5 -10   6    4.50    6.00
   5 -10   6    3.90    5.00
   5 -10   6    2.40    3.00
  -6  10  -6   66.59   11.10
   6 -10   6   26.30   10.10
   6 -10   6   50.59   10.60
   6 -10   6   41.40    6.50
   6 -10   6   32.00    9.00
  -7  10  -6   -1.70    6.10
   7 -10   6    6.10    2.90
   7 -10   6   14.80    6.30
   7 -10   6    7.00    4.30
  -8  10  -6   10.40    8.10
   8 -10   6   10.50    4.90
   8 -10   6    5.10    6.10
   8 -10   6   19.80    3.80
  -9  10  -6   32.70   11.10
   9 -10   6   58.49   11.30
   9 -10   6   29.10    9.40
   9 -10   6   42.10    6.40
 -10  10  -6   13.70    9.90
  10 -10   6    3.50    3.20
  10 -10   6   -3.30    6.20
  10 -10   6    1.80    6.40
  -7  -9   6   -9.70    6.70
  -7  -9   6   10.30    7.70
  -7  -9   6    8.90    4.20
  -6  -9   6    9.20    8.10
  -5  -9   6   23.20    8.80
  -5  -9   6   27.80    9.20
  -4  -9   6    4.60    5.70
  -4  -9   6   19.50    7.20
  -3  -9   6    9.10    6.10
  -3  -9   6   18.60    7.10
  -2  -9   6    1.00    5.10
  -2  -9   6   15.70    6.60
   1   9  -6   -1.90    4.20
  -1  -9   6   -1.60    5.50
  -1  -9   6    9.50    5.40
   0   9  -6    1.50    4.20
   0  -9   6   12.70    5.20
   0  -9   6   -3.00    4.90
  -1   9  -6   40.90    7.60
   1  -9   6   38.30    7.30
   1  -9   6   29.10    8.70
  -2   9  -6   44.80    7.70
  -2   9  -6   60.79    8.80
   2  -9   6   56.79   10.60
   2  -9   6   40.00    7.20
   2  -9   6   64.29    8.50
   2  -9   6   39.20    7.20
  -3   9  -6   51.89    9.00
  -3   9  -6   45.00    8.30
   3  -9   6   46.30    8.40
   3  -9   6   55.89    8.10
   3  -9   6   56.99   10.50
  -4   9  -6   -0.70    4.00
   4  -9   6   -6.70    3.80
   4  -9   6    3.90    2.90
   4  -9   6    3.40    3.90
   4  -9   6   10.80    5.00
  -5   9  -6   39.00    8.60
   5  -9   6   30.70    5.30
   5  -9   6   34.20    8.20
   5  -9   6   25.70    7.70
   5  -9   6   30.80    5.70
  -6   9  -6    7.70    6.10
   6  -9   6    1.10    3.10
   6  -9   6    0.20    2.10
   6  -9   6    0.10    6.30
   6  -9   6   12.30    5.60
  -7   9  -6   49.70   10.70
   7  -9   6   53.79   10.40
   7  -9   6   39.40   10.50
  -8   9  -6    0.80    7.40
   8  -9   6   -5.50    4.90
  -9   9  -6   13.30    8.50
   9  -9   6   22.50    4.10
   9  -9   6   18.30    6.80
   9  -9   6   20.40    5.00
 -10   9  -6   14.90    9.20
  10  -9   6    0.30    6.40
  10  -9   6    1.80    2.90
  10  -9   6   -0.90    4.90
 -11   9  -6    2.70    8.90
  11  -9   6    1.40    4.50
  11  -9   6   10.30    6.60
  11  -9   6   13.10    4.30
  -7  -8   6   -5.40    6.90
  -7  -8   6   -5.50    6.70
  -7  -8   6   -3.10    5.30
  -7  -8   6    2.20    4.50
  -6  -8   6    8.10    4.00
  -6  -8   6    5.70   11.40
  -6  -8   6   27.80    8.70
  -6  -8   6   12.80    5.20
  -5  -8   6    7.60    6.30
  -5  -8   6   16.90    7.40
  -4  -8   6    8.80    6.50
  -4  -8   6    3.30    5.80
  -3  -8   6    1.70    5.40
  -3  -8   6    1.80    5.00
   2   8  -6   55.09   12.00
  -2  -8   6  114.19   14.00
  -2  -8   6   82.99   13.50
   1   8  -6   39.00    7.40
  -1  -8   6   18.90    7.00
  -1  -8   6   37.80    8.60
   0   8  -6    5.60    3.90
   0  -8   6    8.20    4.40
   0  -8   6    9.00    5.60
  -1   8  -6  114.39   15.10
   1  -8   6  109.29   15.10
   1  -8   6  116.29   17.50
  -2   8  -6    2.60    3.30
  -2   8  -6    2.10    2.70
   2  -8   6    5.40    5.20
   2  -8   6    0.30    2.60
   2  -8   6    3.20    3.10
  -3   8  -6   68.19   11.60
  -3   8  -6   82.79   11.20
   3  -8   6   89.39   11.50
   3  -8   6   85.19   13.60
   3  -8   6   83.39   11.60
  -4   8  -6    0.40    4.30
   4  -8   6    1.30    2.50
   4  -8   6   15.50    5.60
   4  -8   6    4.30    3.30
   4  -8   6    2.20    4.00
  -5   8  -6   52.99    9.10
   5  -8   6   57.79    9.70
   5  -8   6   45.40    8.50
   5  -8   6   44.40    6.00
   5  -8   6   29.80    6.00
  -6   8  -6   54.89   10.70
   6  -8   6   71.39   11.10
   6  -8   6   44.20   10.00
  -7   8  -6   36.90    9.20
   7  -8   6   38.80    8.20
   7  -8   6   22.90    8.20
   7  -8   6   23.70    8.20
  -8   8  -6    0.00    6.60
   8  -8   6   12.00    5.50
  -9   8  -6    5.00    7.50
   9  -8   6   -2.10    2.10
   9  -8   6    3.30    5.00
   9  -8   6    0.10    2.70
 -10   8  -6    4.00    7.40
  10  -8   6   13.90    5.90
  10  -8   6    5.20    3.30
 -11   8  -6    4.50    9.30
  11  -8   6   13.20    6.40
  11  -8   6    5.70    4.00
  11  -8   6    2.80    4.10
 -12   8  -6    0.90    8.60
  12  -8   6    6.30    5.10
  12  -8   6    3.60    5.90
  12  -8   6    0.10    4.70
   8   7  -6   -3.20    6.10
  -8  -7   6    4.10    7.10
  -8  -7   6   -0.90    6.70
  -8  -7   6   -0.60    5.30
   7   7  -6    8.30    5.40
  -7  -7   6    0.50    4.70
  -7  -7   6    7.10    7.30
  -6  -7   6   11.40    7.80
  -6  -7   6   15.00    7.50
  -6  -7   6    9.50    4.20
  -5  -7   6   26.50    4.90
  -5  -7   6   23.30    8.00
  -5  -7   6    9.40    7.10
  -5  -7   6   22.50    4.80
  -4  -7   6    0.60    5.50
  -4  -7   6    2.60    5.00
   3   7  -6   52.79    9.90
  -3  -7   6   42.20   10.10
  -3  -7   6   70.39   11.00
   2   7  -6    7.50    5.10
  -2  -7   6   14.90    6.10
  -2  -7   6   12.30    5.40
   1   7  -6   26.30    6.20
  -1  -7   6   38.50    7.20
  -1  -7   6   25.60    7.70
   0   7  -6    5.40    3.70
   0  -7   6    5.00    5.30
   0  -7   6    1.50    4.10
  -1   7  -6   66.19   11.20
  -1   7  -6   49.90    8.50
   1  -7   6   57.09    8.80
   1  -7   6   50.49   10.20
  -2   7  -6  187.38   21.10
  -2   7  -6  154.48   21.30
  -2   7  -6  157.78   22.50
   2  -7   6  176.98   21.40
   2  -7   6  170.38   22.80
   2  -7   6  166.58   20.90
  -3   7  -6    0.90    3.20
  -3   7  -6    5.60    4.30
  -3   7  -6    2.80    2.60
   3  -7   6    4.20    2.60
   3  -7   6    5.40    4.10
  -4   7  -6    8.40    3.80
  -4   7  -6   -3.80    3.90
   4  -7   6    5.20    2.50
   4  -7   6   -7.30    3.40
   4  -7   6    5.10    2.30
   4  -7   6    9.40    4.70
  -5   7  -6   -3.80    3.80
  -5   7  -6   -1.50    4.00
   5  -7   6   13.10    4.90
   5  -7   6    8.00    4.50
  -6   7  -6  153.88   20.40
   6  -7   6  130.39   18.50
   6  -7   6  134.29   18.70
  -7   7  -6   17.30    7.80
  -7   7  -6   17.60    6.80
   7  -7   6   25.50    6.50
   7  -7   6   33.30    8.00
  -8   7  -6    8.20    5.70
  -8   7  -6   -7.20    5.90
   8  -7   6   14.40    5.00
  -9   7  -6   10.60    6.30
  -9   7  -6   11.00    7.40
   9  -7   6   13.00    5.10
   9  -7   6   15.30    3.20
   9  -7   6    7.90    3.00
 -10   7  -6   10.50    6.70
 -10   7  -6    7.10    8.00
  10  -7   6   14.40    4.00
  10  -7   6    3.70    5.10
  10  -7   6   12.80    5.60
 -11   7  -6    9.00    8.60
  11  -7   6    6.70    4.10
  11  -7   6    6.30    5.30
 -12   7  -6   16.30    9.60
  12  -7   6   -2.10    4.80
  12  -7   6   10.80    5.10
   9   6  -6    4.60    9.10
  -9  -6   6   17.70    9.60
  -9  -6   6    0.10    7.40
   8   6  -6   -7.20    6.70
  -8  -6   6    4.90    7.40
  -8  -6   6    3.70    5.50
  -8  -6   6   -6.20    6.10
   7   6  -6    7.70    6.00
  -7  -6   6   16.30    8.00
  -7  -6   6   16.10    7.90
  -7  -6   6   12.80    5.80
   6   6  -6   -0.70    4.10
  -6  -6   6    2.40    5.80
  -6  -6   6   -8.40    5.80
  -6  -6   6   -1.10    4.00
   5   6  -6   12.30    5.40
  -5  -6   6   27.00    7.60
  -5  -6   6   25.10    5.20
  -5  -6   6   32.80    8.10
  -4  -6   6   -1.40    5.40
  -4  -6   6   -4.30    4.40
   3   6  -6   22.20    7.00
  -3  -6   6   44.40    8.40
  -3  -6   6   35.40    8.20
   2   6  -6  183.48   22.90
  -2  -6   6  163.48   23.30
  -2  -6   6  174.08   23.10
   1   6  -6    5.90    4.70
   1   6  -6    7.90    4.20
  -1  -6   6   14.40    5.00
  -1  -6   6   10.90    5.20
   0   6  -6    2.90    3.10
   0   6  -6    9.00    5.10
   0  -6   6    7.30    4.20
   0  -6   6    8.80    4.90
  -1   6  -6   26.20    6.50
  -1   6  -6   20.50    4.80
   1  -6   6   26.90    6.60
   1  -6   6   30.10    5.70
  -2   6  -6  532.75   66.89
  -2   6  -6  500.05   65.89
  -2   6  -6  658.43   66.19
   2  -6   6  552.44   67.09
   2  -6   6  513.95   65.89
   2  -6   6  537.75   65.59
  -3   6  -6  137.69   16.00
  -3   6  -6  131.69   16.40
   3  -6   6  129.09   22.40
   3  -6   6  125.69   16.00
   3  -6   6  116.09   16.20
  -4   6  -6   49.00    8.50
  -4   6  -6   39.90    7.20
   4  -6   6   34.40    7.80
   4  -6   6   32.70    6.80
  -5   6  -6   53.09   10.40
  -5   6  -6   62.19   10.60
   5  -6   6   76.29   10.90
   5  -6   6   64.69   10.20
  -6   6  -6   33.40    9.00
  -6   6  -6   59.79    9.60
   6  -6   6   41.70    8.50
   6  -6   6   66.99    9.60
  -7   6  -6  174.18   22.90
  -7   6  -6  185.78   24.10
   7  -6   6  169.08   22.70
  -8   6  -6   -3.30    4.70
  -8   6  -6   15.00    7.20
   8  -6   6    1.10    5.50
   8  -6   6   11.20    4.50
  -9   6  -6   39.20    9.80
  -9   6  -6   28.80    9.90
   9  -6   6   46.50    6.40
   9  -6   6   44.90    6.60
 -10   6  -6    5.60    6.30
 -10   6  -6    4.00    6.90
  10  -6   6    7.50    3.80
  10  -6   6    4.00    4.50
 -11   6  -6   16.60    7.10
 -11   6  -6   18.80    9.30
 -11   6  -6   14.50    5.70
  11  -6   6    7.80    5.00
  11  -6   6   11.40    4.40
 -12   6  -6    3.90    5.40
 -12   6  -6   -0.10    6.00
 -12   6  -6   19.70   11.50
  12  -6   6    0.10    4.20
  12  -6   6    0.80    4.60
 -13   6  -6    9.30   10.70
 -13   6  -6    2.90    8.90
  13  -6   6   13.70    8.00
  13  -6   6    5.10    5.80
  13  -6   6    6.70    5.30
  -9  -5   6    1.90    5.90
  -9  -5   6   -1.00    7.00
  -9  -5   6    7.20    8.70
   8   5  -6   -7.50   10.00
  -8  -5   6    1.00   11.40
  -8  -5   6    2.80    7.50
   7   5  -6    5.70    6.20
  -7  -5   6   -5.80    5.80
  -7  -5   6    3.90    6.60
  -7  -5   6    4.80    4.80
   6   5  -6   20.90    7.00
  -6  -5   6   36.60    6.70
  -6  -5   6   43.70    9.20
  -6  -5   6   35.80    8.70
   5   5  -6    1.40    3.50
  -5  -5   6    7.40    5.80
  -5  -5   6    3.60    4.00
  -5  -5   6   -3.50    5.30
   4   5  -6    2.30    3.00
  -4  -5   6   -1.50    4.80
  -4  -5   6    7.10    3.20
  -4  -5   6   10.00    5.80
   3   5  -6    7.50    5.00
  -3  -5   6    2.60    4.70
  -3  -5   6   15.90    5.90
   2   5  -6  126.69   16.50
   2   5  -6  109.19   17.60
  -2  -5   6  134.39   16.70
  -2  -5   6  103.39   17.20
   1   5  -6   18.50    6.50
   1   5  -6   28.10    6.30
  -1  -5   6   48.70    7.40
  -1  -5   6   36.00    7.50
   0   5  -6    0.50    2.90
   0   5  -6    5.80    4.00
   0  -5   6   -1.20    3.20
   0  -5   6    0.40    3.60
  -1   5  -6  264.17   34.40
  -1   5  -6  262.47   33.50
   1  -5   6  283.27   34.70
   1  -5   6  285.87   33.60
  -2   5  -6   50.09    7.60
  -2   5  -6   62.49    9.80
   2  -5   6   52.19    7.10
   2  -5   6   56.69    7.80
   2  -5   6   47.70    9.30
  -3   5  -6  437.26   52.29
  -3   5  -6  416.16   51.59
  -3   5  -6  440.46   51.19
   3  -5   6  406.46   51.39
   3  -5   6  433.46   52.39
  -4   5  -6    0.20    3.40
  -4   5  -6    3.00    3.50
   4  -5   6    3.80    3.00
   4  -5   6    4.90    3.50
  -5   5  -6   50.69    9.40
  -5   5  -6   56.89    9.80
   5  -5   6   63.39    9.80
   5  -5   6   58.89    9.30
  -6   5  -6   16.00    6.10
  -6   5  -6   29.90    6.30
   6  -5   6   31.90    6.30
   6  -5   6   16.10    5.00
  -7   5  -6   62.79   10.20
  -7   5  -6   50.89   11.20
   7  -5   6   63.59   10.00
   7  -5   6   79.49   11.60
  -8   5  -6   11.00    6.30
  -8   5  -6    9.10    4.40
   8  -5   6   -2.30    5.00
   8  -5   6   -0.70    3.30
  -9   5  -6   13.70    5.50
  -9   5  -6   -1.60    6.80
   9  -5   6   11.70    4.30
   9  -5   6    9.10    2.90
 -10   5  -6   10.60    9.30
 -10   5  -6   38.00    7.10
 -10   5  -6   36.60    7.90
  10  -5   6   37.00    6.10
  10  -5   6   44.80    7.60
 -11   5  -6    3.30    7.80
 -11   5  -6    6.40    4.70
 -11   5  -6   -2.00    4.50
  11  -5   6    1.90    4.10
  11  -5   6   -2.00    3.40
 -12   5  -6   -4.20    4.80
 -12   5  -6   -7.90    8.60
  12  -5   6   -5.70    4.00
  12  -5   6    2.80    4.50
 -13   5  -6    3.30    7.60
 -13   5  -6    4.60    8.70
  13  -5   6    7.00    6.60
  13  -5   6    1.50    5.70
  -9  -4   6  -11.60    5.50
  -9  -4   6    1.60    7.40
  -9  -4   6   -6.00    6.90
   8   4  -6    8.40    7.20
  -8  -4   6    4.20    7.30
  -8  -4   6    9.40    6.30
   7   4  -6   -0.10    5.60
  -7  -4   6    3.20    4.90
  -7  -4   6   -0.20    6.40
  -7  -4   6   -0.60    6.50
   6   4  -6   -0.10    4.80
  -6  -4   6    4.80    4.60
  -6  -4   6    1.60    6.00
  -6  -4   6    5.70    5.80
   5   4  -6   79.19   13.50
  -5  -4   6  106.89   15.60
  -5  -4   6   77.39   14.90
  -5  -4   6  122.99   13.80
   4   4  -6    2.30    4.80
   4   4  -6   -2.70    3.90
  -4  -4   6   -3.10    4.40
  -4  -4   6    0.70    4.90
  -4  -4   6    0.20    3.50
   3   4  -6   33.00    5.60
   3   4  -6   30.00    8.30
   3   4  -6   24.60    7.70
  -3  -4   6   42.00    8.50
  -3  -4   6   43.50    8.40
  -3  -4   6   46.40    6.00
   2   4  -6    2.00    4.40
   2   4  -6   -0.60    3.80
  -2  -4   6   -2.50    3.60
  -2  -4   6   11.20    4.80
   1   4  -6   59.79    8.70
   1   4  -6   50.39   10.90
  -1  -4   6   51.89    8.60
  -1  -4   6   37.20    8.40
   0   4  -6    0.80    3.90
   0   4  -6    4.50    3.30
   0  -4   6    5.30    3.80
   0  -4   6   10.10    3.60
  -1   4  -6  111.69   14.10
  -1   4  -6  106.09   13.80
   1  -4   6  119.99   14.30
   1  -4   6   81.99   13.20
  -2   4  -6  325.77   39.60
  -2   4  -6  302.97   38.70
   2  -4   6  324.07   38.50
   2  -4   6  310.27   39.60
   2  -4   6  335.77   38.80
  -3   4  -6   31.90    5.30
  -3   4  -6   20.10    5.50
   3  -4   6   32.00    4.90
   3  -4   6   23.70    5.80
  -4   4  -6   37.10    6.80
  -4   4  -6   37.40    6.50
   4  -4   6   29.70    6.60
   4  -4   6   35.80    6.20
  -5   4  -6    0.40    3.20
  -5   4  -6   -1.20    4.00
   5  -4   6    4.50    3.60
   5  -4   6    5.90    3.20
  -6   4  -6  102.99   15.50
  -6   4  -6  102.19   14.20
   6  -4   6  117.39   15.50
   6  -4   6  106.19   14.20
  -7   4  -6   27.70    5.80
  -7   4  -6   15.20    6.70
   7  -4   6   34.20    7.00
   7  -4   6   25.80    5.50
  -8   4  -6    1.60    3.80
  -8   4  -6    7.60    5.80
  -8   4  -6    2.60    2.50
   8  -4   6   18.10    6.10
   8  -4   6    0.10    1.70
   8  -4   6    3.10    3.10
  -9   4  -6    0.70    3.40
  -9   4  -6    4.00    5.90
  -9   4  -6    9.50    4.20
   9  -4   6    1.10    2.30
   9  -4   6    1.00    3.10
 -10   4  -6   15.40    5.10
 -10   4  -6   18.30    5.30
 -10   4  -6   14.10    8.10
  10  -4   6   13.50    4.10
  10  -4   6   15.30    4.70
 -11   4  -6    2.30    7.30
 -11   4  -6    7.30    5.00
  11  -4   6    7.40    3.80
  11  -4   6    4.90    4.00
 -12   4  -6   10.60    7.90
 -12   4  -6   13.00    6.00
  12  -4   6    4.20    4.20
  12  -4   6   -2.10    4.40
  12  -4   6    2.30    4.60
 -13   4  -6   12.70    7.10
 -13   4  -6   18.30    9.60
  13  -4   6    9.70    5.20
  13  -4   6   14.50    6.00
  13  -4   6   18.30    6.50
 -14   4  -6   21.10   10.10
 -14   4  -6   -5.50    6.50
  14  -4   6    0.30    6.00
  14  -4   6   -2.00    4.50
 -10  -3   6    5.40    8.60
 -10  -3   6    5.90    7.50
 -10  -3   6   11.50    7.90
  -9  -3   6   25.50   14.50
  -9  -3   6    9.60    8.20
  -9  -3   6   20.20    8.00
   8   3  -6    6.10    6.80
  -8  -3   6   12.00    6.20
  -8  -3   6    1.50    7.10
  -8  -3   6   -1.10    6.30
   7   3  -6    6.00    5.80
  -7  -3   6   16.10    7.40
  -7  -3   6   13.70    6.20
  -7  -3   6    5.90    6.90
   6   3  -6   -1.40    5.10
  -6  -3   6    1.70    5.90
  -6  -3   6   -0.90    4.80
  -6  -3   6   -2.30    5.50
   5   3  -6   32.60    7.60
  -5  -3   6   46.30    9.60
  -5  -3   6   37.50    9.00
  -5  -3   6   40.80    7.80
   4   3  -6    8.70    5.70
   4   3  -6   20.20    4.80
  -4  -3   6   24.30    6.40
  -4  -3   6   12.40    4.30
  -4  -3   6   18.20    6.50
   3   3  -6   12.80    3.60
   3   3  -6    4.30    5.10
   3   3  -6    9.40    5.40
  -3  -3   6    3.20    2.90
  -3  -3   6   -1.80    6.80
  -3  -3   6    0.40    3.80
   2   3  -6   30.40    4.50
   2   3  -6   24.60    6.50
   2   3  -6   30.20    6.20
  -2  -3   6   16.80    5.90
  -2  -3   6   20.90    5.10
  -2  -3   6   33.00    7.20
   1   3  -6   10.20    4.10
   1   3  -6    7.60    4.50
  -1  -3   6    4.10    4.10
  -1  -3   6    5.00    4.00
   0   3  -6   57.19   10.40
   0   3  -6   67.19    9.60
   0  -3   6   51.89    9.80
   0  -3   6   69.99    9.70
  -1   3  -6    9.50    4.10
  -1   3  -6    8.10    3.10
   1  -3   6   11.10    3.40
   1  -3   6    7.80    4.30
  -2   3  -6  276.17   35.70
  -2   3  -6  288.27   35.70
  -2   3  -6  294.87   36.60
   2  -3   6  327.27   36.70
   2  -3   6  307.87   35.90
  -3   3  -6   16.50    4.50
  -3   3  -6   24.60    4.50
   3  -3   6   17.50    4.80
   3  -3   6   21.20    4.30
  -4   3  -6    8.90    4.20
  -4   3  -6   16.40    4.40
   4  -3   6   19.00    4.10
   4  -3   6   11.00    3.90
  -5   3  -6   38.00    6.60
  -5   3  -6   23.10    4.90
   5  -3   6   32.10    5.50
   5  -3   6   12.30    4.90
  -6   3  -6   29.00    7.60
  -6   3  -6   47.50    7.10
   6  -3   6   46.60    8.10
   6  -3   6   42.90    6.90
  -7   3  -6  120.69   15.60
  -7   3  -6   98.09   16.90
   7  -3   6  127.89   15.50
   7  -3   6  123.49   16.60
  -8   3  -6    3.90    3.00
  -8   3  -6    0.50    5.20
  -8   3  -6    2.00    3.20
   8  -3   6    0.80    2.70
   8  -3   6    3.50    2.10
   8  -3   6    1.10    4.60
  -9   3  -6   35.10    8.40
  -9   3  -6   36.90    6.30
  -9   3  -6   30.40    6.20
   9  -3   6   42.00    6.20
   9  -3   6   24.50    5.80
 -10   3  -6   14.60    7.60
 -10   3  -6   -0.10    3.50
 -10   3  -6   -1.10    4.10
  10  -3   6    6.10    3.50
  10  -3   6    1.10    2.80
 -11   3  -6   17.60    8.50
 -11   3  -6   37.80    7.20
  11  -3   6   16.50    4.40
  11  -3   6   15.70    5.20
  11  -3   6   20.20    5.30
 -12   3  -6    7.30    7.60
 -12   3  -6   -4.60    5.70
  12  -3   6   -3.00    4.10
  12  -3   6    1.20    4.30
  12  -3   6    0.10    3.40
 -13   3  -6    3.80    6.90
 -13   3  -6   12.90    8.80
  13  -3   6    9.80    4.10
  13  -3   6    6.10    5.70
  13  -3   6    2.30    4.70
 -14   3  -6   11.70    8.50
 -14   3  -6   23.50   10.20
  14  -3   6   21.60    5.60
  14  -3   6   23.50    6.70
 -10  -2   6    6.00    8.70
 -10  -2   6   11.10    9.10
 -10  -2   6   13.80    8.70
  -9  -2   6   14.70    7.60
  -9  -2   6    3.90    7.40
  -9  -2   6    0.10    7.60
   8   2  -6   -0.20    7.20
  -8  -2   6    8.70    7.40
  -8  -2   6   -6.60    6.10
  -8  -2   6    2.60    7.50
   7   2  -6    0.20    6.50
  -7  -2   6   11.20    6.50
  -7  -2   6    8.70    6.10
  -7  -2   6    4.10    6.70
   6   2  -6   -0.10    5.30
  -6  -2   6   15.90    5.80
  -6  -2   6   -0.70    5.80
  -6  -2   6    0.40    5.60
   5   2  -6   41.90    7.60
  -5  -2   6   45.70    9.00
  -5  -2   6   24.30    6.70
  -5  -2   6   28.80    8.10
   4   2  -6   12.70    6.40
   4   2  -6   10.60    5.00
   4   2  -6    6.30    4.90
  -4  -2   6    4.00    5.00
  -4  -2   6   11.40    4.00
  -4  -2   6   10.40    5.20
   3   2  -6    5.80    4.50
   3   2  -6    0.90    4.40
  -3  -2   6    4.20    4.50
  -3  -2   6    7.10    4.40
  -3  -2   6    8.10    3.40
   2   2  -6  310.27   42.30
   2   2  -6  356.56   41.20
   2   2  -6  378.66   42.20
  -2  -2   6  356.46   42.10
  -2  -2   6  263.57   42.10
  -2  -2   6  349.37   41.30
   1   2  -6    7.70    4.50
   1   2  -6    9.10    4.60
   1   2  -6    8.60    3.00
  -1  -2   6    9.80    3.00
  -1  -2   6   10.20    4.50
  -1  -2   6   19.40    5.60
   0   2  -6   19.50    4.90
   0   2  -6   15.80    3.20
   0   2  -6   19.00    5.10
   0  -2   6   14.10    4.70
   0  -2   6    7.50    4.40
  -1   2  -6   84.19   12.20
  -1   2  -6  117.99   14.10
  -1   2  -6   94.39   11.70
  -1   2  -6   83.29   11.80
   1  -2   6   98.29   12.30
   1  -2   6   91.09   13.20
  -2   2  -6  152.68   19.20
  -2   2  -6  147.79   18.40
  -2   2  -6  145.49   18.40
   2  -2   6  146.59   19.10
   2  -2   6  150.08   18.50
  -3   2  -6  390.96   47.40
  -3   2  -6  384.66   46.70
  -3   2  -6  386.56   47.20
   3  -2   6  380.56   47.50
   3  -2   6  403.66   47.20
  -4   2  -6    3.70    2.80
  -4   2  -6   11.30    3.70
   4  -2   6    8.20    3.30
   4  -2   6    4.70    3.30
  -5   2  -6  117.09   14.90
  -5   2  -6  110.29   15.60
   5  -2   6  122.09   15.40
   5  -2   6  113.89   14.90
  -6   2  -6    7.70    4.80
  -6   2  -6    4.40    2.50
   6  -2   6    1.70    3.80
   6  -2   6    0.20    2.60
  -7   2  -6  158.78   22.50
  -7   2  -6  165.28   21.10
  -7   2  -6  173.28   21.30
   7  -2   6  189.58   21.00
   7  -2   6  162.18   21.30
   7  -2   6  166.78   22.40
  -8   2  -6    9.60    3.10
  -8   2  -6    1.90    5.00
  -8   2  -6    7.80    3.40
   8  -2   6    6.60    2.70
   8  -2   6    7.30    5.10
   8  -2   6    2.50    2.50
  -9   2  -6   23.70    5.10
  -9   2  -6   23.00    4.20
  -9   2  -6   13.70    6.60
   9  -2   6   22.20    7.00
   9  -2   6   14.50    3.90
   9  -2   6   16.30    3.80
 -10   2  -6   52.29    9.10
 -10   2  -6   57.79   10.80
  10  -2   6   51.99    7.20
  10  -2   6   41.40    7.30
  10  -2   6   45.00    7.80
 -11   2  -6   -8.70    6.30
 -11   2  -6    4.30    5.00
  11  -2   6   -1.70    3.70
  11  -2   6    0.60    2.70
  11  -2   6   -1.80    3.30
 -12   2  -6    2.10    7.60
  12  -2   6   -0.70    3.60
  12  -2   6    0.30    4.50
  12  -2   6    3.80    2.90
 -13   2  -6    4.70    6.70
 -13   2  -6   -7.40    6.60
  13  -2   6    4.40    2.90
  13  -2   6    3.30    5.60
 -14   2  -6   19.80   10.10
 -14   2  -6   21.40    8.70
  14  -2   6   21.50    4.60
 -10  -1   6   13.90    8.30
 -10  -1   6    7.60    8.30
 -10  -1   6   15.80    9.00
  -9  -1   6   12.80    8.40
  -9  -1   6   -8.60    7.30
  -9  -1   6   -0.40    6.80
  -8  -1   6    9.10    7.80
  -8  -1   6   14.10    7.30
  -8  -1   6    7.00    7.60
   7   1  -6    8.60    6.80
  -7  -1   6   -0.90    6.50
  -7  -1   6   -0.30    6.20
  -7  -1   6    6.80    6.30
   6   1  -6   15.30    6.60
  -6  -1   6   20.50    6.60
  -6  -1   6   20.50    7.90
  -6  -1   6   17.70    7.20
   5   1  -6   58.09    9.60
  -5  -1   6   50.89   10.30
  -5  -1   6   45.70    9.80
  -5  -1   6   43.70    9.00
   4   1  -6    3.90    5.30
   4   1  -6    8.00    4.80
   4   1  -6    1.60    5.10
  -4  -1   6   11.50    6.10
  -4  -1   6   10.80    4.80
  -4  -1   6   17.50    5.90
   3   1  -6    9.20    5.30
   3   1  -6   15.40    4.90
   3   1  -6   25.70    6.40
  -3  -1   6   21.70    6.10
  -3  -1   6    9.70    5.30
  -3  -1   6   14.90    4.60
   2   1  -6   16.60    5.30
   2   1  -6    6.90    4.80
   2   1  -6   25.00    5.70
  -2  -1   6   17.70    5.90
  -2  -1   6   15.70    5.30
  -2  -1   6   14.30    4.30
   1   1  -6  139.39   19.30
   1   1  -6  147.29   18.50
   1   1  -6  156.28   19.70
  -1  -1   6  151.68   19.50
  -1  -1   6  147.49   18.60
  -1  -1   6  141.29   19.20
   0   1  -6   37.60    5.70
   0   1  -6   37.10    6.80
   0   1  -6   34.80    7.20
   0  -1   6   27.10    5.70
   0  -1   6   42.70    6.70
   0  -1   6   33.80    7.00
  -1   1  -6   96.69   13.70
  -1   1  -6   83.39   12.50
  -1   1  -6   96.79   12.30
   1  -1   6  118.39   13.50
   1  -1   6   92.39   12.70
  -2   1  -6  365.46   45.90
  -2   1  -6  376.86   46.30
  -2   1  -6  340.17   45.80
  -2   1  -6  437.16   46.20
   2  -1   6  434.56   46.40
   2  -1   6  344.77   45.90
  -3   1  -6  640.94   79.29
  -3   1  -6  615.44   79.29
  -3   1  -6  593.14   79.59
  -3   1  -6  729.73   79.69
   3  -1   6  776.32   79.89
   3  -1   6  635.94   79.89
  -4   1  -6  137.09   17.20
  -4   1  -6  129.29   17.60
  -4   1  -6  141.69   17.30
  -4   1  -6  161.58   18.10
   4  -1   6  140.79   18.00
   4  -1   6  141.69   17.80
  -5   1  -6    1.40    1.70
  -5   1  -6    5.10    3.70
  -5   1  -6   -4.40    2.00
   5  -1   6    0.40    3.10
   5  -1   6   -0.80    2.10
  -6   1  -6  240.88   33.50
  -6   1  -6  259.77   32.50
  -6   1  -6  264.87   32.60
   6  -1   6  262.47   33.40
   6  -1   6  288.17   32.50
   6  -1   6  277.07   32.60
  -7   1  -6   15.70    5.40
  -7   1  -6   11.00    3.60
   7  -1   6   18.70    5.60
  -8   1  -6   76.39   10.20
  -8   1  -6   91.09   13.40
  -8   1  -6   82.49   11.50
   8  -1   6   85.89   10.80
   8  -1   6   74.99   12.80
  -9   1  -6   -2.60    5.50
  -9   1  -6    1.20    3.50
   9  -1   6   -0.20    4.70
   9  -1   6    0.00    2.80
 -10   1  -6   55.09   11.30
 -10   1  -6   44.90    9.10
  10  -1   6   65.29    8.90
 -11   1  -6   15.70    5.80
 -11   1  -6   18.00    7.80
  11  -1   6   10.60    4.70
 -12   1  -6   35.80    8.50
 -12   1  -6   22.60    8.80
  12  -1   6   24.20    6.90
 -13   1  -6   10.80    6.70
 -13   1  -6   -7.50    9.80
 -14   1  -6    2.50    6.90
 -14   1  -6   12.40    8.90
  10   0  -6   -2.00    7.80
 -10   0   6   -5.50    7.40
 -10   0   6    1.50    7.90
  -9   0   6    8.50    8.00
  -9   0   6    4.10    7.70
  -9   0   6   10.00    8.00
  -8   0   6    7.20    7.70
  -8   0   6   17.30    6.40
  -8   0   6    5.70    7.40
   7   0  -6   -6.70    6.30
  -7   0   6   -2.20    5.30
  -7   0   6    7.20    6.10
  -7   0   6   -8.00    5.20
  -6   0   6   14.00    6.90
  -6   0   6   -5.40    4.80
  -6   0   6   -5.10    5.30
   5   0  -6   85.19   13.00
  -5   0   6   93.39   13.90
  -5   0   6   73.29   12.70
   4   0  -6   30.30    7.10
   4   0  -6   33.90    6.70
   4   0  -6   17.50    6.40
  -4   0   6   12.20    5.60
  -4   0   6   22.10    6.80
  -4   0   6   20.40    6.10
   3   0  -6   -2.40    4.50
   3   0  -6   -5.20    4.30
   3   0  -6   10.30    4.50
  -3   0   6   -3.70    3.50
  -3   0   6   -7.60    4.00
  -3   0   6    6.00    5.10
   2   0  -6  140.39   21.80
   2   0  -6  163.58   21.30
   2   0  -6  177.78   22.00
  -2   0   6  169.38   22.10
  -2   0   6  187.98   21.70
  -2   0   6  163.98   22.10
   1   0  -6   67.79   12.50
   1   0  -6   95.89   12.70
  -1   0   6   79.99   12.40
  -1   0   6   89.99   11.90
  -1   0   6   89.59   13.00
   0   0  -6  142.39   20.50
   0   0  -6  153.18   20.40
   0   0  -6  183.98   20.10
   0   0   6  159.88   20.30
   0   0   6  152.08   20.60
   0   0   6  151.98   20.30
  -1   0  -6  132.59   16.70
  -1   0  -6  116.29   16.20
  -1   0  -6  114.49   16.20
  -1   0  -6  122.39   16.10
   1   0   6  145.39   16.50
   1   0   6  129.49   16.70
  -2   0  -6 1791.52  212.78
  -2   0  -6 1798.82  212.58
  -2   0  -6 1853.91  212.78
  -2   0  -6 1793.42  212.58
   2   0   6 1747.63  212.58
   2   0   6 1676.93  212.68
  -3   0  -6   10.90    4.10
  -3   0  -6   14.60    3.50
  -3   0  -6   11.00    3.20
  -3   0  -6   10.70    6.20
   3   0   6    6.60    3.40
   3   0   6   15.20    4.00
  -4   0  -6  694.43   87.89
  -4   0  -6  759.62   87.89
  -4   0  -6  776.82   88.29
  -4   0  -6  707.43   87.69
   4   0   6  734.23   87.89
   4   0   6  726.73   88.29
  -5   0  -6   37.20    5.80
  -5   0  -6   44.60    7.60
  -5   0  -6   40.00    5.90
   5   0   6   44.00    6.10
   5   0   6   48.20    6.30
   5   0   6   32.10    7.00
  -6   0  -6   45.10    7.10
  -6   0  -6   22.70    3.90
  -6   0  -6   34.40    4.60
   6   0   6   16.40    4.20
   6   0   6   32.70    4.30
   6   0   6   34.60    6.40
  -7   0  -6  352.76   42.60
  -7   0  -6  363.76   43.70
   7   0   6  325.17   42.80
   7   0   6  371.66   43.60
  -8   0  -6   98.69   12.50
  -8   0  -6  120.29   15.10
   8   0   6   89.29   13.90
   8   0   6   79.49   12.10
  -9   0  -6    4.60    4.10
  -9   0  -6   -5.80    5.30
   9   0   6    4.70    3.20
   9   0   6    2.40    4.50
 -10   0  -6   -4.30    5.80
 -10   0  -6    3.30    4.50
  10   0   6    0.10    3.50
 -11   0  -6   59.59   10.10
 -11   0  -6   74.49   12.30
  11   0   6   45.30    9.00
 -12   0  -6    1.60    5.00
 -12   0  -6   -5.40    6.60
  12   0   6    4.80    4.80
 -13   0  -6    5.40    6.70
 -14   0  -6   16.10    8.00
 -14   0  -6   19.00    9.70
  10  -1  -6   -1.40    8.10
 -10   1   6    4.00    8.20
 -10   1   6   22.70    9.50
   9  -1  -6    9.40    7.90
  -9   1   6   23.40    8.50
  -9   1   6   -0.10    7.20
   8  -1  -6   11.70    7.80
  -8   1   6   -6.50    6.30
  -8   1   6   -4.20    6.10
  -7   1   6   60.09   10.70
  -7   1   6   49.00   10.50
  -7   1   6   25.50   10.00
   6  -1  -6   65.09   11.70
  -6   1   6   59.09   11.50
  -6   1   6   56.59   11.90
  -6   1   6   69.49   12.40
   5  -1  -6   57.99   10.70
  -5   1   6   77.59   12.20
  -5   1   6   76.39   12.10
  -5   1   6   41.10   10.00
   4  -1  -6   21.60    6.40
   4  -1  -6    0.40    5.00
   4  -1  -6   12.30    6.20
  -4   1   6   13.00    5.50
  -4   1   6   12.10    6.00
  -4   1   6   14.30    6.10
   3  -1  -6    7.30    5.00
   3  -1  -6    5.60    5.70
   3  -1  -6    0.50    4.30
  -3   1   6    9.80    4.90
  -3   1   6    2.60    5.10
  -3   1   6    0.40    4.10
   2  -1  -6  444.66   56.39
   2  -1  -6  470.45   56.79
   2  -1  -6  479.35   56.99
  -2   1   6  493.95   56.89
  -2   1   6  450.85   56.69
  -2   1   6  440.36   56.79
   1  -1  -6    0.10    3.50
   1  -1  -6    8.80    4.30
   1  -1  -6   10.90    5.00
  -1   1   6    7.40    3.80
  -1   1   6   13.00    5.00
  -1   1   6    3.40    4.00
   0  -1  -6   44.70    7.60
   0  -1  -6   44.50    8.60
   0  -1  -6   75.09    9.00
   0   1   6   43.10    8.00
   0   1   6   35.10    7.50
   0   1   6   52.39    8.90
  -1  -1  -6   12.00    4.70
  -1  -1  -6   11.80    4.30
  -1  -1  -6   13.50    4.30
   1   1   6    5.50    4.10
   1   1   6    8.90    4.20
   1   1   6   22.80    5.40
  -2  -1  -6  422.16   50.49
  -2  -1  -6  442.26   50.59
  -2  -1  -6  401.26   50.29
  -2  -1  -6  395.46   50.69
   2   1   6  396.06   50.49
   2   1   6  431.26   50.49
  -3  -1  -6 1131.09  124.09
  -3  -1  -6  999.20  123.69
  -3  -1  -6  976.50  124.19
  -3  -1  -6 1015.20  123.79
  -3  -1  -6 1012.00  123.79
   3   1   6 1059.09  123.79
  -4  -1  -6   59.79    8.80
  -4  -1  -6   36.80    7.20
  -4  -1  -6   69.39    8.10
   4   1   6   52.79    8.60
   4   1   6   59.49    7.90
  -5  -1  -6   42.50    5.60
  -5  -1  -6   48.90    7.80
  -5  -1  -6   40.50    6.30
   5   1   6   35.50    7.10
   5   1   6   36.30    6.40
  -6  -1  -6   13.70    3.00
  -6  -1  -6    7.30    4.30
   6   1   6    4.70    2.60
   6   1   6    2.40    3.80
  -7  -1  -6  244.48   31.40
  -7  -1  -6  234.38   32.30
   7   1   6  287.27   31.60
   7   1   6  247.88   32.30
  -8  -1  -6   51.59    8.20
  -8  -1  -6   62.59   10.00
   8   1   6   31.00    8.50
   8   1   6   57.69    8.00
  -9  -1  -6   14.00    4.50
  -9  -1  -6    9.70    5.90
   9   1   6    7.20    5.40
   9   1   6   10.10    4.20
 -10  -1  -6   36.30    8.70
 -10  -1  -6   23.20    6.80
  10   1   6   29.40    6.20
 -11  -1  -6    8.70    5.50
 -11  -1  -6    5.50    6.20
  11   1   6   13.20    5.30
 -12  -1  -6   10.90    6.70
 -12  -1  -6   11.30    8.00
  12   1   6    8.90    5.40
 -13  -1  -6    1.80    6.30
 -14  -1  -6   20.80    8.50
 -14  -1  -6   18.90    9.60
  10  -2  -6    8.40    8.90
 -10   2   6    3.60    8.30
   9  -2  -6   -6.70    7.30
  -9   2   6  -11.70    6.30
  -9   2   6    8.80    7.50
   8  -2  -6   21.70    8.00
  -8   2   6   10.40    7.00
  -8   2   6   12.80    7.90
   7  -2  -6    5.90    6.30
  -7   2   6   -1.70    5.10
  -7   2   6    2.70    6.50
   6  -2  -6    3.10    6.80
   6  -2  -6   12.30    6.30
  -6   2   6  -12.10    5.10
  -6   2   6   -9.20    4.70
   5  -2  -6    3.50    5.30
  -5   2   6   -2.30    5.10
  -5   2   6    1.00    4.90
   4  -2  -6   11.10    5.90
   4  -2  -6   10.70    6.10
   4  -2  -6    9.90    5.50
  -4   2   6   16.60    5.90
  -4   2   6   19.30    6.40
  -4   2   6   12.80    5.20
   3  -2  -6   -3.90    4.10
   3  -2  -6   -1.20    4.10
   3  -2  -6   14.20    7.80
  -3   2   6    4.00    4.70
  -3   2   6    4.50    4.50
  -3   2   6   11.70    5.80
   2  -2  -6   58.59    9.80
   2  -2  -6   42.80    8.50
   2  -2  -6   54.59    8.90
  -2   2   6   45.50    8.90
  -2   2   6   41.00    9.00
  -2   2   6   56.49    9.20
   1  -2  -6  214.98   25.30
   1  -2  -6  186.98   25.30
   1  -2  -6  189.98   25.10
  -1   2   6  209.28   25.40
  -1   2   6  197.98   25.30
  -1   2   6  176.68   25.20
   0  -2  -6    9.50    4.60
   0  -2  -6   12.40    4.60
   0  -2  -6    7.40    4.20
   0   2   6    3.00    4.50
   0   2   6   23.60    5.20
   0   2   6   15.00    5.30
  -1  -2  -6   51.79    8.50
  -1  -2  -6   50.79    8.80
  -1  -2  -6   50.59    9.00
   1   2   6   56.99    8.80
   1   2   6   49.60    8.90
   1   2   6   59.99    9.50
  -2  -2  -6   39.10    6.10
  -2  -2  -6   28.30    6.00
  -2  -2  -6   16.10    4.70
  -2  -2  -6   22.20    5.10
  -2  -2  -6   15.50    4.90
   2   2   6   18.30    5.40
  -3  -2  -6  949.60  118.29
  -3  -2  -6  993.10  117.69
  -3  -2  -6 1016.60  118.09
  -3  -2  -6  968.10  117.89
  -3  -2  -6  973.30  117.69
  -4  -2  -6   30.20    6.10
  -4  -2  -6   24.70    4.60
  -4  -2  -6   43.10    5.50
  -4  -2  -6   18.70    4.40
   4   2   6   24.50    5.10
   4   2   6   20.20    5.30
  -5  -2  -6    4.20    2.20
  -5  -2  -6    4.80    2.10
  -5  -2  -6    4.80    2.60
  -5  -2  -6    1.50    3.50
   5   2   6    1.40    4.00
   5   2   6    0.10    2.70
  -6  -2  -6  144.69   18.60
  -6  -2  -6  141.09   17.80
   6   2   6  140.39   17.80
   6   2   6  127.39   18.30
  -7  -2  -6  165.78   20.90
  -7  -2  -6  180.08   22.30
   7   2   6  135.89   21.40
   7   2   6  177.18   21.00
  -8  -2  -6  110.39   15.20
  -8  -2  -6  100.89   12.90
   8   2   6   81.39   13.20
   8   2   6   84.79   14.50
  -9  -2  -6   -4.50    4.40
  -9  -2  -6    1.50    3.90
   9   2   6    6.30    3.70
 -10  -2  -6   82.89   14.50
  10   2   6   83.59   13.00
 -11  -2  -6   -4.00    6.20
 -11  -2  -6    6.40    5.20
  11   2   6    6.40    4.60
 -12  -2  -6   13.70    6.60
 -12  -2  -6    9.80    7.80
 -13  -2  -6   -9.80   11.20
 -13  -2  -6   10.20    6.90
 -14  -2  -6   22.60    9.90
 -14  -2  -6    0.40    7.00
  10  -3  -6   16.70    9.50
 -10   3   6   16.10    8.70
 -10   3   6    7.80    8.30
  -9   3   6   14.60    7.90
  -9   3   6   21.70   10.60
   8  -3  -6   12.30    7.80
  -8   3   6   17.90    7.80
  -8   3   6   22.50    8.70
   7  -3  -6    0.70    6.30
  -7   3   6   -6.90    5.50
  -7   3   6   -3.40    5.40
   6  -3  -6   -1.20    6.30
  -6   3   6   -5.50    4.90
  -6   3   6    8.30    6.50
   5  -3  -6  100.99   18.10
   5  -3  -6  138.99   18.50
  -5   3   6  112.29   17.90
  -5   3   6  121.19   18.10
   4  -3  -6   -1.90    5.10
   4  -3  -6    6.30    5.60
   4  -3  -6    1.80    4.90
  -4   3   6    5.30    5.90
  -4   3   6    9.90    5.80
   3  -3  -6    5.50    5.00
   3  -3  -6   -2.30    4.70
   3  -3  -6    8.40    5.10
   3  -3  -6    4.50    4.70
  -3   3   6   -2.20    4.10
  -3   3   6   -1.20    4.60
   2  -3  -6   31.10    7.20
   2  -3  -6   26.90    6.60
   2  -3  -6   26.40    6.50
   2  -3  -6   27.50    6.80
  -2   3   6   14.90    6.00
  -2   3   6   22.10    7.00
   1  -3  -6  153.38   20.80
   1  -3  -6  161.28   20.90
   1  -3  -6  168.08   20.90
   1  -3  -6  152.98   20.80
  -1   3   6  179.48   21.20
  -1   3   6  134.49   20.80
   0  -3  -6   35.70    7.90
   0  -3  -6   61.99    8.40
   0  -3  -6   32.50    7.80
   0  -3  -6   46.50    8.00
   0   3   6   32.80    7.90
   0   3   6   43.40    8.00
  -1  -3  -6    9.00    4.30
  -1  -3  -6   -2.40    3.50
  -1  -3  -6    9.00    4.70
  -1  -3  -6    6.30    4.30
   1   3   6    8.50    4.70
   1   3   6    4.60    4.10
  -2  -3  -6  172.38   24.10
  -2  -3  -6  208.08   23.60
  -2  -3  -6  181.08   23.40
  -2  -3  -6  179.58   23.40
  -2  -3  -6  188.48   23.90
  -3  -3  -6   21.60    5.20
  -3  -3  -6   17.90    4.80
  -3  -3  -6   22.40    6.10
  -3  -3  -6   14.20    4.10
  -3  -3  -6   20.80    4.60
  -3  -3  -6   10.10    4.40
  -4  -3  -6  286.97   34.90
  -4  -3  -6  280.27   35.30
  -4  -3  -6  281.67   34.00
  -4  -3  -6  263.47   34.00
  -4  -3  -6  288.07   34.40
   4   3   6  279.17   34.50
  -5  -3  -6   16.00    5.10
  -5  -3  -6   12.80    3.00
  -5  -3  -6   15.20    3.50
  -5  -3  -6   12.70    4.10
   5   3   6   18.80    4.60
   5   3   6    7.70    4.70
  -6  -3  -6   16.00    5.40
  -6  -3  -6   17.90    4.20
   6   3   6    6.70    4.60
   6   3   6   17.30    4.30
  -7  -3  -6   41.50    7.60
  -7  -3  -6   49.60    9.70
   7   3   6   48.70    8.00
  -8  -3  -6    9.20    5.30
  -8  -3  -6    0.40    3.30
   8   3   6    3.50    4.30
   8   3   6    5.90    3.90
  -9  -3  -6    8.90    5.60
  -9  -3  -6   17.60    5.00
   9   3   6    2.10    3.90
 -10  -3  -6   12.20    5.00
 -10  -3  -6    8.60    6.20
  10   3   6   20.20    5.60
 -11  -3  -6   35.10    8.90
 -11  -3  -6   49.80   11.30
  11   3   6   58.09   13.90
 -12  -3  -6   11.70    8.20
 -12  -3  -6    7.10    5.80
 -13  -3  -6    1.80    6.10
 -13  -3  -6   -3.00    7.60
 -14  -3  -6    2.80    7.40
 -14  -3  -6   -1.00    7.60
  10  -4  -6  -11.00    8.20
 -10   4   6  -10.70    7.40
 -10   4   6    4.90    8.10
   9  -4  -6   39.80   10.70
  -9   4   6   24.70   10.30
  -9   4   6   40.00   10.70
   8  -4  -6    1.30    7.10
  -8   4   6   16.80    8.50
  -8   4   6    7.80    8.10
   7  -4  -6    4.70    6.70
  -7   4   6   -1.60    7.00
  -7   4   6    2.40    6.90
   6  -4  -6    0.60    5.90
  -6   4   6    2.60    6.60
  -6   4   6    2.20    6.30
   5  -4  -6   52.19   10.40
  -5   4   6   30.80    9.40
  -5   4   6   52.49   10.10
   4  -4  -6   61.99   11.80
   4  -4  -6   60.09   11.50
  -4   4   6   65.79   11.80
  -4   4   6   75.69   12.50
   3  -4  -6   -3.80    9.40
   3  -4  -6    7.70    5.30
   3  -4  -6    6.60    5.00
   3  -4  -6   19.60    6.30
  -3   4   6   12.90    6.10
   2  -4  -6   22.70   10.50
   2  -4  -6   41.00   11.20
   2  -4  -6   43.50    8.90
   2  -4  -6   37.80    9.10
  -2   4   6   43.40    8.90
  -2   4   6   66.59   11.60
   1  -4  -6    4.40    4.80
   1  -4  -6    1.30    4.30
   1  -4  -6    5.60    4.40
   1  -4  -6   -5.60    3.40
  -1   4   6   -1.40    3.90
  -1   4   6    4.20    3.90
   0  -4  -6  106.89   15.20
   0  -4  -6  111.49   15.10
   0  -4  -6  112.99   15.10
   0  -4  -6   96.39   15.40
   0   4   6  120.49   15.70
   0   4   6   77.59   14.80
  -1  -4  -6    4.80    3.60
  -1  -4  -6   -1.20    3.90
  -1  -4  -6    1.90    3.50
  -1  -4  -6   -3.00    3.30
  -1  -4  -6    2.20    4.20
   1   4   6   -8.60    4.20
  -2  -4  -6   78.19   12.10
  -2  -4  -6   77.49   11.70
  -2  -4  -6   59.99   12.30
  -2  -4  -6   90.49   12.00
  -2  -4  -6   99.79   12.30
   2   4   6   77.99   13.20
  -3  -4  -6  218.98   28.10
  -3  -4  -6  240.88   28.90
  -3  -4  -6  204.28   28.30
  -3  -4  -6  210.78   27.60
  -3  -4  -6  226.98   27.90
  -3  -4  -6  233.68   27.60
  -4  -4  -6  117.09   15.40
  -4  -4  -6  127.99   15.60
  -4  -4  -6   96.19   16.50
  -4  -4  -6  103.09   14.70
  -4  -4  -6  109.69   14.20
   4   4   6  111.39   14.80
  -5  -4  -6    1.80    2.00
  -5  -4  -6   -6.20    3.60
  -5  -4  -6    1.00    2.60
  -5  -4  -6    0.30    2.90
   5   4   6   -0.40    3.30
  -6  -4  -6    2.80    3.80
  -6  -4  -6    3.70    1.80
  -6  -4  -6    0.30    2.80
   6   4   6   -3.70    3.70
   6   4   6    5.40    3.70
  -7  -4  -6  156.08   20.20
  -7  -4  -6  172.88   21.10
   7   4   6  142.09   20.70
   7   4   6  152.98   20.20
  -8  -4  -6   27.60    5.70
  -8  -4  -6    7.80    5.90
   8   4   6    8.90    4.40
   8   4   6    9.10    5.00
  -9  -4  -6   12.70    6.10
  -9  -4  -6   -6.60    3.90
   9   4   6    8.50    4.50
 -10  -4  -6   18.80    5.50
 -10  -4  -6    7.90    6.40
  10   4   6   11.80    5.10
 -11  -4  -6   13.30    6.10
 -11  -4  -6   19.30    8.10
 -12  -4  -6    0.70    6.90
 -12  -4  -6   13.90    6.60
 -13  -4  -6   -5.10    5.80
 -13  -4  -6    2.20    8.00
 -14  -4  -6   39.80   10.20
 -14  -4  -6    9.80    9.40
   9  -5  -6    9.10    8.30
  -9   5   6   10.40    8.60
  -9   5   6    6.20    8.20
   8  -5  -6   21.40    8.90
  -8   5   6   11.40    8.30
   7  -5  -6   -1.70    6.40
  -7   5   6   -3.10    5.40
  -7   5   6   -6.20    6.20
   6  -5  -6    9.80    6.70
  -6   5   6    9.00    6.10
  -6   5   6  -11.70    5.20
   5  -5  -6   -3.00    5.20
  -5   5   6    2.10    5.80
  -5   5   6    1.20    5.80
   4  -5  -6   32.50    9.60
   4  -5  -6   46.10    9.50
  -4   5   6   42.30    9.80
  -4   5   6   48.20    9.90
   3  -5  -6    9.20    6.20
   3  -5  -6    8.60    5.70
   3  -5  -6   25.50    7.20
   3  -5  -6   19.50    6.40
  -3   5   6   15.50    6.30
  -3   5   6   17.60    6.50
   2  -5  -6   32.50    7.70
   2  -5  -6   31.80    7.70
   2  -5  -6   36.50    8.20
  -2   5   6   36.60    8.30
  -2   5   6   33.30    9.10
   1  -5  -6   76.99   11.10
   1  -5  -6   73.89   10.80
   1  -5  -6   45.70    9.80
   1  -5  -6   45.20   10.20
  -1   5   6   53.89   10.50
  -1   5   6   67.69   14.70
   0  -5  -6   27.70    6.40
   0  -5  -6   15.20    6.10
   0  -5  -6   20.30    5.60
   0  -5  -6   27.20    6.40
   0   5   6   18.00    6.50
  -1  -5  -6   16.80    5.30
  -1  -5  -6    9.40    5.20
  -1  -5  -6   10.70    4.70
  -1  -5  -6   11.00    4.40
  -1  -5  -6   18.50    5.10
   1   5   6    7.20    6.10
  -2  -5  -6   10.30    4.40
  -2  -5  -6    9.60    5.10
  -2  -5  -6    9.60    3.90
  -2  -5  -6   12.50    5.20
   2   5   6   11.10    5.70
  -3  -5  -6  451.35   54.89
  -3  -5  -6  431.76   54.49
  -3  -5  -6  463.25   55.69
  -3  -5  -6  446.36   55.29
   3   5   6  454.65   54.59
  -4  -5  -6   49.80   10.30
  -4  -5  -6   49.60    9.00
  -4  -5  -6   38.30    7.30
  -4  -5  -6   44.10    7.90
   4   5   6   61.69    8.10
   4   5   6   50.69    8.40
  -5  -5  -6    6.90    4.70
  -5  -5  -6    1.70    3.20
  -5  -5  -6    8.90    2.90
  -5  -5  -6    4.40    5.50
   5   5   6    5.40    3.50
   5   5   6    6.40    4.40
  -6  -5  -6   15.30    5.80
  -6  -5  -6   22.70    3.90
  -6  -5  -6   16.20    4.90
   6   5   6   26.40    4.30
   6   5   6    9.30    4.40
   6   5   6   16.50    5.70
  -7  -5  -6   73.39   11.80
  -7  -5  -6   76.39   12.30
  -7  -5  -6   74.49    9.00
   7   5   6   65.39    9.10
   7   5   6   52.99   11.40
   7   5   6   64.79   10.90
  -8  -5  -6   70.09   10.60
  -8  -5  -6   59.39    7.90
  -8  -5  -6   66.29   11.60
   8   5   6   52.99    9.80
   8   5   6   58.79    7.90
  -9  -5  -6   -3.00    4.20
  -9  -5  -6    5.30    5.30
   9   5   6   -2.20    3.80
 -10  -5  -6   78.19   12.50
 -10  -5  -6   72.39   13.50
 -11  -5  -6    4.90    4.90
 -11  -5  -6   -2.00    5.90
 -12  -5  -6   27.00    7.90
 -12  -5  -6   28.50    9.60
 -13  -5  -6   10.70    7.80
 -13  -5  -6    7.20    8.00
 -14  -5  -6   -1.80    8.70
 -14  -5  -6   -5.60    6.80
   9  -6  -6   12.10    8.30
  -9   6   6   -6.40    7.20
  -9   6   6    1.70    7.90
   8  -6  -6   17.10    9.90
  -8   6   6   20.60    9.90
   7  -6  -6    2.20    6.60
  -7   6   6  -10.30    6.10
  -7   6   6   -0.60    6.40
   6  -6  -6   11.80    7.30
  -6   6   6   20.60    8.00
  -6   6   6   22.20    8.60
   5  -6  -6   10.80    6.80
  -5   6   6   19.80    7.50
  -5   6   6   10.70    7.50
   4  -6  -6    1.10    6.10
  -4   6   6   14.20    6.50
  -4   6   6   16.10    7.10
   3  -6  -6    0.90    6.10
   3  -6  -6   -8.60    4.20
  -3   6   6   -7.40    4.30
  -3   6   6   -6.90    4.80
   2  -6  -6   -2.10    5.40
   2  -6  -6   -0.70    4.30
   2  -6  -6    9.20    5.30
   2  -6  -6    4.00    5.50
  -2   6   6   -0.10    5.40
  -2   6   6    4.00    5.40
   1  -6  -6  113.29   18.60
   1  -6  -6  147.29   18.70
   1  -6  -6  113.79   19.30
   1  -6  -6  136.99   18.50
  -1   6   6  168.98   19.30
  -1   6   6  124.39   20.00
   0  -6  -6    9.30    4.90
   0  -6  -6    5.90    4.50
   0  -6  -6   12.50    8.60
  -1  -6  -6    3.00    4.00
  -1  -6  -6   14.90    5.20
  -1  -6  -6   13.30    5.00
  -1  -6  -6    6.50    5.00
   1   6   6   17.90    5.10
   1   6   6   16.90    6.60
  -2  -6  -6  171.18   23.50
  -2  -6  -6  165.58   23.80
  -2  -6  -6  188.18   23.40
  -2  -6  -6  198.08   24.70
   2   6   6  192.08   24.60
   2   6   6  182.08   23.30
  -3  -6  -6  373.66   44.40
  -3  -6  -6  371.16   45.20
  -3  -6  -6  344.67   44.70
  -3  -6  -6  355.86   45.50
   3   6   6  359.26   44.40
  -4  -6  -6  382.46   45.80
  -4  -6  -6  432.36   48.00
  -4  -6  -6  346.97   45.20
   4   6   6  363.86   45.30
   4   6   6  364.36   45.80
  -5  -6  -6   27.80    8.20
  -5  -6  -6   23.70    5.40
  -5  -6  -6   29.30    7.30
  -5  -6  -6   34.00    6.60
   5   6   6   36.70    6.10
   5   6   6   35.10    7.20
  -6  -6  -6   30.30    5.30
  -6  -6  -6   36.10    7.90
  -6  -6  -6   25.80    6.10
  -6  -6  -6   26.10    7.90
   6   6   6   17.90    6.10
   6   6   6   37.50    5.90
  -7  -6  -6   -2.60    2.50
  -7  -6  -6   -2.60    4.20
  -7  -6  -6   -1.00    3.80
   7   6   6    1.90    4.40
   7   6   6    5.20    4.10
  -8  -6  -6  109.79   16.80
  -8  -6  -6  109.49   14.70
  -8  -6  -6  106.69   17.70
   8   6   6  119.79   14.80
   8   6   6  133.19   17.40
  -9  -6  -6   14.40    5.30
  -9  -6  -6   11.00    6.70
  -9  -6  -6    5.70    2.80
   9   6   6    7.10    3.10
 -10  -6  -6   36.90    8.60
 -10  -6  -6   18.00    6.90
 -10  -6  -6   16.80    4.10
  10   6   6   23.60    4.10
 -11  -6  -6   28.50    8.70
 -11  -6  -6    8.90    6.50
 -12  -6  -6    9.50    7.80
 -12  -6  -6    5.60    6.30
 -13  -6  -6   -7.40    7.60
 -13  -6  -6   -1.30    7.00
 -14  -6  -6    0.40    7.50
   9  -7  -6   21.70    9.40
  -9   7   6   18.60    9.90
  -9   7   6    0.00    9.40
   8  -7  -6    3.40    7.10
  -8   7   6   12.70    9.30
  -8   7   6    3.00    7.90
   7  -7  -6    3.00    7.00
  -7   7   6    1.10    7.70
  -7   7   6   -0.90    7.60
   6  -7  -6   27.40    9.10
  -6   7   6    8.60    8.00
  -6   7   6    9.20    7.20
   5  -7  -6   62.39   12.00
  -5   7   6   57.29   12.20
  -5   7   6   48.40   11.80
   4  -7  -6   18.30    7.30
  -4   7   6   29.80    9.70
  -4   7   6   44.20   10.20
   3  -7  -6   28.00    7.70
  -3   7   6   16.80    7.20
  -3   7   6   21.10    8.80
   2  -7  -6  109.79   17.60
  -2   7   6  104.29   17.50
  -2   7   6  138.59   19.10
   1  -7  -6   48.20    9.30
   1  -7  -6   40.40    9.80
   1  -7  -6   71.19   10.40
   1  -7  -6   41.80    8.80
  -1   7   6   35.50    9.00
  -1   7   6   56.89   11.00
   0  -7  -6   74.79   13.30
   0  -7  -6   58.29   12.00
   0  -7  -6   78.19   12.00
   0  -7  -6   81.99   12.60
   0   7   6   71.69   13.40
   0   7   6   84.59   12.60
  -1  -7  -6   -3.30    3.40
  -1  -7  -6   -1.40    3.50
  -1  -7  -6    0.70    4.40
  -1  -7  -6    4.90    4.40
   1   7   6   -3.30    4.00
   1   7   6   -1.80    5.30
  -2  -7  -6  191.28   26.60
  -2  -7  -6  196.28   25.50
  -2  -7  -6  196.38   25.70
  -2  -7  -6  205.08   26.20
   2   7   6  212.18   25.70
   2   7   6  188.58   26.60
  -3  -7  -6   84.49   15.30
  -3  -7  -6  104.99   14.60
  -3  -7  -6   89.69   14.70
  -3  -7  -6  105.19   13.40
   3   7   6   84.89   14.10
   3   7   6   91.99   13.80
  -4  -7  -6  238.98   29.50
  -4  -7  -6  198.98   28.60
  -4  -7  -6  227.08   28.30
  -4  -7  -6  232.68   27.70
   4   7   6  222.98   27.80
   4   7   6  200.08   28.20
  -5  -7  -6   30.70    7.00
  -5  -7  -6   31.80    7.40
  -5  -7  -6   46.00    6.80
  -5  -7  -6   18.40    7.90
   5   7   6   27.30    7.40
   5   7   6   36.20    6.70
  -6  -7  -6   15.90    7.90
  -6  -7  -6   16.10    6.30
  -6  -7  -6   20.10    5.50
  -6  -7  -6   17.90    4.40
   6   7   6    9.70    4.50
   6   7   6   10.10    5.40
  -7  -7  -6   97.59   15.20
  -7  -7  -6   87.39   12.30
  -7  -7  -6  103.79   14.70
   7   7   6   78.29   16.10
   7   7   6   92.39   13.00
  -8  -7  -6    5.10    5.50
  -8  -7  -6    1.50    4.20
  -8  -7  -6   -3.00    2.70
   8   7   6   -4.10    3.40
  -9  -7  -6   14.60    7.00
  -9  -7  -6    4.30    4.80
  -9  -7  -6    4.50    3.10
   9   7   6   -0.70    3.10
 -10  -7  -6    9.90    5.70
 -10  -7  -6   11.80    6.90
 -11  -7  -6   22.60    5.50
 -11  -7  -6   23.30    7.90
 -11  -7  -6   41.60    9.70
  11   7   6   36.20    5.80
 -12  -7  -6    1.00    3.30
 -12  -7  -6  -12.40   10.50
 -12  -7  -6   -4.60    5.70
 -13  -7  -6  -12.00    7.70
 -13  -7  -6    4.40    6.70
   8  -8  -6    2.20    7.80
  -8   8   6    5.90    8.30
  -8   8   6    6.30    9.20
   7  -8  -6   -3.70    6.30
  -7   8   6   -0.50    7.60
  -7   8   6  -11.60    7.30
   6  -8  -6    9.40    7.70
  -6   8   6   17.10    9.40
  -6   8   6    3.10    6.00
   5  -8  -6    9.90    6.80
  -5   8   6    4.60    7.70
  -5   8   6   -2.50    6.60
   4  -8  -6   72.19   13.60
  -4   8   6   77.89   14.30
  -4   8   6   83.19   15.10
   3  -8  -6    8.00    5.80
  -3   8   6   11.50    7.50
  -3   8   6    7.50    6.20
   2  -8  -6   59.59   10.30
   2  -8  -6   40.20    9.80
  -2   8   6   37.80    9.70
   1  -8  -6  120.89   17.50
   1  -8  -6  124.59   18.20
  -1   8   6  104.79   18.30
   0  -8  -6   47.60    8.40
   0  -8  -6   45.10    8.70
   0   8   6   44.80    8.90
   0   8   6   19.20    8.40
  -1  -8  -6   46.20    8.90
  -1  -8  -6   34.70    9.00
  -1  -8  -6   40.80    9.40
  -1  -8  -6   56.39    9.40
   1   8   6   55.19   11.20
   1   8   6   44.10    9.10
  -2  -8  -6   15.10    5.50
  -2  -8  -6    8.80    5.70
  -2  -8  -6   11.30    5.60
  -2  -8  -6   11.20    4.50
   2   8   6    6.60    5.90
  -3  -8  -6  306.97   36.30
  -3  -8  -6  281.07   35.90
  -3  -8  -6  291.47   37.30
   3   8   6  276.07   36.40
   3   8   6  279.27   35.90
  -4  -8  -6    3.00    5.00
  -4  -8  -6   -0.30    5.40
  -4  -8  -6    3.80    3.90
  -4  -8  -6    2.50    4.00
   4   8   6   -2.00    3.80
   4   8   6    5.90    4.60
  -5  -8  -6   39.60    8.30
  -5  -8  -6   40.90    7.50
  -5  -8  -6   34.60    8.20
   5   8   6   45.80    7.90
   5   8   6   33.10   11.40
  -6  -8  -6   23.40    5.70
  -6  -8  -6   13.00    6.10
  -6  -8  -6    9.90    4.10
   6   8   6   10.00    4.70
  -7  -8  -6  176.28   19.00
  -7  -8  -6  119.99   19.50
  -7  -8  -6  128.49   17.20
   7   8   6  115.39   17.30
  -8  -8  -6   78.79   12.60
  -8  -8  -6   89.69   14.00
  -8  -8  -6   82.09   14.90
   8   8   6  103.19   12.80
  -9  -8  -6   38.80    7.40
  -9  -8  -6   42.70    9.00
  -9  -8  -6   44.30    9.90
   9   8   6   44.20    7.80
 -10  -8  -6    5.40    3.50
 -10  -8  -6    2.50    5.40
 -10  -8  -6    2.40    6.70
  10   8   6    5.10    4.30
 -11  -8  -6    0.10    6.70
 -11  -8  -6   -1.70    3.80
 -11  -8  -6   -7.20    5.10
  11   8   6    3.10    4.10
 -12  -8  -6   12.30    5.00
 -12  -8  -6    8.50    8.80
 -12  -8  -6   30.70    8.60
  12   8   6   11.70    4.90
 -13  -8  -6   14.10    8.80
 -13  -8  -6    4.50    4.10
 -13  -8  -6   -0.40    6.80
   8  -9  -6   12.10    9.40
  -8   9   6   -8.40    8.40
   7  -9  -6   19.90    9.00
  -7   9   6    0.00    8.30
  -7   9   6    0.80    7.30
   6  -9  -6    0.00    7.10
  -6   9   6   -1.20    6.70
  -6   9   6  -10.40   12.80
   5  -9  -6    3.40    7.30
  -5   9   6   -4.40    6.50
  -5   9   6    6.00    8.00
   4  -9  -6    5.90    6.30
  -4   9   6    4.20    7.80
   3  -9  -6    2.70    5.70
   3  -9  -6   -8.40    5.60
  -3   9   6    6.40    8.00
   2  -9  -6   16.40    7.00
   2  -9  -6    1.00    5.10
  -2   9   6   19.60    7.70
   1  -9  -6   97.39   14.80
   1  -9  -6   79.19   14.00
  -1   9   6   85.59   15.70
   0  -9  -6   -2.60    4.60
   0  -9  -6    4.40    5.40
   0   9   6    5.00    6.30
  -1  -9  -6   23.00    6.70
  -1  -9  -6   12.00    5.70
   1   9   6   21.00    7.90
   1   9   6   14.10    6.70
  -2  -9  -6    3.30    4.60
  -2  -9  -6    3.60    4.40
   2   9   6   -3.00    5.40
   2   9   6    0.20    4.50
  -3  -9  -6   97.39   15.80
  -3  -9  -6  109.69   16.00
   3   9   6  113.69   16.20
  -4  -9  -6   66.29   11.60
  -4  -9  -6   91.49   13.60
  -4  -9  -6   66.79   11.10
   4   9   6   43.30   14.30
  -5  -9  -6    2.10    4.80
  -5  -9  -6   -4.00    3.80
  -5  -9  -6   -2.70    2.80
   5   9   6    0.20    4.70
  -6  -9  -6   -3.90    3.80
  -6  -9  -6    8.70    5.50
  -6  -9  -6   -1.50    3.80
   6   9   6   -5.50    4.80
  -7  -9  -6    4.20    4.50
  -7  -9  -6    2.60    5.50
  -7  -9  -6    6.10    4.20
   7   9   6    2.30    4.50
  -8  -9  -6    6.20    5.10
  -8  -9  -6   -4.10    3.60
  -8  -9  -6    2.30    5.60
   8   9   6    0.00    4.50
  -9  -9  -6   10.70    7.20
  -9  -9  -6    0.70    5.00
  -9  -9  -6    5.30    4.60
   9   9   6    5.50    5.00
 -10  -9  -6   43.60    8.70
 -10  -9  -6   46.70   11.40
 -10  -9  -6   44.40   10.50
  10   9   6   49.70    8.80
 -11  -9  -6   22.70    7.80
 -11  -9  -6   18.90    5.80
  11   9   6   16.00    5.90
 -12  -9  -6    1.80    7.30
 -12  -9  -6   22.70    9.70
 -12  -9  -6    0.20    5.20
  12   9   6    9.60    5.40
   7 -10  -6   11.50    8.50
  -7  10   6   -1.30    8.50
  -7  10   6   21.40   10.40
   6 -10  -6   -0.20    6.70
  -6  10   6   13.10    9.10
  -6  10   6   -0.10    7.90
   5 -10  -6   -6.50    6.00
   5 -10  -6    8.70    7.40
  -5  10   6    5.40    9.10
   4 -10  -6    4.50    6.30
   4 -10  -6   -2.10    6.10
  -4  10   6   -1.30    7.80
   3 -10  -6   20.50    8.20
   3 -10  -6   20.40    8.00
  -3  10   6   14.80    7.50
   2 -10  -6    3.80    6.20
   2 -10  -6    3.30    5.90
  -2  10   6    7.40    6.80
   1 -10  -6   22.60    6.70
   1 -10  -6    1.50    5.60
  -1  10   6    5.90    6.30
   0 -10  -6   15.00    6.60
   0 -10  -6   25.20    6.80
   0  10   6   10.30    7.40
  -1 -10  -6    5.90    5.00
  -1 -10  -6    8.10    5.60
   1  10   6   10.50    7.30
  -2 -10  -6   23.70    7.10
  -2 -10  -6   33.50    7.70
   2  10   6   20.40    8.60
  -3 -10  -6    6.50    4.60
  -3 -10  -6    1.10    4.10
   3  10   6    2.90    5.70
  -4 -10  -6   38.90    8.90
  -4 -10  -6   50.89    9.90
  -4 -10  -6   53.89   11.10
   4  10   6   50.09    9.80
  -5 -10  -6   -2.00    4.70
  -5 -10  -6   -6.90    3.30
  -5 -10  -6   -3.30    4.80
   5  10   6    5.00    5.20
  -6 -10  -6    1.30    6.00
  -6 -10  -6   -2.20    4.40
  -6 -10  -6    0.50    4.20
   6  10   6   -1.70    5.00
  -7 -10  -6   -0.90    4.60
  -7 -10  -6    0.90    4.30
  -7 -10  -6   -8.10    5.20
   7  10   6   -2.60    5.00
  -8 -10  -6   -0.70    5.80
  -8 -10  -6   -5.80    3.80
  -8 -10  -6    4.50    4.90
  -9 -10  -6   -6.10    6.00
  -9 -10  -6    6.10    6.30
   9  10   6    0.00    5.60
 -10 -10  -6    7.40    6.20
 -10 -10  -6   -2.40    6.60
 -10 -10  -6    1.10    5.30
  10  10   6    3.30    5.90
 -11 -10  -6   15.10    6.40
 -11 -10  -6   34.20    9.60
 -11 -10  -6   28.90    9.40
  11  10   6   28.10    7.50
   6 -11  -6   11.00    8.70
   6 -11  -6   -3.80    7.20
  -6  11   6   -1.00    8.60
   5 -11  -6   -1.90    7.90
   5 -11  -6    3.70    7.50
  -5  11   6    5.40    9.40
   4 -11  -6   51.39   13.70
   4 -11  -6   38.50   10.50
  -4  11   6   50.89   13.30
   3 -11  -6   -8.80    5.70
   3 -11  -6    5.00    7.00
  -3  11   6    4.00    7.60
   2 -11  -6    3.80    6.30
   2 -11  -6    1.60    5.80
  -2  11   6    8.50    7.70
   1 -11  -6    8.30    6.40
   1 -11  -6   20.40    6.90
  -1  11   6    4.60    7.30
   0 -11  -6   72.79   12.70
   0 -11  -6   80.39   13.20
   0  11   6   43.90   12.80
  -1 -11  -6    3.10    5.10
  -1 -11  -6    9.50    6.30
   1  11   6    2.40    6.30
  -2 -11  -6    7.10    5.20
  -2 -11  -6    7.40    5.70
   2  11   6   -4.10    6.70
  -3 -11  -6  107.99   19.10
  -3 -11  -6  123.79   18.70
  -3 -11  -6  145.19   19.70
  -4 -11  -6   46.70    9.60
  -4 -11  -6   45.90   11.00
  -4 -11  -6   52.89    9.90
  -5 -11  -6   53.09   11.10
  -5 -11  -6   55.79   10.30
  -5 -11  -6   53.29   11.30
  -6 -11  -6   -0.60    4.10
  -6 -11  -6    8.50    6.30
  -6 -11  -6    0.80    4.60
  -7 -11  -6   30.00    9.00
  -7 -11  -6   22.30    6.50
  -7 -11  -6   34.80    8.60
   7  11   6   10.00    6.70
  -8 -11  -6   17.90    5.80
  -8 -11  -6   15.60    6.90
  -8 -11  -6    9.30    7.60
   8  11   6   25.90    7.70
  -9 -11  -6    7.00    6.20
  -9 -11  -6    0.70    4.80
  -9 -11  -6    9.90    7.60
   9  11   6   10.30    7.00
 -10 -11  -6   12.00    7.60
 -10 -11  -6    2.00    7.00
 -10 -11  -6    7.70    5.40
  10  11   6    9.80    7.20
 -11 -11  -6    5.40    7.30
 -11 -11  -6   -0.90    7.40
 -11 -11  -6   -6.30    5.50
  11  11   6   -5.50    6.70
   5 -12  -6   -6.70    5.90
   5 -12  -6   -3.80    6.80
  -5  12   6   13.60   10.40
   4 -12  -6   14.70    8.50
   4 -12  -6   32.60    9.50
  -4  12   6   31.10   11.40
   3 -12  -6   22.20    8.20
   3 -12  -6    7.40    7.40
  -3  12   6   18.30   14.20
   2 -12  -6   10.10    7.50
   1 -12  -6   24.00    8.40
   1 -12  -6   38.90    9.90
  -1  12   6   46.70   12.00
   0 -12  -6    8.00    6.50
   0 -12  -6   -2.80    4.60
   0  12   6    7.50    8.10
  -1 -12  -6   18.50    7.20
  -1 -12  -6   20.70    7.50
   1  12   6   35.10   10.60
  -2 -12  -6   -1.00    5.70
  -2 -12  -6   -1.00    5.00
   2  12   6   -5.00    6.60
  -3 -12  -6   14.10    7.00
  -3 -12  -6   12.40    6.50
  -3 -12  -6   20.50    7.20
  -4 -12  -6   49.50   10.20
  -4 -12  -6   31.20   10.40
  -4 -12  -6   51.59   10.40
  -5 -12  -6    7.10    5.20
  -5 -12  -6    0.70    4.80
  -5 -12  -6    4.00    5.90
  -6 -12  -6    5.70    5.40
  -6 -12  -6    5.00    6.50
  -6 -12  -6   21.40    7.30
  -7 -12  -6   -8.60    6.30
  -7 -12  -6   -1.10    5.30
  -7 -12  -6   -3.10    4.30
  -8 -12  -6   45.30   13.40
  -8 -12  -6   57.69   10.20
  -8 -12  -6   42.70   10.40
  -9 -12  -6   -4.30    6.40
  -9 -12  -6    0.50    5.30
  -9 -12  -6   -0.10    6.30
 -10 -12  -6   -0.80    6.40
 -10 -12  -6    9.40    6.20
 -10 -12  -6   -3.80    6.10
   4 -13  -6    8.20    8.10
   4 -13  -6   -1.10    8.20
  -4  13   6   -8.40    7.40
   3 -13  -6   -5.50    6.10
   3 -13  -6    6.40    7.70
  -3  13   6   16.60    9.70
   2 -13  -6   20.40    8.40
   2 -13  -6   -1.70    6.10
  -2  13   6    3.10    7.50
   1 -13  -6   12.80    7.00
   1 -13  -6   -1.10    6.40
  -1  13   6   -3.50    7.20
   0 -13  -6   28.90   12.80
   0  13   6   34.20   16.90
  -1 -13  -6    7.50    7.00
   1  13   6    8.80   10.10
  -2 -13  -6    3.30    6.00
  -2 -13  -6    4.40    5.90
   2  13   6   -0.30    8.00
  -3 -13  -6   -1.90    4.70
  -3 -13  -6   -1.80    5.80
  -4 -13  -6  100.89   18.10
  -4 -13  -6   88.99   17.40
  -4 -13  -6  117.49   17.40
  -5 -13  -6    7.10    6.20
  -5 -13  -6   -4.80    5.70
  -5 -13  -6   -0.50    5.70
  -6 -13  -6   -4.50    5.20
  -6 -13  -6    0.20    5.50
  -6 -13  -6   -3.70   10.00
  -7 -13  -6    4.90    7.90
  -7 -13  -6    0.80    5.60
  -7 -13  -6    1.10    6.10
  -8 -13  -6    8.90    6.60
  -8 -13  -6   11.80    6.80
  -8 -13  -6   22.90    9.00
   2 -14  -6   14.20    7.60
   2 -14  -6    9.00    7.80
  -2  14   6    8.70    9.90
   1 -14  -6   -3.50    6.20
   1 -14  -6    3.40    7.10
  -1  14   6    0.90    8.80
   0 -14  -6   41.80   10.60
   0 -14  -6   24.70    9.80
   0  14   6   39.50   12.10
  -1 -14  -6   -3.80    6.00
  -1 -14  -6    6.40    6.20
   1  14   6   -5.10    8.50
  -2 -14  -6   14.00    7.00
  -2 -14  -6   13.40    7.10
   2  14   6   37.90   12.10
  -3 -14  -6   22.40    8.40
  -3 -14  -6   17.80    8.60
  -4 -14  -6   14.30    8.30
  -4 -14  -6   21.10    8.10
  -4 -14  -6   29.60    8.60
  -5 -14  -6   17.00    7.00
  -5 -14  -6    5.00    7.10
  -5 -14  -6    8.70    6.40
  -6 -14  -6   -3.00    5.50
  -6 -14  -6   -3.10    7.30
  -6 -14  -6   -0.10    5.50
  -7 -14  -6   20.80   10.20
  -7 -14  -6    4.20    5.60
  -7 -14  -6    7.90    7.00
  -2 -15  -6    7.70    7.00
  -2 -15  -6   -4.60    5.80
  -3 -15  -6   34.60   10.00
  -3 -15  -6   27.00   11.30
  -2 -12   7    7.80    7.60
  -2 -12   7    5.10    8.00
  -1 -12   7   14.70    8.80
  -1 -12   7   21.50    8.10
   0 -12   7   13.80    7.10
   0 -12   7   22.00    8.90
  -1  12  -7    9.90    7.20
   1 -12   7   -2.30    5.20
   1 -12   7    6.80    7.20
  -2  12  -7    9.20    7.60
   2 -12   7    8.60    8.00
   2 -12   7   22.60    7.10
  -3  12  -7    6.50    5.10
   3 -12   7    5.40    4.30
   3 -12   7    0.20    6.10
   3 -12   7   10.80    4.90
  -4  12  -7    3.90    5.40
   4 -12   7    8.80    6.10
   4 -12   7   -3.20    5.00
   4 -12   7    1.70    4.00
   4 -12   7   -0.20    6.10
  -5  12  -7   10.50    8.00
   5 -12   7    9.10    5.00
   5 -12   7    5.00    3.80
   5 -12   7    2.00   10.60
   5 -12   7    0.40    6.80
  -6  12  -7  103.99   16.10
   6 -12   7   89.29   15.50
   6 -12   7   85.29   11.70
   6 -12   7   64.29   14.40
   6 -12   7  120.29   17.40
  -3 -11   7    3.10    6.20
  -3 -11   7   16.90    7.80
  -2 -11   7   62.79   13.50
  -2 -11   7   40.90   10.30
  -1 -11   7    6.30    7.20
  -1 -11   7   10.70    6.30
   0  11  -7    4.00    6.20
   0 -11   7   11.40    7.90
   0 -11   7    5.80    6.20
  -1  11  -7    0.70    5.30
   1 -11   7    5.80    5.20
   1 -11   7   -5.20    5.90
  -2  11  -7   64.99   12.00
   2 -11   7   87.39   12.10
   2 -11   7   67.49   16.20
  -3  11  -7    1.60    4.60
   3 -11   7    6.20    4.30
   3 -11   7    5.00    6.50
   3 -11   7    4.80    4.40
  -4  11  -7    2.60    4.40
   4 -11   7    2.80    4.80
   4 -11   7   -3.20    3.50
   4 -11   7   -1.90    5.00
   4 -11   7    9.50    6.20
  -5  11  -7   -0.30    5.60
   5 -11   7    0.70    5.90
   5 -11   7    4.60    3.40
   5 -11   7    3.50    5.80
   5 -11   7   -5.90    5.70
  -6  11  -7   15.00    7.10
   6 -11   7    7.60    6.80
   6 -11   7   13.60    7.60
  -7  11  -7   19.80    8.70
   7 -11   7   29.50    8.90
  -8  11  -7   -1.70    7.80
   8 -11   7    8.50    8.20
  -5 -10   7   -2.70    7.40
  -5 -10   7    4.00    7.10
  -4 -10   7    7.10    7.40
  -4 -10   7   -7.70    5.60
  -3 -10   7    1.60    6.30
  -3 -10   7   -7.30    6.10
  -2 -10   7   51.99   12.50
  -2 -10   7   61.09   11.70
  -1 -10   7    1.30    6.50
  -1 -10   7    9.70    6.00
   0  10  -7    7.30    5.50
   0 -10   7   -3.70    5.00
   0 -10   7    2.50    5.90
  -1  10  -7    7.40    5.20
   1 -10   7    0.60    4.80
   1 -10   7   -0.50    5.50
  -2  10  -7   10.10    5.10
   2 -10   7   -2.80    5.20
   2 -10   7    9.90    5.00
  -3  10  -7   50.09    8.50
  -3  10  -7   42.10    8.60
   3 -10   7   47.40   10.60
   3 -10   7   62.79    8.90
  -4  10  -7    9.10    5.10
   4 -10   7    2.20    4.20
   4 -10   7   -1.70    3.20
   4 -10   7    6.10    4.40
   4 -10   7    0.10    5.60
  -5  10  -7   13.50    5.80
   5 -10   7   15.70    6.10
   5 -10   7   15.70    3.90
   5 -10   7   23.60    7.80
   5 -10   7   19.70    4.50
  -6  10  -7   27.00    7.60
   6 -10   7   15.20    7.40
   6 -10   7   21.50    7.90
  -7  10  -7    4.40    5.90
   7 -10   7   17.60    6.60
   7 -10   7   -2.10    8.10
  -8  10  -7    6.60    7.30
   8 -10   7    4.10    5.90
  -9  10  -7   34.90   10.80
   9 -10   7   29.00    8.70
 -10  10  -7   26.90   11.00
  -6  -9   7    7.00    8.10
  -6  -9   7    0.30    7.20
  -5  -9   7   24.40    8.70
  -5  -9   7   19.70    8.70
  -4  -9   7    5.20    6.50
  -4  -9   7   -1.80    5.80
  -3  -9   7    4.00    6.30
  -3  -9   7   -0.80    6.20
  -2  -9   7    2.90    5.10
  -2  -9   7   -5.20    5.50
   1   9  -7   24.50    7.10
  -1  -9   7   11.80    7.30
  -1  -9   7   22.60    7.10
   0   9  -7   13.70    5.90
   0  -9   7   15.30    7.30
   0  -9   7   20.10    8.30
  -1   9  -7    6.30    4.50
   1  -9   7    7.90    5.70
   1  -9   7   -2.90    4.10
  -2   9  -7   16.20    4.90
   2  -9   7   14.00    4.80
   2  -9   7   12.10    6.50
  -3   9  -7    6.10    3.90
  -3   9  -7    2.70    3.40
   3  -9   7   12.30    4.30
   3  -9   7    3.70    3.30
   3  -9   7   17.10    6.20
  -4   9  -7    1.90    3.90
   4  -9   7    9.00    4.30
   4  -9   7    3.30    4.00
   4  -9   7    6.10    3.40
   4  -9   7   16.30    6.40
  -5   9  -7    5.40    5.20
   5  -9   7    5.00    4.80
   5  -9   7    5.40    5.50
  -6   9  -7   20.20    8.10
   6  -9   7   27.60    7.50
   6  -9   7   18.90    7.00
  -7   9  -7   10.00    6.10
   7  -9   7    5.60    5.70
   7  -9   7    5.60    6.30
  -8   9  -7   12.60    8.30
   8  -9   7   15.00    6.20
  -9   9  -7    1.20    7.50
   9  -9   7   16.70    7.00
 -10   9  -7   -7.80    7.40
  10  -9   7   13.40    6.70
 -11   9  -7    0.40    9.10
  -6  -8   7    7.70    8.50
  -6  -8   7    9.00    7.90
  -5  -8   7   21.80    8.20
  -5  -8   7    9.80    7.30
  -4  -8   7    2.10    5.90
  -4  -8   7   14.80    7.30
  -3  -8   7   16.40    7.00
  -3  -8   7   18.30    7.30
   2   8  -7   23.60    7.90
  -2  -8   7   48.80   10.30
  -2  -8   7   44.00    8.80
   1   8  -7   51.69    9.70
  -1  -8   7   55.29   11.80
  -1  -8   7   65.19   10.70
   0   8  -7   46.30    8.60
   0  -8   7   51.79   10.50
   0  -8   7   61.99    9.60
  -1   8  -7   10.40    4.10
   1  -8   7    7.70    5.80
   1  -8   7    8.50    4.40
  -2   8  -7   16.70    5.00
   2  -8   7   22.70    7.20
   2  -8   7   20.60    5.20
  -3   8  -7   -0.70    4.10
  -3   8  -7    6.50    3.50
   3  -8   7   18.20    6.00
   3  -8   7    7.60    3.10
   3  -8   7    6.10    3.60
  -4   8  -7   -3.10    3.60
   4  -8   7    1.30    2.70
   4  -8   7    6.30    3.00
   4  -8   7    4.40    5.10
   4  -8   7   -0.60    3.60
  -5   8  -7    3.10    5.20
   5  -8   7   16.50    5.20
   5  -8   7    5.80    5.00
  -6   8  -7   44.10   10.40
   6  -8   7   62.79   11.00
   6  -8   7   57.59   10.20
  -7   8  -7   68.89   14.70
   7  -8   7   95.39   14.90
   7  -8   7  128.69   16.10
  -8   8  -7    1.00    6.40
   8  -8   7    5.10    4.80
  -9   8  -7   -1.80    6.40
   9  -8   7    8.20    5.60
 -10   8  -7   17.80    8.50
  10  -8   7    2.10    4.90
 -11   8  -7   16.60   10.00
  11  -8   7   13.50    6.20
  -7  -7   7   10.10    7.90
  -7  -7   7    9.70    7.50
  -7  -7   7    2.70    3.90
  -6  -7   7   10.70    9.00
  -6  -7   7   -0.80    6.50
  -5  -7   7   -6.50    6.00
  -5  -7   7    5.80    7.00
  -4  -7   7    3.10    6.00
  -4  -7   7    4.70    6.90
  -3  -7   7   -6.80    4.40
  -3  -7   7   -0.40    5.50
   2   7  -7   86.09   14.70
  -2  -7   7   86.19   15.60
  -2  -7   7  123.99   15.70
   1   7  -7    2.70    4.30
  -1  -7   7   12.40    5.70
  -1  -7   7    0.10    5.10
   0   7  -7   33.30    6.70
   0  -7   7   24.20    7.70
   0  -7   7   28.50    6.70
  -1   7  -7    7.70    3.80
   1  -7   7   10.10    5.70
   1  -7   7   12.10    4.50
  -2   7  -7   69.59   10.70
   2  -7   7   68.59   12.80
   2  -7   7   86.59   11.20
  -3   7  -7  105.69   14.20
  -3   7  -7  126.59   14.20
   3  -7   7  116.19   17.00
   3  -7   7  105.19   14.10
   3  -7   7  100.79   14.00
  -4   7  -7   -0.10    4.30
  -4   7  -7   -0.50    3.50
   4  -7   7    7.10    3.60
   4  -7   7   -1.70    4.20
  -5   7  -7   35.00    8.10
  -5   7  -7   54.99   10.00
   5  -7   7   54.19    9.50
   5  -7   7   43.70    8.00
  -6   7  -7    5.80    5.20
  -6   7  -7   -0.20    5.10
   6  -7   7    4.40    4.80
   6  -7   7    0.10    4.50
  -7   7  -7  162.18   21.50
  -7   7  -7  149.69   22.50
   7  -7   7  147.89   22.50
   7  -7   7  165.98   21.20
  -8   7  -7  -14.60    5.40
  -8   7  -7    0.40    5.40
   8  -7   7    1.30    5.80
   8  -7   7    2.20    4.20
  -9   7  -7    0.30    6.90
  -9   7  -7    4.30    5.90
   9  -7   7    6.00    4.60
 -10   7  -7   21.10    9.00
 -10   7  -7   18.80    7.60
  10  -7   7   21.60    6.60
 -11   7  -7   37.70   10.40
  11  -7   7    9.30    6.00
 -12   7  -7    9.40    9.90
  12  -7   7    5.00    3.70
  12  -7   7    7.80    5.30
   8   6  -7    7.20    7.40
  -8  -6   7    8.90    6.00
  -8  -6   7   19.00    9.40
  -8  -6   7    5.80    8.00
   7   6  -7    3.70    5.30
  -7  -6   7    4.50    7.00
  -7  -6   7    2.90    7.20
  -7  -6   7    3.90    4.60
   6   6  -7    1.90    4.20
  -6  -6   7   22.80    7.50
  -6  -6   7    4.90    4.00
  -6  -6   7   18.00    8.20
  -5  -6   7    7.90    6.70
  -5  -6   7   14.20    7.30
  -4  -6   7    1.70    5.40
  -4  -6   7   12.30    6.00
  -3  -6   7    5.80    5.80
  -3  -6   7   17.60    6.60
   2   6  -7   -1.40    4.60
  -2  -6   7   20.20    6.80
  -2  -6   7   17.40    6.00
   1   6  -7  103.09   14.40
  -1  -6   7   83.49   14.80
  -1  -6   7  100.49   14.40
   0   6  -7    0.20    3.50
   0  -6   7    1.00    4.30
   0  -6   7    3.70    4.10
  -1   6  -7    1.90    2.90
  -1   6  -7    6.90    5.00
   1  -6   7   -2.30    3.40
   1  -6   7    0.80    4.40
  -2   6  -7    9.90    3.50
  -2   6  -7    9.80    5.00
   2  -6   7   11.50    5.40
   2  -6   7   13.00    3.60
  -3   6  -7  185.88   22.10
  -3   6  -7  168.68   23.30
  -3   6  -7  188.08   21.90
   3  -6   7  178.08   21.90
   3  -6   7  159.78   21.90
   3  -6   7  186.58   23.50
  -4   6  -7   29.90    7.10
  -4   6  -7   44.60    6.90
   4  -6   7   35.20    7.60
   4  -6   7   28.10    5.90
  -5   6  -7   -7.30    3.80
  -5   6  -7   -1.30    3.80
   5  -6   7   -1.10    3.70
   5  -6   7    4.60    3.90
  -6   6  -7   47.50    9.70
   6  -6   7   53.39    9.00
   6  -6   7   52.49   10.30
   7  -6   7    6.50    5.30
  -8   6  -7   80.69   15.40
   8  -6   7  101.99   15.00
  -9   6  -7    5.00    6.70
 -10   6  -7   29.40    8.80
 -10   6  -7   24.10    9.40
  10  -6   7   35.30    7.60
 -11   6  -7   -5.00    7.20
 -11   6  -7    4.30    6.10
  11  -6   7    3.00    4.70
  11  -6   7    5.70    2.60
 -12   6  -7   14.40    6.90
  12  -6   7   12.00    4.00
  12  -6   7    9.90    5.40
 -13   6  -7    6.70    6.10
 -13   6  -7  -12.10    7.90
  13  -6   7    1.90    5.20
  13  -6   7    3.90    4.30
  -8  -5   7   -2.00    7.40
  -8  -5   7   -0.70    7.80
   7   5  -7    7.90    6.20
  -7  -5   7   20.60   10.20
  -7  -5   7   11.90    5.80
  -7  -5   7    5.20   10.90
   6   5  -7    7.40    5.00
  -6  -5   7    5.10    6.20
  -6  -5   7    0.90    4.20
  -6  -5   7   14.70    7.40
   5   5  -7   56.49   11.60
  -5  -5   7   68.99    9.00
  -5  -5   7   42.90   10.90
  -5  -5   7   42.20   10.70
   4   5  -7    7.20    2.90
  -4  -5   7    7.90    6.10
  -4  -5   7    3.00    5.40
   3   5  -7   15.60    6.10
  -3  -5   7   -3.30    4.60
  -3  -5   7   25.60    6.60
   2   5  -7   24.70    8.60
  -2  -5   7   32.40    8.10
  -2  -5   7   47.40    8.60
   1   5  -7   49.50    9.90
  -1  -5   7   78.99   11.70
  -1  -5   7   68.79   10.60
   0   5  -7   59.29   10.30
   0   5  -7   71.69   12.40
   0  -5   7   87.39   12.30
   0  -5   7   70.99   11.00
  -1   5  -7    8.30    4.50
  -1   5  -7   -0.50    3.00
   1  -5   7    0.50    3.40
   1  -5   7    3.20    4.30
  -2   5  -7   95.79   13.00
  -2   5  -7  109.09   15.40
   2  -5   7  127.69   16.00
   2  -5   7   97.69   13.30
  -3   5  -7   10.30    4.20
  -3   5  -7   -1.60    1.60
  -3   5  -7    2.00    3.00
   3  -5   7   -2.90    3.30
   3  -5   7   -1.00    2.30
   3  -5   7    2.70    2.40
  -4   5  -7   58.49   10.40
  -4   5  -7   68.19   10.00
   4  -5   7   77.09   11.10
   4  -5   7   58.79    9.20
  -5   5  -7   -2.00    3.00
  -5   5  -7   -1.50    4.20
   5  -5   7   -4.70    3.20
   5  -5   7    7.00    3.80
  -6   5  -7  100.39   13.60
  -6   5  -7   69.29   13.20
   6  -5   7   86.89   13.20
   6  -5   7   95.59   13.40
  -7   5  -7   25.00    6.00
  -7   5  -7   14.40    6.50
   7  -5   7   17.90    5.50
   7  -5   7   11.70    5.40
  -8   5  -7   63.69   10.30
  -8   5  -7   36.80   10.60
   8  -5   7   51.79   10.30
   8  -5   7   68.79    9.90
  -9   5  -7    0.90    4.20
  -9   5  -7   15.70    7.80
   9  -5   7    5.70    3.90
 -10   5  -7    9.20    5.50
 -10   5  -7   12.50    8.00
  10  -5   7   -6.40    3.50
 -11   5  -7   27.30    6.70
 -11   5  -7   18.10    5.10
 -11   5  -7    1.20    8.00
  11  -5   7   24.00    5.50
 -12   5  -7   19.40    8.90
 -12   5  -7    3.60    5.20
 -12   5  -7    3.50    5.30
  12  -5   7   -3.00    3.30
  12  -5   7   -1.10    4.10
 -13   5  -7    0.00    5.60
 -13   5  -7    0.10    8.50
  13  -5   7   -1.10    4.30
  13  -5   7    3.10    4.50
  13  -5   7    2.00    6.00
   8   4  -7   -1.70    7.20
  -8  -4   7   -4.20    7.00
  -8  -4   7    0.40    5.90
  -8  -4   7  -10.70    6.30
   7   4  -7    8.40    6.10
  -7  -4   7  -10.70    6.00
  -7  -4   7   -2.20    5.20
  -7  -4   7    4.50    6.20
   6   4  -7   -1.90    4.90
  -6  -4   7   -5.00    5.00
  -6  -4   7    1.50    4.50
  -6  -4   7   11.60    7.20
   5   4  -7   11.30    4.70
  -5  -4   7   13.20    7.10
  -5  -4   7    7.30    4.40
  -5  -4   7    5.40    5.70
   4   4  -7   10.00    4.60
  -4  -4   7    8.50    5.70
  -4  -4   7   18.80    7.00
  -4  -4   7   19.40    4.20
   3   4  -7   -0.50    2.10
   3   4  -7   -6.10    4.50
  -3  -4   7    2.60    5.40
  -3  -4   7    9.90    5.70
   2   4  -7   73.69   11.90
  -2  -4   7   58.09   11.80
  -2  -4   7   89.79   13.00
   1   4  -7    1.60    4.10
   1   4  -7    1.70    5.00
  -1  -4   7    1.40    4.20
  -1  -4   7    3.70    4.30
   0   4  -7   66.29   13.30
   0   4  -7   89.59   12.10
   0  -4   7   75.69   13.30
   0  -4   7  114.69   13.40
  -1   4  -7    5.10    5.30
  -1   4  -7    8.40    3.40
   1  -4   7    8.40    3.70
  -2   4  -7   53.19   10.10
  -2   4  -7   58.79    8.50
  -2   4  -7   64.09    8.30
   2  -4   7   69.39    9.20
   2  -4   7   71.99   10.90
  -3   4  -7   24.80    4.40
  -3   4  -7   18.00    5.20
  -3   4  -7   14.70    3.10
   3  -4   7   29.00    4.90
   3  -4   7   19.90    4.00
   3  -4   7   16.20    5.50
  -4   4  -7    7.00    4.00
  -4   4  -7    5.60    3.80
   4  -4   7    5.70    3.20
   4  -4   7    4.80    4.20
  -5   4  -7   12.90    4.90
  -5   4  -7    8.40    3.90
   5  -4   7    9.40    4.10
   5  -4   7   15.50    4.50
  -6   4  -7   -0.60    4.40
  -6   4  -7   -2.00    3.10
   6  -4   7   -0.60    3.40
   6  -4   7   -3.10    3.60
  -7   4  -7   99.29   16.30
  -7   4  -7  117.09   14.90
   7  -4   7  111.39   16.10
   7  -4   7  107.39   14.70
  -8   4  -7   37.60    9.20
  -8   4  -7   32.80    6.70
   8  -4   7   32.70    8.10
   8  -4   7   36.90    6.90
  -9   4  -7   37.70    9.40
  -9   4  -7   40.70    7.50
   9  -4   7   38.10    7.00
 -10   4  -7   14.30    4.90
 -10   4  -7   -1.00    6.90
 -10   4  -7    8.90    3.80
  10  -4   7   12.70    4.40
  10  -4   7   11.10    3.10
 -11   4  -7   11.30    5.00
 -11   4  -7    7.30    4.80
 -11   4  -7   14.30    8.00
  11  -4   7   13.80    3.60
  11  -4   7   12.80    4.50
 -12   4  -7   -5.60    7.20
 -12   4  -7    3.60    5.10
  12  -4   7   12.20    4.00
  12  -4   7   -0.20    3.50
  12  -4   7    4.30    4.80
 -13   4  -7    9.50    6.10
 -13   4  -7  -15.10    7.20
  13  -4   7   -0.60    5.00
  13  -4   7   -2.60    3.40
  13  -4   7   -0.20    4.40
  -9  -3   7    6.10    8.50
  -9  -3   7    5.30    7.20
  -9  -3   7   13.70    9.20
   8   3  -7    7.70    7.80
  -8  -3   7  -10.90    6.50
  -8  -3   7   -2.70    7.70
  -8  -3   7   18.30    7.30
   7   3  -7  -12.70    7.50
  -7  -3   7   -3.80    6.10
  -7  -3   7    0.40    5.50
  -7  -3   7    7.70    7.30
   6   3  -7   14.10    6.50
  -6  -3   7   25.70    7.80
  -6  -3   7   15.50    7.30
  -6  -3   7   28.80    6.50
   5   3  -7    1.30    4.60
  -5  -3   7   -3.60    5.30
  -5  -3   7    7.20    6.40
  -5  -3   7    1.10    4.20
   4   3  -7   29.60    6.00
  -4  -3   7   24.00    7.10
  -4  -3   7   25.40    5.70
  -4  -3   7   17.20    7.00
   3   3  -7   -1.40    3.20
   3   3  -7   -0.60    4.80
  -3  -3   7   -3.70    3.90
  -3  -3   7    2.40    4.80
  -3  -3   7   -4.00    3.10
   2   3  -7   62.29   10.90
   2   3  -7   64.19   11.80
   2   3  -7   62.29    8.90
  -2  -3   7   69.39    8.90
  -2  -3   7   65.39   11.70
  -2  -3   7   65.19   11.10
   1   3  -7   42.60    9.10
   1   3  -7   36.60    7.80
  -1  -3   7   49.70    8.40
  -1  -3   7   47.60    9.10
   0   3  -7   -1.70    3.10
   0   3  -7   -7.30    4.00
   0  -3   7   10.60    4.60
  -1   3  -7   -0.40    3.60
  -1   3  -7    2.30    2.90
   1  -3   7    8.00    3.70
   1  -3   7    6.60    4.00
  -2   3  -7    3.10    2.60
  -2   3  -7   -2.50    3.50
  -2   3  -7    2.70    2.50
  -2   3  -7   -1.40    2.50
   2  -3   7    8.90    3.90
   2  -3   7    5.70    3.00
  -3   3  -7  100.99   13.00
  -3   3  -7  115.69   13.80
  -3   3  -7   87.39   12.40
   3  -3   7  100.99   12.90
   3  -3   7  123.09   13.90
   3  -3   7   97.19   12.70
  -4   3  -7    3.20    3.40
  -4   3  -7   -2.00    2.80
   4  -3   7   -1.40    3.40
   4  -3   7    2.40    3.10
  -5   3  -7   23.30    5.80
  -5   3  -7   21.20    4.90
   5  -3   7   16.60    4.80
   5  -3   7   30.70    5.50
  -6   3  -7   23.30    5.60
  -6   3  -7   13.30    4.40
   6  -3   7   21.90    5.50
   6  -3   7   14.80    4.50
  -7   3  -7   69.09   10.80
  -7   3  -7   53.69    8.60
   7  -3   7   53.39    8.60
   7  -3   7   59.59   10.10
  -8   3  -7   32.50    7.90
  -8   3  -7   32.70    5.90
   8  -3   7   26.70    7.10
   8  -3   7   29.80    5.90
  -9   3  -7    0.10    6.00
  -9   3  -7    1.80    3.10
  -9   3  -7    5.10    3.60
   9  -3   7    1.10    2.80
   9  -3   7    6.50    2.30
 -10   3  -7   26.80    6.00
 -10   3  -7   13.10    8.20
 -10   3  -7   34.50    6.10
  10  -3   7   34.10    5.90
  10  -3   7   39.50    6.70
 -11   3  -7   -0.90    4.60
 -11   3  -7   -3.00    6.60
  11  -3   7    0.60    3.10
  11  -3   7   -1.20    3.10
 -12   3  -7   10.70    6.40
 -12   3  -7   17.90    8.50
  12  -3   7   21.30    5.20
  12  -3   7   12.30    5.00
  12  -3   7   14.40    4.10
 -13   3  -7   -4.20    6.80
 -13   3  -7   -6.50    7.50
  13  -3   7   -6.60    2.80
  13  -3   7   -2.20    4.40
 -14   3  -7   -4.70    8.80
 -14   3  -7    9.00    7.30
  14  -3   7   13.50    6.50
  14  -3   7   14.80    3.90
  -9  -2   7   15.90    7.90
  -9  -2   7    9.70    8.70
  -9  -2   7    5.70    8.60
  -8  -2   7    3.00    6.50
  -8  -2   7    5.00    7.90
   7   2  -7    0.00    6.60
  -7  -2   7    2.30    6.70
  -7  -2   7    7.00    5.50
  -7  -2   7    8.40    7.10
   6   2  -7    8.50    6.40
  -6  -2   7    8.30    7.10
  -6  -2   7    7.30    5.40
  -6  -2   7    1.70    6.10
   5   2  -7   46.70    8.60
  -5  -2   7   41.70    9.40
  -5  -2   7   45.20    9.90
  -5  -2   7   34.50    7.90
   4   2  -7    2.80    4.60
  -4  -2   7   -1.30    5.30
  -4  -2   7    3.60    5.40
  -4  -2   7   -3.10    3.90
   3   2  -7    2.00    5.00
   3   2  -7   -2.60    3.60
  -3  -2   7    6.10    5.40
  -3  -2   7    1.70    3.40
  -3  -2   7    4.80    4.90
   2   2  -7    4.70    5.40
   2   2  -7   15.80    4.10
   2   2  -7   12.40    5.60
  -2  -2   7    2.10    5.20
  -2  -2   7   16.50    5.50
  -2  -2   7   13.20    3.70
   1   2  -7  129.79   17.00
   1   2  -7  138.59   18.30
   1   2  -7  142.49   20.70
  -1  -2   7  136.29   18.30
  -1  -2   7  146.39   18.60
  -1  -2   7  134.59   17.20
   0   2  -7   31.20    4.00
   0   2  -7   17.20    3.70
   0   2  -7    8.60    4.90
   0   2  -7   18.00    5.60
   0  -2   7   26.70    6.00
   0  -2   7   13.80    5.40
  -1   2  -7   47.80    7.50
  -1   2  -7   58.99    8.80
  -1   2  -7   55.79    9.40
  -1   2  -7   51.09    7.50
   1  -2   7   51.59    9.30
   1  -2   7   68.09    8.80
  -2   2  -7    0.60    2.60
  -2   2  -7    0.10    2.80
  -2   2  -7    3.00    2.90
  -2   2  -7    4.50    3.60
   2  -2   7    7.00    3.50
   2  -2   7    7.00    3.00
  -3   2  -7  107.19   14.00
  -3   2  -7  110.49   14.40
  -3   2  -7  115.59   14.90
   3  -2   7  105.89   14.00
   3  -2   7  117.19   14.90
   3  -2   7  117.09   14.40
  -4   2  -7   39.30    6.60
  -4   2  -7   43.90    6.80
   4  -2   7   39.20    6.60
   4  -2   7   27.90    6.00
  -5   2  -7   -0.20    2.80
  -5   2  -7    4.80    4.10
   5  -2   7   -0.70    2.70
   5  -2   7    2.60    3.50
  -6   2  -7   85.49   11.90
  -6   2  -7   99.89   13.90
   6  -2   7   89.59   12.00
   6  -2   7   91.09   13.40
  -7   2  -7   30.60    7.20
   7  -2   7   23.60    6.20
   7  -2   7   27.50    5.10
  -8   2  -7   43.60    6.50
  -8   2  -7   27.60    8.30
  -8   2  -7   53.09    6.80
   8  -2   7   28.40    8.20
   8  -2   7   44.80    6.50
   8  -2   7   38.30    5.80
  -9   2  -7    3.20    2.70
  -9   2  -7   -2.70    5.40
  -9   2  -7   -1.30    3.30
   9  -2   7    2.80    6.50
   9  -2   7   -1.50    2.30
   9  -2   7    0.90    2.30
 -10   2  -7   11.30    5.00
 -10   2  -7    6.20    6.10
  10  -2   7    4.90    2.90
  10  -2   7   10.40    3.60
 -11   2  -7   21.50    6.40
 -11   2  -7   17.00    8.70
  11  -2   7   21.70    4.40
  11  -2   7   21.90    5.00
  11  -2   7   20.60    3.90
 -12   2  -7    1.40    7.00
 -12   2  -7   -4.90    5.30
  12  -2   7    5.80    4.30
 -13   2  -7   -4.10    6.10
 -13   2  -7   22.80    8.90
  13  -2   7    9.00    6.40
 -14   2  -7   -2.60    7.90
 -14   2  -7    3.90    7.10
  14  -2   7    0.00    7.10
  -9  -1   7   16.10    9.10
  -9  -1   7    3.60    7.70
  -9  -1   7   15.00    7.90
  -8  -1   7    2.00    8.40
  -8  -1   7   22.70    8.80
  -8  -1   7    5.60    6.10
   7   1  -7    7.20    7.30
  -7  -1   7   -2.10    6.30
  -7  -1   7    0.40    5.30
  -7  -1   7   16.70    7.90
   6   1  -7   11.40    7.60
  -6  -1   7   11.50    8.20
  -6  -1   7   11.00    6.90
  -6  -1   7    2.90    6.50
   5   1  -7   46.80    9.20
  -5  -1   7   49.20   10.60
  -5  -1   7   39.00    8.80
  -5  -1   7   62.49   11.10
   4   1  -7   49.90    8.30
  -4  -1   7   34.10    7.90
  -4  -1   7   32.60    8.40
  -4  -1   7   55.99    9.90
   3   1  -7    3.10    5.30
   3   1  -7   -1.50    4.00
   3   1  -7    5.50    4.70
  -3  -1   7   -3.60    3.20
  -3  -1   7    3.50    4.90
  -3  -1   7    1.80    5.10
   2   1  -7   70.99   15.20
   2   1  -7  114.29   14.00
   2   1  -7   99.49   15.40
  -2  -1   7   94.39   15.40
  -2  -1   7   97.69   15.30
  -2  -1   7  129.29   14.50
   1   1  -7   -0.80    3.90
   1   1  -7    9.00    4.70
   1   1  -7    6.80    3.10
  -1  -1   7    0.90    5.50
  -1  -1   7    5.10    3.40
  -1  -1   7   10.90    4.90
   0   1  -7  113.19   14.80
   0   1  -7  115.49   15.50
   0   1  -7  108.49   16.80
   0  -1   7  118.09   15.60
   0  -1   7  117.39   15.90
  -1   1  -7    4.50    3.40
  -1   1  -7   -3.00    2.50
  -1   1  -7    7.50    4.40
  -1   1  -7    1.20    2.50
   1  -1   7    9.20    4.20
   1  -1   7    7.60    3.70
  -2   1  -7   46.30    8.80
  -2   1  -7   56.19    9.20
  -2   1  -7   70.19   10.30
  -2   1  -7   64.49    8.80
   2  -1   7   59.29    8.90
   2  -1   7   74.69   10.20
  -3   1  -7  501.75   57.89
  -3   1  -7  481.45   57.69
  -3   1  -7  460.95   57.39
   3  -1   7  463.65   57.79
  -4   1  -7    2.30    1.90
  -4   1  -7    1.40    2.90
  -4   1  -7   10.10    3.50
  -4   1  -7    5.10    2.50
   4  -1   7    3.00    3.00
  -5   1  -7    7.90    4.00
  -5   1  -7    1.20    2.80
  -5   1  -7    4.30    2.20
  -5   1  -7    6.70    2.10
   5  -1   7    0.50    3.40
  -6   1  -7    9.10    2.10
  -6   1  -7    0.50    2.30
  -6   1  -7    1.50    3.90
   6  -1   7    7.70    2.80
   6  -1   7    6.40    3.80
  -7   1  -7  189.18   24.10
  -7   1  -7  164.78   22.60
  -7   1  -7  194.78   22.60
   7  -1   7  194.08   22.60
   7  -1   7  180.28   24.00
   7  -1   7  182.78   22.60
  -8   1  -7    7.50    2.20
  -8   1  -7    1.40    3.20
  -8   1  -7    7.70    5.90
   8  -1   7    2.80    4.70
   8  -1   7    2.20    2.10
   8  -1   7    1.60    2.40
  -9   1  -7    1.60    3.60
  -9   1  -7    8.90    5.90
   9  -1   7    3.00    2.80
   9  -1   7    9.70    5.80
 -10   1  -7    3.90    6.10
 -10   1  -7   11.00    4.90
  10  -1   7   10.50    3.60
 -11   1  -7   25.00    6.50
 -11   1  -7   31.30    9.20
  11  -1   7   15.80    5.10
 -12   1  -7    9.20    7.20
 -12   1  -7    9.20    6.00
  12  -1   7    4.90    4.80
 -13   1  -7   -3.00    6.00
 -13   1  -7   19.60   10.10
  13  -1   7    5.30    5.10
 -14   1  -7  -12.20    7.30
 -14   1  -7    3.90    6.60
  -9   0   7    8.00    7.90
  -9   0   7    6.20    8.90
  -9   0   7    4.70    7.30
  -8   0   7    8.90    8.00
  -8   0   7    6.30    7.00
  -8   0   7   18.40    9.10
  -7   0   7    0.60    7.40
  -7   0   7    0.40    5.70
  -7   0   7    3.00    6.90
   6   0  -7   15.70    7.40
  -6   0   7   32.80    8.90
  -6   0   7   15.50    6.90
  -6   0   7   10.20    7.20
   5   0  -7    5.10    5.70
  -5   0   7   -3.70    4.70
  -5   0   7    1.40    5.70
  -5   0   7   -6.70    5.80
   4   0  -7   20.40    7.10
  -4   0   7   43.60    7.60
  -4   0   7   30.40    8.00
  -4   0   7   39.40    8.90
   3   0  -7    0.10    4.30
   3   0  -7   -1.50    4.30
   3   0  -7    4.80    5.40
  -3   0   7   -2.10    4.40
  -3   0   7    7.20    5.60
  -3   0   7    1.00    3.90
   2   0  -7  223.88   27.10
   2   0  -7  141.99   26.60
   2   0  -7  226.78   26.30
  -2   0   7  209.98   27.00
  -2   0   7  228.88   27.30
  -2   0   7  221.18   26.70
   1   0  -7  149.09   15.50
   1   0  -7   75.99   15.50
   1   0  -7  116.09   14.40
  -1   0   7  105.99   14.70
  -1   0   7   93.59   15.70
  -1   0   7  101.89   15.30
   0   0  -7   75.49   14.30
   0   0  -7  108.49   13.60
   0   0  -7  119.79   14.30
   0   0   7  111.29   14.20
   0   0   7  108.69   14.90
   0   0   7   84.19   13.80
  -1   0  -7   -0.50    3.30
  -1   0  -7    2.30    3.80
  -1   0  -7   -0.70    3.00
  -1   0  -7    4.00    3.10
   1   0   7    5.70    3.30
   1   0   7   -1.10    4.10
  -2   0  -7   92.59   12.40
  -2   0  -7  105.59   12.90
  -2   0  -7   94.59   12.40
  -2   0  -7   64.59   12.50
   2   0   7   95.39   12.50
   2   0   7  105.29   13.00
  -3   0  -7  713.03   85.69
  -3   0  -7  724.53   86.19
  -3   0  -7  739.33   85.99
  -3   0  -7  746.03   85.79
  -3   0  -7  703.83   85.99
   3   0   7  646.34   85.89
  -4   0  -7  215.78   27.70
  -4   0  -7  216.68   27.80
  -4   0  -7  232.28   28.30
  -4   0  -7  227.08   27.60
   4   0   7  231.08   28.30
   4   0   7  233.18   28.00
  -5   0  -7   62.19    9.80
  -5   0  -7   59.89    8.20
  -5   0  -7   69.29    8.70
  -5   0  -7   46.90    8.10
   5   0   7   61.29    9.70
   5   0   7   59.59    8.80
  -6   0  -7   22.80    4.00
  -6   0  -7   20.60    3.80
  -6   0  -7   25.50    5.80
   6   0   7   24.90    4.30
   6   0   7   10.80    5.00
   6   0   7   20.30    4.00
  -7   0  -7  302.87   35.10
  -7   0  -7  276.37   35.50
  -7   0  -7  317.37   36.80
   7   0   7  292.17   35.60
   7   0   7  281.67   35.20
   7   0   7  292.87   36.70
  -8   0  -7  196.38   24.40
  -8   0  -7  217.68   26.00
   8   0   7  186.38   24.30
   8   0   7  193.98   25.70
  -9   0  -7    6.70    5.50
  -9   0  -7   -1.20    3.50
   9   0   7   -8.20    5.00
   9   0   7   -1.00    2.70
 -10   0  -7   33.30    7.20
 -10   0  -7   62.09   10.70
  10   0   7   34.70    6.60
 -11   0  -7    4.40    6.50
 -11   0  -7   -6.60    4.50
  11   0   7   -0.30    4.20
 -12   0  -7   71.89   12.50
 -12   0  -7   34.90    8.70
  12   0   7   37.20    8.40
 -13   0  -7   13.60    6.50
 -13   0  -7    0.30   12.10
  13   0   7   -2.70    5.20
 -14   0  -7    7.30    8.90
 -14   0  -7    9.10    7.60
   9  -1  -7    2.00    7.60
  -9   1   7   -2.00    7.90
  -9   1   7   -1.50    6.70
   8  -1  -7    4.50    8.20
  -8   1   7    3.00    7.50
  -8   1   7    5.80    7.40
  -7   1   7   16.30    7.30
  -7   1   7    7.90    8.00
  -7   1   7   15.20    8.10
   6  -1  -7   28.60    9.00
  -6   1   7   18.20    7.90
  -6   1   7   31.00    7.70
  -6   1   7   26.60    9.00
   5  -1  -7   37.00    9.00
  -5   1   7   24.60    8.50
  -5   1   7   46.00    9.40
  -5   1   7   30.80    8.30
   4  -1  -7   21.10    7.00
  -4   1   7   33.10    8.20
  -4   1   7   31.60    8.10
  -4   1   7   35.20    7.90
   3  -1  -7    2.20    4.70
   3  -1  -7    4.30    5.20
   3  -1  -7    3.90    4.60
  -3   1   7    0.30    5.00
  -3   1   7    2.40    5.00
  -3   1   7    2.10    4.10
   2  -1  -7    7.40    4.60
   2  -1  -7    7.00    5.10
   2  -1  -7    2.60    4.50
  -2   1   7   17.80    5.70
  -2   1   7   11.40    5.40
  -2   1   7   11.10    4.70
   1  -1  -7  403.66   45.70
   1  -1  -7  366.16   45.10
   1  -1  -7  301.47   45.50
  -1   1   7  388.96   45.80
  -1   1   7  350.16   45.50
  -1   1   7  398.56   45.50
   0  -1  -7    1.20    3.40
   0  -1  -7    3.90    4.00
   0  -1  -7    2.60    4.10
   0   1   7    0.30    3.70
   0   1   7   13.40    4.60
   0   1   7    3.20    4.60
  -1  -1  -7   34.80    7.10
  -1  -1  -7   39.70    6.80
  -1  -1  -7   26.90    6.30
   1   1   7   45.90    7.70
   1   1   7   24.90    6.30
   1   1   7   34.00    6.60
  -2  -1  -7   73.59   10.30
  -2  -1  -7   63.89   10.40
  -2  -1  -7   72.69   10.10
  -2  -1  -7   46.50    9.80
   2   1   7   77.99   10.60
   2   1   7   78.39   10.90
  -3  -1  -7  171.88   21.70
  -3  -1  -7  188.08   22.40
  -3  -1  -7  153.28   21.70
  -3  -1  -7  158.68   21.90
  -3  -1  -7  174.58   21.60
   3   1   7  191.38   22.00
  -4  -1  -7  171.78   21.80
  -4  -1  -7  166.18   22.00
  -4  -1  -7  172.78   21.30
   4   1   7  171.08   21.50
  -5  -1  -7  115.19   14.40
  -5  -1  -7  106.79   14.50
  -5  -1  -7  114.69   16.10
   5   1   7  119.19   14.50
   5   1   7  109.59   16.00
  -6  -1  -7   48.90    5.80
  -6  -1  -7   27.70    6.20
  -6  -1  -7   59.79    9.20
   6   1   7   36.70    7.60
   6   1   7   48.30    6.80
  -7  -1  -7   17.90    6.30
  -7  -1  -7   19.80    4.20
   7   1   7   17.70    4.10
   7   1   7   22.80    6.00
  -8  -1  -7   57.69   11.70
  -8  -1  -7   80.59   10.30
   8   1   7   57.39   11.60
   8   1   7   69.49   10.20
  -9  -1  -7   -0.40    5.00
  -9  -1  -7   -2.70    3.40
   9   1   7   -2.00    2.70
 -10  -1  -7   31.90    9.00
 -10  -1  -7   37.90    7.40
  10   1   7   38.90    7.00
 -11  -1  -7    8.00    5.80
 -11  -1  -7    0.00    6.30
  11   1   7    6.00    4.60
 -12  -1  -7    4.30    5.90
 -12  -1  -7   -7.50    6.20
  12   1   7    2.50    5.00
 -13  -1  -7   13.70   13.80
 -13  -1  -7    7.20    6.50
 -14  -1  -7   17.90    9.20
 -14  -1  -7    2.20    7.10
   9  -2  -7    2.90    8.60
  -9   2   7    0.20    7.80
  -9   2   7   13.90    8.90
   8  -2  -7   -0.70    8.70
  -8   2   7    0.30    7.00
  -8   2   7   -5.90    7.00
   7  -2  -7    5.40    7.70
  -7   2   7   -1.40    7.00
  -7   2   7   10.50    7.20
   6  -2  -7    7.80    6.80
  -6   2   7    5.50    6.30
  -6   2   7    6.70    7.10
   5  -2  -7  114.59   15.80
  -5   2   7   94.49   15.70
  -5   2   7   81.79   15.60
  -5   2   7   92.59   15.20
   4  -2  -7    4.90    6.60
  -4   2   7    7.70    6.40
  -4   2   7   21.20    6.60
   3  -2  -7   -1.10    5.20
   3  -2  -7    0.20    4.20
   3  -2  -7   -2.50    4.70
  -3   2   7   -1.70    4.40
  -3   2   7   -4.80    4.50
  -3   2   7    5.30    4.90
   2  -2  -7  123.89   17.30
   2  -2  -7  107.29   18.00
   2  -2  -7  130.59   20.70
  -2   2   7  147.19   18.10
  -2   2   7  104.89   18.30
  -2   2   7  146.19   18.00
   1  -2  -7    4.30    4.50
   1  -2  -7    6.60    4.70
   1  -2  -7   17.00    5.50
  -1   2   7   15.10    5.40
  -1   2   7   14.60    5.80
  -1   2   7    5.30    4.40
   0  -2  -7  170.28   20.20
   0  -2  -7  134.39   20.20
   0  -2  -7  149.59   20.10
   0   2   7  140.39   20.20
   0   2   7  160.18   20.40
   0   2   7  156.88   20.40
  -1  -2  -7   -2.00    3.20
  -1  -2  -7    0.50    3.40
  -1  -2  -7   -2.40    3.70
   1   2   7   -5.00    3.70
   1   2   7   -3.60    4.00
   1   2   7    1.20    4.50
  -2  -2  -7   52.29    7.90
  -2  -2  -7   28.20    7.70
  -2  -2  -7   56.69    8.40
  -2  -2  -7   46.00    7.90
   2   2   7   57.49    8.60
  -3  -2  -7   92.39   13.20
  -3  -2  -7   91.39   12.40
  -3  -2  -7   73.39   12.20
  -3  -2  -7  100.29   12.60
  -3  -2  -7   74.89   11.50
   3   2   7   79.09   12.10
  -4  -2  -7  265.97   34.00
  -4  -2  -7  264.07   33.50
  -4  -2  -7  255.17   33.60
  -4  -2  -7  259.17   34.30
  -4  -2  -7  344.27   35.00
  -5  -2  -7   15.70    4.10
  -5  -2  -7   23.10    4.10
  -5  -2  -7   22.00    4.10
  -5  -2  -7   20.60    6.00
   5   2   7   16.40    5.50
   5   2   7   21.30    4.70
  -6  -2  -7   38.10    7.80
  -6  -2  -7   37.40    5.20
  -6  -2  -7   32.40    6.00
   6   2   7   31.70    7.20
   6   2   7   44.20    6.70
  -7  -2  -7  154.48   21.20
  -7  -2  -7  158.48   18.80
   7   2   7  130.79   18.70
  -8  -2  -7   48.60    8.40
  -8  -2  -7   51.69   10.20
   8   2   7   54.89    8.40
   8   2   7   55.79   10.10
  -9  -2  -7   29.20    8.00
  -9  -2  -7   30.00    6.40
   9   2   7   26.10    5.80
 -10  -2  -7    8.70    6.30
 -10  -2  -7    4.30    4.20
  10   2   7   -1.50    3.70
 -11  -2  -7    8.40    5.60
 -11  -2  -7   19.60    7.90
  11   2   7   13.10    5.40
 -12  -2  -7   -3.40    6.60
 -12  -2  -7    6.00    6.00
  12   2   7    7.50    6.80
 -13  -2  -7   -2.20    7.40
 -13  -2  -7    1.50    6.30
 -14  -2  -7    7.10    7.40
 -14  -2  -7   12.60    9.50
   9  -3  -7   -2.00    8.40
  -9   3   7   13.30    9.70
  -9   3   7   19.90    9.30
  -8   3   7   14.30    8.30
  -8   3   7    7.60    8.20
   7  -3  -7   -6.80    7.30
  -7   3   7    6.00    7.60
  -7   3   7    4.20    6.40
   6  -3  -7   22.90    8.60
  -6   3   7   26.20    8.10
  -6   3   7   18.20    7.80
   5  -3  -7    7.80    6.40
   5  -3  -7    1.70    7.70
  -5   3   7    4.30    5.80
  -5   3   7   -7.10    5.20
   4  -3  -7   83.39   15.50
   4  -3  -7  109.79   16.00
  -4   3   7  109.09   16.20
  -4   3   7   94.59   15.80
   3  -3  -7    5.40    5.20
   3  -3  -7    4.30    5.20
   3  -3  -7    1.20    5.20
   3  -3  -7   -0.90    4.80
  -3   3   7   11.40    5.80
  -3   3   7   -2.60    7.20
   2  -3  -7   25.20    6.60
   2  -3  -7   24.90    6.70
   2  -3  -7   12.30    6.30
   2  -3  -7   23.80    6.80
  -2   3   7   19.00    6.90
  -2   3   7   17.90    6.40
   1  -3  -7   33.20    9.00
   1  -3  -7   18.00    6.20
   1  -3  -7   23.10    6.40
   1  -3  -7    7.90    5.50
  -1   3   7   10.10    4.70
  -1   3   7   31.30    6.40
   0  -3  -7  175.68   22.50
   0  -3  -7  196.28   22.60
   0  -3  -7  151.08   22.30
   0  -3  -7  164.78   22.40
   0   3   7  179.28   22.70
   0   3   7  161.48   22.60
  -1  -3  -7   21.80    6.50
  -1  -3  -7   26.90    5.90
  -1  -3  -7   18.70    5.90
  -1  -3  -7   34.60    6.80
   1   3   7   20.60    6.80
   1   3   7   27.90    6.30
  -2  -3  -7    3.60    4.00
  -2  -3  -7    4.80    3.90
  -2  -3  -7    2.60    3.80
  -2  -3  -7   11.90    4.30
  -2  -3  -7    4.40    3.70
  -3  -3  -7  113.59   15.80
  -3  -3  -7  105.09   17.10
  -3  -3  -7  139.19   15.50
  -3  -3  -7  117.39   15.50
  -3  -3  -7   93.29   15.20
  -3  -3  -7  138.39   16.20
  -4  -3  -7   -0.30    2.80
  -4  -3  -7   -0.70    2.60
  -4  -3  -7   -4.70    3.30
  -4  -3  -7    2.70    3.20
  -4  -3  -7    1.10    5.00
  -4  -3  -7    1.60    3.80
  -5  -3  -7   10.40    3.30
  -5  -3  -7   15.70    5.10
  -5  -3  -7   17.10    3.70
  -5  -3  -7   20.80    4.40
   5   3   7   12.10    4.40
  -6  -3  -7   21.20    3.80
  -6  -3  -7   18.00    4.50
  -6  -3  -7   27.90    6.10
  -6  -3  -7   17.60    3.60
   6   3   7   30.40    6.80
   6   3   7   17.90    5.10
  -7  -3  -7  105.19   14.80
  -7  -3  -7  109.29   16.60
   7   3   7  122.49   15.00
   7   3   7  100.79   16.20
  -8  -3  -7   60.89   11.10
  -8  -3  -7   69.89   10.00
   8   3   7   57.09   10.80
   8   3   7   61.39   10.00
  -9  -3  -7   -4.00    3.60
  -9  -3  -7    8.40    5.70
   9   3   7   -0.60    3.20
 -10  -3  -7   18.40    7.50
 -10  -3  -7   23.90    6.20
  10   3   7   20.90    5.90
 -11  -3  -7   -2.50    3.90
 -11  -3  -7   -7.20    5.40
  11   3   7   -0.50    4.80
 -12  -3  -7    2.30    7.30
 -12  -3  -7   13.20    6.40
 -13  -3  -7    1.00    7.60
 -13  -3  -7   -1.90    6.20
 -14  -3  -7   20.20    8.70
 -14  -3  -7    4.30    8.90
   9  -4  -7    1.50    7.80
  -9   4   7    0.50    7.80
  -9   4   7   -2.90    6.90
   8  -4  -7   15.40    7.90
  -8   4   7    6.80    7.90
  -8   4   7    3.70    7.00
   7  -4  -7    6.70    7.60
  -7   4   7   -0.20    5.90
  -7   4   7   -5.30    6.10
   6  -4  -7    7.40    7.10
  -6   4   7   -3.80    5.60
  -6   4   7   -2.10    6.40
   5  -4  -7   18.60    7.90
  -5   4   7    9.20    6.90
  -5   4   7   14.90    7.40
   4  -4  -7   34.10    8.40
   4  -4  -7   18.80    7.70
  -4   4   7   14.80    8.30
  -4   4   7   17.70    6.90
   3  -4  -7   24.50    7.40
   3  -4  -7   19.70    7.10
  -3   4   7    6.30    5.60
  -3   4   7   23.70    7.00
   2  -4  -7    3.90    5.10
   2  -4  -7    5.00    7.20
   2  -4  -7    3.70    5.50
   2  -4  -7   14.60    6.00
  -2   4   7    3.30    5.00
   1  -4  -7  179.48   24.10
   1  -4  -7  159.88   24.00
   1  -4  -7  193.08   25.00
   1  -4  -7  209.08   24.90
  -1   4   7  175.98   24.30
  -1   4   7  190.38   24.60
   0  -4  -7   -1.50    4.20
   0  -4  -7    2.40    4.20
   0  -4  -7   -3.30    4.30
   0  -4  -7    6.70    4.70
   0   4   7    2.50    4.50
   0   4   7    0.40    4.40
  -1  -4  -7   19.10    5.30
  -1  -4  -7   21.40    5.80
  -1  -4  -7   17.10    5.90
  -1  -4  -7   26.70    6.40
   1   4   7   16.10    6.30
  -2  -4  -7   -3.00    3.70
  -2  -4  -7    4.00    3.60
  -2  -4  -7   -2.10    4.60
  -2  -4  -7    0.30    3.40
  -2  -4  -7    1.20    3.80
   2   4   7   -1.20    5.20
  -3  -4  -7   73.59   12.50
  -3  -4  -7   98.19   12.60
  -3  -4  -7   60.49   12.70
  -3  -4  -7   92.09   12.50
  -3  -4  -7   74.79   12.90
  -3  -4  -7   95.79   11.80
  -4  -4  -7   77.39   10.30
  -4  -4  -7   76.09    9.80
  -4  -4  -7   54.69   10.10
  -4  -4  -7   59.59    9.80
  -4  -4  -7   46.90   10.90
  -4  -4  -7   64.59   10.70
  -5  -4  -7    8.60    3.80
  -5  -4  -7    7.90    4.90
  -5  -4  -7   10.90    3.90
  -5  -4  -7   12.30    5.80
  -5  -4  -7    9.50    3.30
   5   4   7   11.00    4.20
  -6  -4  -7   26.00    4.80
  -6  -4  -7   28.20    7.00
  -6  -4  -7   24.70    4.40
  -6  -4  -7   35.50    6.40
   6   4   7   15.40    6.40
   6   4   7   32.00    6.30
  -7  -4  -7    4.90    5.40
  -7  -4  -7    6.20    4.00
   7   4   7    5.70    3.60
   7   4   7    4.90    5.50
  -8  -4  -7   36.40    6.80
  -8  -4  -7   25.50    7.60
   8   4   7   31.00   11.90
   8   4   7   30.80    6.40
  -9  -4  -7   -4.00    5.20
  -9  -4  -7    0.40    3.50
   9   4   7    2.80    4.70
 -10  -4  -7   27.80    6.80
 -10  -4  -7   34.60    9.00
  10   4   7   24.50    6.50
 -11  -4  -7   16.00    6.20
 -11  -4  -7   11.20    7.40
 -12  -4  -7   10.00    6.10
 -13  -4  -7  -10.00    5.30
 -13  -4  -7    1.60    7.60
 -14  -4  -7    5.40    8.50
 -14  -4  -7    5.70    7.60
   9  -5  -7    6.80    9.00
  -9   5   7   -0.50    7.00
  -9   5   7    1.80    8.40
   8  -5  -7   -2.60    8.30
  -8   5   7   -4.00    7.10
   7  -5  -7   -5.50    7.50
  -7   5   7    4.80   10.60
  -7   5   7    2.30    7.60
   6  -5  -7   17.40    8.10
  -6   5   7    3.50    6.80
  -6   5   7   14.70    8.50
   5  -5  -7   19.40    8.00
  -5   5   7   16.40    6.90
  -5   5   7   16.50    7.70
   4  -5  -7    4.50    6.20
  -4   5   7    4.30    6.60
  -4   5   7    1.60    5.80
   3  -5  -7   12.90    6.70
   3  -5  -7   10.50    6.30
  -3   5   7   23.80    7.10
  -3   5   7   13.30    7.00
   2  -5  -7    0.60    5.60
   2  -5  -7    2.90    4.70
   2  -5  -7    2.20    5.90
   2  -5  -7   23.50    7.50
  -2   5   7    4.90    5.00
  -2   5   7    1.40    5.50
   1  -5  -7   95.29   13.60
   1  -5  -7   66.29   13.20
   1  -5  -7   71.99   13.50
   1  -5  -7  102.59   14.00
  -1   5   7  104.89   14.30
  -1   5   7   64.29   13.30
   0  -5  -7   27.50    6.80
   0  -5  -7   15.20    5.80
   0  -5  -7    8.20    5.70
   0  -5  -7   18.10    9.80
   0   5   7   10.20    5.40
   0   5   7   18.30    8.70
  -1  -5  -7   -2.00    3.70
  -1  -5  -7   -4.80    3.70
  -1  -5  -7   -3.90    3.80
  -1  -5  -7   -7.80    4.10
  -1  -5  -7   -1.20    4.10
   1   5   7   -8.50    4.40
  -2  -5  -7   64.79   12.00
  -2  -5  -7   71.99   11.20
  -2  -5  -7   70.99   10.90
  -2  -5  -7   70.69   11.10
  -2  -5  -7   75.49   11.70
   2   5   7   55.19   11.50
  -3  -5  -7    9.70    5.00
  -3  -5  -7    2.30    4.80
  -3  -5  -7    4.00    3.40
  -3  -5  -7    7.60    4.10
  -3  -5  -7    4.50    4.70
  -3  -5  -7    3.60    3.50
  -4  -5  -7   62.99    9.50
  -4  -5  -7   46.10   10.10
  -4  -5  -7   47.30    8.20
  -4  -5  -7   52.89    8.50
  -4  -5  -7   61.09   11.60
  -5  -5  -7    3.20    4.50
  -5  -5  -7   -1.40    3.30
  -5  -5  -7    0.00    5.70
  -5  -5  -7   -0.40    2.40
  -5  -5  -7    6.50    3.70
   5   5   7    2.10    3.80
  -6  -5  -7   69.49    8.30
  -6  -5  -7   46.90   10.90
  -6  -5  -7   59.19    8.80
  -6  -5  -7   53.49   10.30
  -6  -5  -7   49.00    9.60
   6   5   7   59.39   10.10
  -7  -5  -7   36.30    8.80
  -7  -5  -7   39.50    6.30
  -7  -5  -7   32.90   10.20
  -7  -5  -7   49.10    6.20
   7   5   7   37.10    8.60
   7   5   7   34.00    7.80
  -8  -5  -7   14.70    5.30
  -8  -5  -7   16.50    6.30
   8   5   7   25.30    6.20
  -9  -5  -7   31.00    7.00
  -9  -5  -7   25.70    8.20
   9   5   7   24.30    6.80
 -10  -5  -7   -5.50    4.40
 -10  -5  -7   -3.20    5.70
 -11  -5  -7   30.10    8.40
 -11  -5  -7   38.90   10.40
 -12  -5  -7   -3.50    6.90
 -12  -5  -7    5.50    5.80
 -13  -5  -7   15.40    7.50
 -13  -5  -7    1.50    7.50
 -14  -5  -7   -3.90    8.20
 -14  -5  -7  -12.40    9.60
   8  -6  -7   -0.90    8.10
  -8   6   7    5.50    8.60
  -8   6   7    8.00    8.80
   7  -6  -7    4.30    8.10
  -7   6   7    4.00    8.20
  -7   6   7   -1.00    6.80
   6  -6  -7   34.20    9.80
  -6   6   7   29.00    9.80
  -6   6   7   28.70   10.10
   5  -6  -7   24.70    8.20
  -5   6   7    9.00    7.20
  -5   6   7    7.10    7.10
   4  -6  -7   91.89   14.80
  -4   6   7   97.29   16.10
  -4   6   7   67.19   14.80
   3  -6  -7    5.20    5.20
  -3   6   7   -8.40    5.00
  -3   6   7    7.00    6.30
   2  -6  -7   32.00    9.90
   2  -6  -7   17.30    6.90
  -2   6   7   26.20    7.90
  -2   6   7   26.90    8.30
   1  -6  -7    1.60    4.80
   1  -6  -7   14.60    5.70
   1  -6  -7    3.20    5.20
   1  -6  -7    7.60    5.40
  -1   6   7   10.20    5.50
  -1   6   7   12.10    5.90
   0  -6  -7  116.29   19.60
   0  -6  -7  126.29   19.20
   0  -6  -7  120.59   19.00
   0  -6  -7  147.79   18.80
   0  -6  -7  160.68   18.90
   0   6   7  126.29   20.20
  -1  -6  -7    4.60    4.10
  -1  -6  -7    2.10    4.40
  -1  -6  -7   -0.90    4.40
  -1  -6  -7   10.00    4.90
  -1  -6  -7    0.60    4.70
   1   6   7    2.70    6.10
  -2  -6  -7   28.70    6.90
  -2  -6  -7   48.10    7.80
  -2  -6  -7   34.20    8.40
  -2  -6  -7   35.20    8.90
  -2  -6  -7   43.50    7.70
   2   6   7   21.80    7.90
  -3  -6  -7  274.17   34.80
  -3  -6  -7  283.47   36.10
  -3  -6  -7  275.27   37.70
  -3  -6  -7  276.07   36.40
  -3  -6  -7  284.47   35.60
  -4  -6  -7  231.28   27.50
  -4  -6  -7  269.17   29.70
  -4  -6  -7  186.58   28.70
  -4  -6  -7  205.78   28.30
   4   6   7  195.28   31.90
   4   6   7  215.28   27.40
  -5  -6  -7  116.09   17.80
  -5  -6  -7   96.79   14.00
  -5  -6  -7   96.19   16.00
  -5  -6  -7  126.59   15.10
   5   6   7  102.79   14.70
   5   6   7  113.59   16.70
  -6  -6  -7   11.70    3.50
  -6  -6  -7   13.60    5.40
  -6  -6  -7   12.50    5.80
  -6  -6  -7   14.00    6.30
   6   6   7   17.60    6.00
   6   6   7   11.40    4.00
  -7  -6  -7  168.58   19.90
  -7  -6  -7  131.99   22.30
  -7  -6  -7  164.68   21.10
   7   6   7  148.19   21.20
  -8  -6  -7   17.80    7.30
  -8  -6  -7   25.40    6.40
  -8  -6  -7   31.10    4.70
   8   6   7   17.60    6.50
  -9  -6  -7   -1.60    5.20
  -9  -6  -7   -1.00    4.50
 -10  -6  -7   25.60    7.70
 -10  -6  -7    2.90    5.20
 -11  -6  -7   13.30    6.50
 -11  -6  -7    8.10    7.20
 -12  -6  -7   11.20    6.60
 -13  -6  -7    3.60    7.60
 -13  -6  -7    4.60    6.50
 -14  -6  -7   -7.40    6.70
   8  -7  -7   15.70    9.90
  -8   7   7    1.10    9.10
  -8   7   7    9.60    9.60
   7  -7  -7    0.80    7.50
  -7   7   7    3.10    8.30
  -7   7   7  -15.60    6.30
   6  -7  -7    9.20    8.20
  -6   7   7   -4.00    6.40
  -6   7   7    3.70    7.90
   5  -7  -7  -11.60    5.40
  -5   7   7   14.90    8.80
  -5   7   7    8.60    7.70
   4  -7  -7   75.09   14.80
  -4   7   7   84.99   15.60
  -4   7   7  109.79   17.30
   3  -7  -7   21.70    7.70
  -3   7   7   35.00    9.90
  -3   7   7   21.70    8.30
   2  -7  -7   -1.20    5.40
  -2   7   7    4.00    5.50
  -2   7   7    4.40    5.70
   1  -7  -7  207.88   26.60
   1  -7  -7  177.88   26.30
  -1   7   7  217.88   27.60
   0  -7  -7    5.60    4.50
   0  -7  -7   -3.80    5.20
   0  -7  -7   14.00    6.10
   0  -7  -7    5.80    5.20
   0  -7  -7    9.20    5.70
   0   7   7    3.50    6.20
  -1  -7  -7   62.69   10.90
  -1  -7  -7   37.80    9.90
  -1  -7  -7   53.89    9.90
  -1  -7  -7   67.99   10.30
   1   7   7   48.70   11.30
  -2  -7  -7    2.90    4.60
  -2  -7  -7    5.00    5.40
  -2  -7  -7   -0.50    4.20
  -2  -7  -7   12.00    5.10
   2   7   7   15.80    6.60
   2   7   7    3.30    4.60
  -3  -7  -7  225.08   27.50
  -3  -7  -7  215.38   27.10
  -3  -7  -7  217.08   27.80
  -3  -7  -7  212.08   27.80
  -3  -7  -7  180.38   27.90
   3   7   7  212.58   27.00
  -4  -7  -7  111.39   15.00
  -4  -7  -7  110.39   16.90
  -4  -7  -7   87.09   17.10
  -4  -7  -7  119.19   16.40
   4   7   7  110.79   15.90
   4   7   7  118.99   16.70
  -5  -7  -7   -2.70    3.30
  -5  -7  -7   -3.50    4.60
  -5  -7  -7   -0.50    3.20
  -5  -7  -7    8.70    4.90
   5   7   7    3.80    3.80
   5   7   7   -0.10    4.40
  -6  -7  -7   47.40    7.90
  -6  -7  -7   35.80    8.70
  -6  -7  -7   50.39   10.20
   6   7   7   54.79    9.60
   6   7   7   56.49    8.60
  -7  -7  -7   39.10    7.40
  -7  -7  -7   22.70    5.40
  -7  -7  -7   38.40    8.60
   7   7   7   29.60    6.10
  -8  -7  -7  123.39   18.50
  -8  -7  -7  126.59   15.50
  -8  -7  -7  117.49   17.70
   8   7   7  112.79   15.60
  -9  -7  -7    4.20    5.20
  -9  -7  -7   -0.40    5.40
  -9  -7  -7    3.00    3.10
 -10  -7  -7    1.60    5.20
 -10  -7  -7   -3.30    2.50
 -10  -7  -7    5.60    6.80
  10   7   7   -1.50    2.80
 -11  -7  -7   -1.00    6.40
 -11  -7  -7   14.60    6.30
 -12  -7  -7   14.50    9.20
 -12  -7  -7   15.30    7.50
 -13  -7  -7   18.00    7.90
 -13  -7  -7    9.50    8.80
   7  -8  -7   -3.60    7.10
  -7   8   7   -3.50    7.00
  -7   8   7   -6.10    8.00
   6  -8  -7   10.40    7.10
  -6   8   7  -12.70   11.30
  -6   8   7   -3.50    7.30
   5  -8  -7   22.60    8.70
  -5   8   7   -2.50    7.20
  -5   8   7   17.70    8.70
   4  -8  -7    2.60    6.10
  -4   8   7    1.60    7.10
  -4   8   7   -2.70    6.80
   3  -8  -7    4.70    6.30
  -3   8   7    4.50    7.30
  -3   8   7    1.70    5.90
   2  -8  -7   10.60    6.00
   2  -8  -7    6.70    6.10
  -2   8   7    9.00    6.80
   1  -8  -7   54.39   11.20
   1  -8  -7   68.29   11.60
  -1   8   7   56.39   12.10
   0  -8  -7   11.30    5.40
   0  -8  -7    2.00    5.60
   0   8   7   27.30    7.70
  -1  -8  -7    2.70    4.80
  -1  -8  -7    2.30    4.70
   1   8   7    0.20    5.80
   1   8   7    2.50    4.90
  -2  -8  -7   -2.70    4.20
  -2  -8  -7    4.60    4.00
   2   8   7    1.70    4.70
   2   8   7    8.10    6.00
  -3  -8  -7   19.40    6.30
  -3  -8  -7   29.40    6.50
   3   8   7   17.90    8.60
  -4  -8  -7  116.99   21.00
  -4  -8  -7  170.48   20.20
  -4  -8  -7  155.58   19.50
   4   8   7  136.49   19.50
  -5  -8  -7    8.60    5.40
  -5  -8  -7   23.80    5.90
  -5  -8  -7    9.90    4.40
   5   8   7   14.90    5.40
  -6  -8  -7    8.50    4.30
  -6  -8  -7   18.20    6.40
  -6  -8  -7   15.20    5.40
   6   8   7   17.70    5.20
  -7  -8  -7    1.50    3.50
  -7  -8  -7    2.50    4.20
  -7  -8  -7   -0.30    5.00
   7   8   7    0.50    4.10
  -8  -8  -7   96.59   15.90
  -8  -8  -7   80.69   16.10
  -8  -8  -7  110.99   14.00
   8   8   7  110.79   14.80
  -9  -8  -7   63.59   12.40
  -9  -8  -7   51.79    8.60
  -9  -8  -7   65.79   11.30
   9   8   7   49.00    8.80
 -10  -8  -7    4.10    6.80
 -10  -8  -7    1.80    4.80
 -10  -8  -7    5.80    4.10
  10   8   7   -8.30    4.30
 -11  -8  -7   14.70    6.90
 -11  -8  -7    5.50    3.70
 -12  -8  -7    0.50    7.20
 -12  -8  -7   -2.20    5.70
 -13  -8  -7    5.90    8.10
 -13  -8  -7   -5.60    6.50
   7  -9  -7    4.30    8.70
  -7   9   7    5.90    9.90
  -7   9   7    0.60    8.60
   6  -9  -7    6.30    8.00
  -6   9   7    6.60    9.10
  -6   9   7   -1.00    8.10
   5  -9  -7   24.80    9.50
  -5   9   7   18.00   15.60
   4  -9  -7   10.10    7.10
  -4   9   7   24.40    9.00
  -4   9   7    3.50    7.80
   3  -9  -7   -4.20    5.70
   3  -9  -7   -1.70    5.90
  -3   9   7   -0.80    5.60
   2  -9  -7    6.50    5.90
   2  -9  -7   12.90    6.10
  -2   9   7    4.80    6.60
   1  -9  -7   36.90    8.70
   1  -9  -7   45.20    9.50
  -1   9   7   31.70   10.50
   0  -9  -7  336.27   41.00
   0  -9  -7  307.67   40.80
   0   9   7  318.27   42.20
  -1  -9  -7   11.40    5.40
  -1  -9  -7    3.00    5.50
   1   9   7    9.60    8.00
  -2  -9  -7    1.70    5.10
  -2  -9  -7    5.70    5.00
   2   9   7   10.90    7.60
   2   9   7   11.30    5.80
  -3  -9  -7   23.40    6.90
  -3  -9  -7   39.10    8.10
   3   9   7   32.60    8.00
  -4  -9  -7   80.29   13.50
  -4  -9  -7   59.39   11.40
  -4  -9  -7   57.39   10.90
   4   9   7   75.29   11.70
  -5  -9  -7   12.50    5.40
  -5  -9  -7   18.30    6.90
   5   9   7   -3.30    5.10
  -6  -9  -7    9.40    4.50
  -6  -9  -7    2.00    5.00
  -6  -9  -7    7.80    5.50
   6   9   7    1.60    5.20
  -7  -9  -7   93.79   13.00
  -7  -9  -7   62.09   13.40
  -7  -9  -7   97.39   15.70
   7   9   7   89.59   13.20
  -8  -9  -7    9.10    4.60
  -8  -9  -7    0.60    5.80
  -8  -9  -7    5.80    5.00
   8   9   7   11.90    5.40
  -9  -9  -7    7.10    6.80
  -9  -9  -7   -1.40    5.10
  -9  -9  -7   10.90    4.40
   9   9   7    7.60    4.80
 -10  -9  -7    0.20    6.20
 -10  -9  -7   -0.30    4.20
 -10  -9  -7    1.00    5.50
  10   9   7   -3.60    4.60
 -11  -9  -7   33.30    9.70
 -11  -9  -7   16.60    5.10
 -11  -9  -7   22.10    8.70
  11   9   7   19.90    5.90
 -12  -9  -7    0.80    6.00
 -12  -9  -7    3.40    3.80
 -12  -9  -7    0.60    7.80
  12   9   7    2.30    5.00
   6 -10  -7    8.80    8.40
  -6  10   7    0.70    9.90
  -6  10   7    9.30    9.70
   5 -10  -7   -2.70    7.10
   5 -10  -7    3.40    7.40
  -5  10   7   -3.40    8.00
   4 -10  -7   59.59   13.50
  -4  10   7   62.09   16.20
   3 -10  -7    8.80    7.00
   3 -10  -7    7.80    6.40
  -3  10   7   12.50    7.80
   2 -10  -7   12.20    6.50
   2 -10  -7    4.70    6.10
  -2  10   7   11.30    7.60
   1 -10  -7    3.60    6.60
   1 -10  -7   12.50    7.10
  -1  10   7   17.80    8.90
   0 -10  -7   10.70    6.10
   0 -10  -7   11.80    6.70
   0  10   7    5.60    6.90
  -1 -10  -7    1.80    5.00
  -1 -10  -7    3.20    4.80
   1  10   7   -1.50    6.10
  -2 -10  -7   -1.10    5.00
  -2 -10  -7   -3.00    4.50
   2  10   7   10.60    7.00
  -3 -10  -7   90.89   14.00
  -3 -10  -7   68.79   13.10
  -4 -10  -7    9.20    4.90
  -4 -10  -7    3.10    6.00
  -4 -10  -7    6.00    5.10
   4  10   7   12.40    6.10
  -5 -10  -7   31.20    7.30
  -5 -10  -7   22.70    7.30
  -5 -10  -7   18.50    7.70
   5  10   7   32.80    8.00
  -6 -10  -7    7.80    5.90
  -6 -10  -7   11.50    5.50
  -6 -10  -7    4.10    4.80
   6  10   7    0.10    5.60
  -7 -10  -7   17.60    6.70
  -7 -10  -7   33.70    9.00
  -7 -10  -7   22.70    6.30
   7  10   7   18.10    6.90
  -8 -10  -7   20.30    7.30
  -8 -10  -7   38.50    9.40
   8  10   7   26.50    7.60
  -9 -10  -7    8.90    6.60
  -9 -10  -7    6.60    4.70
  -9 -10  -7   -4.60    5.00
   9  10   7   -0.60    5.60
 -10 -10  -7   11.60    6.40
 -10 -10  -7    1.70    4.40
 -10 -10  -7   -0.80    7.00
  10  10   7   -0.50    5.70
 -11 -10  -7    1.80    7.00
 -11 -10  -7   -4.70    8.20
 -11 -10  -7   -0.60    3.90
  11  10   7    4.90    6.10
   5 -11  -7   11.90    8.80
   5 -11  -7   -1.90    7.20
  -5  11   7   16.20    9.90
   4 -11  -7    6.00    7.90
   4 -11  -7   15.20    8.20
  -4  11   7   18.80    8.90
   3 -11  -7   82.99   15.50
   3 -11  -7  103.19   17.50
  -3  11   7   64.09   15.20
   2 -11  -7    6.80    6.40
   2 -11  -7   -6.50    5.20
  -2  11   7   -5.60    5.90
   1 -11  -7   19.70    7.90
   1 -11  -7   26.40    8.20
  -1  11   7   29.50   10.10
   0 -11  -7    0.90    5.20
   0 -11  -7   -4.90    5.00
   0  11   7   -0.20    7.20
  -1 -11  -7   97.29   15.50
  -1 -11  -7   92.49   15.30
   1  11   7   72.89   16.50
  -2 -11  -7    5.10    5.80
  -2 -11  -7    5.80    5.60
   2  11   7   13.10    8.50
  -3 -11  -7    2.90    4.80
  -3 -11  -7   20.20    6.50
  -4 -11  -7  119.99   18.20
  -4 -11  -7  112.99   17.50
  -4 -11  -7  109.79   19.10
  -5 -11  -7   -2.70    5.40
  -5 -11  -7   -1.10    4.20
  -5 -11  -7    4.00    5.00
  -6 -11  -7    9.30    5.90
  -6 -11  -7   26.70    6.20
  -6 -11  -7   15.20    6.70
  -7 -11  -7   11.90    5.10
  -7 -11  -7   11.30    5.50
  -7 -11  -7    0.70    6.60
   7  11   7   -1.90    5.80
  -8 -11  -7   47.80   15.00
  -8 -11  -7   42.10   10.20
  -8 -11  -7   37.60    8.20
   8  11   7   28.50    8.90
  -9 -11  -7   17.10    8.50
  -9 -11  -7   24.10    6.70
  -9 -11  -7   27.70    8.30
   9  11   7   22.90    7.80
 -10 -11  -7    1.10    6.40
 -10 -11  -7    0.50    7.20
 -10 -11  -7    6.30    5.60
  10  11   7   12.30    6.80
 -11 -11  -7   11.40    7.90
 -11 -11  -7   20.90    9.30
 -11 -11  -7   13.80    6.30
   4 -12  -7   10.20    8.80
   4 -12  -7   19.20    8.90
  -4  12   7    3.10    8.50
   3 -12  -7    4.40    7.10
   3 -12  -7   27.80    9.40
  -3  12   7    7.60    8.50
   2 -12  -7    2.10    6.00
   2 -12  -7    1.00    6.40
  -2  12   7   -9.30    6.10
   1 -12  -7    2.10    6.80
  -1  12   7   -8.70    6.00
   0 -12  -7   53.89   11.70
   0 -12  -7   42.60   11.10
   0  12   7   67.59   15.20
  -1 -12  -7    1.10    6.00
  -1 -12  -7   10.40    6.30
   1  12   7   -5.10    8.20
  -2 -12  -7    0.20    5.50
  -2 -12  -7    5.10    5.50
   2  12   7   13.00    8.70
  -3 -12  -7    6.00    5.90
  -3 -12  -7   13.50    7.30
  -3 -12  -7   11.00    6.20
  -4 -12  -7   25.10    8.90
  -4 -12  -7   10.90    6.30
  -4 -12  -7   26.70    7.50
  -5 -12  -7    6.50    6.90
  -5 -12  -7   19.40    7.00
  -5 -12  -7    9.60    5.80
  -6 -12  -7   16.20    7.60
  -6 -12  -7    2.30    5.50
  -7 -12  -7   26.90   16.70
  -7 -12  -7   28.00    8.00
  -7 -12  -7   12.20    6.30
  -8 -12  -7    4.90    5.70
  -8 -12  -7    8.00    5.50
  -8 -12  -7   -4.40    6.90
  -9 -12  -7   32.30   10.50
  -9 -12  -7   43.20    9.10
  -9 -12  -7   31.30    9.60
   3 -13  -7   11.60    8.50
   3 -13  -7    9.10    7.90
  -3  13   7    8.80    8.60
   2 -13  -7   -1.20    6.00
   2 -13  -7   -8.80    5.40
  -2  13   7   -3.00    8.10
   1 -13  -7   -0.50    5.50
   1 -13  -7   11.60    7.80
  -1  13   7  -12.80    6.90
   0 -13  -7    9.60    7.20
   0 -13  -7    5.70    6.30
   0  13   7   15.60    9.10
  -1 -13  -7    9.40    6.90
   1  13   7   29.20   11.40
  -2 -13  -7   -3.80    5.40
  -2 -13  -7    8.50    6.50
   2  13   7    4.90    8.60
  -3 -13  -7   26.10    8.00
  -3 -13  -7   10.60    7.20
  -3 -13  -7   29.00   10.90
  -4 -13  -7    1.90    5.50
  -4 -13  -7   -1.60    5.60
  -4 -13  -7   -1.00    8.20
  -5 -13  -7   41.90   12.30
  -5 -13  -7   85.49   13.80
  -5 -13  -7   53.89   11.20
  -6 -13  -7    0.40    6.10
  -6 -13  -7    4.80    5.80
  -6 -13  -7    5.20    6.70
  -7 -13  -7   26.00    7.80
  -7 -13  -7   32.10    8.70
  -7 -13  -7   17.30    9.30
  -8 -13  -7   15.90    8.80
  -8 -13  -7   19.40    7.90
  -8 -13  -7   16.50    6.70
   1 -14  -7   14.80    8.40
   1 -14  -7   -3.60    6.40
  -1  14   7   26.30   12.00
   0 -14  -7   16.80    8.50
   0 -14  -7   -3.90    6.30
   0  14   7    4.70    9.50
  -1 -14  -7   29.90    9.60
  -1 -14  -7   35.30   10.30
   1  14   7   44.90   13.90
  -2 -14  -7    8.00    7.10
  -2 -14  -7   -5.50    5.40
   2  14   7    0.00    9.60
  -3 -14  -7   16.10    7.00
  -3 -14  -7    9.40    7.30
  -3 -14  -7   13.80    9.10
  -4 -14  -7   38.30    9.90
  -4 -14  -7   35.60   14.70
  -4 -14  -7   41.40   11.10
  -5 -14  -7   14.70    7.30
  -5 -14  -7    2.80    5.80
  -5 -14  -7   12.80    8.00
  -6 -14  -7   -1.10    6.10
  -6 -14  -7    4.70    6.20
  -6 -14  -7   -2.70    7.30
  -1  12  -8    8.30    7.70
   1 -12   8   -1.80    5.60
   1 -12   8    2.00    7.10
  -2  12  -8    2.20    9.80
   2 -12   8   20.30    8.70
   3 -12   8   -1.60    7.00
   3 -12   8   14.70    5.90
  -4  12  -8    2.30    4.90
   4 -12   8   -0.50    4.10
   4 -12   8    0.60    4.30
   4 -12   8    1.20    6.40
   4 -12   8    5.60    5.70
  -5  12  -8   15.60    6.70
   5 -12   8   27.80    9.70
  -2 -11   8   11.80    7.80
  -2 -11   8   -3.50    6.30
  -1 -11   8   15.00    9.50
  -1 -11   8   41.40    9.00
   0 -11   8   -4.50    6.30
   0 -11   8   -2.70    5.60
  -1  11  -8   -1.50    5.70
   1 -11   8   -5.50    5.20
   1 -11   8   -3.60    7.00
  -2  11  -8    4.50    6.00
   2 -11   8   14.90    7.90
   2 -11   8   -1.90    5.00
   3 -11   8   40.40    7.90
   3 -11   8   40.30   10.90
  -4  11  -8    3.90    4.30
   4 -11   8    3.00    4.00
   4 -11   8    1.80    4.70
   4 -11   8   -0.90    4.00
   4 -11   8   -4.70    5.80
  -5  11  -8    0.70    5.20
   5 -11   8    0.70    5.10
   5 -11   8    1.20    7.30
  -6  11  -8   10.10    7.80
   6 -11   8    5.00    8.30
  -7  11  -8   23.50    8.90
   7 -11   8   14.90   11.50
   7 -11   8   20.70    9.80
  -3 -10   8  -11.10    5.50
  -3 -10   8   -1.40    7.00
  -2 -10   8   -8.70    5.90
  -2 -10   8    2.70    6.80
  -1 -10   8   27.30    8.40
  -1 -10   8   53.09   11.50
   0  10  -8    0.70    5.70
   0 -10   8   10.80    6.10
   0 -10   8   16.20    8.10
  -1  10  -8   -2.30    5.10
   1 -10   8   -0.20    5.40
   1 -10   8  -11.90    7.60
  -2  10  -8   18.00    5.90
   2 -10   8   27.70    8.80
   2 -10   8   21.10    6.00
  -3  10  -8    2.10    4.30
   3 -10   8    0.70    4.10
   3 -10   8    5.50    6.20
  -4  10  -8   -2.60    3.60
   4 -10   8    3.40    4.10
   4 -10   8    2.10    5.80
   4 -10   8    1.60    3.60
   4 -10   8   -2.70    6.00
  -5  10  -8   -2.10    4.70
   5 -10   8    3.90    4.90
   5 -10   8    0.50    5.10
  -6  10  -8    6.50    6.10
   6 -10   8    4.20    5.90
   6 -10   8   22.60    7.60
  -7  10  -8   38.50    9.40
   7 -10   8   21.80    8.40
   7 -10   8   32.20    9.40
  -8  10  -8    1.60    6.70
   8 -10   8   10.10    6.80
  -9  10  -8    7.70    8.00
   9 -10   8    2.40    6.30
  -4  -9   8    2.10    6.80
  -4  -9   8   10.30    7.30
  -3  -9   8   10.40    6.90
  -3  -9   8   -3.00    6.10
  -2  -9   8   17.10    7.80
  -2  -9   8   23.20    7.70
   1   9  -8   -3.60    6.30
  -1  -9   8   -0.10    5.30
  -1  -9   8    7.60    6.00
   0   9  -8   -5.50    4.70
   0  -9   8    1.80    5.00
   0  -9   8   -2.80    5.50
  -1   9  -8    4.00    4.60
   1  -9   8    2.20    6.10
   1  -9   8   -4.60    4.20
  -2   9  -8    0.70    4.20
   2  -9   8    7.10    5.90
   2  -9   8   14.30    5.20
  -3   9  -8    6.80    4.00
   3  -9   8   13.90    4.40
   3  -9   8   -3.40    5.50
  -4   9  -8   -0.40    3.90
   4  -9   8   -2.30    2.80
   4  -9   8   -0.90    5.40
   4  -9   8   -2.10    4.90
  -5   9  -8   27.20    7.10
   5  -9   8   37.50    8.90
   5  -9   8   39.50    7.30
  -6   9  -8   -1.10    5.10
   6  -9   8    4.10    5.70
   6  -9   8   -7.60    4.50
  -7   9  -8   18.10    7.40
   7  -9   8   14.10    6.90
   7  -9   8   37.70    8.60
  -8   9  -8   21.40    8.60
   8  -9   8   12.50    6.80
  -9   9  -8   -0.50    7.70
   9  -9   8    4.70    5.90
 -10   9  -8    6.20    8.40
  10  -9   8    3.00    5.80
  -5  -8   8   23.00    8.60
  -5  -8   8   -3.80    6.60
  -4  -8   8   13.40    7.50
  -4  -8   8    7.60    8.00
  -3  -8   8    1.80   10.90
  -3  -8   8   14.70    7.00
  -2  -8   8   13.90    7.20
  -2  -8   8    7.90    6.10
   1   8  -8   20.70    6.80
  -1  -8   8   40.00    8.30
  -1  -8   8   16.40    7.40
   0   8  -8   11.90    5.20
   0  -8   8    7.70    6.20
   0  -8   8   11.10    5.40
  -1   8  -8   12.30    4.80
   1  -8   8    9.90    5.20
   1  -8   8   10.50    6.00
  -2   8  -8    3.00    3.20
   2  -8   8    9.40    6.00
   2  -8   8    0.20    4.10
  -3   8  -8   42.20    9.00
   3  -8   8   61.59   10.80
   3  -8   8   44.70    7.60
  -4   8  -8    9.80    4.00
   4  -8   8   23.90    7.20
  -5   8  -8   28.20    5.90
   5  -8   8   14.60    6.90
   5  -8   8   11.30    4.90
  -6   8  -8   40.10    8.30
   6  -8   8   16.40    7.00
   6  -8   8   28.40    6.80
  -7   8  -8   51.29   10.10
   7  -8   8   22.60    8.10
   7  -8   8   44.00    8.70
  -8   8  -8   22.80    8.70
   8  -8   8   31.80    7.70
   8  -8   8    9.90    9.00
  -9   8  -8    6.00    8.00
   9  -8   8    5.30    5.60
 -10   8  -8   27.80   11.40
  10  -8   8   57.79   10.20
 -11   8  -8   -6.70    8.90
  11  -8   8   15.10    6.10
  -6  -7   8    4.70    6.70
  -6  -7   8   -5.20    7.10
  -5  -7   8   14.30    8.30
  -5  -7   8   -0.70    7.30
  -4  -7   8   -6.20    9.50
  -4  -7   8   -1.60    6.60
  -3  -7   8    0.30    6.40
  -3  -7   8   -2.60    6.00
  -2  -7   8   -6.50    5.00
  -2  -7   8   -1.10    5.30
   1   7  -8   61.29   11.20
  -1  -7   8   60.59   12.40
  -1  -7   8   86.89   12.20
   0   7  -8    3.50    4.00
   0  -7   8   10.30    5.90
   0  -7   8    1.80    4.60
  -1   7  -8    2.80    3.90
   1  -7   8    6.30    5.70
   1  -7   8    2.80    4.30
  -2   7  -8   59.59    9.80
   2  -7   8   53.09   11.90
   2  -7   8   85.49   10.60
  -3   7  -8    6.60    3.00
   3  -7   8    6.40    5.30
   3  -7   8    5.50    3.20
  -4   7  -8   23.20    5.10
   4  -7   8   19.20    6.40
  -5   7  -8    1.10    4.30
   5  -7   8   -1.50    4.00
   5  -7   8   -4.10    4.10
  -6   7  -8  142.79   18.10
   6  -7   8  116.69   17.70
   6  -7   8  106.49   16.50
  -7   7  -8   27.70    9.50
   7  -7   8   14.90    7.60
   7  -7   8   19.10    6.20
  -8   7  -8   57.89   10.60
  -8   7  -8   54.39   11.00
   8  -7   8   48.80    9.30
   8  -7   8   25.70    8.90
  -9   7  -8   -8.10    6.80
  -9   7  -8    3.40    7.00
   9  -7   8    0.20    4.80
 -10   7  -8   25.50    9.00
 -10   7  -8   14.20    9.20
  10  -7   8   20.20    6.70
 -11   7  -8   13.50    8.90
  11  -7   8   16.40    6.60
 -12   7  -8    1.80    8.90
  12  -7   8    2.10    5.20
   7   6  -8   -2.10    4.80
  -7  -6   8   34.30   10.20
  -7  -6   8    4.40    7.80
  -7  -6   8    0.70    4.10
  -6  -6   8   -8.60    5.80
  -5  -6   8    7.50    7.60
  -5  -6   8    3.20    7.00
  -4  -6   8   42.40    9.50
  -4  -6   8   10.40    7.70
  -3  -6   8   -8.50    5.50
  -3  -6   8    2.80    5.60
   2   6  -8   32.40    7.80
  -2  -6   8   23.80    7.70
  -2  -6   8   39.30    8.50
  -1  -6   8   -0.30    5.60
  -1  -6   8   14.90    6.30
   0   6  -8   62.79    9.20
   0  -6   8   47.40    9.20
   0  -6   8   40.90    9.80
  -1   6  -8    0.30    3.20
   1  -6   8   -0.20    4.50
   1  -6   8    9.10    4.40
  -2   6  -8   52.39    8.60
   2  -6   8   60.89    9.10
   2  -6   8   71.29   11.50
  -3   6  -8    9.00    2.70
  -3   6  -8    4.40    5.60
   3  -6   8   -0.80    4.80
   3  -6   8    9.40    3.30
  -4   6  -8   55.09   10.60
  -4   6  -8   56.19    9.00
   4  -6   8   71.59   11.00
  -5   6  -8    9.70    4.60
  -5   6  -8    5.50    4.80
   5  -6   8    8.00    4.80
   5  -6   8   12.20    4.20
  -6   6  -8    8.30    5.30
  -6   6  -8   11.30    5.70
   6  -6   8   15.50    5.30
   6  -6   8    6.90    5.10
  -7   6  -8   86.59   15.00
  -7   6  -8  105.39   15.10
   7  -6   8  101.99   14.90
   7  -6   8   85.49   14.10
  -8   6  -8   13.80    5.60
  -8   6  -8   -1.50    6.60
   8  -6   8   -4.30    3.80
   8  -6   8   -5.50    5.20
  -9   6  -8    5.20    5.50
  -9   6  -8  -13.10    6.90
   9  -6   8   -3.70    3.90
 -10   6  -8    6.40    5.70
 -10   6  -8    4.70    8.60
  10  -6   8    6.10    4.80
 -11   6  -8   20.90    7.40
 -11   6  -8   18.30    9.80
  11  -6   8   19.90    6.50
 -12   6  -8    2.10    6.40
  12  -6   8    0.10    4.70
   7   5  -8    0.30    5.80
  -7  -5   8   -7.40    4.30
  -7  -5   8    3.20    7.80
  -7  -5   8    9.70    7.90
   6   5  -8    3.20    4.70
  -6  -5   8    7.40    4.40
  -6  -5   8   -3.30    6.50
  -6  -5   8   -2.80    6.70
   5   5  -8    1.40    4.40
  -5  -5   8    7.20    6.80
  -5  -5   8   -7.40    5.20
  -5  -5   8    6.00    3.90
  -4  -5   8   10.30    6.60
  -4  -5   8    4.20    5.40
  -3  -5   8   -0.10    5.40
  -3  -5   8   -2.30    5.40
   2   5  -8   40.90    9.40
  -2  -5   8   50.49   10.40
  -2  -5   8   55.79    9.90
   1   5  -8   23.80    6.50
  -1  -5   8    8.10    6.50
  -1  -5   8   41.80    7.60
   0   5  -8   26.70    6.20
   0  -5   8   34.10    7.00
   0  -5   8   20.40    7.00
  -1   5  -8   14.20    4.50
  -1   5  -8   18.70   10.30
   1  -5   8   17.80    6.20
   1  -5   8   13.10    4.60
  -2   5  -8    8.50    3.00
  -2   5  -8   10.50    5.20
   2  -5   8    1.10    4.40
   2  -5   8   10.70    4.10
  -3   5  -8  133.59   17.40
  -3   5  -8  134.19   18.80
  -3   5  -8  126.39   17.30
   3  -5   8  159.28   19.30
   3  -5   8  155.58   17.50
  -4   5  -8    7.00    5.00
  -4   5  -8   19.90    4.90
   4  -5   8    5.70    5.50
   4  -5   8   10.80    5.00
  -5   5  -8   12.20    5.20
  -5   5  -8    8.70    5.00
   5  -5   8   13.20    8.70
   5  -5   8    7.90    4.20
  -6   5  -8   14.00    5.20
  -6   5  -8    2.80    5.10
   6  -5   8    5.90    4.10
   6  -5   8    7.30    4.40
  -7   5  -8   98.19   17.30
  -7   5  -8  128.49   17.20
   7  -5   8  127.49   16.50
   7  -5   8  118.59   17.30
  -8   5  -8   78.79   11.20
  -8   5  -8   53.89   12.10
   8  -5   8   81.69   12.30
   8  -5   8   56.09   10.40
  -9   5  -8    6.40    5.00
  -9   5  -8    5.50    7.10
   9  -5   8   -1.60    3.70
 -10   5  -8   43.40   11.20
 -10   5  -8   47.00    8.60
  10  -5   8   37.10    7.50
 -11   5  -8    2.30    5.10
 -11   5  -8   -9.10    7.10
  11  -5   8   -5.20    4.10
 -12   5  -8    4.20    8.50
 -12   5  -8    6.80    5.50
  12  -5   8   -0.90    4.30
 -13   5  -8    5.10    8.80
 -13   5  -8    2.90    4.70
  13  -5   8    0.50    3.70
  13  -5   8    1.70    4.70
   8   4  -8    3.60    8.30
  -8  -4   8    6.10    8.30
  -8  -4   8   14.20    7.00
  -8  -4   8    7.00    8.30
   7   4  -8    8.90    7.00
  -7  -4   8    2.40    7.70
  -7  -4   8   -0.50    7.50
  -7  -4   8    7.70    5.70
   6   4  -8    5.30    5.60
  -6  -4   8    1.70    4.90
  -6  -4   8   10.10    7.60
   5   4  -8    0.10    4.30
  -5  -4   8    3.10    6.10
  -5  -4   8   -3.40    6.00
  -5  -4   8   -4.30    3.40
   4   4  -8    9.10    4.40
  -4  -4   8    4.10    3.40
  -4  -4   8   15.80    7.10
  -4  -4   8    6.20    6.00
  -3  -4   8   -5.80    4.30
  -3  -4   8   -1.40    5.40
   2   4  -8   17.50    6.40
  -2  -4   8    8.20    6.20
  -2  -4   8   24.70    6.40
   1   4  -8   74.99   13.30
  -1  -4   8   83.59   14.50
  -1  -4   8  114.19   14.30
   0   4  -8    4.60    4.20
   0   4  -8    4.40    5.10
   0  -4   8    9.70    5.40
   0  -4   8    3.90    4.60
  -1   4  -8    3.10    4.60
  -1   4  -8    7.30    3.70
   1  -4   8    6.10    4.80
   1  -4   8    9.20    4.40
  -2   4  -8   10.40    5.40
  -2   4  -8   15.40    3.90
   2  -4   8   18.70    4.50
   2  -4   8   16.30    5.20
  -3   4  -8   69.39    9.30
  -3   4  -8   64.79   11.10
  -3   4  -8   63.79    8.80
   3  -4   8   71.09    9.10
   3  -4   8   59.49   11.80
  -4   4  -8   43.30    7.80
  -4   4  -8   41.50    8.70
   4  -4   8   51.29    9.00
   4  -4   8   53.69    7.60
  -5   4  -8    4.30    4.20
  -5   4  -8    4.20    4.10
   5  -4   8    5.30    4.00
   5  -4   8    8.60    4.30
  -6   4  -8   89.49   14.50
  -6   4  -8  100.49   15.10
   6  -4   8  111.69   14.40
   6  -4   8  110.39   15.00
  -7   4  -8    5.00    4.10
  -7   4  -8    7.70    5.70
   7  -4   8   -2.40    3.80
   7  -4   8   -0.50    3.80
  -8   4  -8   28.40    6.20
  -8   4  -8   18.60    7.80
   8  -4   8   28.10    7.50
   8  -4   8   29.00    6.00
  -9   4  -8    8.20    4.40
  -9   4  -8    8.10    7.40
   9  -4   8    3.50    4.10
 -10   4  -8   67.99    9.80
 -10   4  -8   47.70   11.50
  10  -4   8   53.69    9.20
 -11   4  -8   19.00    8.40
 -11   4  -8    3.30    4.30
  11  -4   8    4.50    3.90
 -12   4  -8   17.40    9.20
 -12   4  -8   10.20    4.60
  12  -4   8   23.20    7.10
  12  -4   8   14.00    4.80
 -13   4  -8   -0.70    4.90
 -13   4  -8    0.10    8.30
  13  -4   8    0.40    4.80
  13  -4   8   -1.40    3.50
  13  -4   8    3.00    3.90
   8   3  -8    8.80   14.50
  -8  -3   8    3.90    8.50
  -8  -3   8   -2.00    7.80
  -8  -3   8   13.90    6.50
  -7  -3   8   11.80    8.40
  -7  -3   8   -5.50    7.30
   6   3  -8    3.50    6.30
  -6  -3   8    6.80    5.20
  -6  -3   8   -4.50    7.70
  -6  -3   8   22.40    8.40
   5   3  -8   15.90    6.60
  -5  -3   8   17.90    5.90
  -5  -3   8   17.50    7.70
  -5  -3   8   33.10    8.80
   4   3  -8    4.90    4.70
  -4  -3   8   11.00    4.70
  -4  -3   8    7.90    6.80
  -4  -3   8   15.40    6.90
   3   3  -8   13.60    4.30
  -3  -3   8   11.30    3.80
  -3  -3   8   32.10    7.60
  -3  -3   8    6.70    6.30
   2   3  -8   24.40    4.30
   2   3  -8   11.80    6.10
  -2  -3   8   20.10    6.60
  -2  -3   8   20.40    6.90
   1   3  -8   17.80    5.70
  -1  -3   8   14.80    6.50
  -1  -3   8    0.10    5.30
   0   3  -8   51.39    9.50
   0   3  -8   55.09   10.60
   0  -3   8   61.59    9.80
   0  -3   8   64.29   10.80
  -1   3  -8    5.80    4.40
  -1   3  -8   -3.80    3.10
   1  -3   8    7.40    4.80
   1  -3   8    2.60    4.00
  -2   3  -8    0.50    3.20
  -2   3  -8   12.00    3.10
  -2   3  -8    3.30    4.20
  -2   3  -8   10.60    2.90
   2  -3   8   11.10    4.60
   2  -3   8    4.50    3.40
  -3   3  -8    6.00    2.80
  -3   3  -8    7.00    3.50
  -3   3  -8    2.20    4.30
   3  -3   8   11.70    3.20
   3  -3   8    9.10    4.30
  -4   3  -8   62.89   10.30
  -4   3  -8   59.69    9.80
   4  -3   8   68.99   10.60
   4  -3   8   70.19    9.80
  -5   3  -8    7.80    4.70
  -5   3  -8   16.70    4.60
   5  -3   8   16.40    4.40
   5  -3   8   21.30    4.90
  -6   3  -8   17.30    5.60
  -6   3  -8   18.30    4.90
   6  -3   8   14.10    4.90
   6  -3   8   19.40    5.10
  -7   3  -8  151.18   19.40
  -7   3  -8  141.69   18.20
   7  -3   8  137.39   18.20
   7  -3   8  130.19   19.50
  -8   3  -8   18.70    7.10
  -8   3  -8   21.90    5.20
   8  -3   8   24.70    5.00
   8  -3   8   18.90    6.20
  -9   3  -8    4.70    3.60
  -9   3  -8    6.20    6.60
   9  -3   8   -1.50    3.10
 -10   3  -8    3.00    3.70
 -10   3  -8   -1.90    6.90
  10  -3   8    6.00    3.40
 -11   3  -8   41.00   10.20
 -11   3  -8   30.40    6.40
 -11   3  -8   41.10    7.60
  11  -3   8   28.30    5.60
 -12   3  -8    7.30    5.00
 -12   3  -8   12.20    8.80
  12  -3   8    7.30    4.10
  12  -3   8    3.90    3.40
  12  -3   8    6.40    3.40
 -13   3  -8    6.50    5.90
 -13   3  -8   -0.30    7.30
  13  -3   8   16.80    5.10
 -14   3  -8   18.30   10.70
 -14   3  -8    5.50    8.40
  14  -3   8   15.30    6.10
  -8  -2   8    8.90    8.40
  -8  -2   8   16.70    7.10
  -8  -2   8   30.90   10.70
   7   2  -8   13.80    7.70
  -7  -2   8   16.70    8.80
  -7  -2   8   10.90    6.20
  -7  -2   8   20.60    9.70
   6   2  -8   -0.70    6.50
  -6  -2   8    7.70    7.00
  -6  -2   8   11.20    7.60
  -6  -2   8    4.10    5.70
   5   2  -8   -0.50    5.60
  -5  -2   8   -1.40    5.90
  -5  -2   8   -1.60    6.00
  -5  -2   8    1.50    4.70
   4   2  -8   66.99   10.20
  -4  -2   8   91.09   12.90
  -4  -2   8   65.29   10.10
  -4  -2   8   31.20   10.40
   3   2  -8    3.60    4.20
   3   2  -8   -3.80    5.70
  -3  -2   8    0.40    3.30
  -3  -2   8   -4.60    4.70
  -3  -2   8    3.40    5.40
   2   2  -8    5.20    5.00
   2   2  -8   -3.30    5.20
  -2  -2   8    5.70    4.90
  -2  -2   8   -3.20    4.80
  -2  -2   8    0.00    3.10
   1   2  -8    1.10    3.20
   1   2  -8    7.00    5.30
   1   2  -8    9.90    5.10
  -1  -2   8    2.50    4.60
  -1  -2   8    4.00    5.00
   0   2  -8  126.49   17.10
   0   2  -8  134.59   19.70
   0   2  -8  132.39   18.30
   0   2  -8  152.88   17.20
   0  -2   8  103.89   18.70
   0  -2   8  158.08   18.50
  -1   2  -8   45.40    6.50
  -1   2  -8   31.30    7.30
  -1   2  -8   44.20    6.50
  -1   2  -8   41.50    8.30
   1  -2   8   53.69   10.20
   1  -2   8   35.40    7.30
  -2   2  -8    4.30    4.30
  -2   2  -8    3.80    2.80
  -2   2  -8   -2.80    3.20
  -2   2  -8    4.90    2.80
   2  -2   8   -3.90    3.50
   2  -2   8    4.00    3.20
  -3   2  -8  219.88   27.80
  -3   2  -8  219.78   27.60
  -3   2  -8  206.68   28.30
   3  -2   8  241.88   28.50
   3  -2   8  235.58   27.70
  -4   2  -8   -0.20    3.50
  -4   2  -8    6.50    3.80
  -4   2  -8    4.00    2.20
  -4   2  -8    1.00    2.30
   4  -2   8   -2.00    3.30
   4  -2   8    1.60    3.70
  -5   2  -8    5.20    3.80
  -5   2  -8   12.80    4.70
   5  -2   8   11.60    3.80
   5  -2   8    7.40    3.80
  -6   2  -8   -2.70    2.60
  -6   2  -8   -2.00    4.10
   6  -2   8    1.90    4.00
   6  -2   8   -2.70    2.70
  -7   2  -8  164.58   24.60
  -7   2  -8  203.78   23.70
   7  -2   8  194.78   23.70
   7  -2   8  180.48   24.50
  -8   2  -8   50.69    7.70
  -8   2  -8   31.40    8.90
   8  -2   8   40.40    8.80
   8  -2   8   40.20    6.70
  -9   2  -8   12.20    3.30
  -9   2  -8   12.10    6.10
  -9   2  -8    5.60    3.20
   9  -2   8   10.70    2.90
   9  -2   8    5.90    2.80
 -10   2  -8   35.50    8.90
 -10   2  -8   17.70    5.20
 -10   2  -8   21.30    4.30
  10  -2   8   27.40    6.10
  10  -2   8   17.90    3.90
 -11   2  -8    3.40    4.60
 -11   2  -8   -3.30    6.70
  11  -2   8   -1.70    2.80
 -12   2  -8   11.30    6.10
 -12   2  -8   11.70    8.60
  12  -2   8    2.80    3.90
 -13   2  -8   -0.10    5.90
 -13   2  -8    5.90    8.40
  13  -2   8    0.10    4.40
 -14   2  -8   10.90    9.20
 -14   2  -8    7.40    7.20
  14  -2   8   13.50    6.30
  -8  -1   8   16.30    8.90
  -8  -1   8    9.50    7.20
  -8  -1   8   11.60    9.00
   7   1  -8   -0.60    9.30
  -7  -1   8   -7.40   12.10
  -7  -1   8   12.70    6.30
   6   1  -8    3.30    7.00
  -6  -1   8   -1.20    6.10
  -6  -1   8    2.70    6.80
  -6  -1   8   -3.20    5.40
   5   1  -8   10.00    6.10
  -5  -1   8   -3.30    6.30
  -5  -1   8    3.60    5.30
  -5  -1   8    7.50    6.80
   4   1  -8    8.90    5.30
  -4  -1   8   15.40    7.00
  -4  -1   8    3.00    4.90
  -4  -1   8    8.00    6.00
   3   1  -8    3.10    5.00
   3   1  -8   -2.40    6.20
  -3  -1   8    9.50    5.40
  -3  -1   8   13.90    6.30
  -3  -1   8    5.00    4.60
   2   1  -8   24.60    7.10
   2   1  -8   24.80    5.20
  -2  -1   8   28.00    6.70
  -2  -1   8    9.10    6.10
  -2  -1   8    7.80    4.50
   1   1  -8  121.09   16.10
   1   1  -8  133.79   17.40
   1   1  -8  147.19   19.70
  -1  -1   8  111.89   16.30
  -1  -1   8  132.89   17.30
  -1  -1   8  112.59   18.10
   0   1  -8    5.00    5.00
   0   1  -8    6.00    4.50
   0   1  -8    4.00    3.70
   0  -1   8   10.70    5.10
   0  -1   8    6.90    4.20
  -1   1  -8   85.59   12.20
  -1   1  -8   67.09   10.10
  -1   1  -8   58.99    9.70
  -1   1  -8   70.09   10.70
   1  -1   8   67.99   11.30
   1  -1   8   79.99   10.90
  -2   1  -8    1.10    2.80
  -2   1  -8   -2.10    3.20
  -2   1  -8    0.90    3.50
  -2   1  -8   -5.40    3.70
   2  -1   8    0.90    3.60
   2  -1   8    4.20    4.00
  -3   1  -8   13.90    4.90
  -3   1  -8   24.40    4.90
  -3   1  -8   20.30    5.30
   3  -1   8   14.50    4.60
  -4   1  -8   25.70    6.20
  -4   1  -8   48.10    7.60
  -4   1  -8   39.70    6.20
  -4   1  -8   36.50    5.80
   4  -1   8   48.00    7.70
  -5   1  -8   34.60    5.20
  -5   1  -8   44.90    7.40
  -5   1  -8   36.10    6.20
  -5   1  -8   35.50    5.80
   5  -1   8   39.30    6.90
   5  -1   8   35.70    7.00
  -6   1  -8   48.40    8.00
  -6   1  -8   32.30    5.00
  -6   1  -8   39.10    5.50
  -6   1  -8   31.00    5.80
   6  -1   8   24.40    6.60
   6  -1   8   45.00    6.70
  -7   1  -8   21.00    6.70
  -7   1  -8   34.90    5.00
  -7   1  -8   25.90    5.10
   7  -1   8   28.80    6.70
  -8   1  -8  192.38   26.40
  -8   1  -8  214.28   24.60
  -8   1  -8  164.78   24.60
   8  -1   8  198.48   24.60
   8  -1   8  224.08   24.60
   8  -1   8  209.88   26.40
  -9   1  -8    8.90    6.50
  -9   1  -8   15.90    4.30
 -10   1  -8    7.30    4.50
 -10   1  -8    7.70    7.10
  10  -1   8   19.00    4.30
 -11   1  -8    8.80    4.80
 -11   1  -8   14.40    8.10
  11  -1   8    8.30    3.80
 -12   1  -8   29.40    7.40
 -12   1  -8   25.40    9.70
  12  -1   8   28.40    6.60
 -13   1  -8   -7.10    7.20
 -13   1  -8    5.50    9.60
  13  -1   8   15.40    8.70
 -14   1  -8    2.10    6.80
 -14   1  -8    1.30    8.40
  14  -1   8    1.50    6.10
  -8   0   8   20.80    9.70
  -8   0   8   28.10   10.30
  -8   0   8   12.40    7.40
  -7   0   8    7.60   12.40
  -7   0   8    3.20    6.20
   6   0  -8    0.50    6.60
  -6   0   8    3.40    7.10
  -6   0   8   10.50    7.60
  -6   0   8   -0.40    5.90
  -5   0   8    6.30    6.60
  -5   0   8    9.10    7.40
   4   0  -8    4.00    5.60
  -4   0   8    3.00    6.00
  -4   0   8    7.50    5.80
  -4   0   8   -3.00    4.20
   3   0  -8    6.80    7.70
   3   0  -8   11.60    5.20
  -3   0   8    2.20    5.00
  -3   0   8   -5.90    5.00
  -3   0   8   -1.00    5.00
   2   0  -8    2.80    6.10
   2   0  -8   12.70    6.20
   2   0  -8   13.00    4.90
  -2   0   8   12.30    6.40
  -2   0   8   13.50    4.90
  -2   0   8    9.70    5.70
   1   0  -8  230.08   28.10
   1   0  -8  193.68   28.10
   1   0  -8  224.18   27.20
  -1   0   8  197.38   27.40
  -1   0   8  213.28   28.10
  -1   0   8  240.98   28.10
   0   0  -8   53.99   12.50
   0   0  -8   83.89   11.20
   0   0  -8   57.89    9.80
   0   0   8   76.99   10.90
   0   0   8   63.69   10.40
  -1   0  -8   13.10    4.40
  -1   0  -8   11.50    4.30
  -1   0  -8   13.60    5.10
  -1   0  -8   19.10    5.10
   1   0   8   10.50    4.60
   1   0   8   16.90    5.40
  -2   0  -8  131.99   16.50
  -2   0  -8   95.29   16.90
  -2   0  -8  126.69   16.30
  -2   0  -8  134.69   16.40
   2   0   8  125.99   16.40
   2   0   8  121.89   16.70
  -3   0  -8  257.87   34.00
  -3   0  -8  286.27   34.00
  -3   0  -8  270.37   33.70
  -3   0  -8  269.57   34.20
   3   0   8  281.57   34.10
  -4   0  -8 1813.72  216.38
  -4   0  -8 1881.31  216.08
  -4   0  -8 1830.72  216.58
  -4   0  -8 1772.32  216.18
  -4   0  -8 1773.02  215.88
   4   0   8 1761.92  216.18
  -5   0  -8   39.20    7.30
  -5   0  -8   30.00    5.70
  -5   0  -8   35.70    6.30
  -5   0  -8   41.50    6.40
   5   0   8   46.70    6.90
   5   0   8   43.40    7.70
  -6   0  -8    7.70    2.60
  -6   0  -8    6.70    3.00
  -6   0  -8    7.90    4.50
  -6   0  -8    4.50    2.70
   6   0   8   12.20    3.60
   6   0   8    8.20    4.30
  -7   0  -8  172.58   22.10
  -7   0  -8  225.68   25.50
  -7   0  -8  172.38   22.30
   7   0   8  179.18   22.20
   7   0   8  197.38   23.80
  -8   0  -8  209.38   26.10
  -8   0  -8  187.78   24.30
   8   0   8  198.78   24.40
   8   0   8  198.18   25.90
  -9   0  -8   39.50    6.80
  -9   0  -8   56.69    9.80
   9   0   8   31.40    6.10
 -10   0  -8   20.20    5.30
 -10   0  -8   25.40    8.30
  10   0   8   11.00    4.40
 -11   0  -8   65.99   12.00
 -11   0  -8   61.59    9.10
  11   0   8   32.70    7.40
 -12   0  -8    4.70    7.50
 -12   0  -8    1.20    5.70
  12   0   8   10.00    5.10
 -13   0  -8   -2.50    5.90
 -13   0  -8   18.70    9.00
  13   0   8    2.50    4.80
 -14   0  -8  -14.50    7.50
 -14   0  -8    7.60    6.90
   8  -1  -8   10.30    8.60
  -8   1   8    3.00    6.70
  -8   1   8    3.00    7.90
  -7   1   8    0.20   11.40
  -7   1   8    1.20    6.40
  -6   1   8   -1.60    5.60
  -6   1   8   -7.30    6.30
  -6   1   8   20.40    8.00
   5  -1  -8   28.30    7.90
  -5   1   8    6.30    7.10
  -5   1   8   38.60    9.10
  -5   1   8   13.60    7.00
   4  -1  -8   70.19   10.70
  -4   1   8   39.60    9.70
  -4   1   8   59.79   11.30
  -4   1   8   51.39   11.00
   3  -1  -8    8.70    5.70
  -3   1   8    1.70    5.40
  -3   1   8    0.60    5.30
  -3   1   8    2.60    5.50
   2  -1  -8   15.80    7.00
   2  -1  -8   17.90    5.80
   2  -1  -8   11.70    6.10
  -2   1   8   36.20    7.80
  -2   1   8   15.30    5.80
  -2   1   8   15.10    5.70
   1  -1  -8   -0.40    4.70
   1  -1  -8   11.40    5.60
   1  -1  -8    4.00    4.00
  -1   1   8   16.40    6.10
  -1   1   8    4.20    4.70
  -1   1   8   11.80    4.60
   0  -1  -8  169.88   23.00
   0  -1  -8  195.38   23.50
   0  -1  -8  158.98   23.60
   0   1   8  186.18   23.20
   0   1   8  184.08   23.60
   0   1   8  177.98   26.10
  -1  -1  -8   10.30    4.80
  -1  -1  -8   15.00    5.20
  -1  -1  -8    4.00    3.50
   1   1   8    6.10    4.80
   1   1   8   10.20    4.90
  -2  -1  -8   19.50    4.90
  -2  -1  -8   19.70    4.80
  -2  -1  -8   17.80    5.00
  -2  -1  -8   11.60    4.80
   2   1   8   12.20    5.00
   2   1   8   25.60    6.10
  -3  -1  -8  219.58   26.20
  -3  -1  -8  200.68   25.90
  -3  -1  -8  203.48   26.40
  -3  -1  -8  203.18   25.80
  -3  -1  -8  207.88   26.20
   3   1   8  202.78   26.20
  -4  -1  -8   38.60    7.80
  -4  -1  -8   67.69    8.90
  -4  -1  -8   44.10    7.70
  -4  -1  -8   49.80    7.60
  -4  -1  -8   43.30    8.90
   4   1   8   50.69    8.20
  -5  -1  -8    4.30    2.70
  -5  -1  -8   -2.50    3.50
  -5  -1  -8   10.60    4.10
  -5  -1  -8    5.40    3.20
   5   1   8    9.90    3.70
   5   1   8    3.70    3.80
  -6  -1  -8   -2.20    3.80
  -6  -1  -8    3.20    2.50
  -6  -1  -8    4.20    2.30
  -6  -1  -8    8.00    3.50
   6   1   8    7.20    4.60
   6   1   8    9.40    3.20
  -7  -1  -8  159.48   23.70
  -7  -1  -8  184.78   21.90
  -7  -1  -8  180.38   22.40
   7   1   8  180.58   22.60
  -8  -1  -8    9.40    5.40
  -8  -1  -8    8.50    3.70
   8   1   8   14.30    3.90
   8   1   8   18.20    6.00
  -9  -1  -8  101.09   15.60
  -9  -1  -8  100.29   13.40
   9   1   8   95.59   13.40
 -10  -1  -8   -4.30    5.70
 -10  -1  -8   -0.20    3.70
  10   1   8    3.00    3.80
 -11  -1  -8   10.50    5.80
 -11  -1  -8   15.50    7.30
  11   1   8   13.70    4.60
 -12  -1  -8    4.60    7.50
 -12  -1  -8   14.40    6.30
  12   1   8   24.00    6.20
 -13  -1  -8   -1.30    6.00
 -13  -1  -8  -10.50    7.00
  13   1   8    5.00    5.60
 -14  -1  -8    2.70    8.70
 -14  -1  -8   24.40    8.60
   8  -2  -8    7.70    8.90
  -8   2   8    5.10    6.60
  -8   2   8  -11.00    7.00
  -7   2   8   -8.50    6.20
  -7   2   8   -6.70    6.00
   6  -2  -8   -5.40    6.40
  -6   2   8   23.40    9.00
  -6   2   8    9.90    7.00
   5  -2  -8    9.10    7.40
  -5   2   8   13.70    6.10
  -5   2   8   11.90    7.30
  -5   2   8   14.00    7.00
   4  -2  -8   40.90    8.50
  -4   2   8   27.10    8.50
  -4   2   8   26.00    8.00
  -4   2   8   34.00    9.40
   3  -2  -8   19.50    6.60
  -3   2   8    2.90    5.70
  -3   2   8   -5.30    5.90
  -3   2   8    3.50    5.30
   2  -2  -8    3.20    4.50
   2  -2  -8    7.20    5.50
   2  -2  -8   -5.70    5.80
  -2   2   8   -4.00    3.50
  -2   2   8   -3.60    4.30
  -2   2   8    5.50    5.80
   1  -2  -8  113.99   14.20
   1  -2  -8   91.69   15.20
   1  -2  -8  109.69   15.20
  -1   2   8   86.19   13.70
  -1   2   8   51.09   13.10
  -1   2   8   91.79   14.10
   0  -2  -8    3.50    4.90
   0  -2  -8   27.70    7.20
   0  -2  -8   26.10    6.30
   0   2   8   18.50    5.70
   0   2   8   33.40    7.10
   0   2   8   24.80    7.80
  -1  -2  -8  112.39   13.90
  -1  -2  -8   59.29   12.40
  -1  -2  -8   97.59   14.10
   1   2   8   89.79   13.70
   1   2   8   86.89   13.20
   1   2   8   95.39   13.60
  -2  -2  -8    0.00    4.00
  -2  -2  -8    0.60    3.30
  -2  -2  -8    0.90    3.70
  -2  -2  -8    4.90    4.10
   2   2   8   -3.50    3.60
   2   2   8   -6.10    4.30
  -3  -2  -8   17.60    6.10
  -3  -2  -8   30.40    6.30
  -3  -2  -8   50.09    6.60
  -3  -2  -8   35.80    6.90
  -3  -2  -8   32.10    7.40
   3   2   8   47.80    7.60
  -4  -2  -8   44.90    8.30
  -4  -2  -8   49.99    8.10
  -4  -2  -8   46.30    7.50
  -4  -2  -8   38.40    7.50
  -4  -2  -8   60.39    9.70
  -5  -2  -8    1.00    2.50
  -5  -2  -8    2.50    3.00
  -5  -2  -8    2.20    3.50
  -5  -2  -8    7.50    5.20
  -5  -2  -8    5.00    3.60
  -5  -2  -8    0.90    4.30
  -6  -2  -8    8.40    4.80
  -6  -2  -8   -2.20    2.50
  -6  -2  -8    1.80    2.70
  -6  -2  -8    1.60    2.40
   6   2   8   -0.40    4.30
  -7  -2  -8   63.09    9.60
  -7  -2  -8   63.29   11.80
   7   2   8   74.49   10.10
   7   2   8   58.89   11.20
  -8  -2  -8  220.08   30.30
  -8  -2  -8  237.78   29.20
   8   2   8  202.38   30.00
   8   2   8  261.27   29.40
  -9  -2  -8    2.30    3.70
  -9  -2  -8    9.80    5.90
   9   2   8    0.30    3.40
 -10  -2  -8   13.00    4.80
 -10  -2  -8   -6.10    4.90
  10   2   8   -1.40    3.70
 -11  -2  -8    5.40    4.70
 -11  -2  -8   -0.10    6.50
  11   2   8    3.40    4.20
 -12  -2  -8   11.00    6.70
 -12  -2  -8   10.20    7.20
  12   2   8   17.80    6.40
 -13  -2  -8    6.10    8.50
 -13  -2  -8   10.30    6.90
 -14  -2  -8    2.90    6.60
 -14  -2  -8  -11.40    7.30
   8  -3  -8    8.50    8.40
  -8   3   8   12.30    9.00
  -8   3   8    4.30    8.50
   7  -3  -8   -6.00    8.70
  -7   3   8    6.70    7.90
  -7   3   8    9.60    8.30
   6  -3  -8   -4.30    6.70
  -6   3   8    2.80    6.40
  -6   3   8    2.10    7.30
   5  -3  -8    3.20    6.70
  -5   3   8   -4.40    5.70
  -5   3   8   -2.50    5.20
   4  -3  -8   -4.70    5.40
   4  -3  -8    7.70    6.40
  -4   3   8   -1.80    5.80
  -4   3   8    3.50    6.50
   3  -3  -8    6.10    5.50
   3  -3  -8   -2.90    5.20
  -3   3   8   -0.30    5.40
  -3   3   8   -2.10    5.80
   2  -3  -8   12.40    6.20
   2  -3  -8   11.20    5.80
   2  -3  -8   16.20    5.90
  -2   3   8    9.20    5.60
  -2   3   8    7.30    6.00
   1  -3  -8  135.99   25.10
   1  -3  -8  166.18   24.60
   1  -3  -8  199.18   24.80
   1  -3  -8  193.98   24.70
  -1   3   8  210.18   25.10
  -1   3   8  210.48   25.30
   0  -3  -8   51.09    9.20
   0  -3  -8   30.80    8.60
   0  -3  -8   50.19    9.20
   0   3   8   47.50    8.80
   0   3   8   45.50    9.60
  -1  -3  -8  128.39   15.70
  -1  -3  -8  109.99   16.10
  -1  -3  -8   81.39   15.50
  -1  -3  -8  117.69   16.60
   1   3   8  126.19   16.50
   1   3   8  102.09   16.20
  -2  -3  -8   19.40    4.90
  -2  -3  -8   26.00    6.90
  -2  -3  -8   26.90    5.90
  -2  -3  -8   14.30    5.10
  -2  -3  -8   11.00    5.20
  -3  -3  -8    4.50    4.90
  -3  -3  -8    8.20    3.90
  -3  -3  -8    8.20    3.90
  -3  -3  -8   11.70    4.20
  -3  -3  -8   10.60    4.50
  -3  -3  -8   10.10    4.10
  -4  -3  -8  188.28   24.90
  -4  -3  -8  197.18   24.30
  -4  -3  -8  177.48   24.20
  -4  -3  -8  185.58   24.50
  -4  -3  -8  197.58   25.60
  -4  -3  -8  205.58   24.20
  -5  -3  -8    2.80    3.00
  -5  -3  -8    3.40    3.30
  -5  -3  -8   -4.40    4.70
  -5  -3  -8   -1.30    3.70
  -5  -3  -8   -3.00    4.30
  -5  -3  -8    4.80    3.20
  -6  -3  -8   20.70    4.00
  -6  -3  -8   21.90    4.00
  -6  -3  -8    7.20    5.20
  -6  -3  -8   20.80    4.50
   6   3   8   19.60    8.50
   6   3   8   16.20    5.10
  -7  -3  -8    4.40    3.30
  -7  -3  -8   13.00    5.60
   7   3   8   10.60    4.50
   7   3   8   13.90    5.80
  -8  -3  -8   65.09   13.30
  -8  -3  -8  103.59   12.10
   8   3   8   53.29   14.50
   8   3   8   86.89   12.50
  -9  -3  -8   22.20    6.90
  -9  -3  -8   27.00    6.00
   9   3   8   12.60    4.90
 -10  -3  -8    1.90    4.10
 -10  -3  -8    3.90    6.40
  10   3   8   -1.20    3.80
 -11  -3  -8   18.00    6.10
 -11  -3  -8   21.10    8.00
  11   3   8   16.30    5.90
 -12  -3  -8   -4.90    4.90
 -12  -3  -8    0.00    6.70
 -13  -3  -8   -2.60    5.70
 -13  -3  -8    9.50    8.50
 -14  -3  -8   -2.90    6.90
 -14  -3  -8   -6.50    7.90
   8  -4  -8   11.30    9.00
  -8   4   8    4.00    8.10
   7  -4  -8    2.90    8.20
  -7   4   8    6.70    7.50
  -7   4   8    7.00    7.60
   6  -4  -8   -1.40    6.80
  -6   4   8    4.30    6.60
  -6   4   8    3.00    6.60
   5  -4  -8  -13.00    6.10
  -5   4   8   18.20    8.30
  -5   4   8    4.40    6.10
   4  -4  -8    2.90    6.80
  -4   4   8    7.90    6.50
  -4   4   8   16.70    7.30
   3  -4  -8    0.90    5.80
   3  -4  -8    5.10    6.70
  -3   4   8    3.40    5.60
  -3   4   8    5.30    6.40
   2  -4  -8    1.20    5.50
   2  -4  -8   -3.90    4.90
  -2   4   8    4.30    5.10
  -2   4   8   -6.90    4.30
   1  -4  -8    5.50    5.50
   1  -4  -8    4.30    5.40
   1  -4  -8    5.40    5.30
  -1   4   8   -2.10    4.70
  -1   4   8    2.20    4.70
   0  -4  -8   11.10    5.20
   0  -4  -8    8.10    5.70
   0  -4  -8   18.00    6.30
   0  -4  -8    7.30    5.10
   0   4   8    7.20    5.80
   0   4   8    3.70    5.60
  -1  -4  -8    6.60    5.20
  -1  -4  -8    5.10    4.20
  -1  -4  -8  -12.20    3.60
  -1  -4  -8    0.30    4.30
   1   4   8   -5.40    5.10
  -2  -4  -8    7.90    4.20
  -2  -4  -8    1.10    4.90
  -2  -4  -8    6.60    4.10
  -2  -4  -8   -1.20    3.70
  -2  -4  -8    4.20    4.50
   2   4   8   -0.80    5.00
  -3  -4  -8   16.90    4.80
  -3  -4  -8   12.80    5.70
  -3  -4  -8    7.10    4.70
  -3  -4  -8    9.40    5.40
  -3  -4  -8    3.30    3.70
  -3  -4  -8    7.20    4.20
  -4  -4  -8   31.00    7.10
  -4  -4  -8   34.00    8.30
  -4  -4  -8   31.40    7.40
  -4  -4  -8   23.10    5.80
  -4  -4  -8   45.40    7.00
  -4  -4  -8   38.30    6.50
  -5  -4  -8    9.60    4.50
  -5  -4  -8    6.00    4.80
  -5  -4  -8    9.70    3.90
  -5  -4  -8    4.00    3.10
  -5  -4  -8   10.20    7.60
  -5  -4  -8   15.40    4.00
  -6  -4  -8    1.40    4.30
  -6  -4  -8   -2.80    2.30
  -6  -4  -8    1.60    2.80
  -6  -4  -8    0.10    3.10
  -6  -4  -8    9.60    6.00
   6   4   8   -0.80    4.10
  -7  -4  -8   99.49   11.90
  -7  -4  -8   90.79   13.70
  -7  -4  -8   87.69   12.00
  -7  -4  -8   89.39   14.70
   7   4   8  113.49   13.70
   7   4   8   80.59   14.40
  -8  -4  -8    1.50    5.20
  -8  -4  -8    3.10    3.70
   8   4   8    2.50    4.40
  -9  -4  -8   57.49   12.10
  -9  -4  -8   76.39   11.40
   9   4   8   70.59   11.40
 -10  -4  -8    3.10    4.50
 -10  -4  -8    2.00    5.70
  10   4   8   -2.50    4.20
 -11  -4  -8   19.10    6.60
 -11  -4  -8   18.10    7.80
 -12  -4  -8   -4.50    5.60
 -12  -4  -8    7.80    7.60
 -13  -4  -8   -2.10    5.80
 -13  -4  -8   -0.10    8.00
 -14  -4  -8   19.40    8.30
 -14  -4  -8    3.20    9.00
   8  -5  -8    4.40    9.00
  -8   5   8    9.50    9.60
  -8   5   8   18.20    9.60
   7  -5  -8    3.30    8.60
  -7   5   8    3.20    7.60
  -7   5   8    6.70    7.70
   6  -5  -8    7.10    7.30
  -6   5   8    4.20    8.80
  -6   5   8   -4.20    6.40
   5  -5  -8   -9.60    6.60
  -5   5   8   -1.20    6.30
  -5   5   8   12.10    7.00
   4  -5  -8   39.10    9.40
  -4   5   8   20.90    9.10
  -4   5   8   31.70    9.00
   3  -5  -8   -4.10    5.70
  -3   5   8    4.70    7.20
  -3   5   8    2.40    6.10
   2  -5  -8   -3.60    5.70
   2  -5  -8   -3.30    5.70
  -2   5   8    1.50    5.30
  -2   5   8   -1.10    5.40
   1  -5  -8    8.20    9.10
   1  -5  -8   25.50    8.00
   1  -5  -8   19.50    7.90
   1  -5  -8   38.00    7.90
  -1   5   8   18.00    7.20
  -1   5   8   37.40    8.30
   0  -5  -8  121.39   19.00
   0  -5  -8  128.99   19.60
   0  -5  -8  123.49   19.20
   0  -5  -8  169.48   18.90
   0   5   8  131.59   19.40
   0   5   8  110.39   19.70
  -1  -5  -8   58.69    9.80
  -1  -5  -8   43.90   10.00
  -1  -5  -8   48.50   11.00
  -1  -5  -8   54.59   11.20
  -1  -5  -8   57.09    9.80
   1   5   8   39.70    9.80
  -2  -5  -8   -8.20    4.80
  -2  -5  -8   -0.40    4.20
  -2  -5  -8    4.90    4.30
  -2  -5  -8   -0.80    4.00
   2   5   8    3.70    5.90
  -3  -5  -8   39.40    7.40
  -3  -5  -8   60.39    8.80
  -3  -5  -8   29.70    8.20
  -3  -5  -8   32.00    8.00
  -3  -5  -8   32.00    8.20
  -3  -5  -8   41.40    8.10
  -4  -5  -8    9.70    5.30
  -4  -5  -8    8.40    4.20
  -4  -5  -8   -1.60    3.20
  -4  -5  -8    6.80    5.80
  -4  -5  -8    7.60    4.70
  -4  -5  -8    4.30    3.50
  -5  -5  -8   55.19   10.10
  -5  -5  -8   55.29    9.40
  -5  -5  -8   67.39    9.10
  -5  -5  -8   40.40   11.10
  -5  -5  -8   55.79    9.20
  -6  -5  -8    2.00    3.90
  -6  -5  -8    3.70    5.10
  -6  -5  -8   -1.70    3.30
  -6  -5  -8    5.00    3.00
  -6  -5  -8   -3.40    5.70
   6   5   8    1.90    4.30
  -7  -5  -8   37.60    6.30
  -7  -5  -8   42.80    8.80
  -7  -5  -8   34.30    7.50
  -7  -5  -8   41.70    6.00
   7   5   8   38.10    8.60
  -8  -5  -8   64.39   10.60
  -8  -5  -8   74.19   12.60
   8   5   8   62.69   11.20
  -9  -5  -8   18.70    7.90
  -9  -5  -8   25.30    6.50
   9   5   8   19.40    6.30
 -10  -5  -8    2.20    5.70
 -10  -5  -8   -8.70    4.50
 -11  -5  -8    5.20    5.40
 -11  -5  -8    3.80    6.40
 -12  -5  -8   16.90    7.10
 -12  -5  -8   12.40   13.20
 -13  -5  -8  -18.10    6.40
 -13  -5  -8   -4.60    5.50
 -14  -5  -8    2.70    7.80
 -14  -5  -8   12.90    9.70
   7  -6  -8    8.40    8.40
  -7   6   8   -1.70    7.80
  -7   6   8    9.70    9.30
   6  -6  -8   -7.20    6.90
  -6   6   8   -5.70    7.30
  -6   6   8    5.40    7.60
   5  -6  -8   -2.00    6.90
  -5   6   8    0.10    6.80
  -5   6   8   -1.50    7.50
   4  -6  -8   23.80    8.60
  -4   6   8   -7.20    6.40
  -4   6   8    3.20    6.30
   3  -6  -8   41.40    9.50
  -3   6   8   27.20    8.20
  -3   6   8   19.00    8.90
   2  -6  -8   -6.50    5.70
  -2   6   8   -0.90    6.30
  -2   6   8    7.80    6.10
   1  -6  -8   77.39   13.80
  -1   6   8   84.39   14.70
  -1   6   8   74.89   13.40
   0  -6  -8   22.70    7.60
   0  -6  -8   20.80    6.80
   0  -6  -8   12.90    6.30
   0  -6  -8   16.60    5.90
   0   6   8    8.30    6.30
  -1  -6  -8   53.39   10.70
  -1  -6  -8   55.19   11.00
  -1  -6  -8   44.10   10.90
  -1  -6  -8   76.49   10.90
  -1  -6  -8   82.49   11.50
   1   6   8   53.29   11.60
  -2  -6  -8   -1.60    3.90
  -2  -6  -8    4.90    5.10
  -2  -6  -8   -7.30    4.30
  -2  -6  -8   -8.10    3.80
  -2  -6  -8   -4.30    4.30
   2   6   8   -4.10    5.60
  -3  -6  -8   14.80    5.30
  -3  -6  -8   18.30    5.90
  -3  -6  -8   13.10    6.50
  -3  -6  -8   13.00    5.10
  -3  -6  -8   19.30    5.40
  -3  -6  -8   20.80    6.20
  -4  -6  -8  224.98   31.00
  -4  -6  -8  281.67   30.80
  -4  -6  -8  199.88   30.00
  -4  -6  -8  233.88   31.60
  -4  -6  -8  249.88   30.10
  -4  -6  -8  257.67   31.20
  -5  -6  -8   -0.20    5.70
  -5  -6  -8    6.70    4.20
  -5  -6  -8    8.40    5.40
  -5  -6  -8   12.70    3.80
  -5  -6  -8    5.60    3.90
  -6  -6  -8   -3.60    3.20
  -6  -6  -8   -0.30    4.30
  -6  -6  -8   -1.00    2.70
  -6  -6  -8   -2.10    4.60
   6   6   8   -0.80    4.10
  -7  -6  -8   -2.00    4.10
  -7  -6  -8    1.90    3.30
  -7  -6  -8   -1.80    4.40
  -7  -6  -8    4.10    2.90
   7   6   8   -2.70    4.60
  -8  -6  -8   97.39   15.60
  -8  -6  -8  122.49   13.70
  -8  -6  -8   99.59   13.90
  -8  -6  -8   95.39   16.80
   8   6   8  102.19   16.30
  -9  -6  -8   23.80    8.50
  -9  -6  -8   28.50    7.30
 -10  -6  -8   17.70    8.00
 -10  -6  -8   15.90    6.00
 -11  -6  -8    5.90    7.60
 -11  -6  -8    6.00    5.60
 -12  -6  -8   -4.60    7.20
 -12  -6  -8   12.20    6.30
 -13  -6  -8   -6.80    5.90
 -13  -6  -8   -2.40    7.20
   7  -7  -8   -5.10    7.50
  -7   7   8    8.90    9.10
  -7   7   8    1.00    8.30
   6  -7  -8    4.50    8.40
  -6   7   8   10.30    8.00
   5  -7  -8   15.90    9.70
  -5   7   8    9.10    8.60
  -5   7   8   17.50    8.60
   4  -7  -8    3.20    6.80
  -4   7   8   -0.70    7.50
  -4   7   8   -0.50    7.30
   3  -7  -8   16.00    7.40
  -3   7   8    5.90    7.70
  -3   7   8    0.10    6.50
   2  -7  -8    4.40    6.40
  -2   7   8   -3.20    5.30
  -2   7   8    0.10    5.20
   1  -7  -8   23.70    7.30
   1  -7  -8    7.00    5.50
  -1   7   8   12.60    7.10
   0  -7  -8   64.69   12.40
   0  -7  -8   69.89   12.30
   0   7   8   85.89   14.60
  -1  -7  -8    0.70    5.40
  -1  -7  -8    1.20    5.00
  -1  -7  -8   -2.30    4.10
   1   7   8   -5.60    5.90
  -2  -7  -8    5.30    9.10
  -2  -7  -8    5.60    4.80
  -2  -7  -8    7.30    5.10
  -2  -7  -8    1.70    5.20
   2   7   8   15.70    7.10
  -3  -7  -8   10.80    5.10
  -3  -7  -8   11.50    5.60
  -3  -7  -8   15.00    5.10
  -3  -7  -8    4.90    4.70
  -3  -7  -8    9.90    5.60
  -4  -7  -8  129.69   18.40
  -4  -7  -8  160.08   20.70
  -4  -7  -8  136.49   20.20
  -4  -7  -8  135.89   18.90
  -5  -7  -8   55.79    8.50
  -5  -7  -8   38.30    9.20
  -5  -7  -8   49.99    9.10
   5   7   8   45.50    9.60
  -6  -7  -8   -5.50    3.60
  -6  -7  -8    2.90    3.30
  -6  -7  -8    0.30    5.30
  -7  -7  -8   33.20    7.30
  -7  -7  -8   29.50    8.10
  -7  -7  -8   36.50    6.20
  -8  -7  -8   21.40    4.40
  -8  -7  -8   13.90    5.80
  -8  -7  -8   25.10    7.90
  -9  -7  -8  149.19   19.50
  -9  -7  -8  153.98   23.40
  -9  -7  -8  174.78   21.50
 -10  -7  -8   -0.40    6.20
 -10  -7  -8    8.50    5.70
 -11  -7  -8    5.00    6.70
 -11  -7  -8   -0.90    5.10
 -12  -7  -8   -9.30    6.10
 -12  -7  -8   10.10    6.80
 -13  -7  -8    1.80    7.20
 -13  -7  -8   -2.90    7.40
   6  -8  -8  -11.20    6.90
  -6   8   8   25.60   10.90
  -6   8   8   -4.70    7.80
   5  -8  -8   -2.40    6.40
  -5   8   8    5.40    8.20
   4  -8  -8    6.00    7.60
  -4   8   8    0.00    7.50
  -4   8   8    3.10    8.90
   3  -8  -8    7.00    6.50
  -3   8   8   -0.10    6.30
  -3   8   8   -3.50    6.50
   2  -8  -8   12.10    6.60
   2  -8  -8    5.50    6.50
  -2   8   8   -1.50    6.90
   1  -8  -8   16.20    6.70
   1  -8  -8   20.50    7.50
  -1   8   8    6.60    6.70
   0  -8  -8  105.19   15.70
   0  -8  -8   99.39   15.80
   0   8   8   89.29   16.90
  -1  -8  -8   21.60    7.50
  -1  -8  -8   32.00    8.10
   1   8   8   35.90    9.70
  -2  -8  -8   33.90    6.60
  -2  -8  -8    3.00    4.90
   2   8   8    6.50    7.00
  -3  -8  -8   20.10    6.10
  -3  -8  -8   19.40    6.30
   3   8   8   15.80    6.00
  -4  -8  -8   19.90    7.60
  -4  -8  -8   26.30    6.50
   4   8   8   13.10    6.80
  -5  -8  -8   23.00    7.60
  -5  -8  -8   46.20    7.30
  -5  -8  -8   32.40    7.50
   5   8   8   25.40    6.90
  -6  -8  -8    7.40    4.00
  -6  -8  -8   -2.90    5.10
  -6  -8  -8    5.90    4.80
   6   8   8   -1.90    4.10
  -7  -8  -8   58.99    9.60
  -7  -8  -8   68.09   10.90
  -7  -8  -8   73.69   12.90
   7   8   8   51.49    9.80
  -8  -8  -8   26.50    7.90
  -8  -8  -8   15.00    5.80
  -8  -8  -8   21.90    5.00
   8   8   8   11.90    5.20
  -9  -8  -8   35.70    8.80
  -9  -8  -8   44.30    7.10
  -9  -8  -8   53.69   11.00
   9   8   8   37.40    7.60
 -10  -8  -8    1.50    6.10
 -10  -8  -8   -5.20    4.80
 -10  -8  -8   -3.00    3.00
 -11  -8  -8    7.10    6.60
 -11  -8  -8   -3.70    6.30
 -12  -8  -8    4.10    8.80
 -12  -8  -8   10.70    8.10
 -13  -8  -8   -0.40    6.90
   6  -9  -8    1.10    8.30
  -6   9   8  -13.50    8.50
  -6   9   8   13.90   10.00
   5  -9  -8    7.00    8.40
  -5   9   8    3.80    8.80
  -5   9   8   11.40    8.20
   4  -9  -8   17.60    8.70
  -4   9   8   26.20   10.30
   3  -9  -8    2.40    6.20
   3  -9  -8    5.80    7.30
  -3   9   8    1.30    6.60
   2  -9  -8   -0.70    5.70
   2  -9  -8   -6.90    5.30
  -2   9   8   -2.00    7.00
   1  -9  -8  124.69   17.30
   1  -9  -8  118.39   17.90
  -1   9   8   80.29   17.40
   0  -9  -8   11.30    5.90
   0  -9  -8    1.60    5.60
   0   9   8   -4.70    6.40
  -1  -9  -8  111.79   16.10
  -1  -9  -8   88.79   15.20
   1   9   8   87.29   16.90
  -2  -9  -8   -3.20    4.00
  -2  -9  -8   -4.80    4.90
   2   9   8   16.30    8.70
  -3  -9  -8    9.60    6.10
  -3  -9  -8   20.10    6.50
   3   9   8   24.00    6.90
  -4  -9  -8   25.00    9.00
  -4  -9  -8   42.80    8.10
  -4  -9  -8   49.70    9.20
   4   9   8   26.90    7.80
  -5  -9  -8   26.30    6.40
  -5  -9  -8   21.30    7.60
  -5  -9  -8   33.30    7.40
   5   9   8   12.20    6.30
  -6  -9  -8   -0.80    4.40
  -6  -9  -8    6.20    5.90
  -6  -9  -8    0.20    3.80
   6   9   8   -5.50    4.80
  -7  -9  -8   13.60    4.70
  -7  -9  -8   13.80    6.80
  -7  -9  -8    4.50    4.60
   7   9   8    0.50    5.10
  -8  -9  -8   29.40    8.80
  -8  -9  -8   31.90    6.40
  -8  -9  -8   27.40    7.70
   8   9   8   33.20    7.70
  -9  -9  -8    6.70    4.00
  -9  -9  -8   10.60    5.60
  -9  -9  -8    3.40    6.00
   9   9   8   -2.10    4.80
 -10  -9  -8   -2.50    4.10
 -10  -9  -8   -9.80   12.20
 -10  -9  -8    0.00    5.50
  10   9   8   -0.30    4.50
 -11  -9  -8    1.00    6.20
 -11  -9  -8    5.60    8.20
 -11  -9  -8    1.70    3.60
 -12  -9  -8   14.20    8.80
 -12  -9  -8   16.90    7.70
   5 -10  -8   16.60    9.50
   5 -10  -8    0.80    7.80
  -5  10   8    6.60    8.80
   4 -10  -8   -2.20    7.00
   4 -10  -8   -5.70    6.10
  -4  10   8    1.60    8.10
   3 -10  -8   24.60    9.30
   3 -10  -8   10.00    7.20
  -3  10   8   11.80    8.90
   2 -10  -8    6.50    7.30
   2 -10  -8    8.40    6.90
  -2  10   8   17.90    8.80
   1 -10  -8   -4.40    5.30
   1 -10  -8    8.60    6.80
  -1  10   8    6.40    7.40
   0 -10  -8    1.60    5.60
   0 -10  -8    2.70    6.40
   0  10   8    6.20    8.80
  -1 -10  -8   18.60    7.40
  -1 -10  -8   13.70    5.90
   1  10   8    7.00    7.50
  -2 -10  -8    2.20    5.80
  -2 -10  -8    4.10    5.40
   2  10   8    8.80    7.20
  -3 -10  -8   -1.20    4.80
  -3 -10  -8    5.10    4.90
  -4 -10  -8   47.60   10.70
  -4 -10  -8   43.80    8.80
  -4 -10  -8   32.40    8.10
  -5 -10  -8   18.70    5.80
  -5 -10  -8    2.40    5.90
  -5 -10  -8    8.50    5.40
   5  10   8   26.90    7.70
  -6 -10  -8   -3.10    4.90
  -6 -10  -8   -4.60    4.50
  -6 -10  -8    2.30    4.20
   6  10   8    2.60    6.00
  -7 -10  -8   13.10    6.30
  -7 -10  -8   14.20    5.40
  -7 -10  -8   23.40    8.60
   7  10   8   16.60    7.00
  -8 -10  -8    7.60    6.50
  -8 -10  -8    2.30    5.00
   8  10   8    2.20    6.00
  -9 -10  -8   20.90    7.60
  -9 -10  -8   24.80    6.00
   9  10   8   31.20    7.50
 -10 -10  -8    5.50    7.40
 -10 -10  -8    1.70    6.30
 -10 -10  -8   -2.00    4.70
  10  10   8   -7.60    5.00
 -11 -10  -8    1.50    6.10
 -11 -10  -8   -3.50    4.60
 -11 -10  -8   -0.90    7.90
  11  10   8    3.70    5.40
   4 -11  -8    0.00    7.30
   4 -11  -8    9.00    7.30
  -4  11   8   14.60    9.20
   3 -11  -8   -0.80    7.00
   3 -11  -8    6.00    7.10
  -3  11   8    2.70    7.30
   2 -11  -8    3.20    6.80
   2 -11  -8    0.00    6.70
  -2  11   8   10.70    8.60
   1 -11  -8   -5.00    6.00
   1 -11  -8    4.20   10.50
   0 -11  -8   33.20    8.90
   0 -11  -8   32.30    9.00
   0  11   8   47.50   11.90
  -1 -11  -8   21.90    7.20
  -1 -11  -8   12.90    7.00
   1  11   8    7.30    8.40
  -2 -11  -8   12.40    6.50
  -2 -11  -8   -1.70    5.60
   2  11   8    3.00    7.00
  -3 -11  -8    5.90    6.40
  -3 -11  -8   -2.10    6.10
  -3 -11  -8    4.70    5.70
  -4 -11  -8   16.80    8.70
  -4 -11  -8   20.80    7.10
  -4 -11  -8    9.50    5.90
  -5 -11  -8   40.70    8.80
  -5 -11  -8   34.20    8.80
  -5 -11  -8   34.80    9.50
  -6 -11  -8   18.90    7.30
  -6 -11  -8    9.50    6.10
  -6 -11  -8   11.00    5.40
  -7 -11  -8   18.80    6.00
  -7 -11  -8   13.60    7.90
  -7 -11  -8   -0.90    4.80
   7  11   8   14.50    7.00
  -8 -11  -8    2.60    4.70
  -8 -11  -8    5.00    8.10
  -8 -11  -8    1.60    6.00
   8  11   8    3.10    6.10
  -9 -11  -8   27.00    6.80
  -9 -11  -8   27.40    8.40
  -9 -11  -8   27.20    9.40
   9  11   8   14.00    7.40
 -10 -11  -8   16.00    8.40
 -10 -11  -8   10.30    5.70
 -10 -11  -8   11.00    7.70
   3 -12  -8   12.10    7.30
   3 -12  -8    3.40    7.40
  -3  12   8    7.50    9.40
   2 -12  -8    2.40    6.80
   2 -12  -8    2.40    7.70
  -2  12   8   -4.20    7.90
   1 -12  -8   11.10    7.00
   1 -12  -8    5.20    6.50
  -1  12   8    5.50    9.40
   0 -12  -8   -0.70    5.20
   0  12   8    3.00    8.20
  -1 -12  -8   33.50    9.30
  -1 -12  -8   20.70    8.60
   1  12   8   37.10   12.00
  -2 -12  -8    1.50    5.70
  -2 -12  -8   -1.30    8.60
  -3 -12  -8   12.80    6.40
  -3 -12  -8    6.20    9.30
  -3 -12  -8    0.30    6.80
  -4 -12  -8    1.60    5.80
  -4 -12  -8   14.90   10.20
  -5 -12  -8   21.50    8.00
  -5 -12  -8   15.90    6.40
  -6 -12  -8   -1.30    4.50
  -6 -12  -8    0.40    5.40
  -6 -12  -8    5.00    6.90
  -7 -12  -8    5.20    7.30
  -7 -12  -8   14.50    7.10
  -7 -12  -8   11.30    6.20
  -8 -12  -8   17.00    7.30
  -8 -12  -8   17.40    8.60
  -8 -12  -8   25.50    7.20
  -9 -12  -8   -1.10    6.10
  -9 -12  -8    2.80    5.10
  -9 -12  -8    0.10    7.40
   1 -13  -8    6.50    6.50
   1 -13  -8   18.50    9.30
  -1  13   8   10.40   10.50
   0 -13  -8   17.20    8.30
   0 -13  -8   10.60    7.20
   0  13   8    9.30    9.90
  -1 -13  -8   29.10    9.50
  -1 -13  -8   37.50   10.20
   1  13   8   13.20   10.20
  -2 -13  -8    1.90    6.40
   2  13   8   10.40    9.50
  -3 -13  -8   -7.80    5.70
  -3 -13  -8    2.60    5.90
  -3 -13  -8    6.20    6.50
  -4 -13  -8   43.10   11.10
  -4 -13  -8   63.89   14.10
  -4 -13  -8   62.99   12.00
  -5 -13  -8   -6.90    5.60
  -5 -13  -8    4.00    5.60
  -5 -13  -8   -3.80    4.90
  -6 -13  -8   -3.20    5.40
  -6 -13  -8    5.70    5.80
  -6 -13  -8    1.90    6.60
  -7 -13  -8    9.90    8.10
  -7 -13  -8    0.20    5.50
  -7 -13  -8    2.00    5.70
  -8 -13  -8   11.40    6.80
  -8 -13  -8   16.50    7.60
  -8 -13  -8    9.40    7.70
  -1 -14  -8    5.70    7.10
  -1 -14  -8    0.10    6.30
   1  14   8    7.60    9.50
  -2 -14  -8   16.60    7.90
  -2 -14  -8    7.60    6.60
   2  14   8   33.70   13.20
  -3 -14  -8    9.30    7.40
  -3 -14  -8   -0.70    6.40
  -3 -14  -8   14.90    8.40
  -4 -14  -8    9.70    6.80
  -4 -14  -8    0.50    7.60
  -4 -14  -8    2.70    6.00
  -5 -14  -8   52.99   12.70
  -5 -14  -8   41.80   12.30
  -5 -14  -8   39.70   11.00
   0 -11   9   21.90    9.60
   0 -11   9   15.50    7.60
  -1  11  -9   -2.50    6.40
   1 -11   9   -1.80    5.20
   1 -11   9   -0.20    7.50
  -2  11  -9   -0.40    5.60
   2 -11   9    0.10    7.00
   2 -11   9   -3.20    5.00
   3 -11   9    3.00    7.10
   3 -11   9   11.70    5.20
   4 -11   9    3.40    6.60
  -5  11  -9    3.10    4.70
   5 -11   9   -4.80    4.10
   5 -11   9    5.20    7.30
  -6  11  -9   -0.50    5.90
   6 -11   9   -3.00    7.20
  -2 -10   9   11.20    7.40
  -2 -10   9    8.90    7.30
  -1 -10   9    3.40    6.20
  -1 -10   9   -5.30    5.30
   0  10  -9    1.70    6.50
   0 -10   9   23.50    7.30
   0 -10   9    3.00    6.30
  -1  10  -9   14.90   10.00
   1 -10   9    9.60    7.50
   1 -10   9   -4.70    6.30
  -2  10  -9    2.90    5.00
   2 -10   9   -1.90    4.50
   2 -10   9   -6.40    6.30
  -3  10  -9   20.10    5.40
   3 -10   9   10.50    5.00
   3 -10   9   24.50   10.70
   4 -10   9   -3.90    6.70
  -5  10  -9    2.30    4.60
   5 -10   9    9.50    6.70
   5 -10   9    3.00    4.20
  -6  10  -9    6.70    5.60
   6 -10   9   -2.90    5.10
   6 -10   9    1.40    6.20
  -7  10  -9    0.60    6.70
   7 -10   9   -1.30    6.30
   7 -10   9    6.10    6.20
  -8  10  -9    4.30    6.40
   8 -10   9  -10.50    5.00
  -3  -9   9   -6.60    6.30
  -3  -9   9   13.10    7.40
  -2  -9   9    6.30    6.70
  -2  -9   9    3.70    6.30
  -1  -9   9   14.50    6.80
  -1  -9   9    6.30    6.80
   0   9  -9   -1.40    5.40
   0  -9   9    4.50    6.30
   0  -9   9   -0.50    5.30
  -1   9  -9   -7.50    4.70
   1  -9   9    1.50    5.10
   1  -9   9    4.10    6.70
  -2   9  -9    6.30    4.80
   2  -9   9    4.70    4.90
   2  -9   9    3.00    6.30
  -3   9  -9   25.40    6.20
   3  -9   9   25.60    8.30
   3  -9   9   38.00    6.50
   4  -9   9   18.90    7.60
  -5   9  -9    6.70    4.70
   5  -9   9    0.20    3.80
   5  -9   9    5.00    6.30
  -6   9  -9    4.70    5.40
   6  -9   9    2.60    5.70
   6  -9   9    0.10    4.70
  -7   9  -9   10.40    6.50
   7  -9   9   -0.70    5.80
  -8   9  -9    5.40    7.60
   8  -9   9   15.00    6.70
   8  -9   9   11.20   10.10
  -9   9  -9    5.70    8.10
   9  -9   9    1.10    5.70
  -4  -8   9    7.80    8.00
  -4  -8   9    8.40    8.20
  -3  -8   9   34.30    9.10
  -3  -8   9   -1.50    6.60
  -2  -8   9    3.20    6.60
  -2  -8   9    8.80    7.30
  -1  -8   9    1.30    5.90
  -1  -8   9   16.20   11.60
   0   8  -9    6.00    5.40
   0  -8   9    7.70    5.70
   0  -8   9    8.20    6.60
  -1   8  -9    7.40    4.70
   1  -8   9    5.90    5.20
   1  -8   9    6.70    5.90
  -2   8  -9    2.20    3.90
   2  -8   9    5.20    6.60
   2  -8   9    7.00    4.80
  -3   8  -9    3.70    4.90
   3  -8   9   -8.70    5.20
   3  -8   9   -1.00    3.60
   4  -8   9   68.69   13.00
  -5   8  -9    7.80    4.40
   5  -8   9    6.40    3.90
   5  -8   9   13.90    6.10
  -6   8  -9   -4.20    4.90
   6  -8   9    0.30    4.30
   6  -8   9   -0.90    5.40
   7  -8   9    4.80    5.30
   7  -8   9    3.50    5.90
  -8   8  -9   14.20    7.40
   8  -8   9   13.20    6.50
   8  -8   9    6.50    6.30
  -9   8  -9   15.30    8.40
   9  -8   9    1.60    5.10
 -10   8  -9   -5.20    7.70
  10  -8   9   -3.00    5.10
  -5  -7   9   -0.20    8.80
  -5  -7   9    8.40    7.40
  -4  -7   9    0.90    7.90
  -4  -7   9   -3.40    7.30
  -3  -7   9    3.00    6.50
  -3  -7   9    1.80    6.60
  -2  -7   9   11.30    7.20
  -2  -7   9   20.40    8.00
   1   7  -9    8.50    5.80
  -1  -7   9   12.60    6.80
  -1  -7   9    6.60    6.00
   0   7  -9   16.60    6.60
   0  -7   9   49.99    9.70
   0  -7   9   25.50    8.20
  -1   7  -9    5.10    4.30
   1  -7   9    2.70    5.30
   1  -7   9    9.30    5.30
  -2   7  -9    6.90    3.70
   2  -7   9   11.40    6.20
   2  -7   9    4.90    4.60
  -3   7  -9   14.90    4.60
   3  -7   9   11.80    6.20
   3  -7   9   14.50    4.40
  -4   7  -9    1.30    3.00
   4  -7   9   -1.20    4.80
   4  -7   9    2.20    2.80
  -5   7  -9   11.60    5.10
   5  -7   9    8.40    5.90
   5  -7   9   11.00    4.60
  -6   7  -9    1.40    4.80
   6  -7   9    4.60    4.90
   6  -7   9    0.50    4.30
  -7   7  -9    1.50    5.70
   7  -7   9   -3.60    5.20
   7  -7   9   -6.40    4.70
  -8   7  -9   -3.80    6.60
   8  -7   9   -5.60    5.60
   8  -7   9   -0.20    5.40
  -9   7  -9    2.10    7.10
   9  -7   9   -4.60    4.40
 -10   7  -9   23.90    9.70
  10  -7   9   16.60    6.50
 -11   7  -9   10.90    9.70
  11  -7   9    4.70    6.00
  -6  -6   9    2.90    7.70
  -6  -6   9    4.10    8.10
  -5  -6   9   -4.60    6.60
  -5  -6   9   -5.80    6.30
  -4  -6   9   -4.80    5.80
  -4  -6   9   -0.10    6.00
  -3  -6   9   -5.30    5.90
  -3  -6   9   -0.90    6.30
  -2  -6   9   -0.60    6.00
  -2  -6   9    3.40    5.70
   1   6  -9   23.00    7.10
  -1  -6   9   38.10    9.20
  -1  -6   9   16.00    6.90
   0   6  -9   -1.30    4.40
   0  -6   9    2.50    5.50
   0  -6   9   15.50    6.70
  -1   6  -9    9.80    4.50
   1  -6   9    4.10    5.30
   1  -6   9   23.70    5.70
  -2   6  -9    1.20    3.10
   2  -6   9   -3.00    4.00
   2  -6   9    6.00    5.60
  -3   6  -9  101.49   14.20
   3  -6   9  118.59   14.50
   3  -6   9  124.69   17.70
  -4   6  -9   17.50    4.00
   4  -6   9    8.10    5.30
   4  -6   9    8.10    3.70
  -5   6  -9   18.30    5.80
   5  -6   9   22.40    5.00
   5  -6   9   14.90    6.30
  -6   6  -9   -3.80    5.00
  -6   6  -9   -1.10    4.60
   6  -6   9   -1.60    4.00
   6  -6   9    5.80    5.50
  -7   6  -9    1.90    5.50
  -7   6  -9   12.30    6.80
   7  -6   9    3.90    5.10
   7  -6   9   10.30    5.50
  -8   6  -9    9.60    6.10
  -8   6  -9    5.40    6.90
   8  -6   9    3.40    5.10
  -9   6  -9   16.90    8.10
  -9   6  -9   -4.80    5.00
   9  -6   9    2.10    4.90
 -10   6  -9   24.40    9.60
 -10   6  -9   37.30    8.60
  10  -6   9   26.60    7.30
 -11   6  -9    2.40    6.40
 -11   6  -9    6.50    9.10
  11  -6   9   -4.30    4.60
 -12   6  -9    7.80    7.00
  12  -6   9   11.80    5.80
   6   5  -9    1.30    7.60
  -6  -5   9    3.20    7.50
  -6  -5   9   -7.40    7.00
  -6  -5   9    4.70    3.80
  -5  -5   9    5.00    7.70
  -5  -5   9   -6.70    6.20
  -4  -5   9    2.20    6.70
  -3  -5   9    3.90    5.70
  -3  -5   9   -6.20    5.70
  -2  -5   9    5.80    5.90
  -2  -5   9   -8.70    5.20
   1   5  -9   24.60    7.40
  -1  -5   9   50.79    9.00
  -1  -5   9   25.40    7.90
   0   5  -9    2.10    4.70
   0  -5   9   19.60    6.50
   0  -5   9    9.10    6.60
  -1   5  -9    0.80    3.50
   1  -5   9    0.70    4.60
   1  -5   9   -1.30    3.90
  -2   5  -9    9.70    3.90
   2  -5   9    6.20    5.10
   2  -5   9   11.10    4.50
  -3   5  -9    8.30    2.90
  -3   5  -9   -0.50    5.50
   3  -5   9    6.70    3.20
   3  -5   9    6.70    5.10
  -4   5  -9   78.89   13.70
  -4   5  -9   85.99   12.10
   4  -5   9   90.99   14.00
  -5   5  -9    2.50    4.60
  -5   5  -9    5.00    4.60
   5  -5   9    0.60    3.40
   5  -5   9    2.50    4.40
  -6   5  -9    5.20    4.60
  -6   5  -9    4.10    5.30
   6  -5   9   -1.70    4.40
   6  -5   9    0.50    4.20
  -7   5  -9   -1.20    5.40
   7  -5   9    1.60    8.60
   7  -5   9   -1.40    4.50
  -8   5  -9   -1.50    5.70
  -8   5  -9   10.10    5.10
   8  -5   9    0.80    4.90
   8  -5   9    5.20    4.50
  -9   5  -9   -3.80    6.60
  -9   5  -9    2.00    4.70
   9  -5   9   -2.20    3.90
 -10   5  -9   -3.90    7.10
 -10   5  -9    1.60    4.90
  10  -5   9    2.80    4.10
 -11   5  -9   33.40   10.50
 -11   5  -9   24.20    7.40
  11  -5   9   35.20    7.00
 -12   5  -9    4.80    9.20
 -12   5  -9   -1.30    5.20
  12  -5   9    1.10    4.50
  13  -5   9    7.00    5.10
   7   4  -9   -1.20    7.30
  -7  -4   9   -1.50    8.30
   6   4  -9   -1.50    5.80
  -6  -4   9   14.70    8.00
  -6  -4   9    6.10    5.40
  -6  -4   9   16.00    8.70
   5   4  -9    5.60    5.00
  -5  -4   9   15.10    7.70
  -5  -4   9   19.60    8.50
  -5  -4   9    3.70    4.10
   4   4  -9    4.10    3.60
  -4  -4   9   -1.00    5.70
  -4  -4   9    2.40    7.10
  -4  -4   9    2.60    3.20
  -3  -4   9    7.60    6.70
  -3  -4   9   -0.30    6.10
   2   4  -9   13.60    7.80
  -2  -4   9   27.70    8.00
  -2  -4   9   17.00    7.10
   1   4  -9   -3.50    5.00
  -1  -4   9    4.50    5.40
  -1  -4   9   13.20    6.70
   0   4  -9   47.50    9.30
   0  -4   9   54.79    9.80
   0  -4   9   57.39   10.90
  -1   4  -9    1.80    4.10
   1  -4   9    3.70    4.30
   1  -4   9    5.50    5.40
  -2   4  -9    1.40    3.30
  -2   4  -9    1.20    5.10
   2  -4   9    0.10    3.90
   2  -4   9    7.40    4.80
  -3   4  -9    4.30    4.40
  -3   4  -9    8.00    3.10
  -3   4  -9    2.50    3.00
  -3   4  -9    0.10    2.60
   3  -4   9    5.30    3.10
   3  -4   9    6.60    5.10
  -4   4  -9   30.40    7.00
  -4   4  -9   20.40    5.30
   4  -4   9   26.00    6.40
  -5   4  -9    3.70    4.50
  -5   4  -9    5.70    4.80
   5  -4   9   11.90    4.20
   5  -4   9    5.10    4.10
  -6   4  -9    8.50    5.60
  -6   4  -9    3.10    4.30
   6  -4   9    6.50    4.30
   6  -4   9    7.30    5.00
  -7   4  -9   -1.60    4.00
  -7   4  -9   -2.40    5.60
   7  -4   9   -2.70    4.30
   7  -4   9    6.80    4.30
  -8   4  -9  -11.10    5.50
  -8   4  -9    5.10    4.60
   8  -4   9    5.10    4.20
   8  -4   9   -1.60    5.00
  -9   4  -9  -10.00    6.50
  -9   4  -9   11.80    4.50
   9  -4   9    4.20    4.00
 -10   4  -9    8.80    5.00
 -10   4  -9    7.10    7.50
  10  -4   9   16.30    4.80
 -11   4  -9   17.90    9.70
 -11   4  -9   44.10    7.70
  11  -4   9   43.00    7.40
 -12   4  -9   16.60    9.30
 -12   4  -9   16.70    5.50
  12  -4   9   14.20    4.70
 -13   4  -9    4.80    9.10
  13  -4   9    3.00    6.50
  13  -4   9    3.30    3.70
   7   3  -9   -0.10    7.70
  -7  -3   9    1.50    7.70
   6   3  -9    1.10    6.30
  -6  -3   9    5.70    7.10
  -6  -3   9    7.10    9.60
  -6  -3   9   10.30    6.00
   5   3  -9    4.20    5.70
  -5  -3   9   11.00    9.30
  -5  -3   9   -1.00    7.00
  -5  -3   9  -14.50    4.70
   4   3  -9   23.80    6.00
  -4  -3   9   14.60    5.00
  -4  -3   9   18.20    8.00
  -4  -3   9   23.80    8.40
   3   3  -9    6.10    4.90
  -3  -3   9    5.20    6.60
  -3  -3   9    3.20    6.00
  -3  -3   9    5.60    3.70
   2   3  -9    7.90    6.00
   2   3  -9    6.60    3.50
  -2  -3   9    7.50    5.90
  -2  -3   9    0.30    5.40
   1   3  -9   18.30    6.80
  -1  -3   9    5.90    5.60
  -1  -3   9   30.70    7.10
   0   3  -9    0.20    4.80
   0  -3   9   -4.40    3.50
   0  -3   9    2.60    4.80
  -1   3  -9    9.00    4.80
  -1   3  -9    8.30    5.60
   1  -3   9   26.30    6.20
   1  -3   9   22.90    5.80
  -2   3  -9    1.10    2.80
  -2   3  -9   -0.40    3.20
  -2   3  -9    2.90    2.70
  -2   3  -9    4.50    4.90
   2  -3   9    2.60    3.70
   2  -3   9    0.80    4.00
  -3   3  -9   14.00    4.40
  -3   3  -9   14.90    4.10
  -3   3  -9   15.50    4.20
  -3   3  -9   15.10    6.30
   3  -3   9    7.30    5.30
   3  -3   9   25.50    4.60
  -4   3  -9   10.60    2.50
  -4   3  -9   16.20    5.20
  -4   3  -9   16.10    4.70
   4  -3   9    1.20    4.20
  -5   3  -9   -6.90    3.30
  -5   3  -9   -1.00    4.00
   5  -3   9    5.10    3.70
   5  -3   9    0.30    4.00
  -6   3  -9    0.50    3.90
  -6   3  -9    6.20    5.30
   6  -3   9    1.10    3.60
   6  -3   9   -1.00    3.90
  -7   3  -9   -1.20    3.10
  -7   3  -9    8.00    5.70
   7  -3   9    3.30    4.70
   7  -3   9    8.20    3.90
  -8   3  -9   -6.20    5.90
  -8   3  -9   -3.70    3.20
   8  -3   9   -2.50    2.90
   8  -3   9   -0.10    4.70
  -9   3  -9   -8.10    5.80
  -9   3  -9   -3.20    3.50
   9  -3   9   -1.60    3.00
 -10   3  -9   42.30    7.10
 -10   3  -9   38.30    9.70
  10  -3   9   37.00    6.60
 -11   3  -9    5.00    7.50
 -11   3  -9   -2.80    5.70
  11  -3   9   -1.00    2.80
 -12   3  -9   -0.50    7.60
 -12   3  -9    5.30    4.00
 -13   3  -9   11.90    5.00
 -13   3  -9   -7.40    7.60
  13  -3   9    2.00    3.70
   7   2  -9    4.90    8.50
  -7  -2   9   -5.30    7.70
  -7  -2   9   16.40    9.50
  -7  -2   9    2.70    5.60
   6   2  -9    3.90   12.80
  -6  -2   9   -8.60    6.70
  -6  -2   9    1.20    6.10
  -6  -2   9   -5.60   12.20
   5   2  -9   -4.70    5.70
  -5  -2   9   10.50    7.20
  -5  -2   9   -3.90    5.30
  -5  -2   9    7.40    6.90
   4   2  -9   -2.70    5.10
  -4  -2   9   11.40    7.10
  -4  -2   9   -0.90    4.10
  -4  -2   9  -14.80    5.90
   3   2  -9   11.70    5.20
  -3  -2   9   13.10    4.40
  -3  -2   9    9.90    6.60
  -3  -2   9    9.50    6.60
   2   2  -9    3.10    5.90
   2   2  -9   -5.20    4.70
  -2  -2   9    0.10    5.30
  -2  -2   9    1.10    3.40
  -2  -2   9   -4.00    5.20
   1   2  -9   53.69   11.60
   1   2  -9   76.99   10.00
  -1  -2   9   63.29   12.10
  -1  -2   9   75.09   12.00
   0   2  -9    7.00   10.00
   0   2  -9    1.70    2.90
   0   2  -9    0.10    2.70
   0   2  -9    9.60    5.50
   0  -2   9   -3.40    3.90
   0  -2   9   -1.40    4.50
  -1   2  -9   67.69   11.70
  -1   2  -9   71.19    9.60
  -1   2  -9   68.79   10.80
  -1   2  -9   61.19    9.30
   1  -2   9   55.49   11.20
   1  -2   9   67.79   10.60
  -2   2  -9    3.90    5.20
  -2   2  -9   -1.50    3.60
  -2   2  -9    2.00    3.10
  -2   2  -9    2.70    3.20
   2  -2   9    0.80    3.60
   2  -2   9    2.90    3.80
  -3   2  -9   -6.90    2.90
  -3   2  -9   -5.30    2.90
  -3   2  -9   -1.80    3.30
  -3   2  -9   -1.20    4.00
   3  -2   9    7.70    4.70
   3  -2   9   -0.60    3.00
  -4   2  -9   24.90    3.90
  -4   2  -9   15.90    4.20
  -4   2  -9   23.00    6.00
  -4   2  -9    9.90    5.00
  -4   2  -9   18.80    5.30
   4  -2   9   21.80    5.90
  -5   2  -9   -5.70    2.80
  -5   2  -9    7.10    4.20
   5  -2   9    8.80    4.10
   5  -2   9   -3.00    3.70
  -6   2  -9    0.10    4.30
  -6   2  -9    7.90    3.80
   6  -2   9   10.40    4.60
   6  -2   9    0.80    3.90
  -7   2  -9   -3.80    3.00
  -7   2  -9    6.90    5.20
   7  -2   9   -2.40    4.30
   7  -2   9   -0.70    3.10
  -8   2  -9   -1.40    2.80
  -8   2  -9   -1.70    5.40
   8  -2   9    1.40    5.40
   8  -2   9   -2.40    2.80
  -9   2  -9   -8.20    5.80
  -9   2  -9   -0.40    5.10
   9  -2   9   -1.50    3.00
 -10   2  -9   32.20    5.30
 -10   2  -9   36.10    9.90
  10  -2   9   28.50    5.20
 -11   2  -9   20.90    9.10
 -11   2  -9   20.30    5.70
  11  -2   9   43.40    6.50
 -12   2  -9   -5.80    4.40
 -12   2  -9   -4.40    7.30
  12  -2   9   -3.50    3.20
 -13   2  -9    8.30    9.20
  13  -2   9    5.70    4.70
 -14   2  -9   12.40    9.50
 -14   2  -9    3.30    6.60
  14  -2   9    7.30    5.10
  -7  -1   9   12.20    8.50
  -7  -1   9   15.10    9.40
  -7  -1   9    9.90    7.00
   6   1  -9    0.80    7.40
  -6  -1   9    2.00    5.60
  -6  -1   9    5.00   10.00
  -6  -1   9   -5.10    6.50
   5   1  -9    4.50    7.10
  -5  -1   9   11.40    6.30
  -5  -1   9   15.00    8.00
  -5  -1   9    2.20    7.50
   4   1  -9   -1.10    5.70
  -4  -1   9   -4.50    5.90
  -4  -1   9    2.50    5.40
  -4  -1   9    1.00    6.40
   3   1  -9    6.40    5.40
  -3  -1   9    7.40    5.90
  -3  -1   9    2.40    4.50
  -3  -1   9    9.70    6.40
   2   1  -9    3.00    4.60
   2   1  -9   -4.70    5.80
  -2  -1   9    0.60    4.10
  -2  -1   9   12.00    6.10
  -2  -1   9   -8.70    4.80
   1   1  -9   12.00    6.60
   1   1  -9   11.70    4.50
  -1  -1   9   11.20    6.10
  -1  -1   9    8.40    5.90
  -1  -1   9    6.60    4.40
   0   1  -9   78.29   11.70
   0   1  -9   59.79   11.80
   0   1  -9   71.19   10.10
   0   1  -9   63.79   10.00
   0  -1   9   63.49   11.40
   0  -1   9   69.09   11.20
  -1   1  -9    0.10    4.60
  -1   1  -9    1.40    3.20
  -1   1  -9   -5.00    3.90
  -1   1  -9    3.20    3.50
   1  -1   9    3.50    3.90
   1  -1   9   -3.00    4.30
  -2   1  -9    2.30    3.50
  -2   1  -9    3.10    3.90
  -2   1  -9   -0.40    4.40
  -2   1  -9    3.90    3.30
   2  -1   9   -5.80    3.70
   2  -1   9   -5.00    3.90
  -3   1  -9    0.50    3.60
  -3   1  -9   -1.00    3.90
  -3   1  -9    3.00    3.30
  -3   1  -9    2.10    3.40
   3  -1   9   11.80    4.50
   3  -1   9    7.80    3.70
  -4   1  -9   76.39   11.80
  -4   1  -9   82.89   10.60
  -4   1  -9   65.99   11.70
  -4   1  -9   80.99   11.30
   4  -1   9   84.99   12.30
  -5   1  -9    6.10    4.00
  -5   1  -9    3.30    2.20
  -5   1  -9    2.30    2.90
  -5   1  -9   -2.10    3.20
   5  -1   9    4.70    3.30
   5  -1   9    8.60    4.10
  -6   1  -9   21.80    5.60
  -6   1  -9   13.60    3.50
  -6   1  -9    8.40    3.60
  -6   1  -9   10.20    2.60
   6  -1   9   10.40    3.90
   6  -1   9   14.10    5.00
  -7   1  -9    4.90    2.00
  -7   1  -9    2.30    2.30
  -7   1  -9    1.10    2.90
   7  -1   9    1.30    3.00
   7  -1   9   -2.80    4.00
  -8   1  -9    2.80    2.60
  -8   1  -9    6.20    2.70
  -8   1  -9    6.30    2.90
  -8   1  -9    2.20    5.20
   8  -1   9    1.10    4.50
   8  -1   9    3.30    2.90
  -9   1  -9   11.90    7.30
  -9   1  -9    3.00    3.20
  -9   1  -9    3.60    2.50
   9  -1   9   -1.30    2.70
 -10   1  -9    2.60    7.20
 -10   1  -9    8.30    4.50
  10  -1   9   20.10    5.40
 -11   1  -9   37.40   10.80
 -11   1  -9   41.10    8.00
  11  -1   9   47.30    7.30
 -12   1  -9    6.80    7.70
 -12   1  -9    1.40    5.00
  12  -1   9    1.60    3.90
 -13   1  -9    7.50    8.90
 -13   1  -9   -0.10    5.60
  13  -1   9    6.40    5.00
 -14   1  -9   -2.00    8.90
 -14   1  -9    7.70    6.60
  14  -1   9    2.70    5.80
  -7   0   9   15.20    9.10
  -7   0   9   14.00    7.80
  -7   0   9   22.10    9.70
  -6   0   9   -7.20    7.60
  -6   0   9    5.00    7.10
  -6   0   9    7.70    6.50
   5   0  -9    2.90    6.80
  -5   0   9    7.80    7.40
  -5   0   9    6.80    6.30
  -5   0   9    1.70    6.20
   4   0  -9   24.70    7.60
  -4   0   9   28.80    8.60
  -4   0   9   10.60    6.70
  -4   0   9   21.50    7.90
   3   0  -9   -1.00    5.20
  -3   0   9   11.60    7.30
  -3   0   9   -5.40    6.30
  -3   0   9   -5.20    4.30
   2   0  -9   -7.40    5.50
   2   0  -9    6.80    4.80
  -2   0   9   -1.30    3.90
  -2   0   9   10.40    6.20
  -2   0   9    2.30    5.10
   1   0  -9   76.29   11.40
   1   0  -9   59.09    9.90
  -1   0   9   58.59   10.20
  -1   0   9   42.50   10.50
  -1   0   9   76.09   11.10
   0   0  -9   98.89   19.50
   0   0  -9  167.48   19.30
   0   0  -9  147.59   18.20
   0   0   9  116.09   19.70
   0   0   9  127.89   18.40
   0   0   9  167.98   19.30
  -1   0  -9   33.70    7.30
  -1   0  -9   39.40    6.90
  -1   0  -9   32.10    7.50
  -1   0  -9   28.80    6.50
   1   0   9   35.00    7.20
   1   0   9   38.50    7.90
  -2   0  -9    1.00    3.80
  -2   0  -9    3.70    4.80
  -2   0  -9   -1.90    2.70
  -2   0  -9   -2.60    3.80
   2   0   9    3.50    3.70
   2   0   9   -0.60    4.50
  -3   0  -9  127.99   17.50
  -3   0  -9  126.59   17.70
  -3   0  -9  121.09   17.80
  -3   0  -9  138.59   17.50
   3   0   9  150.38   18.00
  -4   0  -9   14.20    5.60
  -4   0  -9   11.40    4.30
  -4   0  -9   15.00    4.00
  -4   0  -9   15.80    4.40
  -4   0  -9    1.80    3.70
   4   0   9   14.50    4.90
  -5   0  -9  178.08   22.40
  -5   0  -9  178.98   21.40
  -5   0  -9  143.79   21.70
  -5   0  -9  187.28   24.90
   5   0   9  180.98   22.00
  -6   0  -9    2.10    4.60
  -6   0  -9   14.00    4.10
  -6   0  -9    9.60    3.60
  -6   0  -9   11.80    3.30
   6   0   9   20.60    6.10
   6   0   9   18.20    4.60
  -7   0  -9    2.40    2.30
  -7   0  -9   -1.20    2.60
  -7   0  -9   -0.80    3.50
  -7   0  -9   -3.20    4.60
   7   0   9   -3.30    3.10
  -8   0  -9    3.30    2.60
  -8   0  -9    1.80    5.20
  -8   0  -9   -0.60    2.20
   8   0   9    3.30    2.30
   8   0   9   -1.50    4.10
  -9   0  -9    1.50    6.00
  -9   0  -9    8.20    3.30
   9   0   9   -1.30    3.10
 -10   0  -9  100.89   15.40
 -10   0  -9   77.99   11.50
  10   0   9   71.69   11.30
 -11   0  -9    8.20    7.60
 -11   0  -9    3.70    4.80
  11   0   9    4.30    3.90
 -12   0  -9   52.29   11.60
 -12   0  -9   42.90    8.90
  12   0   9   43.90    8.20
 -13   0  -9   -0.30    6.60
 -13   0  -9    0.90    8.40
  13   0   9    3.20    9.00
 -14   0  -9    1.80    9.80
 -14   0  -9    6.10    6.80
  14   0   9    0.80    5.60
  -7   1   9    5.80    7.90
  -7   1   9   -3.70    5.50
  -7   1   9   15.50    8.60
  -6   1   9   -3.20    6.00
  -6   1   9   13.00    9.80
  -6   1   9   19.10   12.90
   5  -1  -9   -0.20    7.30
  -5   1   9   10.00    7.20
  -5   1   9   17.50    7.70
  -5   1   9   10.20    7.00
   4  -1  -9   71.99   11.80
  -4   1   9   77.29   12.60
  -4   1   9   60.59   12.30
  -4   1   9   46.60   11.80
   3  -1  -9   78.49   11.60
  -3   1   9   52.19   10.80
  -3   1   9   37.40   11.00
  -3   1   9   58.89   10.70
   2  -1  -9    0.60    4.90
  -2   1   9   -6.50    4.60
  -2   1   9    1.30    4.80
  -2   1   9    4.90    5.50
   1  -1  -9   84.69   13.10
   1  -1  -9   93.69   14.00
  -1   1   9   86.99   13.20
  -1   1   9   70.09   13.70
  -1   1   9   85.69   13.50
   0  -1  -9    5.90    5.00
   0  -1  -9   14.90    5.30
   0  -1  -9   11.80    6.00
   0   1   9    2.70    5.10
   0   1   9   13.60    5.90
   0   1   9   10.80    5.30
  -1  -1  -9   57.69   11.50
  -1  -1  -9   74.29   12.00
  -1  -1  -9   97.99   14.40
   1   1   9   90.79   12.90
   1   1   9   78.69   13.00
  -2  -1  -9   -0.10    3.60
  -2  -1  -9    9.60    4.80
  -2  -1  -9    2.90    4.50
  -2  -1  -9   -5.10    3.20
   2   1   9   -3.80    4.10
   2   1   9    2.90    4.70
  -3  -1  -9   27.20    6.10
  -3  -1  -9   24.30    6.00
  -3  -1  -9   22.60    6.30
  -3  -1  -9   25.50    6.00
  -3  -1  -9   26.80    5.70
   3   1   9   28.40    6.60
  -4  -1  -9  172.48   22.70
  -4  -1  -9  167.28   22.10
  -4  -1  -9  179.98   22.30
  -4  -1  -9  177.38   21.80
  -4  -1  -9  154.48   21.90
   4   1   9  174.88   22.10
  -5  -1  -9   18.30    5.20
  -5  -1  -9    5.70    4.90
  -5  -1  -9   13.60    4.30
  -5  -1  -9    9.10    3.40
  -5  -1  -9   15.60    4.60
   5   1   9   10.20    4.30
  -6  -1  -9    6.50    3.90
  -6  -1  -9    3.70    4.70
  -6  -1  -9    1.30    2.70
  -6  -1  -9    2.40    2.50
   6   1   9   11.20    5.10
   6   1   9   -1.70    3.10
  -7  -1  -9   -0.60    3.60
  -7  -1  -9   -0.60    2.30
  -7  -1  -9   -2.20    4.50
  -7  -1  -9    1.10    2.20
   7   1   9   -6.00    4.20
  -8  -1  -9   31.70    8.80
  -8  -1  -9   49.30    7.30
   8   1   9   42.80    9.20
   8   1   9   46.60    7.60
  -9  -1  -9    0.90    3.30
  -9  -1  -9    5.00    6.20
   9   1   9    9.60    4.20
 -10  -1  -9   34.70    9.40
 -10  -1  -9   42.30    7.80
  10   1   9   45.30    7.70
 -11  -1  -9   14.50    5.50
 -11  -1  -9   29.70    8.70
  11   1   9   20.20    5.30
 -12  -1  -9    0.50    8.60
  12   1   9   11.20    5.70
 -13  -1  -9   -3.10    5.70
 -13  -1  -9   -3.50    7.00
  13   1   9    3.90    5.60
 -14  -1  -9    8.00    9.20
 -14  -1  -9    8.70    7.60
   7  -2  -9   -5.90    7.40
  -7   2   9   -6.70    6.70
  -7   2   9    2.20    5.90
   6  -2  -9   -2.80    6.30
  -6   2   9    3.90    6.50
  -6   2   9  -10.00   11.40
  -5   2   9    3.80    6.80
  -5   2   9    2.40    6.80
   4  -2  -9   12.50    7.20
  -4   2   9    9.70    6.40
  -4   2   9   16.30    7.60
  -4   2   9   13.10    7.80
   3  -2  -9   10.50    6.40
  -3   2   9   -0.20    5.80
  -3   2   9    4.20    6.20
  -3   2   9    4.60    5.70
   2  -2  -9   -5.20    5.10
  -2   2   9    5.50    6.60
  -2   2   9   -5.50    5.10
  -2   2   9    5.60    5.30
   1  -2  -9   15.90    6.60
   1  -2  -9   24.00    6.70
  -1   2   9   17.00    6.30
  -1   2   9    9.10    6.70
  -1   2   9   15.50    6.30
   0  -2  -9  119.79   18.40
   0  -2  -9  113.99   17.40
   0  -2  -9  106.69   17.20
   0   2   9  115.19   18.00
   0   2   9  150.28   18.50
   0   2   9  121.09   17.70
  -1  -2  -9    9.40    4.90
  -1  -2  -9   17.40    5.70
  -1  -2  -9   11.70    6.30
   1   2   9    5.50    4.90
   1   2   9   -1.40    4.20
   1   2   9    1.60    5.10
  -2  -2  -9    6.30    4.20
  -2  -2  -9    3.30    4.30
  -2  -2  -9    6.20    4.30
  -2  -2  -9    3.10    4.40
   2   2   9   12.20    5.10
   2   2   9    0.40    4.70
  -3  -2  -9   -3.60    3.10
  -3  -2  -9   -2.20    3.80
  -3  -2  -9    1.80    3.60
  -3  -2  -9    3.30    3.90
  -3  -2  -9    1.40    3.80
   3   2   9   -5.10    4.20
  -4  -2  -9   66.29   11.00
  -4  -2  -9   72.39   12.10
  -4  -2  -9   83.49   11.10
  -4  -2  -9   76.39   11.10
  -4  -2  -9   63.89   11.10
   4   2   9   68.99   11.30
  -5  -2  -9   17.00    4.40
  -5  -2  -9   14.90    4.70
  -5  -2  -9   21.10    5.20
  -5  -2  -9   21.00    6.70
  -5  -2  -9   14.90    5.60
  -6  -2  -9   10.60    3.50
  -6  -2  -9   11.60    5.40
  -6  -2  -9    7.30    4.30
  -6  -2  -9    7.90    3.50
  -6  -2  -9   20.10    4.00
  -7  -2  -9    2.50    3.10
  -7  -2  -9    3.70    2.50
  -7  -2  -9   -5.10    3.80
  -7  -2  -9    3.70    2.30
   7   2   9    1.70    5.00
  -8  -2  -9    3.70    3.30
  -8  -2  -9    1.10    4.80
   8   2   9   -2.10    3.50
  -9  -2  -9   -0.60    3.20
  -9  -2  -9   -0.90    5.60
   9   2   9    3.20    4.20
 -10  -2  -9  -11.10    5.40
 -10  -2  -9    5.20    4.40
  10   2   9    2.60    3.80
 -11  -2  -9   60.89   12.30
  11   2   9   57.59   10.30
 -12  -2  -9   -0.60    5.20
 -12  -2  -9   -1.00    7.10
  12   2   9    3.50    5.40
 -13  -2  -9   -3.40    6.10
 -13  -2  -9   -2.00    8.10
 -14  -2  -9   -4.90    6.70
 -14  -2  -9   -2.30    8.20
   7  -3  -9   11.10    8.80
  -7   3   9    9.20    8.90
  -7   3   9   12.70    8.20
   6  -3  -9   -1.30    7.60
  -6   3   9    4.60    7.80
  -6   3   9    3.60    7.50
   5  -3  -9    5.30    7.20
  -5   3   9    6.20    7.20
  -5   3   9   18.50    8.20
   4  -3  -9   16.30    8.50
  -4   3   9   26.10    8.30
  -4   3   9   14.90    8.30
   3  -3  -9   -6.20    5.60
   3  -3  -9    4.20    6.30
  -3   3   9   -1.30    5.10
  -3   3   9   13.20    7.00
   2  -3  -9    3.20    5.80
   2  -3  -9    4.80    6.40
  -2   3   9    9.40    6.30
  -2   3   9    5.60    5.90
   1  -3  -9    2.10    5.90
   1  -3  -9    5.80    5.80
  -1   3   9    4.40    5.40
   0  -3  -9  190.68   26.30
   0  -3  -9  221.78   26.70
   0  -3  -9  186.28   26.60
   0  -3  -9  173.78   26.30
   0   3   9  225.18   26.80
   0   3   9  207.78   26.80
  -1  -3  -9   24.00    6.90
  -1  -3  -9   17.10    5.90
  -1  -3  -9   17.90    6.70
  -1  -3  -9   20.50    9.10
   1   3   9   19.40    7.90
   1   3   9   21.50    6.80
  -2  -3  -9   -2.80    4.40
  -2  -3  -9    1.00    3.50
  -2  -3  -9    1.10    4.50
  -2  -3  -9   -3.20    3.40
  -2  -3  -9    1.50    3.80
  -2  -3  -9    4.00    4.40
  -3  -3  -9    2.30    4.60
  -3  -3  -9   -0.10    4.10
  -3  -3  -9   13.10    4.40
  -3  -3  -9    1.70    4.30
  -3  -3  -9    4.30    3.60
  -3  -3  -9    1.90    4.00
  -4  -3  -9    7.50    4.60
  -4  -3  -9   23.00    5.00
  -4  -3  -9   15.20    5.10
  -4  -3  -9   22.80    7.00
  -4  -3  -9   12.70    5.30
  -4  -3  -9   17.90    4.70
  -5  -3  -9   12.10    4.50
  -5  -3  -9   16.70    4.60
  -5  -3  -9   19.40    4.90
  -5  -3  -9   19.70    5.30
  -5  -3  -9   17.90    6.30
  -6  -3  -9    2.00    3.30
  -6  -3  -9    8.00    3.20
  -6  -3  -9   -2.10    5.00
  -6  -3  -9   -1.80    4.30
  -6  -3  -9   -2.80    4.00
  -6  -3  -9    4.40    3.00
  -7  -3  -9   26.00    6.20
  -7  -3  -9   32.50    5.00
  -7  -3  -9   31.80    5.20
  -7  -3  -9   32.50    8.30
   7   3   9   26.50    6.70
   7   3   9   31.60    7.50
  -8  -3  -9    6.70    3.80
  -8  -3  -9    1.80    4.90
   8   3   9   -1.50    3.80
  -9  -3  -9    2.20    3.90
  -9  -3  -9    2.60    5.60
   9   3   9    3.50    4.60
 -10  -3  -9    6.90    6.10
 -10  -3  -9    8.00    4.40
  10   3   9   11.10    7.80
 -11  -3  -9   40.40    8.10
 -11  -3  -9   46.30   10.50
  11   3   9   26.30    7.50
 -12  -3  -9   16.50    8.30
 -12  -3  -9   25.90    7.00
 -13  -3  -9  -13.40    7.00
 -13  -3  -9   -5.00    5.80
 -14  -3  -9   -6.10    8.20
 -14  -3  -9    4.10    7.10
   7  -4  -9   -0.80    7.90
  -7   4   9    2.30    8.90
  -7   4   9    2.20    6.90
   6  -4  -9   -0.60    8.10
  -6   4   9   16.40    9.40
  -6   4   9    4.00    8.00
   5  -4  -9   -5.30    6.40
  -5   4   9    8.90    7.70
  -5   4   9   -2.20    6.90
   4  -4  -9    2.30    6.50
  -4   4   9   33.50    9.50
  -4   4   9   28.50    9.10
   3  -4  -9   10.50    7.60
  -3   4   9   10.30    6.80
  -3   4   9   27.00    8.60
   2  -4  -9    1.80    5.80
   2  -4  -9   -3.10    5.90
  -2   4   9    2.90    5.90
  -2   4   9   -9.00    5.50
   1  -4  -9   27.20    7.40
   1  -4  -9   13.40    6.40
  -1   4   9   11.30    6.30
  -1   4   9   17.10    7.10
   0  -4  -9    4.60    6.00
   0  -4  -9   -4.40    5.20
   0  -4  -9    1.40    5.70
   0  -4  -9    5.90    5.40
   0   4   9    1.50    5.80
   0   4   9    1.70    5.70
  -1  -4  -9   76.59   13.90
  -1  -4  -9   54.29   12.40
  -1  -4  -9  107.49   14.20
  -1  -4  -9   79.59   13.40
   1   4   9   90.89   14.30
   1   4   9   89.49   13.60
  -2  -4  -9    0.30    6.70
  -2  -4  -9    6.90    4.60
  -2  -4  -9    2.20    4.50
  -2  -4  -9   11.50    5.00
  -3  -4  -9    1.10    5.00
  -3  -4  -9    7.20    4.50
  -3  -4  -9    2.80    4.70
  -3  -4  -9    5.80    4.70
  -3  -4  -9   -2.10    5.60
  -3  -4  -9    7.80    4.20
  -4  -4  -9   12.90    5.20
  -4  -4  -9    7.10    5.10
  -4  -4  -9    7.20    4.00
  -4  -4  -9   13.80    6.50
  -4  -4  -9    9.90    4.40
  -4  -4  -9    7.50    4.10
  -5  -4  -9    9.60    4.20
  -5  -4  -9    8.90    5.00
  -5  -4  -9    8.40    6.60
  -5  -4  -9   26.10    6.70
  -5  -4  -9   15.60    4.90
  -5  -4  -9   15.30    4.50
  -6  -4  -9   23.40    7.90
  -6  -4  -9   18.50    4.90
  -6  -4  -9   12.00    5.10
  -6  -4  -9   12.50    5.60
  -6  -4  -9   12.30    3.90
  -6  -4  -9   14.70    4.00
  -7  -4  -9   -1.40    2.30
  -7  -4  -9    1.80    2.60
  -7  -4  -9    7.00    4.20
  -7  -4  -9    1.90    4.80
   7   4   9    2.60    4.50
  -8  -4  -9    6.20    5.70
  -8  -4  -9   13.30    7.40
   8   4   9    6.10    4.80
  -9  -4  -9    4.70    4.60
  -9  -4  -9    4.00    6.10
   9   4   9    0.90    5.10
 -10  -4  -9   31.90    9.90
 -10  -4  -9   52.19    8.60
  10   4   9   35.10    7.80
 -11  -4  -9   51.89    8.90
 -11  -4  -9   24.20    9.40
 -12  -4  -9   28.50    7.90
 -13  -4  -9   11.00    6.90
 -14  -4  -9   17.00    9.60
 -14  -4  -9   -1.70    7.20
   7  -5  -9   30.30   10.90
  -7   5   9   17.30    9.90
  -7   5   9   30.10   11.00
   6  -5  -9   -2.80    7.00
  -6   5   9   -3.70    7.00
  -6   5   9    0.40    7.50
  -5   5   9    2.30    8.00
  -5   5   9    0.00    8.70
   4  -5  -9   -4.00    5.80
  -4   5   9    5.40    6.90
  -4   5   9    3.20    7.90
   3  -5  -9   71.39   13.60
  -3   5   9   62.69   12.60
  -3   5   9   77.39   13.90
   2  -5  -9   -1.00    5.50
  -2   5   9    9.30    6.60
  -2   5   9    3.30    6.00
   1  -5  -9    9.20    6.30
  -1   5   9    4.20    5.90
  -1   5   9    9.90    6.20
   0  -5  -9   91.09   14.30
   0  -5  -9   60.09   12.00
   0   5   9   78.19   14.00
   0   5   9   68.49   12.70
  -1  -5  -9   31.60    8.00
  -1  -5  -9   35.70    7.70
  -1  -5  -9   21.00    7.80
  -1  -5  -9   44.00    8.20
  -1  -5  -9   22.30    7.90
   1   5   9   42.20    9.80
  -2  -5  -9   31.10    8.10
  -2  -5  -9   50.49   10.60
  -2  -5  -9   32.30    7.70
  -2  -5  -9   35.10    7.90
  -2  -5  -9   37.80    9.10
   2   5   9   50.29    9.70
  -3  -5  -9   11.70    5.20
  -3  -5  -9    7.60    5.90
  -3  -5  -9    7.30    5.10
  -3  -5  -9    3.10    4.10
  -3  -5  -9    7.80    4.80
  -3  -5  -9    6.40    4.90
  -4  -5  -9   68.39   12.90
  -4  -5  -9   72.69   11.90
  -4  -5  -9   96.29   12.50
  -4  -5  -9   81.89   11.70
  -4  -5  -9   64.69   12.20
  -4  -5  -9   64.89   12.30
  -5  -5  -9   36.00    8.10
  -5  -5  -9   21.00    5.50
  -5  -5  -9   16.80    5.60
  -5  -5  -9   19.70    5.90
  -5  -5  -9   10.30    6.60
  -5  -5  -9   25.10    6.70
  -6  -5  -9   -3.30    2.90
  -6  -5  -9   -6.00    4.70
  -6  -5  -9   -4.50    3.60
  -6  -5  -9    1.90    3.80
  -7  -5  -9    7.20    5.10
  -7  -5  -9   16.20    6.30
  -7  -5  -9    4.70    3.20
   7   5   9   18.00    6.30
  -8  -5  -9   10.10    2.50
  -8  -5  -9    4.00    2.60
  -8  -5  -9    4.00    5.80
  -8  -5  -9    6.30    4.90
   8   5   9   16.00    6.40
  -9  -5  -9    7.60    6.10
  -9  -5  -9   12.80    5.20
   9   5   9    6.20    5.80
 -10  -5  -9   -0.60    4.50
 -10  -5  -9   -1.40    5.60
 -11  -5  -9   90.99   15.60
 -11  -5  -9   75.09   13.20
 -12  -5  -9    3.00    7.60
 -12  -5  -9    8.50    6.40
 -13  -5  -9   11.60    8.70
 -13  -5  -9   10.90    6.60
 -14  -5  -9   -3.40    6.60
   6  -6  -9   -7.50    7.80
  -6   6   9   -1.20    8.60
   5  -6  -9    3.70    8.10
  -5   6   9  -14.60    6.80
  -5   6   9   -5.90    7.20
   4  -6  -9    3.50    6.70
  -4   6   9   10.40    7.60
  -4   6   9    2.20    7.80
   3  -6  -9    0.00    7.00
  -3   6   9    6.80    7.20
  -3   6   9   10.00    7.30
   2  -6  -9   15.10    6.70
  -2   6   9    6.20    7.70
  -2   6   9    7.50    6.60
   1  -6  -9   -7.80    5.30
  -1   6   9    6.10    6.90
  -1   6   9   -5.30    4.60
   0  -6  -9  122.59   19.90
   0  -6  -9  164.58   19.90
   0   6   9  118.39   21.00
  -1  -6  -9    6.50    5.50
  -1  -6  -9    8.60    5.90
  -1  -6  -9    1.30    5.40
   1   6   9   -3.10    5.80
  -2  -6  -9   38.70    8.70
  -2  -6  -9   39.30   10.30
  -2  -6  -9   55.59    9.20
  -2  -6  -9   33.60    8.90
   2   6   9   48.40   10.30
  -3  -6  -9   -3.50    4.40
  -3  -6  -9    1.80    4.40
  -3  -6  -9    2.60    4.80
  -3  -6  -9    2.00    5.10
  -4  -6  -9   55.09    9.60
  -4  -6  -9   46.40   10.10
  -4  -6  -9   59.09    9.70
  -4  -6  -9   45.30    9.80
  -4  -6  -9   54.19    9.00
  -5  -6  -9  116.09   15.90
  -5  -6  -9   87.59   16.00
  -5  -6  -9  105.89   15.10
  -5  -6  -9   90.29   15.90
  -5  -6  -9  113.29   14.30
  -6  -6  -9    6.80    5.70
  -6  -6  -9   14.80    5.00
  -6  -6  -9    4.80    3.50
  -6  -6  -9   14.80    5.20
  -7  -6  -9    3.60    4.00
  -7  -6  -9    0.00    5.10
  -7  -6  -9   -3.20    4.30
  -7  -6  -9    8.00    3.10
   7   6   9   -1.50    5.20
  -8  -6  -9   -6.10    5.10
  -8  -6  -9   -4.60    3.10
  -8  -6  -9   -0.10    2.40
  -8  -6  -9    2.10    4.10
  -9  -6  -9   15.70    7.80
  -9  -6  -9   10.00    5.10
 -10  -6  -9   -2.00    4.90
 -10  -6  -9   -3.80    6.00
 -11  -6  -9    7.70    7.50
 -11  -6  -9   17.80    6.60
 -12  -6  -9   46.50    9.40
 -12  -6  -9   27.80   10.60
 -13  -6  -9    4.80    6.70
 -13  -6  -9   11.10    8.90
   6  -7  -9   -4.80    7.50
  -6   7   9    3.50    8.00
  -6   7   9   -3.90    8.80
   5  -7  -9    9.10    8.30
  -5   7   9   -2.20   14.30
  -5   7   9   -4.70    7.50
  -4   7   9   57.09   12.70
  -4   7   9   27.30   14.70
   3  -7  -9   -1.90    7.10
  -3   7   9    2.90    6.70
  -3   7   9   10.00    8.70
   2  -7  -9   -2.30    5.90
  -2   7   9   -9.90    5.20
  -2   7   9   -2.20    5.90
   1  -7  -9   20.40    8.10
  -1   7   9   19.80    7.90
   0  -7  -9   50.19   10.20
   0  -7  -9   38.10    9.20
   0   7   9   37.30   10.50
  -1  -7  -9   83.69   15.40
  -1  -7  -9  109.09   15.70
   1   7   9   93.39   17.00
  -2  -7  -9    2.50    4.80
  -2  -7  -9   -6.40    4.20
  -2  -7  -9    3.20    5.10
   2   7   9    1.20    6.00
  -3  -7  -9    2.40    4.60
  -3  -7  -9   18.20    6.70
  -3  -7  -9   11.60    5.60
  -3  -7  -9   15.40    5.80
  -4  -7  -9    3.20    4.90
  -4  -7  -9    3.10    5.20
  -4  -7  -9    6.30    5.10
  -4  -7  -9    1.90    4.40
  -5  -7  -9   49.30    9.10
  -5  -7  -9   39.40    8.80
  -5  -7  -9   46.20    9.70
  -5  -7  -9   43.90    8.40
  -6  -7  -9   -2.80    4.90
  -6  -7  -9    2.20    3.50
  -6  -7  -9   -4.70    4.10
  -6  -7  -9    3.40    4.80
  -7  -7  -9   18.40    5.00
  -7  -7  -9    7.10    3.90
  -7  -7  -9   18.90    7.20
  -7  -7  -9   -1.60    4.70
  -8  -7  -9   37.30    6.90
  -8  -7  -9   37.50    9.50
  -8  -7  -9   31.80    7.90
  -8  -7  -9   39.00    6.30
  -9  -7  -9   -9.60    5.10
  -9  -7  -9    2.00    3.40
  -9  -7  -9    2.50    2.60
  -9  -7  -9    9.30    5.10
 -10  -7  -9    3.30    5.50
 -10  -7  -9   -5.90    5.60
 -11  -7  -9   -0.10    5.50
 -11  -7  -9   -9.40    6.10
 -12  -7  -9   30.40   10.90
 -12  -7  -9   42.30   10.10
 -13  -7  -9   -5.00    8.00
 -13  -7  -9   -0.80    8.50
   6  -8  -9    7.40    9.00
  -6   8   9    5.80    9.90
   5  -8  -9   10.90    9.00
  -5   8   9    9.30   10.40
  -5   8   9   10.50    9.30
   4  -8  -9   -2.40    6.70
  -4   8   9    5.10    8.70
  -4   8   9   -5.40    7.80
   3  -8  -9   11.10    8.20
  -3   8   9   18.40    8.90
  -3   8   9   11.40    8.40
   2  -8  -9   -3.20    5.70
   2  -8  -9   -0.60    5.90
  -2   8   9    5.90    7.60
   1  -8  -9    2.50    6.00
   1  -8  -9   21.00    6.80
  -1   8   9   17.70    9.10
   0  -8  -9   42.20   10.10
   0  -8  -9   48.30    9.80
   0   8   9   33.10   10.90
  -1  -8  -9  113.19   17.70
  -1  -8  -9  109.59   17.00
   1   8   9  109.79   19.40
  -2  -8  -9   40.00    9.50
  -2  -8  -9   59.69   10.90
   2   8   9   43.30   10.90
  -3  -8  -9   -2.00    4.60
  -3  -8  -9   -3.30    4.90
  -3  -8  -9   -3.40    4.90
  -3  -8  -9   -0.80    4.70
  -4  -8  -9   70.59   13.70
  -4  -8  -9   59.79   11.90
  -4  -8  -9   71.79   12.00
  -4  -8  -9   84.89   13.10
  -5  -8  -9    7.30    5.00
  -5  -8  -9    4.30    5.40
  -5  -8  -9    6.90    5.80
  -6  -8  -9    6.60    5.20
  -6  -8  -9    1.20    4.90
  -6  -8  -9   11.60    5.30
  -6  -8  -9   -2.60    3.60
  -7  -8  -9    6.20    5.50
  -7  -8  -9    8.80    6.70
  -7  -8  -9    4.30    4.70
  -7  -8  -9    8.60    4.20
  -8  -8  -9   71.79   10.50
  -8  -8  -9   58.59   10.90
  -8  -8  -9   79.89   13.80
  -8  -8  -9   76.09   12.50
  -9  -8  -9    4.60    6.60
  -9  -8  -9    7.20    4.60
  -9  -8  -9   13.30    5.70
  -9  -8  -9    6.20    3.30
 -10  -8  -9    1.30    3.00
 -10  -8  -9   12.00    4.50
 -10  -8  -9    7.20    6.10
 -11  -8  -9   22.20    9.70
 -11  -8  -9   29.70    8.30
 -12  -8  -9    9.00    7.70
 -12  -8  -9   -1.80    7.90
   5  -9  -9    1.30    7.70
  -5   9   9    4.00    9.10
  -5   9   9    0.30    7.10
   4  -9  -9    1.30    7.40
  -4   9   9    9.70    8.50
  -4   9   9   11.30    8.30
   3  -9  -9   21.00    8.30
   3  -9  -9   13.90    7.70
   2  -9  -9   17.90    8.30
   2  -9  -9   26.30    8.30
  -2   9   9   -3.30    6.60
   1  -9  -9    5.10    5.60
   1  -9  -9    9.60    7.30
  -1   9   9    7.80    9.20
   0  -9  -9  122.19   18.80
   0  -9  -9  125.89   18.50
   0   9   9  100.39   20.20
  -1  -9  -9    4.40    5.90
  -1  -9  -9   12.00    7.20
   1   9   9    8.20    8.80
  -2  -9  -9   91.79   13.50
  -2  -9  -9   64.69   12.60
   2   9   9   63.49   14.00
  -3  -9  -9    4.20    5.40
  -3  -9  -9    6.60    5.70
  -4  -9  -9   13.30    7.00
  -4  -9  -9    6.60    4.70
  -4  -9  -9    0.70    4.70
  -5  -9  -9   58.49    9.80
  -5  -9  -9   38.30    8.40
  -5  -9  -9   22.30    8.60
  -6  -9  -9   -0.10    4.20
  -6  -9  -9   -0.70    3.80
  -6  -9  -9    0.40    5.30
  -7  -9  -9    3.40    7.40
  -7  -9  -9   13.00    6.20
  -7  -9  -9    4.70    4.00
  -8  -9  -9    5.40    4.20
  -8  -9  -9    0.20    4.90
  -8  -9  -9    3.40    6.40
  -9  -9  -9   16.10    6.60
  -9  -9  -9    3.80    8.00
  -9  -9  -9   11.10    4.40
 -10  -9  -9    5.30    4.20
 -10  -9  -9   -0.20    5.70
 -10  -9  -9    2.20    7.40
 -11  -9  -9   44.20   12.40
 -11  -9  -9   30.60    6.10
 -11  -9  -9   65.59   11.00
 -12  -9  -9   14.70    7.60
 -12  -9  -9    7.10    8.50
   4 -10  -9    3.10    8.60
   4 -10  -9   21.30    9.40
  -4  10   9   -4.80    8.00
   3 -10  -9   -9.40    6.40
   3 -10  -9   -8.90    6.40
  -3  10   9   -4.70    7.10
   2 -10  -9    4.70    6.90
   2 -10  -9    3.70    7.70
  -2  10   9   10.60    8.30
   1 -10  -9   -6.40    7.90
   1 -10  -9   -3.50    6.90
  -1  10   9   -8.80    7.20
   0 -10  -9   13.80    7.10
   0 -10  -9   12.70    7.10
   0  10   9   14.10    8.40
  -1 -10  -9   26.70    8.10
  -1 -10  -9   39.70    9.10
   1  10   9    5.70    9.30
  -2 -10  -9    7.70    6.60
  -2 -10  -9   14.10    6.60
   2  10   9    4.70    7.80
  -3 -10  -9   17.10    7.50
  -3 -10  -9    8.50    6.10
  -3 -10  -9    6.30    6.00
  -4 -10  -9    0.30    5.00
  -4 -10  -9    0.80    4.80
  -4 -10  -9    2.90    6.40
  -5 -10  -9   32.90    8.00
  -5 -10  -9   37.30    9.70
  -5 -10  -9   37.70    8.90
  -6 -10  -9    0.80    4.70
  -6 -10  -9    5.00    6.70
  -6 -10  -9    1.40    4.50
   6  10   9   -0.90    6.00
  -7 -10  -9    0.20    5.70
  -7 -10  -9   -3.30    4.40
  -7 -10  -9    1.70    5.90
   7  10   9   -0.60    5.70
  -8 -10  -9   12.70    6.50
  -8 -10  -9   10.70    8.30
  -9 -10  -9    8.80    9.30
  -9 -10  -9   -3.40    4.10
  -9 -10  -9    3.70    6.90
   9  10   9    1.70    5.70
 -10 -10  -9   -2.40    4.10
 -10 -10  -9    3.70    6.40
 -10 -10  -9   -1.30    7.30
 -11 -10  -9    4.50    4.20
 -11 -10  -9   -9.20    5.90
 -11 -10  -9    6.30    7.60
   3 -11  -9   -4.80    6.40
   3 -11  -9   15.40    9.00
  -3  11   9   22.70    9.80
   2 -11  -9   -2.70    7.00
   2 -11  -9    1.70    6.90
  -2  11   9   -7.30    7.90
   1 -11  -9    3.70    7.50
   1 -11  -9   18.30    8.40
  -1  11   9    9.60    9.40
   0 -11  -9   -0.20    6.50
   0 -11  -9    1.10    6.70
   0  11   9    5.40    8.10
  -1 -11  -9   40.00    9.90
  -2 -11  -9    6.10    6.60
  -2 -11  -9    8.50    6.80
   2  11   9   26.80   10.80
  -3 -11  -9   -4.10    5.40
  -3 -11  -9   -3.50    5.60
  -3 -11  -9    4.00    5.80
  -4 -11  -9   -0.30    5.20
  -4 -11  -9   -2.20    6.60
  -4 -11  -9    6.50    5.80
  -5 -11  -9    9.90    7.00
  -5 -11  -9   22.00    8.50
  -5 -11  -9   19.00    6.40
  -6 -11  -9    6.40    5.80
  -6 -11  -9    5.40    5.30
  -7 -11  -9   14.50    7.60
  -7 -11  -9    8.90    5.60
  -7 -11  -9    4.80    6.70
  -8 -11  -9   10.50    6.50
  -8 -11  -9   27.30    6.60
  -8 -11  -9   20.80    8.20
   8  11   9   11.60    7.40
  -9 -11  -9    1.80    5.40
  -9 -11  -9    1.30    4.70
  -9 -11  -9    4.60    7.40
   9  11   9   -0.80    6.50
 -10 -11  -9   -2.20    6.60
 -10 -11  -9    3.60    8.00
  10  11   9    9.20    8.30
   2 -12  -9    7.20    8.60
   2 -12  -9   -6.90    6.90
  -2  12   9   -2.80    8.00
   1 -12  -9   -9.40    6.60
   1 -12  -9   -2.50    6.60
  -1  12   9  -12.80    7.70
   0 -12  -9   15.50    8.30
   0 -12  -9   35.40   10.10
   0  12   9   13.40    9.90
  -1 -12  -9    9.10    6.90
   1  12   9   -8.80    8.10
  -2 -12  -9   60.39   11.50
  -2 -12  -9   53.99   11.60
   2  12   9   24.70   11.70
  -3 -12  -9    1.00    7.10
  -3 -12  -9    4.00    5.50
  -3 -12  -9    6.20    6.30
  -4 -12  -9   -0.40    5.60
  -4 -12  -9    9.70    8.20
  -4 -12  -9    0.50    5.30
  -5 -12  -9   21.80    8.90
  -5 -12  -9   11.00    6.60
  -5 -12  -9   18.60    7.40
  -6 -12  -9    9.10    5.60
  -6 -12  -9    4.50    6.40
  -6 -12  -9   13.90    7.30
  -7 -12  -9    1.00    5.70
  -7 -12  -9    9.30    8.20
  -7 -12  -9    6.00    5.30
  -8 -12  -9    8.10    6.00
  -8 -12  -9   10.70    7.20
  -8 -12  -9   22.10   10.00
  -9 -12  -9   27.10    9.90
  -9 -12  -9   16.20    6.20
  -9 -12  -9   22.20    8.40
   0 -13  -9   17.10    8.60
   0 -13  -9    7.00    7.30
   0  13   9   -1.30    9.10
  -1 -13  -9   18.60    9.40
  -1 -13  -9   22.20    8.80
   1  13   9   51.69   14.20
  -2 -13  -9   44.20   11.40
  -2 -13  -9   36.20   10.40
   2  13   9   46.50   13.50
  -3 -13  -9   12.10    6.70
  -3 -13  -9    5.30    7.20
  -4 -13  -9    4.30    6.10
  -4 -13  -9   -3.00    7.20
  -4 -13  -9    1.40    6.00
  -5 -13  -9   51.69   12.70
  -5 -13  -9   46.90   10.70
  -5 -13  -9   42.40   10.30
  -6 -13  -9   -5.90    6.20
  -6 -13  -9   -6.20    5.10
  -6 -13  -9    5.60    6.70
  -7 -13  -9    6.90    8.10
  -7 -13  -9   -1.30    5.90
  -7 -13  -9    1.30    6.20
  -1  10 -10    1.70    5.90
   1 -10  10    4.10    6.00
   1 -10  10    1.40    6.80
  -2  10 -10    6.70    5.80
   2 -10  10    2.30    7.30
   2 -10  10    6.00    5.30
  -3  10 -10    8.20    4.70
   3 -10  10    4.80    4.90
   3 -10  10   -2.50    7.20
   4 -10  10   11.80    7.40
   5 -10  10    0.70    6.40
  -6  10 -10    6.00    5.20
   6 -10  10    3.80    4.80
   6 -10  10    9.40    7.50
  -1  -9  10    4.90    7.40
  -1  -9  10    3.70    6.50
   0   9 -10    3.40    6.90
   0  -9  10    0.70    6.70
   0  -9  10    7.90    6.70
  -1   9 -10    2.90    8.70
   1  -9  10   17.40   10.80
   1  -9  10   -3.10    5.80
  -2   9 -10    4.20    4.80
   2  -9  10   -3.00    4.80
   2  -9  10    3.00    6.20
  -3   9 -10    7.40    4.80
   3  -9  10    4.20   11.20
   3  -9  10    9.20    4.70
   4  -9  10   15.80    8.20
  -5   9 -10   -0.20    3.80
   5  -9  10    3.50    6.60
  -6   9 -10   10.20    5.10
   6  -9  10   -9.70    5.80
   6  -9  10    2.80    4.70
  -7   9 -10   20.70    7.60
   7  -9  10   20.80    8.00
   7  -9  10   27.60    7.40
  -8   9 -10    3.70    7.60
   8  -9  10    3.80    6.10
   8  -9  10    4.00    6.90
  -3  -8  10   11.00    8.10
  -3  -8  10   16.10    9.40
  -2  -8  10   -4.90    6.40
  -2  -8  10   -1.30    6.90
  -1  -8  10   -2.80    6.40
  -1  -8  10    0.90    6.40
   0   8 -10   15.20    7.00
   0  -8  10   26.50    7.50
   0  -8  10   29.30    8.60
  -1   8 -10    6.80    5.10
   1  -8  10    2.70    5.70
   1  -8  10   17.40    9.10
  -2   8 -10    5.80    4.30
   2  -8  10    0.40    5.10
   2  -8  10    4.90    6.30
  -3   8 -10   18.60    5.10
   3  -8  10   10.00    4.70
   3  -8  10   17.40    6.80
   4  -8  10   12.20    7.30
  -5   8 -10    4.60    3.80
   5  -8  10    3.20    5.00
   5  -8  10    8.10    6.30
  -6   8 -10    8.90    5.40
   6  -8  10    6.20    6.40
   6  -8  10    1.20    4.80
  -7   8 -10    8.40    6.70
   7  -8  10   15.40    6.10
   7  -8  10   16.10    7.20
  -8   8 -10   26.90    8.90
   8  -8  10   46.90    9.70
   8  -8  10   20.90    8.10
  -9   8 -10    3.40    7.70
   9  -8  10    3.00    6.00
 -10   8 -10    7.50    9.00
  10  -8  10    9.70    6.90
  -4  -7  10    6.50    7.70
  -4  -7  10   -5.40    7.40
  -3  -7  10   42.30   10.30
  -3  -7  10   30.80   10.90
  -2  -7  10    3.10    6.50
  -2  -7  10   11.40    8.00
  -1  -7  10   -5.80    5.90
  -1  -7  10    0.70    6.90
   0   7 -10    3.60    5.50
   0  -7  10    7.50    5.70
   0  -7  10    1.50    5.80
  -1   7 -10    4.70    4.50
   1  -7  10   12.90    6.40
   1  -7  10   14.90    6.20
  -2   7 -10    3.40    4.30
   2  -7  10    5.30    5.10
   2  -7  10    3.60    5.90
  -3   7 -10    4.80    5.60
   3  -7  10    3.00    6.00
   3  -7  10    7.70    4.10
   4  -7  10   35.20    9.30
  -5   7 -10    2.90    4.30
   5  -7  10   -3.20    5.40
   5  -7  10    9.20    5.20
  -6   7 -10    8.00    5.70
   6  -7  10    6.40    5.80
   6  -7  10    7.40    4.90
  -7   7 -10    7.30    6.00
   7  -7  10   -1.70    5.10
   7  -7  10    1.10    5.00
  -8   7 -10   48.80   11.00
   8  -7  10   40.00    9.80
   8  -7  10   44.80    9.50
  -9   7 -10   11.40    8.50
   9  -7  10    9.90    6.40
 -10   7 -10    6.10    8.10
  10  -7  10    8.30    5.70
 -11   7 -10   20.20    9.70
  11  -7  10    7.30    6.10
  -4  -6  10    4.40    7.50
  -4  -6  10    8.80    8.20
  -3  -6  10    7.70    7.40
  -3  -6  10   31.60    8.90
  -2  -6  10    1.90    7.00
  -2  -6  10    1.30    6.80
  -1  -6  10   -2.10    5.90
  -1  -6  10    5.10    6.90
   0   6 -10    8.40    5.90
   0  -6  10    5.90    6.40
   0  -6  10   16.40    6.90
  -1   6 -10   -0.70    4.30
   1  -6  10    4.50    5.10
   1  -6  10    4.90    5.60
  -2   6 -10   10.60    4.00
   2  -6  10    2.00    4.40
   2  -6  10   -7.60    4.30
   3  -6  10   -0.30    3.40
   3  -6  10    2.70    5.00
   4  -6  10   60.59   11.10
  -5   6 -10    5.00    4.60
   5  -6  10   10.70    4.60
   5  -6  10   15.50    5.60
  -6   6 -10   -0.10    4.90
   6  -6  10    0.50    4.10
   6  -6  10   -5.70    4.90
  -7   6 -10   50.59   10.10
   7  -6  10   41.30    8.70
   7  -6  10   32.60    8.60
  -8   6 -10   15.30    7.80
  -8   6 -10    7.00    6.50
   8  -6  10   11.00    6.20
   8  -6  10   12.50    6.50
  -9   6 -10   46.30    9.00
  -9   6 -10    3.40    8.90
   9  -6  10   41.00    8.30
 -10   6 -10    0.20    6.10
 -10   6 -10  -13.90    7.10
  10  -6  10    3.50    5.30
 -11   6 -10   32.00   11.10
 -11   6 -10   26.10    8.20
  11  -6  10   20.50    7.10
  -5  -5  10   -5.30    6.90
  -5  -5  10   20.10    9.50
  -4  -5  10   34.40   10.70
  -4  -5  10   29.00   10.30
  -3  -5  10    5.20    6.60
  -3  -5  10    7.10    7.60
  -2  -5  10   26.10    7.80
  -2  -5  10    5.80    6.70
   1   5 -10    6.80    6.20
  -1  -5  10   -6.20    5.30
  -1  -5  10   -5.00    5.80
   0   5 -10   -0.30    6.00
   0  -5  10   21.10    7.60
   0  -5  10   11.00    6.30
  -1   5 -10   13.10    5.50
   1  -5  10   10.50    5.50
   1  -5  10   12.60    6.60
  -2   5 -10    5.50    3.90
   2  -5  10    1.50    4.90
   2  -5  10    0.50    4.30
  -3   5 -10   15.00    6.30
   3  -5  10   32.40    5.60
   3  -5  10   32.20    8.00
  -4   5 -10   18.90    4.70
  -4   5 -10   22.70    5.00
   4  -5  10   17.00    6.40
  -5   5 -10   39.40   12.60
  -5   5 -10   34.50    7.40
   5  -5  10   33.50    6.90
   5  -5  10   44.20    8.60
  -6   5 -10    2.10    5.30
  -6   5 -10   -5.90    4.60
   6  -5  10   -0.20    4.10
   6  -5  10    5.80    4.40
  -7   5 -10   37.20    8.60
  -7   5 -10   29.20    8.40
   7  -5  10   42.90    8.50
   7  -5  10   38.10    8.00
  -8   5 -10    0.90    5.20
  -8   5 -10    9.60    7.00
   8  -5  10   10.40    5.70
   8  -5  10   30.50    6.40
  -9   5 -10    4.40    7.10
 -10   5 -10   22.50    9.90
 -10   5 -10    9.60    5.70
  10  -5  10   13.30    5.80
 -11   5 -10   -3.20    5.10
 -11   5 -10   -6.50    8.20
  11  -5  10   -3.60    4.30
 -12   5 -10   29.70   11.80
 -12   5 -10   28.00    7.60
  12  -5  10   30.70    7.10
  -5  -4  10    1.00    4.00
  -5  -4  10   11.50    8.00
  -5  -4  10   23.70   15.80
  -4  -4  10   14.70    8.60
  -4  -4  10    4.10    7.60
  -3  -4  10   67.59   14.80
  -3  -4  10   82.19   14.20
  -2  -4  10    9.60    7.20
  -2  -4  10    3.40    6.30
   1   4 -10   -0.40    5.80
  -1  -4  10    5.50    5.70
  -1  -4  10    2.50    5.80
   0   4 -10    3.90    8.90
   0  -4  10   -4.10    5.90
   0  -4  10    5.00    9.50
  -1   4 -10   11.60    5.50
   1  -4  10    5.20    5.90
   1  -4  10   23.00    6.00
  -2   4 -10   -3.30    3.40
   2  -4  10    5.50    5.50
   2  -4  10    0.30    4.00
  -3   4 -10    3.60    3.20
  -3   4 -10    4.20    3.10
  -3   4 -10    4.60    3.00
   3  -4  10    3.90    5.50
   3  -4  10   -0.80    3.60
  -4   4 -10   48.60   10.60
  -4   4 -10   50.69    7.50
  -4   4 -10   39.00    6.10
  -4   4 -10   40.50    9.00
   4  -4  10   43.80    9.20
  -5   4 -10   -2.00    4.50
  -5   4 -10   -0.50    4.40
   5  -4  10    4.20    4.70
  -6   4 -10    0.20    5.00
  -6   4 -10    7.70    5.50
   6  -4  10    6.00    4.40
   6  -4  10    3.80    4.40
  -7   4 -10   -4.20    5.70
  -7   4 -10   -2.70    4.10
   7  -4  10    8.00    4.20
   7  -4  10    5.30    5.00
  -8   4 -10   41.50    7.90
  -8   4 -10   43.20    9.60
   8  -4  10   40.90    8.00
   8  -4  10   28.20    8.50
  -9   4 -10    2.30    5.10
  -9   4 -10    6.80    6.80
   9  -4  10    3.00    4.10
 -10   4 -10    2.10    7.40
 -10   4 -10   -0.20    4.50
  10  -4  10    0.80    3.70
 -11   4 -10   11.40    5.00
 -11   4 -10    5.30    8.20
  11  -4  10   -0.80    4.00
 -12   4 -10    7.40    9.00
 -12   4 -10   15.50    5.50
  12  -4  10   18.80    5.00
 -13   4 -10    8.80    9.30
  13  -4  10   13.00    4.00
   6   3 -10   -2.20    6.80
  -6  -3  10  -10.80    7.40
  -6  -3  10   14.60    8.50
  -6  -3  10    0.00    4.80
   5   3 -10   -2.80    5.70
  -5  -3  10    2.60    7.30
  -5  -3  10    5.90   10.00
  -5  -3  10   -5.00    4.30
   4   3 -10    3.40    5.20
  -4  -3  10    7.60    7.70
  -4  -3  10   -2.70    4.00
  -4  -3  10   -1.40    7.00
   3   3 -10   39.20    8.30
  -3  -3  10   38.20   10.00
  -3  -3  10   39.20   10.10
  -2  -3  10   34.40    9.60
  -2  -3  10   47.60   10.10
   1   3 -10   13.10    6.70
  -1  -3  10    1.00    5.10
  -1  -3  10    7.50    6.00
   0   3 -10    2.30    6.10
   0  -3  10   -0.20    4.50
  -1   3 -10    1.40    4.70
   1  -3  10    8.40    5.20
   1  -3  10   -1.20    4.40
  -2   3 -10   29.00    4.50
  -2   3 -10   18.50    4.30
  -2   3 -10   14.40    5.40
   2  -3  10   15.20    6.80
   2  -3  10   17.80    5.60
  -3   3 -10    3.70    5.70
  -3   3 -10   -2.70    3.10
  -3   3 -10   -1.60    3.30
  -3   3 -10   -0.60    3.40
   3  -3  10   -1.70    3.40
   3  -3  10    0.70    4.90
  -4   3 -10   40.90    8.00
  -4   3 -10   37.60    6.80
  -4   3 -10   26.60    5.40
  -4   3 -10   35.10    7.00
   4  -3  10   37.30    7.80
  -5   3 -10    9.90    5.30
  -6   3 -10   -2.40    4.20
  -6   3 -10  -10.00    4.90
   6  -3  10    1.40    4.30
   6  -3  10    6.40    4.50
  -7   3 -10   12.30    5.00
  -7   3 -10   13.70    6.40
   7  -3  10    8.60    4.50
   7  -3  10    8.10    5.10
  -8   3 -10   19.10    5.20
  -8   3 -10    2.80    6.40
   8  -3  10    5.30    5.20
   8  -3  10    4.80    3.90
  -9   3 -10   36.50    7.00
  -9   3 -10   24.30    8.90
   9  -3  10   34.30    6.60
 -10   3 -10   -0.50    4.10
 -10   3 -10   -7.00    6.90
  10  -3  10    1.90    3.60
 -11   3 -10   22.00    9.40
 -11   3 -10   36.00    6.40
  11  -3  10   25.70    5.90
 -12   3 -10   11.10    8.90
 -13   3 -10   -4.40    8.70
   6   2 -10   -3.60   12.00
  -6  -2  10    6.10    8.10
  -6  -2  10    2.80    7.50
   5   2 -10    0.10    6.60
  -5  -2  10    0.20    7.50
  -5  -2  10    0.20    7.30
  -5  -2  10    0.20    5.10
   4   2 -10    3.50    6.20
  -4  -2  10   14.60    5.60
  -4  -2  10   12.00    7.40
  -4  -2  10   13.60    9.90
   3   2 -10   11.70    5.50
  -3  -2  10    4.20    7.10
  -3  -2  10    5.10    7.10
  -3  -2  10    1.10    4.70
   2   2 -10   40.10    7.50
  -2  -2  10   57.09   10.40
  -2  -2  10   36.80    9.70
   1   2 -10   11.90    7.20
   1   2 -10   -1.60    3.60
  -1  -2  10   10.10    6.10
  -1  -2  10  -13.20    5.10
   0   2 -10   -1.40    9.00
   0   2 -10   10.70    3.80
   0   2 -10    1.30    3.20
   0  -2  10    2.60    5.90
   0  -2  10   13.30    7.00
  -1   2 -10    2.30    3.50
  -1   2 -10   -3.00    2.90
  -1   2 -10   -2.50    5.00
   1  -2  10    5.00    4.90
   1  -2  10    3.00    4.80
  -2   2 -10    5.10    6.20
  -2   2 -10   -2.60    3.40
  -2   2 -10   -4.40    4.20
   2  -2  10    1.20    4.60
   2  -2  10   -3.20    3.90
  -3   2 -10    3.20    4.80
  -3   2 -10    0.80    3.50
  -3   2 -10    2.60    3.50
  -3   2 -10   -2.00    3.80
   3  -2  10   -1.10    3.90
   3  -2  10    6.10    4.50
  -4   2 -10   11.70    4.90
  -4   2 -10   12.20    3.40
  -4   2 -10   10.90    5.40
  -4   2 -10   11.20    7.10
  -4   2 -10    8.90    4.70
  -5   2 -10    4.10    2.80
  -5   2 -10    2.00    2.20
  -5   2 -10    1.60    4.10
  -5   2 -10    2.60    4.30
   5  -2  10    2.20    5.00
  -6   2 -10   -1.00    4.10
  -6   2 -10    0.70    4.50
   6  -2  10    5.10    4.90
   6  -2  10    3.20    4.40
  -7   2 -10   24.60    6.10
   7  -2  10   26.30    6.90
   7  -2  10   28.40    6.60
  -8   2 -10   18.10    7.10
  -8   2 -10    8.70    4.20
   8  -2  10    4.10    5.10
   8  -2  10    0.50    4.20
  -9   2 -10   50.99    7.40
  -9   2 -10   27.70    9.30
   9  -2  10   40.00    7.30
 -10   2 -10   -2.10    4.90
 -10   2 -10    5.10    6.90
  10  -2  10   -2.10    2.60
 -11   2 -10    8.40    8.20
 -12   2 -10   11.50    9.00
 -13   2 -10   -2.80    8.20
 -13   2 -10    2.00    4.50
  13  -2  10    0.40    4.60
   6   1 -10    0.20    8.60
  -6  -1  10   17.10    8.10
  -6  -1  10    0.90    7.00
  -6  -1  10    4.30    8.80
  -5  -1  10   -8.70    6.80
  -5  -1  10    3.40    7.30
   4   1 -10   13.20    7.30
  -4  -1  10   15.10    7.80
  -4  -1  10   13.30    7.70
  -4  -1  10   23.70    6.90
   3   1 -10   26.20    7.40
  -3  -1  10   38.20    9.00
  -3  -1  10   26.70    9.40
  -3  -1  10   22.30    6.70
   2   1 -10   25.90    6.60
  -2  -1  10   26.30    8.80
  -2  -1  10   21.20    6.40
  -2  -1  10   44.20    8.90
   1   1 -10    4.50    4.30
   1   1 -10    1.40    6.20
  -1  -1  10    0.80    5.60
  -1  -1  10    6.30    6.00
   0   1 -10    0.40    6.30
   0   1 -10   -1.90    3.30
   0  -1  10   -1.10    5.00
   0  -1  10   10.10    5.70
  -1   1 -10    3.60    3.70
  -1   1 -10   15.40    6.10
  -1   1 -10    9.00    3.90
   1  -1  10    3.30    5.70
   1  -1  10   14.60    5.20
  -2   1 -10    3.90    3.20
  -2   1 -10    3.40    4.60
  -2   1 -10    2.00    3.80
  -2   1 -10    4.20    5.70
   2  -1  10    3.40    4.70
   2  -1  10    2.80    4.30
  -3   1 -10    2.70    3.90
  -3   1 -10   -1.60    3.40
  -3   1 -10    0.10    3.50
  -3   1 -10   -0.40    4.40
   3  -1  10    1.60    4.60
   3  -1  10   -1.20    4.10
  -4   1 -10   12.50    5.70
  -4   1 -10   25.60    4.90
  -4   1 -10   13.80    5.80
  -4   1 -10   22.60    5.40
  -4   1 -10   16.50    5.10
   4  -1  10   29.10    6.80
  -5   1 -10   37.00    5.90
  -5   1 -10   27.90    7.50
  -5   1 -10   38.70    7.50
  -5   1 -10   38.80    6.70
  -5   1 -10   38.90    7.70
   5  -1  10   42.50    8.00
  -6   1 -10    0.00    4.40
  -6   1 -10    0.00    2.80
  -6   1 -10   -1.10    3.20
  -6   1 -10    0.50    2.30
   6  -1  10    3.40    4.60
   6  -1  10   -1.40    3.50
  -7   1 -10   11.60    3.40
  -7   1 -10    7.40    2.40
  -7   1 -10   16.20    6.00
  -7   1 -10    8.80    4.00
   7  -1  10    2.90    5.70
   7  -1  10   21.40    5.50
  -8   1 -10   62.79    9.80
  -8   1 -10   66.59   12.40
   8  -1  10   74.79   10.20
   8  -1  10   69.89   12.00
  -9   1 -10    7.40    3.20
  -9   1 -10    7.30    3.30
  -9   1 -10    2.90    6.30
  -9   1 -10    9.50    3.20
   9  -1  10    7.70    3.50
 -10   1 -10    4.00    3.50
 -10   1 -10    9.10    7.00
 -11   1 -10   12.20    4.50
 -11   1 -10   15.90    8.00
 -12   1 -10   21.10    7.10
 -12   1 -10   41.70   11.10
  12  -1  10   45.20    6.80
 -13   1 -10   10.20    9.40
 -13   1 -10   14.00    6.20
  13  -1  10   10.60    5.10
  -6   0  10   21.00    9.60
  -6   0  10   20.10    9.50
  -6   0  10   22.80    9.30
   5   0 -10   -3.20    7.20
  -5   0  10    8.70    7.50
  -5   0  10    5.80    7.20
  -5   0  10    1.20    7.00
  -4   0  10    0.50    7.20
  -4   0  10    3.50    7.00
   3   0 -10   61.29   10.90
  -3   0  10   63.89   12.30
  -3   0  10   65.69   12.90
   2   0 -10    7.90    6.10
  -2   0  10   29.80    6.40
  -2   0  10    7.50    7.40
  -2   0  10    9.50    6.70
   1   0 -10   26.50    8.30
   1   0 -10   39.40    7.50
  -1   0  10   34.40    8.90
  -1   0  10   38.90    8.70
  -1   0  10   30.70    7.30
   0   0 -10    2.90    6.10
   0   0 -10    3.70    4.50
   0   0  10   12.20    6.10
   0   0  10   -0.30    5.60
  -1   0 -10    9.00    4.60
  -1   0 -10   11.20    6.60
  -1   0 -10   -0.90    4.70
  -1   0 -10   11.30    4.20
   1   0  10   13.60    6.00
   1   0  10   10.30    5.50
  -2   0 -10   17.60    5.20
  -2   0 -10   18.90    6.40
  -2   0 -10   11.70    4.90
  -2   0 -10   15.70    5.70
   2   0  10   16.00    6.40
   2   0  10   25.10    6.20
  -3   0 -10    1.30    4.10
  -3   0 -10   -0.30    3.60
  -3   0 -10    1.90    4.20
  -3   0 -10    1.80    4.50
   3   0  10    1.40    5.40
  -4   0 -10  155.78   20.20
  -4   0 -10  172.58   20.50
  -4   0 -10  153.68   20.90
  -4   0 -10  158.38   20.70
  -4   0 -10  150.98   21.10
   4   0  10  150.38   20.90
  -5   0 -10    3.70    4.10
  -5   0 -10    0.90    4.30
  -5   0 -10    4.20    2.80
  -5   0 -10   -3.80    5.40
  -5   0 -10    6.00    4.50
   5   0  10   -6.50    4.10
  -6   0 -10   25.40    6.60
  -6   0 -10   26.80    4.70
  -6   0 -10   22.40    5.60
  -6   0 -10   20.00    5.60
   6   0  10   37.00    6.50
  -7   0 -10    4.00    5.30
  -7   0 -10    1.30    3.00
  -7   0 -10   -5.10    2.00
   7   0  10    7.30    4.20
   7   0  10    8.20    5.60
  -8   0 -10    7.70    3.70
  -8   0 -10   15.10    6.80
  -8   0 -10   20.00    4.10
   8   0  10   14.90    4.00
   8   0  10   20.20    6.60
  -9   0 -10   69.09   12.00
  -9   0 -10   64.49    9.10
  -9   0 -10   44.80    8.00
 -10   0 -10    7.30    4.20
 -10   0 -10    5.00    7.10
 -11   0 -10   23.20    9.60
 -11   0 -10   15.80    5.40
  11   0  10   17.80    5.00
 -12   0 -10    6.60    5.50
 -12   0 -10    6.20    7.90
  12   0  10    2.40    4.40
 -13   0 -10   44.90    9.60
 -13   0 -10   57.99   12.70
  13   0  10   41.20    8.50
 -14   0 -10    4.00   10.00
 -14   0 -10   -3.30    6.20
  14   0  10    4.30    5.80
  -6   1  10   -1.30    7.50
  -6   1  10   -8.10    7.60
  -6   1  10   -1.60    7.00
  -5   1  10   22.80    9.40
  -5   1  10   -1.60    6.80
  -5   1  10   16.50    8.40
   4  -1 -10   13.90    7.80
  -4   1  10   16.90    7.90
  -4   1  10    8.20    6.30
  -4   1  10   21.20    9.00
   3  -1 -10   38.90    8.90
  -3   1  10   10.30    6.40
  -3   1  10    7.50    8.10
  -3   1  10   35.70    9.30
   2  -1 -10   46.20    8.90
  -2   1  10   23.10    8.50
  -2   1  10   39.90    9.10
  -2   1  10   26.20    8.10
   1  -1 -10    1.20    4.60
  -1   1  10    2.70    5.80
  -1   1  10   -4.90    4.80
  -1   1  10   -1.80    5.70
   0  -1 -10   -2.70    4.10
   0  -1 -10    1.80    5.70
   0   1  10    6.20    6.00
   0   1  10    7.60    5.60
   0   1  10    3.30    4.70
  -1  -1 -10    2.20    4.10
  -1  -1 -10    0.80    4.10
  -1  -1 -10    1.60    4.80
  -1  -1 -10   -4.10    5.00
   1   1  10   -8.80    4.60
   1   1  10    0.50    7.40
  -2  -1 -10   -0.80    4.50
  -2  -1 -10   -8.60    3.90
  -2  -1 -10    2.10    3.50
  -2  -1 -10   10.90    4.90
   2   1  10   -4.00    4.40
   2   1  10   -2.60    4.40
  -3  -1 -10    1.50    4.20
  -3  -1 -10    0.40    3.90
  -3  -1 -10    4.70    4.40
  -3  -1 -10    8.70    4.70
   3   1  10   -3.40    4.20
  -4  -1 -10   48.40    9.30
  -4  -1 -10   59.29    9.80
  -4  -1 -10   67.49    9.70
  -4  -1 -10   44.30   10.00
  -4  -1 -10   55.49    8.80
   4   1  10   52.09    9.60
  -5  -1 -10  139.59   18.90
  -5  -1 -10  131.59   18.60
  -5  -1 -10  156.58   19.60
  -5  -1 -10  168.68   20.40
  -5  -1 -10  141.59   19.10
   5   1  10  142.19   19.00
  -6  -1 -10   -4.90    6.20
  -6  -1 -10    4.00    5.10
  -6  -1 -10    3.80    3.80
  -6  -1 -10   -5.30    3.70
  -6  -1 -10   -0.70    2.80
   6   1  10    0.30    4.00
  -7  -1 -10   11.70    5.80
  -7  -1 -10    2.70    4.00
  -7  -1 -10    4.40    3.20
  -7  -1 -10    4.20    2.70
   7   1  10    3.80    4.90
  -8  -1 -10    2.00    2.50
  -8  -1 -10   13.10    6.30
  -8  -1 -10    6.00    4.60
  -8  -1 -10    3.40    3.00
  -9  -1 -10   65.29    9.50
  -9  -1 -10   49.10   12.00
 -10  -1 -10    9.40    4.30
 -10  -1 -10   17.60    7.40
  10   1  10   12.40    4.90
 -11  -1 -10    2.10    7.20
 -11  -1 -10    3.10    4.50
  11   1  10   17.20    5.30
 -12  -1 -10    3.60    5.50
 -12  -1 -10   10.00    9.10
  12   1  10    9.70    5.50
 -13  -1 -10   -5.60    5.80
 -13  -1 -10   11.40    9.40
  13   1  10    2.90    5.30
 -14  -1 -10   -1.70    6.50
 -14  -1 -10   -2.70    8.80
  14   1  10    2.90    6.30
   6  -2 -10   -0.60    8.00
  -6   2  10    4.10    8.10
  -6   2  10    9.30    8.10
   5  -2 -10    9.10    7.90
  -5   2  10   -6.70    7.80
  -4   2  10   -5.80    5.50
  -4   2  10   -1.50    7.10
  -4   2  10  -15.30    5.60
   3  -2 -10   10.30    6.80
  -3   2  10    4.80    6.70
  -3   2  10   -9.80    6.10
  -3   2  10   12.40    7.30
   2  -2 -10   13.70    7.00
  -2   2  10    5.10    6.60
  -2   2  10   12.20    6.40
  -2   2  10   16.70    6.80
   1  -2 -10    1.90    5.40
  -1   2  10    9.60    7.10
  -1   2  10    3.40    6.00
  -1   2  10    1.80    6.70
   0  -2 -10   -3.10    5.10
   0  -2 -10   -3.30    5.10
   0   2  10    1.60    5.80
   0   2  10   -6.60    5.00
   0   2  10    3.40    5.80
  -1  -2 -10    1.10    5.00
  -1  -2 -10    4.50    5.90
  -1  -2 -10    0.00    4.70
   1   2  10    7.90    5.50
   1   2  10   -4.20    4.90
  -2  -2 -10   -7.30    3.90
  -2  -2 -10   -5.80    3.80
  -2  -2 -10    1.30    4.80
  -2  -2 -10    1.60    4.30
   2   2  10   -7.00    4.60
   2   2  10    8.70    5.30
  -3  -2 -10    4.80    4.00
  -3  -2 -10    3.90    4.30
  -3  -2 -10   -0.20    4.50
  -3  -2 -10    8.40    4.10
  -3  -2 -10    2.20    4.90
   3   2  10    2.30    5.00
  -4  -2 -10    5.70    4.30
  -4  -2 -10   -3.40    3.30
  -4  -2 -10    3.50    4.30
  -4  -2 -10   -0.10    3.70
  -4  -2 -10    5.60    4.60
   4   2  10    0.90    4.30
  -5  -2 -10   57.89    8.90
  -5  -2 -10   48.30    7.90
  -5  -2 -10   32.40    8.60
  -5  -2 -10   38.30    7.70
  -6  -2 -10    7.30    3.90
  -6  -2 -10    7.20    6.30
  -6  -2 -10    5.40    4.20
  -6  -2 -10    9.10    3.80
  -6  -2 -10   10.30    5.10
  -6  -2 -10   10.10    3.80
  -7  -2 -10   15.90    4.00
  -7  -2 -10   14.00    6.10
  -7  -2 -10    7.00    4.60
  -7  -2 -10   -1.40    4.90
  -7  -2 -10    8.50    3.60
  -8  -2 -10   13.00    5.70
  -8  -2 -10   27.70    4.30
  -8  -2 -10   16.00    7.40
  -8  -2 -10   27.50    4.40
  -8  -2 -10   29.00    5.80
  -9  -2 -10   32.70    6.70
  -9  -2 -10   28.80    8.60
   9   2  10   34.00    6.80
 -10  -2 -10   24.00    8.40
 -10  -2 -10    1.90    3.90
  10   2  10    0.30    4.30
 -11  -2 -10   -2.70    6.30
 -11  -2 -10   -2.90    4.40
  11   2  10    5.60    5.50
 -12  -2 -10   30.50    7.20
 -12  -2 -10   31.80    9.70
  12   2  10   15.80    6.30
 -13  -2 -10    9.50    8.90
 -13  -2 -10    1.50    6.20
  13   2  10    2.50    5.50
 -14  -2 -10   -8.00    6.20
 -14  -2 -10    1.90    8.90
   6  -3 -10   10.10    8.90
  -6   3  10    1.80    8.90
  -6   3  10    9.10    8.40
   5  -3 -10   -4.40    6.80
  -5   3  10   -6.50    7.80
  -5   3  10    0.70    7.40
   4  -3 -10   -7.90    6.20
  -4   3  10   -3.60    6.10
  -4   3  10    3.90    7.50
   3  -3 -10   26.80    9.80
  -3   3  10   50.89   11.10
  -3   3  10   39.60    9.90
   2  -3 -10    7.80    6.20
   2  -3 -10   10.70    6.70
  -2   3  10   -8.70    6.00
  -2   3  10    2.70    6.00
   1  -3 -10   19.80    7.60
   1  -3 -10   22.10    7.40
  -1   3  10    8.10    6.70
  -1   3  10    3.10    6.40
   0  -3 -10    4.10    5.40
   0  -3 -10    5.70    5.80
   0   3  10   -3.40    5.90
   0   3  10    0.80    5.50
  -1  -3 -10    5.70    5.60
  -1  -3 -10    7.50    6.60
  -1  -3 -10   -2.50    5.50
   1   3  10    3.00    6.20
   1   3  10   16.20    6.20
  -2  -3 -10    4.30    5.20
  -2  -3 -10    3.60    4.90
  -2  -3 -10    1.20    5.20
  -2  -3 -10   -4.40    4.00
  -3  -3 -10    1.10    4.40
  -3  -3 -10    0.80    4.00
  -3  -3 -10    4.30    5.00
  -3  -3 -10    0.40    4.00
  -3  -3 -10   -1.30    4.30
  -4  -3 -10    5.50    4.40
  -4  -3 -10    4.80    5.00
  -4  -3 -10   -0.30    4.10
  -4  -3 -10    6.00    4.50
  -4  -3 -10    3.20    3.90
  -4  -3 -10   -3.70    3.90
  -5  -3 -10    7.40    4.60
  -5  -3 -10   -2.70    3.30
  -5  -3 -10    2.00    3.70
  -5  -3 -10   -6.10    2.90
  -5  -3 -10   -8.50    4.80
  -5  -3 -10   -2.70    4.50
  -6  -3 -10   -1.70    5.30
  -6  -3 -10    3.50    3.50
  -6  -3 -10    2.20    4.70
  -6  -3 -10    0.30    3.10
  -6  -3 -10    3.20    3.50
  -6  -3 -10    5.70    6.90
  -7  -3 -10   -0.40    3.00
  -7  -3 -10    3.20    5.40
  -7  -3 -10    7.70    5.20
  -7  -3 -10    1.50    4.80
  -7  -3 -10   -0.50    3.40
  -8  -3 -10    5.80    2.50
  -8  -3 -10    8.80    2.60
  -8  -3 -10    5.40    5.60
  -8  -3 -10   10.10    4.20
  -9  -3 -10   -0.70    5.80
  -9  -3 -10   12.10    4.50
   9   3  10    3.10    5.00
 -10  -3 -10    1.80    6.00
 -10  -3 -10   -1.60    4.40
 -11  -3 -10   17.30    6.30
 -11  -3 -10   27.40    9.10
  11   3  10   13.00    6.30
 -12  -3 -10   13.30    6.20
  12   3  10    0.30    5.50
 -13  -3 -10   15.50    9.10
 -13  -3 -10   19.80    7.50
 -14  -3 -10    4.30    7.20
 -14  -3 -10  -11.60    7.70
   6  -4 -10    4.60    8.70
  -6   4  10    5.00    8.80
  -6   4  10   -5.90    7.70
   5  -4 -10    4.10    7.90
  -5   4  10    4.00    9.30
  -5   4  10   -7.30    6.60
   4  -4 -10   -3.20    7.70
  -4   4  10   -8.80    5.70
  -4   4  10   11.70    8.60
   3  -4 -10   29.90    9.40
  -3   4  10   31.60    9.90
  -3   4  10   35.70   10.30
   2  -4 -10   28.30    8.60
  -2   4  10   19.90    8.20
  -2   4  10   28.20    8.80
   1  -4 -10    4.00    6.60
   1  -4 -10   23.60    8.90
  -1   4  10    9.80    6.60
  -1   4  10    2.50    6.30
   0  -4 -10    5.40    5.80
   0  -4 -10   -7.00    5.40
   0   4  10  -10.90    5.30
   0   4  10    2.80    5.40
  -1  -4 -10   -3.90    4.90
  -1  -4 -10   10.60    6.30
  -1  -4 -10    3.70    9.40
  -1  -4 -10   -6.80    5.20
   1   4  10    5.90    5.80
   1   4  10   -8.10    4.70
  -2  -4 -10   -1.70    4.60
  -2  -4 -10    5.20    5.30
  -2  -4 -10    0.10    5.10
  -2  -4 -10   13.70    5.30
  -2  -4 -10   -3.60    4.60
  -3  -4 -10    3.10    5.40
  -3  -4 -10   11.60    7.90
  -3  -4 -10    4.20    5.40
  -3  -4 -10   -1.00    4.10
  -3  -4 -10    0.00    4.70
  -3  -4 -10    8.50    6.10
  -4  -4 -10   16.30    6.60
  -4  -4 -10    6.70    4.30
  -4  -4 -10    7.00    7.40
  -4  -4 -10    7.20    4.40
  -4  -4 -10    3.20    5.00
  -4  -4 -10   -3.40    3.50
  -5  -4 -10   28.50    6.60
  -5  -4 -10   25.00    7.30
  -5  -4 -10   21.10    6.90
  -5  -4 -10   24.40    5.90
  -5  -4 -10   12.80    7.30
  -6  -4 -10    0.80    4.30
  -6  -4 -10    1.60    4.70
  -6  -4 -10    6.30    3.90
  -6  -4 -10    5.30    3.80
  -6  -4 -10    1.10    3.60
  -7  -4 -10    2.40    3.30
  -7  -4 -10    7.40    3.60
  -7  -4 -10    2.80    5.30
  -7  -4 -10    0.60    5.60
  -8  -4 -10    2.20    2.40
  -8  -4 -10    1.20    2.60
  -8  -4 -10    5.50    4.00
  -8  -4 -10   -0.30    5.80
   8   4  10    0.50    5.00
  -9  -4 -10   17.30    5.70
  -9  -4 -10   22.40    8.40
   9   4  10   34.10    7.20
 -10  -4 -10   -1.00    7.00
 -10  -4 -10   -0.80    4.20
  10   4  10    0.00    5.40
 -11  -4 -10   12.00    5.90
 -11  -4 -10    4.50    7.20
 -12  -4 -10   13.10    8.30
 -12  -4 -10    4.40    5.80
 -13  -4 -10   11.60    6.70
 -13  -4 -10    5.40    9.10
   6  -5 -10    4.20    9.00
  -6   5  10    9.10    8.60
   5  -5 -10    1.20    7.90
  -5   5  10   -8.90    8.20
  -5   5  10   -0.40    8.10
   4  -5 -10   15.40    8.60
  -4   5  10   -9.10   10.70
  -4   5  10   -1.50    6.90
   3  -5 -10   -0.40    7.30
  -3   5  10   16.50    7.90
  -3   5  10    6.10    7.40
   2  -5 -10   30.70    9.80
  -2   5  10   58.49   11.40
  -2   5  10   24.60    9.70
   1  -5 -10    6.50    6.90
  -1   5  10   10.90    7.70
  -1   5  10   16.10    7.50
   0  -5 -10    3.20    5.80
   0   5  10    5.60    5.70
   0   5  10   12.40    8.00
  -1  -5 -10    3.20    4.80
  -1  -5 -10    6.10    6.30
   1   5  10   14.70    7.10
  -2  -5 -10   -2.00    4.60
  -2  -5 -10   10.10    7.90
  -2  -5 -10    1.60    5.00
  -2  -5 -10    1.60    4.70
   2   5  10   -9.50    6.00
  -3  -5 -10   10.20    5.90
  -3  -5 -10    0.10    4.50
  -3  -5 -10    5.00    5.80
  -3  -5 -10    1.10    4.90
  -3  -5 -10    5.30    4.80
  -3  -5 -10   10.10    8.10
  -4  -5 -10    0.80    4.80
  -4  -5 -10   -1.40    3.90
  -4  -5 -10   -0.40    5.10
  -4  -5 -10   -6.00    3.90
  -4  -5 -10    3.90    5.10
  -5  -5 -10   55.69   11.50
  -5  -5 -10   65.59   10.70
  -5  -5 -10   52.99   11.40
  -5  -5 -10   77.59   11.50
  -5  -5 -10   72.79   11.10
  -6  -5 -10    3.20    5.50
  -6  -5 -10    1.60    3.90
  -6  -5 -10   11.10    4.70
  -6  -5 -10    7.20    4.30
  -6  -5 -10   19.40    6.90
  -7  -5 -10   -7.10    2.80
  -7  -5 -10    0.40    3.80
  -7  -5 -10    2.50    3.80
  -7  -5 -10   -2.90    4.60
  -7  -5 -10   -7.00    4.90
  -8  -5 -10    7.90    3.10
  -8  -5 -10    9.30    6.20
  -8  -5 -10    7.20    4.50
  -8  -5 -10    6.30    2.60
   8   5  10    6.10    5.70
  -9  -5 -10   13.70    7.30
  -9  -5 -10    8.50    5.00
   9   5  10   10.40    6.00
 -10  -5 -10    5.50    5.60
 -10  -5 -10   11.10    7.50
 -11  -5 -10   -6.40    6.30
 -11  -5 -10   -0.70    5.50
 -12  -5 -10   17.90    9.50
 -12  -5 -10   17.70    7.00
 -13  -5 -10   -7.40    7.30
 -13  -5 -10    2.80    6.30
   5  -6 -10    4.80    7.90
  -5   6  10   -4.80    7.30
   4  -6 -10    7.90    8.50
  -4   6  10    6.10    8.40
  -4   6  10    9.80    7.50
   3  -6 -10   11.80    7.90
  -3   6  10    9.80    8.10
  -3   6  10   13.00    8.10
   2  -6 -10   -5.60    6.00
  -2   6  10   -2.50    5.90
  -2   6  10   -8.20    6.80
   1  -6 -10    3.60    6.20
  -1   6  10   11.20    7.20
  -1   6  10    0.70    6.90
   0  -6 -10   -5.50    4.90
   0  -6 -10    2.60    6.50
   0   6  10   -0.60    6.80
  -1  -6 -10   -3.80    5.40
  -1  -6 -10   -6.50    4.90
   1   6  10   -5.90    6.40
  -2  -6 -10   -4.80    4.10
  -2  -6 -10   22.80    8.80
  -2  -6 -10   -3.60    4.50
   2   6  10  -11.80    5.50
  -3  -6 -10   10.10    5.70
  -3  -6 -10    1.80    5.30
  -3  -6 -10    9.40    5.50
  -3  -6 -10    0.40    5.70
  -4  -6 -10   12.10    6.10
  -4  -6 -10   15.30    6.30
  -4  -6 -10   10.40    7.30
  -4  -6 -10   10.40    4.90
  -5  -6 -10   26.80    8.20
  -5  -6 -10   38.50    7.20
  -5  -6 -10   31.50    7.70
  -5  -6 -10   25.20   12.70
  -5  -6 -10   42.20    7.90
  -6  -6 -10    4.90    4.40
  -6  -6 -10    3.60    4.70
  -6  -6 -10   -4.90    3.50
  -6  -6 -10    4.90    5.30
  -7  -6 -10   11.10    5.40
  -7  -6 -10   11.50    6.50
  -7  -6 -10    6.50    3.60
  -7  -6 -10    5.10    4.30
  -8  -6 -10    7.80    3.20
  -8  -6 -10   10.40    6.60
  -8  -6 -10    3.80    4.50
  -8  -6 -10    9.30    4.10
  -9  -6 -10   -4.90    6.20
  -9  -6 -10    3.40    5.00
 -10  -6 -10   10.10    7.40
 -10  -6 -10    7.00    5.50
 -11  -6 -10   -2.60    5.20
 -11  -6 -10    5.60    7.80
 -12  -6 -10    8.40    8.50
 -12  -6 -10   10.60    6.50
 -13  -6 -10    1.40    8.00
 -13  -6 -10    9.50    6.80
   5  -7 -10   -4.20    8.50
  -5   7  10   -0.20    7.40
  -5   7  10   -4.40    8.30
   4  -7 -10    4.50    8.50
  -4   7  10   -5.50    8.10
  -4   7  10   20.30    9.00
   3  -7 -10   19.40   12.20
  -3   7  10   16.50    9.00
  -3   7  10   25.40   13.40
   2  -7 -10   -0.50    6.90
  -2   7  10    6.00    7.30
  -2   7  10    3.50    7.00
   1  -7 -10   12.10    7.40
  -1   7  10   14.60    8.90
   0  -7 -10   12.50    7.10
   0  -7 -10   10.40    6.50
   0   7  10    3.40    7.70
  -1  -7 -10    7.30    6.30
  -1  -7 -10   10.60    5.80
   1   7  10   11.40    7.00
  -2  -7 -10   -6.80    5.20
  -2  -7 -10   -2.40    5.00
   2   7  10   -0.40    6.40
  -3  -7 -10   -4.30    5.10
  -3  -7 -10    0.40    4.90
  -3  -7 -10    1.00    5.70
  -3  -7 -10    2.00    4.80
  -4  -7 -10   38.20    9.90
  -4  -7 -10   49.90   10.60
  -4  -7 -10   53.49    9.60
  -4  -7 -10   70.59   11.00
  -5  -7 -10   15.10    7.40
  -5  -7 -10   30.20    6.90
  -5  -7 -10   17.40    6.40
  -5  -7 -10    5.60    5.90
  -6  -7 -10    5.60    4.10
  -6  -7 -10   -7.70    4.50
  -6  -7 -10    4.00    5.10
  -6  -7 -10   -1.80    5.40
  -7  -7 -10    9.80    4.10
  -7  -7 -10    1.00    4.50
  -7  -7 -10    5.90    4.80
  -7  -7 -10   11.80    6.90
  -8  -7 -10   20.30    4.70
  -8  -7 -10   16.80    7.20
  -8  -7 -10   19.10    6.60
  -8  -7 -10   24.00    5.90
  -9  -7 -10   28.60    7.10
  -9  -7 -10    3.40    6.20
  -9  -7 -10   12.50    6.80
  -9  -7 -10   14.50    3.60
 -10  -7 -10    0.00    5.30
 -10  -7 -10    3.80    9.40
 -11  -7 -10   -1.20    4.90
 -11  -7 -10    1.10    7.70
 -12  -7 -10   15.60    8.60
 -12  -7 -10    3.50    6.20
   4  -8 -10    5.60    9.00
  -4   8  10   30.00   10.60
  -4   8  10    3.00    8.40
   3  -8 -10    6.60    8.60
  -3   8  10    1.60    7.40
   2  -8 -10   10.20    8.00
  -2   8  10   19.90    9.70
   1  -8 -10    3.80    6.90
   1  -8 -10   -0.80    6.20
  -1   8  10   -1.20    6.90
   0  -8 -10   14.90    7.50
   0  -8 -10   23.30    7.40
   0   8  10    9.40    9.50
  -1  -8 -10   14.00    7.70
  -1  -8 -10   31.30    8.20
   1   8  10   42.40   11.40
  -2  -8 -10   -2.40    4.90
  -2  -8 -10    8.00    6.10
   2   8  10   -2.90    6.80
  -3  -8 -10    4.00    6.00
  -3  -8 -10    1.60    5.70
  -3  -8 -10    0.80    5.20
  -4  -8 -10    2.20    4.80
  -4  -8 -10   17.20    7.80
  -4  -8 -10    0.30    5.30
  -4  -8 -10    6.70    5.40
  -5  -8 -10   55.09   11.20
  -5  -8 -10   83.19   12.60
  -5  -8 -10   67.19   11.10
  -5  -8 -10   59.49   12.30
  -6  -8 -10    7.60    5.70
  -6  -8 -10    1.70    5.20
  -6  -8 -10    7.30    5.10
  -6  -8 -10   -1.50    5.30
  -7  -8 -10    8.50    5.30
  -7  -8 -10   -1.20    6.20
  -7  -8 -10    3.10    5.10
  -7  -8 -10    5.50    3.90
  -8  -8 -10    9.30    3.90
  -8  -8 -10    5.80    5.60
  -8  -8 -10   12.20    7.20
  -8  -8 -10    6.70    5.30
  -9  -8 -10   34.50    5.70
  -9  -8 -10   44.60   10.60
  -9  -8 -10   29.80    7.80
  -9  -8 -10   18.70    6.40
 -10  -8 -10    1.00    6.70
 -10  -8 -10    3.30    2.90
 -10  -8 -10    1.70    3.40
 -10  -8 -10    1.80    5.70
 -11  -8 -10   16.10    9.30
 -11  -8 -10    7.30    6.20
 -12  -8 -10    8.90    8.30
 -12  -8 -10    0.80    6.50
   4  -9 -10   12.10    9.30
  -4   9  10   -5.40    8.10
  -4   9  10   -6.70    8.20
   3  -9 -10   -0.20    7.60
   3  -9 -10   -5.30    6.00
  -3   9  10    8.60    8.80
   2  -9 -10    5.70    6.80
   2  -9 -10    8.90    7.80
  -2   9  10    0.40    8.80
   1  -9 -10    8.30    8.10
   1  -9 -10   -7.30   10.40
  -1   9  10   23.50   10.10
   0  -9 -10   -2.00    6.10
   0  -9 -10    4.00    5.80
   0   9  10   -7.50    7.80
  -1  -9 -10    6.80    6.30
  -1  -9 -10    6.00    6.60
   1   9  10    9.10    8.50
  -2  -9 -10    4.50    5.80
  -2  -9 -10   -7.00    5.80
   2   9  10   16.00    9.50
  -3  -9 -10    4.70    6.60
  -3  -9 -10    3.50    5.60
  -3  -9 -10   -2.40    5.20
  -4  -9 -10    3.40    6.60
  -4  -9 -10    8.70    6.30
  -4  -9 -10    9.00    5.60
  -5  -9 -10   32.00    9.30
  -5  -9 -10   26.40    7.20
  -5  -9 -10   45.20    9.40
  -5  -9 -10   26.60    8.10
  -6  -9 -10    9.20    6.70
  -6  -9 -10    0.50    4.40
  -6  -9 -10   16.70    7.70
  -6  -9 -10    4.60    4.90
  -7  -9 -10   -1.20    4.80
  -7  -9 -10   12.20    9.20
  -7  -9 -10   -2.40    6.00
  -8  -9 -10   -0.10    7.20
  -8  -9 -10    3.60    4.20
  -8  -9 -10   -6.50    5.00
  -8  -9 -10    4.20    5.10
  -9  -9 -10    2.20    5.20
  -9  -9 -10    3.90    3.90
  -9  -9 -10   11.30    7.70
  -9  -9 -10   -1.70    4.70
 -10  -9 -10    5.80    8.20
 -10  -9 -10    9.30    6.30
 -10  -9 -10    3.70    3.90
 -10  -9 -10   -2.30    4.90
 -11  -9 -10    4.20    6.30
 -11  -9 -10   -3.40    7.10
   3 -10 -10   21.10    9.80
   3 -10 -10    2.30    7.50
  -3  10  10    0.50    7.40
   2 -10 -10    9.00    7.70
   2 -10 -10   11.40    8.80
  -2  10  10   10.10    9.60
   1 -10 -10    5.60    6.60
   1 -10 -10   16.90    8.30
  -1  10  10    6.60    9.30
   0 -10 -10    2.00    6.60
   0 -10 -10    0.20    7.00
   0  10  10   -4.40    8.50
  -1 -10 -10    6.80    6.50
  -1 -10 -10    5.60    8.10
   1  10  10    7.10    9.90
  -2 -10 -10    0.60    5.90
  -2 -10 -10    4.10    5.70
   2  10  10   -5.40    7.50
  -3 -10 -10   13.80    7.50
  -3 -10 -10    9.40    6.40
  -3 -10 -10   14.30    6.40
  -4 -10 -10    5.20    5.70
  -4 -10 -10   13.70    8.00
  -4 -10 -10    9.90    6.40
  -5 -10 -10   -5.00    5.90
  -5 -10 -10   -1.80    5.30
  -5 -10 -10    4.00    5.20
  -6 -10 -10   -5.80    6.50
  -6 -10 -10   -1.70    5.00
  -6 -10 -10    5.80    4.70
  -7 -10 -10    2.30    5.00
  -7 -10 -10    1.60    6.50
  -7 -10 -10   12.80   10.10
  -7 -10 -10   -0.60    5.70
  -8 -10 -10    5.10    4.80
  -8 -10 -10    5.60    6.20
  -8 -10 -10    3.10    6.30
  -9 -10 -10   -7.70    6.90
  -9 -10 -10    2.80    4.30
  -9 -10 -10   10.70    6.70
  -9 -10 -10   -0.40    5.50
 -10 -10 -10    3.10    6.00
 -10 -10 -10   -4.80    6.00
 -10 -10 -10    1.70    5.80
 -10 -10 -10   -0.30    4.20
   2 -11 -10   11.40    9.10
   2 -11 -10   23.90    9.30
  -2  11  10   18.10   10.60
   1 -11 -10   -4.70    7.20
   1 -11 -10   10.20    8.50
  -1  11  10  -12.60    8.30
   0 -11 -10   18.40    8.00
   0 -11 -10   16.90    8.10
   0  11  10    3.80    8.70
  -1 -11 -10    1.10    7.20
  -1 -11 -10    0.10    5.40
   1  11  10   -2.40    8.10
  -2 -11 -10    9.20    6.60
  -2 -11 -10    8.00    7.30
   2  11  10   -6.10    8.10
  -3 -11 -10   -1.30    6.40
  -3 -11 -10   -2.00    5.50
  -3 -11 -10    3.50    7.10
  -4 -11 -10    6.10    6.50
  -4 -11 -10   10.00    5.90
  -4 -11 -10    3.60    7.30
  -5 -11 -10   27.60    9.00
  -5 -11 -10   35.10   10.10
  -5 -11 -10   42.40    9.10
  -6 -11 -10   10.40    6.10
  -6 -11 -10    0.00    6.20
  -6 -11 -10   11.60    6.00
  -7 -11 -10    3.50    4.70
  -7 -11 -10    1.80    7.40
  -7 -11 -10    2.60    6.40
  -8 -11 -10    0.90    7.70
  -8 -11 -10   18.20    7.20
  -8 -11 -10    4.10    5.00
  -9 -11 -10   12.20    6.10
  -9 -11 -10   15.30    7.30
  -9 -11 -10   20.20    9.20
   0 -12 -10   -7.30    5.70
   0 -12 -10   14.30    8.50
   0  12  10    8.40   10.50
  -1 -12 -10    4.60    6.60
  -1 -12 -10    8.10    7.50
   1  12  10   -6.00    9.30
  -2 -12 -10    2.70    6.90
  -2 -12 -10    0.40    9.40
   2  12  10    9.60    9.50
  -3 -12 -10    6.20    6.80
  -3 -12 -10    0.30    6.80
  -3 -12 -10    5.80    7.30
  -4 -12 -10   -3.90    6.00
  -4 -12 -10   -0.60    7.30
  -4 -12 -10   -0.60    5.30
  -5 -12 -10   18.70    7.80
  -5 -12 -10   24.60   10.10
  -5 -12 -10   25.40    8.40
  -6 -12 -10   23.10    8.20
  -6 -12 -10   20.50    9.30
  -6 -12 -10    6.70    6.20
  -7 -12 -10    0.10    6.60
  -7 -12 -10   13.80    6.30
  -7 -12 -10   14.50    7.40
  -8 -12 -10   -4.00    8.00
  -8 -12 -10   12.70    7.10
  -8 -12 -10   11.30    6.30
  -3 -13 -10   -4.70    4.90
  -3 -13 -10    4.00    6.70
  -3 -13 -10  -14.80    6.20
  -4 -13 -10    1.70    6.00
  -4 -13 -10   12.70    9.00
  -5 -13 -10    9.30    6.80
  -5 -13 -10    7.30    8.10
  -5 -13 -10   -5.40    6.00
  -1   9 -11    2.30    6.20
   1  -9  11   -2.50    6.90
   1  -9  11    1.80    6.70
  -2   9 -11   -0.30    4.70
   2  -9  11   -8.10    5.60
   2  -9  11    2.10    5.70
  -3   9 -11    2.30    4.40
   3  -9  11    0.70    6.20
   3  -9  11    6.80    4.50
   4  -9  11    9.50    6.20
   5  -9  11    5.90    8.50
  -6   9 -11    6.10    4.50
  -7   9 -11   -2.30    5.50
   7  -9  11   -1.80    6.30
  -1  -8  11   -3.60    7.30
  -1  -8  11    7.60    8.00
   0  -8  11   22.10    8.10
   0  -8  11    5.40    7.50
  -1   8 -11   12.20   11.10
   1  -8  11   15.60    7.70
   1  -8  11   26.80   10.90
  -2   8 -11    5.20    4.90
   2  -8  11   -0.10    6.30
   2  -8  11    4.40    5.60
  -3   8 -11    1.20    4.00
   3  -8  11    2.40    4.20
   4  -8  11   12.70    7.30
   5  -8  11   23.20    7.60
  -6   8 -11    4.80    4.70
   6  -8  11   -0.30    6.50
   6  -8  11    4.60    4.60
  -7   8 -11    4.60    6.30
   7  -8  11    3.60    5.00
   7  -8  11   -3.80    6.10
  -8   8 -11    7.90    7.10
   8  -8  11   18.50    7.30
   8  -8  11    4.60    6.70
  -9   8 -11   30.80   10.20
   9  -8  11   42.40   10.00
  -2  -7  11    3.00    7.90
  -2  -7  11   -4.30    7.00
  -1  -7  11    3.10    7.30
  -1  -7  11   -2.00    6.80
   0   7 -11   16.60    7.60
   0  -7  11   25.00    8.10
   0  -7  11   27.30    9.00
  -1   7 -11   -0.70    5.60
   1  -7  11    3.40    7.20
   1  -7  11   -6.60    8.70
  -2   7 -11   -1.00    4.20
   2  -7  11    5.40    5.20
   2  -7  11   -0.30    5.80
  -3   7 -11    4.00    3.50
   3  -7  11   -6.40    5.20
   3  -7  11    7.90    4.20
   4  -7  11   11.10    6.40
   5  -7  11   28.40    8.70
  -6   7 -11    2.20    4.70
   6  -7  11    2.20    4.80
   6  -7  11    1.70    5.30
  -7   7 -11   32.40    8.00
   7  -7  11   26.00    8.50
   7  -7  11   15.80    6.20
  -8   7 -11    1.60    6.70
   8  -7  11    4.30    6.30
   8  -7  11    2.30    6.40
  -9   7 -11   17.10    9.50
   9  -7  11   38.50    8.60
 -10   7 -11   -7.80    7.60
  10  -7  11    5.80    6.70
  -3  -6  11   -1.10    7.80
  -3  -6  11   10.70    8.50
  -2  -6  11    0.50    6.40
  -2  -6  11    7.80    7.50
  -1  -6  11   15.10    8.40
  -1  -6  11    1.80    7.30
   0   6 -11    0.40    6.30
   0  -6  11   10.90    6.70
   0  -6  11    2.80   12.60
  -1   6 -11   14.90    6.20
   1  -6  11    4.80    7.00
   1  -6  11   33.20    7.50
  -2   6 -11   -6.60    4.10
   2  -6  11    1.80    6.90
   2  -6  11   -3.10    4.70
  -3   6 -11    7.90    3.70
   3  -6  11    5.50    4.30
   3  -6  11    8.80    6.10
   4  -6  11   -3.20    4.90
  -5   6 -11   29.70    6.10
   5  -6  11   32.40    8.90
  -6   6 -11   -2.30    4.90
   6  -6  11   -0.50    4.80
   6  -6  11   -1.40    4.60
  -7   6 -11   10.90    6.70
   7  -6  11   -3.40    4.50
   7  -6  11   -1.90    4.90
  -8   6 -11   36.00    9.20
   8  -6  11   21.50    6.90
   8  -6  11   16.60    7.50
  -9   6 -11   -0.90    7.60
   9  -6  11    0.00    6.00
 -10   6 -11    0.30    8.50
 -10   6 -11   22.90   12.90
  10  -6  11    2.60    6.10
 -11   6 -11    6.30    7.70
 -11   6 -11   -0.10    9.10
  11  -6  11   12.90    6.60
  -3  -5  11   14.40    8.30
  -3  -5  11   16.00    8.30
  -2  -5  11   11.20    7.10
  -2  -5  11   -0.60    6.90
  -1  -5  11   10.40    7.20
   0   5 -11    7.80    6.40
   0  -5  11   11.30    7.60
   0  -5  11    6.20    6.40
  -1   5 -11    9.60    6.10
   1  -5  11   22.50    8.20
   1  -5  11   24.80    7.00
  -2   5 -11   -4.20    4.00
   2  -5  11    0.30    4.60
   2  -5  11    2.30    6.10
  -3   5 -11    6.50    3.40
   3  -5  11    0.10    4.00
   3  -5  11   -4.20    5.50
  -4   5 -11   75.19   10.40
   4  -5  11   82.79   13.70
  -5   5 -11    1.20    4.60
  -5   5 -11    5.70    4.90
   5  -5  11    6.70    5.50
  -6   5 -11    6.10    5.50
   6  -5  11    7.00    5.00
   6  -5  11    3.70    4.80
  -7   5 -11   -1.30    6.10
   7  -5  11   -2.80    4.70
   7  -5  11   -2.70    4.40
  -8   5 -11   35.00    8.60
  -8   5 -11   21.90    8.40
   8  -5  11   26.10    7.90
   8  -5  11   37.70    8.20
  -9   5 -11    5.90    5.90
  -9   5 -11   -9.20    7.30
   9  -5  11   10.80    5.50
 -10   5 -11    4.70    5.80
 -10   5 -11   -0.80    7.60
  10  -5  11   -2.20    5.00
 -11   5 -11    9.20    6.30
 -11   5 -11    3.40    8.60
  11  -5  11   -4.00    4.40
  -4  -4  11    5.50    9.30
  -4  -4  11    2.80    7.00
  -3  -4  11   -5.00    6.80
  -3  -4  11    9.80    7.60
  -2  -4  11    5.50    7.50
  -2  -4  11    2.60    6.70
  -1  -4  11   -4.30    5.90
  -1  -4  11    1.10    5.40
   0   4 -11   32.60    9.00
   0  -4  11   36.50    9.10
   0  -4  11   33.40    9.10
  -1   4 -11    3.40    5.60
   1  -4  11   -0.60    4.80
   1  -4  11    4.20    5.70
  -2   4 -11    1.10    4.20
   2  -4  11    9.70    7.10
   2  -4  11    7.10    4.90
  -3   4 -11    1.20    3.80
   3  -4  11   -4.50    5.60
   3  -4  11   -7.40    3.70
  -4   4 -11   39.70    7.40
  -4   4 -11   41.20    6.70
   4  -4  11   61.99   10.50
  -5   4 -11   20.40    6.20
  -5   4 -11   31.40    6.80
   5  -4  11   25.00    7.90
  -6   4 -11    4.60    6.00
  -6   4 -11    2.20    5.40
   6  -4  11    1.60    4.90
  -7   4 -11   11.50    6.40
  -7   4 -11   14.80    6.10
   7  -4  11   13.20    5.90
   7  -4  11    1.90    4.70
  -8   4 -11    1.10    6.70
  -8   4 -11   -6.60    5.90
   8  -4  11    5.20    5.50
   8  -4  11    3.10    5.30
  -9   4 -11   32.30    9.40
  -9   4 -11   29.30    7.40
   9  -4  11   22.80    6.50
 -10   4 -11   -0.50    7.90
 -10   4 -11   14.30    5.60
  10  -4  11    8.70    4.70
 -11   4 -11   -1.90    8.70
 -11   4 -11   11.30    5.70
  11  -4  11   14.20    5.20
 -12   4 -11    0.00    8.60
 -12   4 -11    1.40    4.80
  12  -4  11    1.80    4.50
   5   3 -11    2.80    6.20
   4   3 -11    7.80    5.90
  -4  -3  11   13.10    8.50
  -4  -3  11    3.10    7.70
   3   3 -11    1.30    4.60
  -3  -3  11   14.40    8.40
  -3  -3  11    5.20    7.70
  -2  -3  11   12.40    7.60
  -2  -3  11    6.40    7.10
  -1  -3  11   12.60    7.40
  -1  -3  11    5.40    6.40
   0   3 -11    2.90    6.30
   0  -3  11   19.50    6.70
   0  -3  11   16.80    6.50
  -1   3 -11   17.30    6.50
   1  -3  11   17.30    6.90
   1  -3  11   14.40    6.50
  -2   3 -11    4.30    3.50
  -2   3 -11    8.90    3.40
  -2   3 -11   -1.30    4.40
   2  -3  11    6.00    5.50
   2  -3  11    0.20    4.60
  -3   3 -11    6.80    4.10
  -3   3 -11    4.30    4.40
  -3   3 -11   18.20    4.50
   3  -3  11    7.60    4.50
   3  -3  11    8.40    5.70
  -4   3 -11    0.60    4.00
  -4   3 -11   -5.40    4.10
  -4   3 -11   -1.90    5.60
   4  -3  11    1.50    5.30
  -5   3 -11   21.60    6.80
  -5   3 -11   34.10    7.70
  -5   3 -11   21.00    6.90
   5  -3  11   40.10    8.10
  -6   3 -11   -2.10    4.30
  -6   3 -11    2.90    5.20
   6  -3  11    3.00    4.80
  -7   3 -11    3.20    4.60
   7  -3  11    6.20    5.60
   7  -3  11    8.60    5.60
  -8   3 -11   15.00    7.40
  -8   3 -11    9.90    4.70
   8  -3  11    6.90    5.50
   8  -3  11   15.30    5.50
  -9   3 -11    3.90    7.50
  -9   3 -11    6.50    5.00
   9  -3  11   19.00    5.60
 -10   3 -11   -3.90    7.10
 -10   3 -11    3.90    4.30
  10  -3  11    7.20    4.70
 -11   3 -11    1.00    4.00
 -11   3 -11   -9.40    7.50
  11  -3  11    0.20    3.40
 -12   3 -11   -7.00    8.00
   5   2 -11   -1.50    7.10
  -5  -2  11   -7.00    7.40
  -5  -2  11    4.10    5.60
  -5  -2  11   -1.10    7.30
   4   2 -11    1.00    6.70
  -4  -2  11   28.60    9.20
  -4  -2  11   -4.80    5.00
  -4  -2  11    2.30    8.50
   3   2 -11   18.80    6.50
  -3  -2  11   13.20    7.90
  -3  -2  11   14.70    8.20
   2   2 -11    2.40    4.90
  -2  -2  11    3.90    7.10
  -2  -2  11   13.00    7.10
   1   2 -11    4.20    3.60
   1   2 -11   -4.80    6.30
  -1  -2  11    7.00    6.90
  -1  -2  11   -2.80    5.80
   0   2 -11    4.80    3.80
   0   2 -11   12.20    7.20
   0   2 -11   13.90    8.00
   0  -2  11    6.50    6.10
   0  -2  11    8.60    6.40
  -1   2 -11   33.40    6.30
  -1   2 -11   28.10    8.90
   1  -2  11   34.40    9.30
   1  -2  11   30.60    8.40
  -2   2 -11    0.30    3.70
  -2   2 -11    4.20    3.90
  -2   2 -11    5.90    5.40
   2  -2  11    1.40    5.00
   2  -2  11    6.40    5.70
  -3   2 -11   -2.70    3.70
  -3   2 -11   -0.60    4.50
  -3   2 -11   -2.10    4.10
   3  -2  11    7.10    4.70
   3  -2  11    8.40    5.40
  -4   2 -11    8.70    3.80
  -4   2 -11    0.90    4.10
  -4   2 -11    0.90    4.20
  -4   2 -11    2.70    4.80
  -4   2 -11    2.20    4.00
   4  -2  11   -0.50    4.40
  -5   2 -11   20.00    3.80
  -5   2 -11   16.40    6.30
  -5   2 -11   11.40    5.40
  -5   2 -11   13.40    4.20
  -5   2 -11    7.70    5.50
   5  -2  11   13.80    5.60
  -6   2 -11   -3.10    4.00
  -6   2 -11    5.40    5.30
   6  -2  11    1.40    4.50
  -7   2 -11   -1.90    4.10
  -7   2 -11   -5.60    5.40
   7  -2  11    0.10    8.90
   7  -2  11    5.60    4.20
  -8   2 -11   44.40    8.10
  -8   2 -11   41.20    9.90
   8  -2  11   53.69    8.50
   8  -2  11   37.80    9.00
  -9   2 -11    2.60    3.90
  -9   2 -11    0.50    6.70
   9  -2  11    3.60    4.20
 -10   2 -11    0.30    7.50
 -10   2 -11    4.50    3.90
  10  -2  11    3.70    3.90
 -11   2 -11    2.70    8.10
 -12   2 -11    5.90    9.50
 -13   2 -11   14.60   10.10
   5   1 -11    4.60    8.50
  -5  -1  11    2.10    8.30
  -5  -1  11    4.00    6.20
  -5  -1  11    4.80    7.50
   4   1 -11    5.70    7.00
  -4  -1  11    3.00    7.70
  -4  -1  11   -8.60    6.50
  -4  -1  11    5.10    6.10
   3   1 -11   27.40    7.70
  -3  -1  11   15.00    7.80
  -3  -1  11   27.00    7.20
   2   1 -11    8.30    5.70
  -2  -1  11   14.30    7.60
  -2  -1  11    7.70    5.70
  -2  -1  11    9.10    7.20
   1   1 -11    0.40    4.80
  -1  -1  11    0.40    6.10
  -1  -1  11  -10.20    5.90
   0   1 -11   45.30   10.40
   0   1 -11   36.50    7.80
   0   1 -11   56.19    8.80
   0  -1  11   54.59   10.80
   0  -1  11   55.29   10.30
  -1   1 -11    6.70    4.60
  -1   1 -11   18.90    4.90
  -1   1 -11    4.30    6.50
   1  -1  11   12.50    6.60
   1  -1  11    2.00    5.30
  -2   1 -11   23.20    5.80
  -2   1 -11   23.20    6.30
  -2   1 -11   25.90    7.40
   2  -1  11   35.10    7.40
   2  -1  11   37.00    8.30
  -3   1 -11    0.90    5.90
  -3   1 -11    0.10    5.00
  -3   1 -11    8.60    5.10
  -3   1 -11    7.70    5.00
   3  -1  11    2.90    5.40
   3  -1  11    7.90    5.00
  -4   1 -11   43.00    9.50
  -4   1 -11   44.30    9.40
  -4   1 -11   83.49    9.40
  -4   1 -11   56.99    9.70
  -4   1 -11   44.50   10.50
   4  -1  11   65.99   10.90
  -5   1 -11  137.79   20.20
  -5   1 -11  123.39   19.40
  -5   1 -11  181.08   21.10
  -5   1 -11  157.98   19.10
   5  -1  11  171.98   20.80
  -6   1 -11   -3.10    4.60
  -6   1 -11    2.30    2.70
  -6   1 -11   -8.50    4.70
  -6   1 -11   -1.00    3.70
  -6   1 -11    1.40    3.30
   6  -1  11    3.50    4.90
  -7   1 -11   -1.10    5.50
  -7   1 -11    4.00    2.20
  -7   1 -11    8.50    3.40
  -7   1 -11   -4.10    3.70
   7  -1  11    6.00    5.30
   7  -1  11   -2.30    4.40
  -8   1 -11    3.00    6.10
  -8   1 -11    3.00    3.80
   8  -1  11    1.50    4.00
   8  -1  11    7.00    5.90
  -9   1 -11   37.50    9.90
  -9   1 -11   44.40    7.20
   9  -1  11   46.80    7.50
 -10   1 -11    7.50    7.60
 -10   1 -11    3.40    2.80
 -11   1 -11   -5.80    7.30
 -12   1 -11    7.40    4.40
 -12   1 -11   13.60    8.90
 -13   1 -11   10.30    5.20
 -13   1 -11   20.10   10.30
  -5   0  11    6.20    8.00
  -5   0  11    1.10    6.70
  -5   0  11   10.60    8.70
   4   0 -11    5.10    7.60
  -4   0  11   -5.90    6.80
  -4   0  11    7.20    6.10
  -4   0  11   -6.50    6.60
   3   0 -11    0.20    6.80
  -3   0  11    1.90    6.10
  -3   0  11    0.80    7.50
  -3   0  11  -10.00    6.40
   2   0 -11    4.90    6.00
  -2   0  11    5.80    6.80
  -2   0  11    9.00    6.70
  -2   0  11    9.30    5.80
   1   0 -11   -2.20    5.00
  -1   0  11   -1.30    5.50
  -1   0  11   -2.10    6.50
   0   0 -11   31.80    7.00
   0   0 -11   41.50    7.60
   0   0 -11   30.70    9.10
   0   0  11   36.00    8.80
   0   0  11   18.00    8.20
  -1   0 -11   41.90    9.30
  -1   0 -11   47.40    8.50
  -1   0 -11   37.10    8.20
   1   0  11   51.99   10.10
   1   0  11   56.19   10.10
  -2   0 -11   12.20    6.10
  -2   0 -11   15.30    5.70
  -2   0 -11   13.50    5.10
   2   0  11   24.80    6.80
   2   0  11   10.30    6.40
  -3   0 -11   -3.60    3.80
  -3   0 -11   -2.40    5.10
  -3   0 -11   10.50    5.30
  -3   0 -11   10.20    5.50
   3   0  11    5.50    5.50
  -4   0 -11   20.30    5.90
  -4   0 -11   17.30    6.30
  -4   0 -11   22.40    5.60
  -4   0 -11   14.80    6.60
  -4   0 -11   36.50    6.80
   4   0  11   28.20    7.40
  -5   0 -11  307.97   34.60
  -5   0 -11  249.28   33.80
  -5   0 -11  262.57   34.80
  -5   0 -11  299.87   33.60
  -5   0 -11  226.48   34.10
   5   0  11  277.87   34.30
  -6   0 -11   38.50    6.90
  -6   0 -11   33.50    7.60
  -6   0 -11   69.99   10.10
  -6   0 -11   48.00    8.20
   6   0  11   50.09    8.50
  -7   0 -11   -2.00    3.20
  -7   0 -11    3.00    2.80
  -7   0 -11    5.50    6.00
  -7   0 -11    0.20    3.80
   7   0  11   15.50    5.10
  -8   0 -11   17.70    7.30
  -8   0 -11   16.70    4.70
  -8   0 -11   24.50    8.60
  -8   0 -11   19.20    4.10
   8   0  11   15.50    4.70
  -9   0 -11   76.89   13.40
  -9   0 -11   63.49   10.00
  -9   0 -11   71.89    9.70
  -9   0 -11   88.49   14.30
 -10   0 -11   45.50    7.00
 -10   0 -11   24.50    9.60
 -10   0 -11   34.60    7.20
 -11   0 -11    6.30    7.30
 -11   0 -11   -3.20    4.10
 -12   0 -11   26.70   10.20
 -12   0 -11   17.20    6.20
 -13   0 -11   -7.10    7.90
 -13   0 -11    8.30    5.40
  13   0  11    3.50    5.00
  -5   1  11   -5.70    7.50
  -5   1  11    1.80    8.60
  -5   1  11   -7.70    5.70
  -4   1  11   21.20    8.00
  -4   1  11    6.10    7.60
  -4   1  11    5.20    8.60
   3  -1 -11   25.80    8.30
  -3   1  11   25.30    8.50
  -3   1  11   11.80    7.20
  -3   1  11   -3.20    7.20
  -2   1  11   22.50    9.30
  -2   1  11   20.20    7.90
  -2   1  11   11.80    7.80
   1  -1 -11    3.50    5.80
  -1   1  11    0.60    5.80
  -1   1  11    6.60    6.10
  -1   1  11    3.80    6.80
   0  -1 -11    4.60    5.80
   0   1  11    2.50    5.80
   0   1  11    5.40    6.40
  -1  -1 -11   93.39   14.00
  -1  -1 -11   82.09   12.90
  -1  -1 -11   78.89   12.90
   1   1  11   83.69   13.10
   1   1  11   61.49   13.00
  -2  -1 -11    2.70    4.40
  -2  -1 -11    5.00    4.50
   2   1  11   13.70    6.40
   2   1  11   11.40    6.90
  -3  -1 -11   13.80    7.00
  -3  -1 -11   20.80    6.80
  -3  -1 -11    8.40    5.50
  -3  -1 -11   30.00    6.60
   3   1  11   21.00    6.80
  -4  -1 -11   16.10    5.50
  -4  -1 -11    6.80    9.60
  -4  -1 -11    9.80    4.60
  -4  -1 -11    8.40    5.70
  -4  -1 -11   18.20    5.80
   4   1  11   10.00   10.70
  -5  -1 -11   41.70    8.60
  -5  -1 -11   31.40    7.70
  -5  -1 -11   37.70    7.10
  -5  -1 -11   55.99    8.40
   5   1  11   34.80    7.70
  -6  -1 -11   38.40    9.20
  -6  -1 -11   18.40    6.90
  -6  -1 -11   23.60    5.60
  -6  -1 -11   35.40    7.10
  -6  -1 -11   55.09    7.60
   6   1  11   22.10    6.90
  -7  -1 -11   16.00    5.30
  -7  -1 -11   11.90    7.20
  -7  -1 -11   15.10    6.90
  -7  -1 -11    8.20    4.30
  -7  -1 -11   16.40    4.50
  -8  -1 -11   10.70    6.80
  -8  -1 -11   22.90    4.80
  -8  -1 -11   18.50    4.40
  -8  -1 -11   18.20    5.40
  -9  -1 -11    2.80    3.30
  -9  -1 -11   -0.40    6.00
  -9  -1 -11    0.40    4.20
 -10  -1 -11    9.10    4.70
 -10  -1 -11   10.00    7.70
 -10  -1 -11    6.60    5.40
 -11  -1 -11   21.80    8.80
 -11  -1 -11    0.60    4.30
 -12  -1 -11    3.70    5.30
  12   1  11   15.10    5.80
 -13  -1 -11  -12.50    7.80
  13   1  11    2.30    6.40
   5  -2 -11    2.80    7.90
  -5   2  11    4.00    7.00
  -5   2  11    1.30    7.30
  -4   2  11   -3.30    6.10
  -3   2  11   40.30   10.20
  -3   2  11   39.00   10.80
  -3   2  11   34.80   10.70
   2  -2 -11    9.80    7.30
  -2   2  11   -0.20    6.90
  -2   2  11    3.20    6.70
  -2   2  11    5.10    6.30
   1  -2 -11  -12.00    6.00
  -1   2  11   -5.50    5.70
  -1   2  11   -1.50    6.00
  -1   2  11   -5.90    5.90
   0  -2 -11   42.10   10.30
   0   2  11   23.80    9.00
   0   2  11   59.89   10.30
   0   2  11   41.50    9.60
  -1  -2 -11    6.10    6.00
  -1  -2 -11    4.90    6.30
   1   2  11    6.30    6.40
   1   2  11   -5.40    5.40
  -2  -2 -11   33.20    8.60
  -2  -2 -11   50.79    9.90
  -2  -2 -11   33.70   10.80
   2   2  11   61.69   10.10
   2   2  11   39.20    9.20
  -3  -2 -11    0.00    5.30
  -3  -2 -11    4.80    4.80
  -3  -2 -11   -5.30    4.40
  -3  -2 -11   -0.80    4.90
  -3  -2 -11    2.00    7.30
   3   2  11   -1.50    5.60
  -4  -2 -11   33.60    8.00
  -4  -2 -11   28.10    7.60
  -4  -2 -11   43.40    7.40
  -4  -2 -11   24.20    7.70
  -4  -2 -11   36.10    7.90
   4   2  11   25.10   10.40
  -5  -2 -11   29.10    8.10
  -5  -2 -11   29.10    7.00
  -5  -2 -11   18.20    6.30
  -5  -2 -11   25.90    6.70
  -5  -2 -11   22.40    5.60
  -6  -2 -11   40.70    8.10
  -6  -2 -11   16.20    7.80
  -6  -2 -11   32.50    6.10
  -6  -2 -11   37.60    7.40
  -6  -2 -11   26.40    6.50
  -7  -2 -11   -0.10    3.70
  -7  -2 -11    9.90    4.90
  -7  -2 -11    2.80    3.60
  -7  -2 -11    2.00    6.10
  -7  -2 -11    7.50    4.00
  -8  -2 -11   17.40    6.20
  -8  -2 -11   33.40    7.30
  -8  -2 -11   25.70    4.90
  -8  -2 -11   16.40    5.10
  -8  -2 -11   15.50    7.70
  -9  -2 -11   25.00    6.30
  -9  -2 -11   42.50    8.10
  -9  -2 -11   10.30    7.50
 -10  -2 -11   18.20    8.10
 -10  -2 -11   13.10    5.10
 -11  -2 -11    9.40    7.70
 -11  -2 -11   13.10    5.40
  11   2  11    9.20    5.70
 -12  -2 -11    3.40    9.20
 -12  -2 -11    2.40    5.10
  12   2  11    3.70    6.70
 -13  -2 -11    8.50    6.30
 -13  -2 -11   13.00    9.20
  13   2  11    6.30    6.80
   5  -3 -11   16.70    9.90
  -5   3  11   11.80    7.50
  -5   3  11   -4.30    7.70
   4  -3 -11   -0.20    7.30
  -4   3  11   -0.10    7.50
  -4   3  11    0.30    8.30
   3  -3 -11   17.20   10.30
  -3   3  11   -0.30    6.00
  -3   3  11   -4.80    6.30
   2  -3 -11   40.30   11.70
  -2   3  11   50.39   11.40
  -2   3  11   54.49   11.60
   1  -3 -11    5.00    6.70
   1  -3 -11   -2.10    5.80
  -1   3  11   -4.00    6.80
  -1   3  11   -4.70    5.30
   0  -3 -11   18.00    7.50
   0  -3 -11    7.50    7.00
   0   3  11   10.50    6.80
   0   3  11    8.70    6.90
  -1  -3 -11    7.40    6.30
  -1  -3 -11   -3.80    5.70
   1   3  11   23.90    7.50
  -2  -3 -11   46.00   10.70
  -2  -3 -11   47.50    9.80
  -2  -3 -11   73.39   11.50
  -2  -3 -11   62.59   11.40
  -3  -3 -11   11.40    5.30
  -3  -3 -11    4.60    5.70
  -3  -3 -11   -0.80    5.40
  -3  -3 -11   -0.80    3.90
  -3  -3 -11    3.40    4.90
  -3  -3 -11    4.70    6.40
  -4  -3 -11    5.60    5.40
  -4  -3 -11    2.50    4.30
  -4  -3 -11    6.10    8.40
  -4  -3 -11   -4.80    4.10
  -4  -3 -11    4.20    5.70
  -4  -3 -11   -2.40    4.70
  -5  -3 -11   89.09   13.70
  -5  -3 -11   92.29   14.30
  -5  -3 -11   93.69   14.90
  -5  -3 -11  121.69   13.50
  -5  -3 -11   69.99   14.70
  -5  -3 -11   72.39   13.40
  -6  -3 -11    1.70    3.20
  -6  -3 -11   -0.30    3.80
  -6  -3 -11    3.30    4.60
  -6  -3 -11    1.60    4.10
  -6  -3 -11   -5.20    4.50
  -7  -3 -11    2.10    3.30
  -7  -3 -11    4.60    5.60
  -7  -3 -11   -2.80    5.00
  -7  -3 -11   -1.30    3.60
  -7  -3 -11    0.30    3.30
  -8  -3 -11   16.90    6.90
  -8  -3 -11    1.90    3.60
  -8  -3 -11    5.30    3.90
  -8  -3 -11    3.10    3.20
  -8  -3 -11    7.00    5.90
  -9  -3 -11   30.70    6.90
  -9  -3 -11   46.90    8.70
  -9  -3 -11   41.60   10.00
 -10  -3 -11   17.80    5.60
 -10  -3 -11   11.60    7.50
  10   3  11   21.30    9.30
 -11  -3 -11   10.10    8.10
 -11  -3 -11    0.00    4.80
  11   3  11    4.00    5.90
 -12  -3 -11   15.90    6.50
 -12  -3 -11   20.50    8.80
  12   3  11   14.20    7.00
 -13  -3 -11    6.90    6.30
   5  -4 -11    8.10    8.90
  -5   4  11   -9.60    6.50
  -5   4  11    1.10    8.10
   4  -4 -11   -4.30    7.30
  -4   4  11    5.30    9.00
  -4   4  11    1.20    7.60
   3  -4 -11   14.90   14.30
  -3   4  11   21.30    9.10
  -3   4  11    3.30    6.80
   2  -4 -11   11.30    8.40
  -2   4  11   16.30    8.40
  -2   4  11   12.80    8.50
   1  -4 -11   15.30    8.10
  -1   4  11    2.60    7.40
  -1   4  11   14.60    8.20
   0  -4 -11   11.70    7.50
   0   4  11    5.80    7.20
   0   4  11    5.50    7.20
  -1  -4 -11   43.20   10.90
   1   4  11   57.89   11.40
   1   4  11   59.59   11.50
  -2  -4 -11    0.90    5.10
  -2  -4 -11    3.10    5.60
  -2  -4 -11    1.40    5.90
  -2  -4 -11    3.30    5.10
  -3  -4 -11    1.80    6.00
  -3  -4 -11    3.10    5.20
  -3  -4 -11    1.50    5.80
  -3  -4 -11    2.80    4.60
  -3  -4 -11   -0.80    5.10
  -3  -4 -11   -8.60    6.10
  -4  -4 -11    3.70    4.50
  -4  -4 -11    0.50    4.60
  -4  -4 -11    1.60    5.00
  -4  -4 -11   -4.70    5.20
  -4  -4 -11    4.50    5.30
  -5  -4 -11   67.39   10.40
  -5  -4 -11   70.29   10.60
  -5  -4 -11   60.99   11.70
  -5  -4 -11   56.19   10.30
  -5  -4 -11   45.10   10.50
  -6  -4 -11   17.40    6.70
  -6  -4 -11   20.60    5.60
  -6  -4 -11   28.20    6.00
  -6  -4 -11   20.10    5.60
  -6  -4 -11   12.50    6.50
  -7  -4 -11    3.60    3.80
  -7  -4 -11   -2.50    3.40
  -7  -4 -11   -2.10    4.70
  -7  -4 -11   -0.30    3.80
  -7  -4 -11    3.40    6.30
  -8  -4 -11    7.90    5.90
  -8  -4 -11   13.90    6.90
  -8  -4 -11    6.60    3.20
  -8  -4 -11    8.00    4.60
  -9  -4 -11    3.70    6.20
  -9  -4 -11   -3.50    3.60
 -10  -4 -11   12.80    5.50
 -10  -4 -11   -2.70    6.20
  10   4  11    3.40    6.20
 -11  -4 -11   -2.30    4.70
 -11  -4 -11   -7.00    7.00
 -12  -4 -11    1.80    8.30
 -12  -4 -11   10.80    6.00
 -13  -4 -11    4.90    6.40
 -13  -4 -11   13.60    9.20
   5  -5 -11    2.60    9.40
  -5   5  11    8.70    8.90
   4  -5 -11   -4.20    7.80
  -4   5  11    5.40    8.80
  -4   5  11   -2.90    7.30
   3  -5 -11   14.60    9.60
  -3   5  11   24.90   14.20
  -3   5  11    6.20    8.20
   2  -5 -11    0.40    7.80
  -2   5  11    9.00    8.20
  -2   5  11    8.80    8.00
   1  -5 -11   19.80    7.50
  -1   5  11   -4.50    6.60
  -1   5  11    2.80    7.70
   0  -5 -11   -1.50    6.40
   0   5  11   13.70    8.10
   0   5  11    7.00    6.30
  -1  -5 -11   16.70    7.70
  -1  -5 -11   14.90    6.30
   1   5  11   15.20    8.10
  -2  -5 -11   28.60    8.00
  -2  -5 -11   20.90    7.10
  -3  -5 -11   -1.30    4.70
  -3  -5 -11    3.20    5.00
  -3  -5 -11    1.80    5.80
  -3  -5 -11    3.60    5.10
  -4  -5 -11    3.40    5.40
  -4  -5 -11   10.10    5.40
  -4  -5 -11   15.00    5.90
  -4  -5 -11   -0.30    5.00
  -5  -5 -11   -2.80    3.90
  -5  -5 -11    4.40    4.60
  -5  -5 -11   -0.60    5.50
  -5  -5 -11    4.10    5.60
  -5  -5 -11   -0.50    4.00
  -6  -5 -11   15.70    5.30
  -6  -5 -11    5.20    6.10
  -6  -5 -11   17.20    7.40
  -6  -5 -11    9.90    4.40
  -6  -5 -11    1.70    4.90
  -7  -5 -11    2.10    3.60
  -7  -5 -11   -4.40    5.30
  -7  -5 -11   -0.60    4.00
  -7  -5 -11    0.90    5.70
  -7  -5 -11   -4.00    3.40
  -8  -5 -11   22.50    7.70
  -8  -5 -11    8.40    4.00
  -8  -5 -11    3.90    6.00
  -8  -5 -11   16.70    5.80
  -8  -5 -11   14.40    3.80
  -9  -5 -11    5.70    6.90
  -9  -5 -11    2.20    4.60
 -10  -5 -11    5.20    7.10
 -10  -5 -11    4.80    4.90
 -11  -5 -11   -3.40    4.50
 -11  -5 -11    9.20    7.60
 -12  -5 -11   -0.80    7.50
 -12  -5 -11    0.60    5.90
 -13  -5 -11    9.20    9.70
 -13  -5 -11   27.30    8.00
   4  -6 -11    0.00    8.60
  -4   6  11    2.80    8.10
  -4   6  11   -8.00    8.20
   3  -6 -11    4.10    8.30
  -3   6  11   10.60    8.60
  -3   6  11    5.90    8.40
   2  -6 -11   22.30   11.00
  -2   6  11   46.90   11.30
  -2   6  11   31.30   10.20
   1  -6 -11   -1.50    6.50
  -1   6  11    1.60    7.90
  -1   6  11   20.10    8.30
   0  -6 -11   -5.10    5.20
   0  -6 -11    4.10    6.80
   0   6  11    0.60    7.00
  -1  -6 -11   -2.30    5.80
  -1  -6 -11   -6.70    5.80
   1   6  11   -6.70    6.70
  -2  -6 -11   29.20    8.20
  -2  -6 -11   34.30    8.40
  -3  -6 -11    4.30    6.00
  -3  -6 -11   -4.90    4.90
  -3  -6 -11    4.10    5.70
  -4  -6 -11   23.70    6.40
  -4  -6 -11   13.20    6.20
  -4  -6 -11    7.60    5.30
  -4  -6 -11   18.60    7.40
  -5  -6 -11   65.39   10.80
  -5  -6 -11   38.70   10.80
  -5  -6 -11   82.29   12.10
  -6  -6 -11   36.40    8.10
  -6  -6 -11   27.70    7.50
  -6  -6 -11   44.20    7.80
  -6  -6 -11   54.09   10.80
  -7  -6 -11   14.40    7.40
  -7  -6 -11   16.50    5.50
  -7  -6 -11   25.00    6.80
  -7  -6 -11   20.30    5.60
  -8  -6 -11    3.90    4.10
  -8  -6 -11    8.40    7.00
  -8  -6 -11   -3.30    4.60
  -8  -6 -11    2.30    3.40
  -9  -6 -11   22.90    5.40
  -9  -6 -11   34.40    7.50
  -9  -6 -11   42.90    5.40
  -9  -6 -11   21.20    9.40
 -10  -6 -11    3.80    5.40
 -10  -6 -11   15.20    9.70
 -11  -6 -11    4.40    5.40
 -11  -6 -11   -1.40    7.00
 -12  -6 -11    4.70    8.40
 -12  -6 -11   18.30    7.50
   4  -7 -11   -8.50    7.10
  -4   7  11    2.90    8.30
  -4   7  11  -10.40    7.40
   3  -7 -11   -4.70    6.90
  -3   7  11   -1.30    8.10
   2  -7 -11   35.00   11.00
  -2   7  11   18.50   10.30
  -2   7  11   53.29   12.70
   1  -7 -11   17.70    7.60
   1  -7 -11   15.70    8.80
  -1   7  11    4.20    8.40
   0  -7 -11   -1.00    6.80
   0  -7 -11    7.30    7.00
   0   7  11    2.80    7.70
  -1  -7 -11   45.90   10.60
  -1  -7 -11   38.80    9.60
   1   7  11   56.49   12.50
  -2  -7 -11    7.70    6.00
  -2  -7 -11   21.30    7.70
   2   7  11   13.40    8.60
  -3  -7 -11    0.20    6.30
  -3  -7 -11    8.20    6.10
  -3  -7 -11   18.30    6.40
  -4  -7 -11    3.40    5.30
  -4  -7 -11    1.70    6.00
  -4  -7 -11    1.80    5.60
  -4  -7 -11    4.90    5.20
  -5  -7 -11   82.59   15.00
  -5  -7 -11   78.19   15.60
  -5  -7 -11  110.69   15.20
  -5  -7 -11  127.39   16.50
  -6  -7 -11   28.20    8.20
  -6  -7 -11   45.10    9.80
  -6  -7 -11   33.50    8.60
  -6  -7 -11   31.20    7.90
  -7  -7 -11   12.20    5.50
  -7  -7 -11   -5.60    3.20
  -7  -7 -11    8.30    5.20
  -7  -7 -11   -2.00    5.70
  -8  -7 -11   13.50    6.50
  -8  -7 -11   11.00    5.10
  -8  -7 -11   16.00    4.30
  -8  -7 -11   -1.70    6.30
  -9  -7 -11   13.60    3.70
  -9  -7 -11    9.40    7.20
  -9  -7 -11    7.20    5.40
  -9  -7 -11    9.40    5.00
 -10  -7 -11   30.60    7.40
 -10  -7 -11   16.50    8.70
 -11  -7 -11   -4.30    7.70
 -11  -7 -11    1.00    6.10
 -12  -7 -11   -3.10    7.50
 -12  -7 -11    6.60    6.50
   3  -8 -11   25.50   10.60
  -3   8  11    2.50    8.30
  -3   8  11    1.10    8.20
   2  -8 -11   -5.90    7.60
   2  -8 -11   11.80    7.80
  -2   8  11    6.60   10.00
   1  -8 -11   12.30    7.40
  -1   8  11   17.40    9.90
   0  -8 -11    9.90    8.20
   0  -8 -11    3.20    6.50
   0   8  11   11.70    9.00
  -1  -8 -11    2.30    5.50
  -1  -8 -11    9.20    7.10
  -2  -8 -11    7.60    6.90
  -2  -8 -11   21.70    7.90
   2   8  11   18.80   10.30
  -3  -8 -11   -1.40    5.10
  -3  -8 -11   17.00    7.20
  -3  -8 -11    2.50    6.80
  -4  -8 -11    1.20    5.60
  -4  -8 -11    0.90    5.20
  -4  -8 -11    1.00    6.60
  -5  -8 -11   13.60    6.20
  -5  -8 -11   21.40    6.20
  -5  -8 -11   11.10    7.40
  -5  -8 -11   12.50    7.50
  -6  -8 -11   46.60   11.00
  -6  -8 -11   55.69    9.40
  -6  -8 -11   62.89   10.70
  -6  -8 -11   40.10   10.00
  -7  -8 -11    5.20    5.10
  -7  -8 -11    3.80    4.20
  -7  -8 -11   -1.90    5.40
  -7  -8 -11   -3.10    6.40
  -8  -8 -11    2.10    3.90
  -8  -8 -11    3.00    7.30
  -8  -8 -11    1.10    5.90
  -8  -8 -11    1.70    5.40
  -9  -8 -11    6.70    5.00
  -9  -8 -11    0.60    4.70
  -9  -8 -11    8.70    7.80
  -9  -8 -11    5.40    3.70
 -10  -8 -11   23.70    5.90
 -10  -8 -11   34.80    8.20
 -10  -8 -11   23.00    9.70
 -10  -8 -11   26.50    4.90
 -11  -8 -11   12.50    7.10
 -11  -8 -11   12.80    8.50
   2  -9 -11  -10.10    7.00
   2  -9 -11    5.40    7.60
  -2   9  11   11.90   10.60
   1  -9 -11    0.50    6.80
   1  -9 -11   -0.60    7.40
  -1   9  11   -6.80    8.20
   0  -9 -11    7.70    8.40
   0  -9 -11   -5.80    6.30
   0   9  11   13.70   16.70
  -1  -9 -11   20.90   11.60
  -1  -9 -11   23.50    8.90
   1   9  11   39.10   12.00
  -2  -9 -11   98.89   15.90
  -2  -9 -11   73.99   15.10
   2   9  11  101.09   18.60
  -3  -9 -11    9.90    6.60
  -3  -9 -11    3.60    6.60
  -3  -9 -11    4.30    6.00
  -4  -9 -11   13.10    8.30
  -4  -9 -11   13.00    7.50
  -4  -9 -11    4.10    6.00
  -5  -9 -11    1.80    5.60
  -5  -9 -11   19.30    8.00
  -5  -9 -11    7.30    5.30
  -6  -9 -11   13.60    5.90
  -6  -9 -11   10.40    7.40
  -6  -9 -11    6.50    6.70
  -6  -9 -11   21.80    7.40
  -7  -9 -11   -0.60    4.80
  -7  -9 -11   -0.90   10.80
  -7  -9 -11   -1.70    4.20
  -7  -9 -11    6.80    6.70
  -8  -9 -11   -4.00    6.40
  -8  -9 -11   -4.70    4.60
  -8  -9 -11    1.90    6.30
  -8  -9 -11    4.30    4.50
  -9  -9 -11    2.50    7.60
  -9  -9 -11    4.40    6.20
  -9  -9 -11   15.60    6.90
  -9  -9 -11   16.00    5.00
 -10  -9 -11   -1.90    3.50
 -10  -9 -11    1.20    4.70
 -10  -9 -11   12.90    8.30
 -10  -9 -11    0.90    9.40
 -11  -9 -11   -1.00    8.10
 -11  -9 -11    1.50    6.60
   1 -10 -11    9.10    7.70
   1 -10 -11   -0.10    8.20
  -1  10  11    2.40   10.00
   0 -10 -11    2.70    7.00
   0 -10 -11    0.20    7.60
   0  10  11   -4.70    8.50
  -1 -10 -11   -6.20    6.40
  -1 -10 -11   10.40    7.00
   1  10  11    5.40    9.20
  -2 -10 -11    2.30    6.50
  -2 -10 -11    0.80    6.80
   2  10  11   -7.30    8.20
  -3 -10 -11    9.40    7.30
  -3 -10 -11   -1.10    6.30
  -3 -10 -11   -1.00    6.50
  -4 -10 -11    1.70    5.50
  -4 -10 -11    3.50    7.50
  -4 -10 -11   -2.40    8.50
  -5 -10 -11    5.80    7.00
  -5 -10 -11   39.30    9.80
  -5 -10 -11   37.10    8.20
  -6 -10 -11   -6.40    6.40
  -6 -10 -11    2.50    6.20
  -6 -10 -11    2.50    5.40
  -7 -10 -11   13.70    8.60
  -7 -10 -11   17.20   11.00
  -7 -10 -11    0.10    6.90
  -7 -10 -11   19.20    6.60
  -8 -10 -11   -2.40    8.40
  -8 -10 -11    1.60    5.50
  -8 -10 -11   -3.00    6.10
  -8 -10 -11   -1.50    4.40
  -9 -10 -11    7.70    6.60
  -9 -10 -11    3.50    7.80
  -9 -10 -11   17.60    6.10
  -9 -10 -11   -1.80    5.60
 -10 -10 -11   22.80    8.40
 -10 -10 -11    2.20    4.20
 -10 -10 -11   -0.20    5.90
 -10 -10 -11   16.80    8.80
   0 -11 -11    3.20    7.60
   0 -11 -11   -0.30    7.00
   0  11  11    1.10   11.10
  -1 -11 -11    6.70    7.30
  -1 -11 -11   24.70    9.10
   1  11  11   -6.50    8.30
  -2 -11 -11    1.50    6.50
   2  11  11  -11.20    8.00
  -3 -11 -11   35.40    9.50
  -3 -11 -11   36.90    9.70
  -3 -11 -11   19.70    9.40
  -4 -11 -11   14.20    6.90
  -4 -11 -11    4.40    8.30
  -4 -11 -11    3.40    6.10
  -5 -11 -11    5.70    7.60
  -5 -11 -11    5.80    6.00
  -5 -11 -11    7.70    6.50
  -6 -11 -11   29.90    7.80
  -6 -11 -11   43.60    9.90
  -6 -11 -11   21.00    9.50
  -7 -11 -11    5.30    6.60
  -7 -11 -11   -1.00    7.00
  -7 -11 -11   12.90    6.80
  -8 -11 -11    5.90    8.80
  -8 -11 -11    8.30    5.70
  -8 -11 -11   -2.60    5.50
  -2 -12 -11    6.80    7.70
  -2 -12 -11    5.00    7.10
   2  12  11    7.40    9.90
  -3 -12 -11   -4.80    6.50
  -3 -12 -11    2.20    6.70
  -3 -12 -11    1.10    7.80
  -4 -12 -11    2.00    8.30
  -4 -12 -11   -9.80    5.50
  -4 -12 -11  -11.70    4.70
  -5 -12 -11    6.30    6.60
  -5 -12 -11    0.90    6.90
  -5 -12 -11    7.90    6.60
  -6 -12 -11   16.00    9.40
  -6 -12 -11    5.30    6.30
  -6 -12 -11    2.30    5.80
  -2   8 -12    9.00    5.70
   2  -8  12   10.30    7.50
   2  -8  12   13.40    6.50
  -3   8 -12    2.60    4.30
   3  -8  12    1.80    4.10
   3  -8  12    4.60    6.70
   4  -8  12   -2.10    6.10
   5  -8  12   35.40   11.70
   6  -8  12    5.10    7.20
   0  -7  12    6.80    8.30
   0  -7  12    7.40    7.70
  -1   7 -12   20.80    8.30
   1  -7  12   37.50   10.80
   1  -7  12   52.39    9.70
  -2   7 -12   -2.50    4.80
   2  -7  12    8.40    5.60
   2  -7  12   11.00    7.50
  -3   7 -12   -0.80    3.70
   3  -7  12   -7.70    7.20
   3  -7  12    2.90    4.40
   4  -7  12    4.00    6.20
   5  -7  12    3.20    6.00
  -6   7 -12   10.50    5.20
   6  -7  12   13.10    7.30
  -7   7 -12    7.10    5.80
   7  -7  12    6.40    5.90
   7  -7  12    4.90    6.10
  -8   7 -12   31.30    8.90
   8  -7  12   28.20    8.20
  -1  -6  12    8.10    7.50
  -1  -6  12    8.10    8.10
   0  -6  12   13.10    7.50
   0  -6  12    8.40    7.20
  -1   6 -12    5.90    6.30
   1  -6  12   17.20    7.40
   1  -6  12    4.60    7.60
  -2   6 -12   14.70    6.20
   2  -6  12   22.10    6.70
   2  -6  12   29.80   15.40
  -3   6 -12    5.00    4.10
   3  -6  12    7.70    6.90
   3  -6  12    1.40    4.70
   4  -6  12   26.40    9.00
   5  -6  12    9.80    6.80
  -6   6 -12   17.20    6.00
  -6   6 -12   20.00    6.70
   6  -6  12    7.30    6.40
  -7   6 -12   -0.40    5.80
   7  -6  12    1.00    5.00
   7  -6  12   -6.80    5.10
  -8   6 -12    6.50    7.90
   8  -6  12    7.40    6.40
   8  -6  12   11.00    6.70
  -9   6 -12   33.00    9.70
   9  -6  12   24.40    7.90
 -10   6 -12   16.20    9.60
  10  -6  12   -9.30    4.80
  -2  -5  12    2.60    7.50
  -2  -5  12    1.00    8.10
  -1  -5  12   -3.30    6.40
  -1  -5  12   -7.60    6.60
   0  -5  12   11.60    7.50
   0  -5  12   19.30    7.80
  -1   5 -12   11.80    7.20
   1  -5  12   15.60    6.60
   1  -5  12   22.30    8.90
  -2   5 -12    1.20    4.80
   2  -5  12    9.40    8.10
   2  -5  12    9.10    5.30
  -3   5 -12   -2.20    4.10
   3  -5  12    0.40    6.50
   3  -5  12    4.10    5.00
  -4   5 -12    8.50    3.30
   4  -5  12    3.00    6.00
  -5   5 -12   56.89    9.70
   5  -5  12   73.69   13.00
  -6   5 -12    6.40    6.00
  -6   5 -12   11.30    6.10
   6  -5  12    9.60    6.70
  -7   5 -12   -4.40    5.60
   7  -5  12   -0.90    5.60
  -8   5 -12    2.10    6.70
   8  -5  12    5.30    5.60
   8  -5  12   -2.00    6.10
  -9   5 -12   30.70    9.40
  -9   5 -12   22.20    9.40
   9  -5  12   30.10    7.50
 -10   5 -12    8.90    8.80
 -10   5 -12   19.70    7.50
  10  -5  12   14.00    6.40
 -11   5 -12   -0.60    6.60
  -3  -4  12   14.50    9.20
  -2  -4  12    4.50    7.70
  -2  -4  12    3.00    7.20
  -1  -4  12    2.50    7.00
  -1  -4  12    2.10    6.70
   0  -4  12    3.10    6.30
  -1   4 -12    5.30    7.10
   1  -4  12   50.09    8.60
   1  -4  12   11.70    7.40
  -2   4 -12   -2.80    4.80
   2  -4  12    0.90    5.60
   2  -4  12    0.50    5.20
  -3   4 -12    1.00    4.50
   3  -4  12    2.30    4.70
   3  -4  12    7.00    6.20
  -4   4 -12   -1.50    4.00
  -4   4 -12    3.20    4.10
   4  -4  12  -10.70    5.60
  -5   4 -12   12.40    5.30
  -5   4 -12   13.90    5.60
   5  -4  12   15.60    7.20
  -6   4 -12   13.40    6.80
  -6   4 -12   16.70    6.60
   6  -4  12   11.10    6.40
  -7   4 -12   -2.30    6.10
   7  -4  12   -3.30    5.90
  -8   4 -12   10.60    7.80
  -8   4 -12    8.40    5.90
   8  -4  12   15.40    7.10
   8  -4  12   23.90    6.80
  -9   4 -12   -5.40    5.20
  -9   4 -12    0.00    7.40
   9  -4  12   -5.40    4.80
 -10   4 -12   10.50    6.40
 -10   4 -12   31.40   10.10
  10  -4  12   16.80    6.60
 -11   4 -12    5.60    9.50
 -11   4 -12    1.00    5.60
  11  -4  12   -4.40    4.90
  -3  -3  12   25.30    9.60
  -3  -3  12   -4.10    7.20
  -2  -3  12    6.80    7.10
  -2  -3  12    1.60    7.20
  -1  -3  12   10.50    7.50
  -1  -3  12    5.40    7.60
   0  -3  12   18.10    7.50
   0  -3  12   22.80    8.50
  -1   3 -12   -3.40    5.80
   1  -3  12   13.80    6.60
   1  -3  12    4.50    6.80
  -2   3 -12   25.40    5.30
  -2   3 -12   16.90    6.90
   2  -3  12   21.00    8.20
   2  -3  12   39.60    8.20
  -3   3 -12    6.20    5.40
  -3   3 -12   -0.90    4.90
  -3   3 -12   -4.30    3.90
   3  -3  12   -4.60    4.60
   3  -3  12   -3.50    4.70
  -4   3 -12    3.10    4.00
  -4   3 -12   -4.40    4.70
  -4   3 -12    3.80    4.60
   4  -3  12   -5.00    5.20
  -5   3 -12    2.80    5.30
  -5   3 -12    0.70    2.60
  -5   3 -12    7.20    5.10
  -5   3 -12    2.10    2.40
   5  -3  12   -5.80    4.80
  -6   3 -12    6.20    5.90
  -6   3 -12   12.00    6.90
  -6   3 -12   -2.60    5.60
   6  -3  12    0.40    5.00
  -7   3 -12   -2.10    5.90
  -7   3 -12    2.20    5.50
   7  -3  12    0.30    4.60
  -8   3 -12    7.60    7.00
   8  -3  12    8.90    8.30
   8  -3  12    2.60    6.80
  -9   3 -12   20.20    8.80
  -9   3 -12   19.30    6.70
   9  -3  12   32.00    6.60
 -10   3 -12    3.80    5.40
 -10   3 -12    6.80    8.00
  10  -3  12    5.40    4.70
 -11   3 -12    6.50    4.90
 -11   3 -12   -0.50    9.10
  11  -3  12   -3.80    3.90
   3   2 -12   -0.40    6.20
  -3  -2  12   11.10    8.10
  -3  -2  12    5.20    8.50
   2   2 -12   13.00    6.00
   2   2 -12    6.20    4.70
  -2  -2  12   14.90    8.40
  -2  -2  12   20.70    8.00
   1   2 -12   -3.90    6.70
   1   2 -12   -0.90    3.90
  -1  -2  12    4.10    6.80
  -1  -2  12    1.70    8.20
   0   2 -12   11.20    7.80
   0   2 -12    0.60    3.80
   0  -2  12   14.90    6.80
   0  -2  12    5.40    7.10
  -1   2 -12    2.30    7.00
  -1   2 -12    1.90    6.90
  -1   2 -12    3.30    4.00
   1  -2  12    7.00    6.50
   1  -2  12    3.00    6.10
  -2   2 -12   25.40    8.50
  -2   2 -12   31.40    6.90
  -2   2 -12   51.89    7.40
   2  -2  12   44.60    8.80
   2  -2  12   30.20    9.00
  -3   2 -12    3.90    4.40
  -3   2 -12   -7.70    3.90
  -3   2 -12   -4.50    4.90
   3  -2  12    7.00    5.20
   3  -2  12    0.90    5.40
  -4   2 -12    5.10    4.90
  -4   2 -12    7.40    5.30
  -4   2 -12    2.40    4.80
  -4   2 -12   10.50    4.30
   4  -2  12   -0.10    5.60
  -5   2 -12   56.99   10.60
  -5   2 -12   82.29    9.30
  -5   2 -12   61.89   10.90
  -5   2 -12   54.89   11.50
  -5   2 -12   42.00   10.50
   5  -2  12   69.89   12.20
  -6   2 -12    5.40    6.90
  -6   2 -12    6.70    5.40
  -6   2 -12    4.90    5.30
   6  -2  12    5.50    5.40
  -7   2 -12    5.90    6.00
  -8   2 -12   -0.10    4.50
  -8   2 -12    0.10    6.90
   8  -2  12    2.60    5.10
   8  -2  12   14.70    7.00
  -9   2 -12   31.90    9.50
  -9   2 -12   24.40    6.40
   9  -2  12   23.20    6.20
 -10   2 -12    9.70    5.00
 -10   2 -12    5.80    8.10
  10  -2  12   18.30    5.40
 -11   2 -12    1.60    5.80
 -11   2 -12   10.00    9.10
  11  -2  12   -0.60    3.20
   4   1 -12   -7.90    8.80
  -4  -1  12    2.60    5.90
  -4  -1  12   -3.30    7.40
  -4  -1  12   -2.00    7.50
   3   1 -12   -3.40    6.70
  -3  -1  12    2.90    7.80
  -3  -1  12   -3.80    5.30
  -3  -1  12   -4.60    7.40
   2   1 -12   10.80    6.40
  -2  -1  12   -7.50    6.90
  -2  -1  12   -6.10    6.80
   1   1 -12   -3.20    4.20
   1   1 -12   -1.30    5.50
  -1  -1  12    9.90    8.20
  -1  -1  12   -4.30    6.10
   0   1 -12    2.30    4.10
   0   1 -12   -0.70    4.90
   0  -1  12    3.80    6.20
   0  -1  12   -1.60    6.60
  -1   1 -12   36.20    7.60
  -1   1 -12   44.50    9.80
  -1   1 -12   26.30    7.00
   1  -1  12   42.40    9.60
   1  -1  12   35.90    9.90
  -2   1 -12    7.60    5.00
  -2   1 -12    7.20    4.70
  -2   1 -12   -5.70    9.00
   2  -1  12    2.60    6.30
   2  -1  12    0.10    6.20
  -3   1 -12   15.70    5.50
  -3   1 -12   12.00    5.00
  -3   1 -12   17.40    6.50
   3  -1  12    7.00    6.60
   3  -1  12   22.00    6.30
  -4   1 -12    2.10    5.00
  -4   1 -12    4.60    5.10
  -4   1 -12    0.20    4.00
  -4   1 -12    3.20    4.80
   4  -1  12   -1.50    5.50
  -5   1 -12   17.50    5.10
  -5   1 -12   16.20    4.30
  -5   1 -12    1.00    5.30
  -5   1 -12   -8.50    4.60
  -5   1 -12    3.30    5.50
   5  -1  12    7.30    6.20
  -6   1 -12   14.00    3.80
  -6   1 -12   19.80    6.30
  -6   1 -12    7.90    7.60
  -6   1 -12    6.20    5.80
   6  -1  12   13.40    6.50
  -7   1 -12    3.40    3.40
  -7   1 -12   -3.70    4.00
  -7   1 -12   -4.60    6.10
  -7   1 -12   -0.10    5.60
  -7   1 -12   -1.50    2.20
   7  -1  12    5.20    4.90
  -8   1 -12    8.00    6.60
  -8   1 -12    6.10    4.80
   8  -1  12    4.50    4.80
  -9   1 -12   15.30    7.70
  -9   1 -12    9.90    4.50
   9  -1  12   19.30    5.30
 -10   1 -12   46.50   11.20
 -11   1 -12   -4.30    7.50
   4   0 -12    6.20    8.70
  -4   0  12   10.70    8.50
  -4   0  12    4.40    8.40
  -4   0  12   -5.10    6.10
   3   0 -12    4.70    7.80
  -3   0  12   17.40    8.50
  -3   0  12   17.10    8.50
  -3   0  12    9.00    7.60
   2   0 -12    4.00    6.60
  -2   0  12   -4.10    6.60
  -2   0  12   17.90    8.80
  -2   0  12    2.20    5.40
   1   0 -12    0.10    5.70
  -1   0  12    1.80    6.80
  -1   0  12   -0.80    6.50
   0   0 -12    0.10    5.00
   0   0 -12    7.70    5.50
   0   0  12   11.80    7.50
   0   0  12   -3.80    6.30
  -1   0 -12   45.90   11.30
  -1   0 -12   50.19    9.40
  -1   0 -12   33.10    8.50
   1   0  12   65.99   11.40
   1   0  12   77.29   11.90
  -2   0 -12    2.90    6.70
  -2   0 -12   22.20    6.20
  -2   0 -12   19.20    6.20
   2   0  12    5.40    6.70
   2   0  12   28.20    7.70
  -3   0 -12   -0.50    5.50
  -3   0 -12   -6.00    4.30
  -3   0 -12    0.20    4.60
   3   0  12    5.20    6.10
  -4   0 -12   11.10    5.40
  -4   0 -12   -0.30    4.30
  -4   0 -12    9.00    4.40
  -4   0 -12    1.40    5.70
  -4   0 -12   -2.70    5.20
   4   0  12   27.30    7.60
  -5   0 -12   36.80    6.90
  -5   0 -12   42.90    9.70
  -5   0 -12   21.10    9.90
  -5   0 -12   40.40    7.90
  -5   0 -12   25.20    7.90
   5   0  12   37.40    8.40
  -6   0 -12  138.29   18.40
  -6   0 -12  139.49   19.00
  -6   0 -12  155.18   21.80
   6   0  12  148.39   19.60
  -7   0 -12   12.30    5.30
  -7   0 -12    8.00    3.70
  -7   0 -12    9.10    7.70
  -7   0 -12   11.60    5.90
  -7   0 -12    3.40    4.50
   7   0  12   21.50    6.00
  -8   0 -12    7.10    5.00
  -8   0 -12    6.20    6.70
  -8   0 -12    3.70    4.00
  -8   0 -12    5.80    3.20
   8   0  12    4.80    4.80
  -9   0 -12   31.90    6.00
  -9   0 -12   32.30    6.20
  -9   0 -12   55.39   10.70
 -10   0 -12   18.60    4.80
 -10   0 -12   25.60    9.10
 -11   0 -12    0.00    8.50
 -11   0 -12   -1.60    7.70
 -11   0 -12   -1.80    3.90
 -12   0 -12    3.20    4.90
 -12   0 -12   11.80   10.20
 -12   0 -12    0.30    4.80
 -13   0 -12   26.10    6.70
 -13   0 -12   22.10   10.90
  -4   1  12   -5.60    6.50
  -4   1  12   -4.10    7.60
  -4   1  12   -0.50    7.40
   3  -1 -12    7.90    8.80
  -3   1  12   23.90   11.00
  -3   1  12   19.80    9.70
  -3   1  12   26.70    8.60
   2  -1 -12   14.70    7.60
  -2   1  12    4.10    7.30
  -2   1  12    7.80    6.90
   1  -1 -12    0.60    7.40
  -1   1  12   -3.90    5.40
  -1   1  12   -8.40    5.60
  -1   1  12   -1.20    6.70
   0  -1 -12    9.50    6.40
   0   1  12   18.60    7.70
   0   1  12   15.80    7.60
  -1  -1 -12   -2.10    5.30
  -1  -1 -12    9.20    6.10
   1   1  12   10.80    6.90
   1   1  12    4.50    6.20
  -2  -1 -12   21.70    8.80
  -2  -1 -12   37.00    8.00
  -2  -1 -12   51.49    9.00
   2   1  12   54.29   10.00
   2   1  12   31.50    9.00
  -3  -1 -12    7.20    9.70
  -3  -1 -12    3.60    5.50
  -3  -1 -12    2.00    4.30
  -3  -1 -12   -2.60    6.00
   3   1  12    5.30    5.90
  -4  -1 -12   11.20    5.80
  -4  -1 -12   23.20    5.50
  -4  -1 -12    3.10    5.80
  -4  -1 -12   14.10    6.40
   4   1  12   10.10    6.40
  -5  -1 -12   52.79   10.20
  -5  -1 -12   62.19   10.60
  -5  -1 -12   42.10   10.70
  -5  -1 -12   74.49    9.80
  -5  -1 -12   55.79   10.60
   5   1  12   48.30   10.70
  -6  -1 -12    4.30    5.70
  -6  -1 -12   15.80    5.80
  -6  -1 -12   18.10    6.30
  -6  -1 -12   14.80    4.60
  -6  -1 -12   17.10    7.40
   6   1  12   -0.10    5.50
  -7  -1 -12   -5.30    5.30
  -7  -1 -12   -0.30    4.70
  -7  -1 -12    1.40    3.40
  -7  -1 -12   -3.50    3.80
  -8  -1 -12    0.70    3.30
  -8  -1 -12    7.60    4.90
  -8  -1 -12    4.70    3.80
  -8  -1 -12    4.20    6.40
  -9  -1 -12   44.10    8.20
  -9  -1 -12   38.60    6.50
  -9  -1 -12   30.80    6.80
  -9  -1 -12   59.89   10.70
 -10  -1 -12   11.40    7.20
 -10  -1 -12    3.60    3.90
 -10  -1 -12    3.80    5.20
 -11  -1 -12   -3.90    7.00
 -11  -1 -12    4.30    4.60
 -11  -1 -12    4.90    5.50
 -12  -1 -12   -3.30    7.80
 -12  -1 -12   -2.80    5.00
 -13  -1 -12    2.60    5.80
 -13  -1 -12    4.00    9.30
   4  -2 -12   19.90    9.40
  -4   2  12    7.60    9.00
  -4   2  12   16.40    8.60
  -3   2  12    3.00    7.70
  -3   2  12   10.20    9.50
  -2   2  12   15.30    8.10
  -2   2  12   22.00   15.60
  -2   2  12   31.80   10.20
   1  -2 -12   -0.90    6.50
  -1   2  12  -12.50    6.00
  -1   2  12    1.10    6.40
  -1   2  12    4.50    7.40
   0  -2 -12   -2.60    6.40
   0   2  12    2.30    6.30
   0   2  12   -4.20    6.60
  -1  -2 -12   34.80    8.30
  -1  -2 -12   40.20    8.40
   1   2  12   43.40   10.00
   1   2  12   11.40    8.10
  -2  -2 -12    9.30    5.60
  -2  -2 -12    4.30    6.80
  -2  -2 -12    5.50    6.00
   2   2  12   -2.40    5.40
   2   2  12    3.60    6.70
  -3  -2 -12    0.70    5.60
  -3  -2 -12   16.30    5.70
  -3  -2 -12    5.60    5.90
  -3  -2 -12    4.10    4.90
   3   2  12  -12.50    5.20
  -4  -2 -12    4.30    5.60
  -4  -2 -12   10.10    6.30
  -4  -2 -12   -2.00    4.40
  -4  -2 -12    6.00    4.50
  -4  -2 -12   -5.70    6.30
   4   2  12    0.20    5.70
  -5  -2 -12   29.10    8.30
  -5  -2 -12   22.50    8.00
  -5  -2 -12   48.60    8.00
  -5  -2 -12   36.90    8.40
  -5  -2 -12   55.79   10.70
  -6  -2 -12    7.40    5.00
  -6  -2 -12   12.00    6.20
  -6  -2 -12   18.40    6.50
  -6  -2 -12   14.00    5.10
  -7  -2 -12    5.00    4.70
  -7  -2 -12   -0.30    5.20
  -7  -2 -12    5.00    5.90
  -7  -2 -12    4.70    4.50
  -7  -2 -12    3.20    3.80
  -8  -2 -12    2.70    4.00
  -8  -2 -12    2.70    5.60
  -8  -2 -12    3.70    6.90
  -8  -2 -12    4.00    3.50
  -8  -2 -12    4.90    3.80
  -9  -2 -12   19.10    3.80
  -9  -2 -12   24.80    6.80
  -9  -2 -12   12.00    4.70
  -9  -2 -12   19.60    8.00
  -9  -2 -12   12.70    3.80
 -10  -2 -12   53.89   11.30
 -10  -2 -12   37.70    9.30
 -10  -2 -12   51.59    8.80
 -11  -2 -12    2.60    6.30
 -11  -2 -12    2.20    4.50
 -11  -2 -12    2.80    7.70
 -12  -2 -12   23.00    9.90
 -13  -2 -12  -17.10    7.20
 -13  -2 -12    3.90    6.50
  13   2  12    8.20    7.10
   4  -3 -12   21.20    9.80
  -4   3  12   -9.10    7.40
  -4   3  12   -2.60    7.30
   3  -3 -12   12.70    9.00
  -3   3  12    4.60    8.10
  -3   3  12    3.50    8.40
   2  -3 -12    6.10    7.80
  -2   3  12   -7.70    6.80
  -2   3  12   17.10    9.10
   1  -3 -12   -1.30    6.80
  -1   3  12    0.90    7.70
  -1   3  12    6.90    7.30
   0  -3 -12   -1.40    6.40
   0   3  12    2.20    6.50
   0   3  12    2.00    6.90
  -1  -3 -12   41.00   10.60
  -1  -3 -12   33.20   10.90
  -1  -3 -12   47.20    9.80
   1   3  12   82.99   12.30
  -2  -3 -12   15.20    6.60
  -2  -3 -12   10.90    6.70
  -2  -3 -12   -4.50    5.80
  -3  -3 -12    9.20    6.90
  -3  -3 -12   23.60    7.00
  -3  -3 -12   18.40    7.20
  -3  -3 -12   14.50    7.40
  -3  -3 -12   24.60    6.80
  -4  -3 -12    2.50    5.10
  -4  -3 -12    5.40    5.70
  -4  -3 -12   -4.20    4.70
  -4  -3 -12   -2.10    5.90
  -4  -3 -12    8.10    5.20
  -5  -3 -12   18.70    7.20
  -5  -3 -12   20.90    5.90
  -5  -3 -12   18.90    6.80
  -5  -3 -12    2.20    5.60
  -5  -3 -12   10.40    5.20
  -6  -3 -12   39.70    7.90
  -6  -3 -12   26.50   11.40
  -6  -3 -12   22.50    8.00
  -6  -3 -12   16.20    6.30
  -6  -3 -12   35.70    7.10
  -7  -3 -12    7.50    6.40
  -7  -3 -12    4.10    4.40
  -7  -3 -12    0.80    6.00
  -7  -3 -12   -3.80    4.10
  -8  -3 -12   12.70    7.20
  -8  -3 -12   10.70    4.40
  -8  -3 -12    9.40    6.30
  -8  -3 -12    6.60    3.90
  -9  -3 -12   13.60    7.30
  -9  -3 -12    7.60    6.10
  -9  -3 -12    3.80    2.80
  -9  -3 -12   -2.30    2.70
  -9  -3 -12    6.20    7.10
 -10  -3 -12   11.60    7.70
 -10  -3 -12   23.70    8.50
 -10  -3 -12   27.70    6.60
 -11  -3 -12    0.20   11.80
 -11  -3 -12    8.10    5.60
 -12  -3 -12   13.90    6.30
 -12  -3 -12    2.60    8.40
  12   3  12   -0.70    6.70
 -13  -3 -12    2.30    6.00
   4  -4 -12   -0.50    8.40
  -4   4  12    8.60    8.50
  -4   4  12    2.90    8.80
   3  -4 -12    9.40    8.80
  -3   4  12    2.80    8.00
  -3   4  12    3.90    8.10
   2  -4 -12   12.50    8.70
  -2   4  12   13.60    8.60
  -2   4  12   18.30    8.80
   1  -4 -12    9.50    8.50
  -1   4  12   -2.80    7.20
  -1   4  12   -5.60    7.20
   0  -4 -12    6.50    8.10
   0   4  12    6.20    7.70
   0   4  12  -12.40    5.70
  -1  -4 -12    3.80    6.70
  -2  -4 -12   37.80    8.30
  -2  -4 -12   14.50    7.70
  -2  -4 -12   18.50    7.70
  -3  -4 -12    7.10    5.70
  -3  -4 -12   13.90    6.60
  -3  -4 -12    5.30    5.60
  -4  -4 -12   -6.90    4.90
  -4  -4 -12   -2.50    4.90
  -4  -4 -12    5.60    5.70
  -4  -4 -12    8.20    5.60
  -5  -4 -12    6.90    5.40
  -5  -4 -12    1.90    5.80
  -5  -4 -12    3.20    5.00
  -5  -4 -12   -1.40    5.50
  -5  -4 -12    6.60    4.80
  -6  -4 -12    1.10    4.70
  -6  -4 -12   -1.80    3.80
  -6  -4 -12    6.10    4.80
  -6  -4 -12    2.40    5.40
  -6  -4 -12    0.80    5.70
  -7  -4 -12    2.10    4.00
  -7  -4 -12    0.10    3.90
  -7  -4 -12   -4.50    5.70
  -7  -4 -12   12.80    6.50
  -7  -4 -12   -6.10    4.10
  -8  -4 -12    6.30    4.50
  -8  -4 -12    0.70    3.70
  -8  -4 -12    2.60    4.50
  -8  -4 -12    4.50    6.60
  -8  -4 -12   -0.10    6.40
  -9  -4 -12   25.90    9.00
  -9  -4 -12   26.00    4.40
  -9  -4 -12   21.70    4.50
  -9  -4 -12   26.90    8.70
  -9  -4 -12   31.80    6.80
 -10  -4 -12   -0.40    4.30
 -10  -4 -12   -1.30    6.10
 -10  -4 -12   17.80    8.10
 -11  -4 -12    4.80    5.80
 -11  -4 -12   12.40    8.20
 -12  -4 -12    0.10    8.10
 -12  -4 -12   -4.70    4.80
   3  -5 -12    4.40    9.20
  -3   5  12    4.40    8.90
  -3   5  12   -9.20    7.00
   2  -5 -12   24.20    9.90
  -2   5  12   25.60   10.90
  -2   5  12   14.20   10.10
   1  -5 -12    2.00    7.90
  -1   5  12    0.80    7.00
  -1   5  12   -7.30    7.10
   0  -5 -12    2.20    7.00
   0   5  12    1.30    7.00
   0   5  12   -1.00    7.00
  -1  -5 -12   -6.50    5.20
  -1  -5 -12   10.10    7.30
   1   5  12   -0.10    6.80
  -2  -5 -12   32.20    8.50
  -2  -5 -12   36.60    8.70
  -2  -5 -12   30.40    9.10
  -3  -5 -12   -1.00    5.80
  -3  -5 -12    9.90    6.10
  -3  -5 -12   10.00    6.30
  -4  -5 -12    5.50    5.40
  -4  -5 -12    4.50    6.00
  -4  -5 -12    4.90    5.40
  -4  -5 -12   -7.20    6.80
  -5  -5 -12   33.10    7.40
  -5  -5 -12   12.10    6.80
  -5  -5 -12   23.20    8.30
  -5  -5 -12   25.80    6.90
  -6  -5 -12   -0.40    4.80
  -6  -5 -12   -6.00    6.40
  -6  -5 -12    4.30    4.70
  -6  -5 -12    8.00    5.00
  -7  -5 -12    1.30    4.50
  -7  -5 -12   -3.00    5.80
  -7  -5 -12   -1.50    4.00
  -7  -5 -12    2.80    4.30
  -8  -5 -12    3.00    4.80
  -8  -5 -12    4.20    6.30
  -8  -5 -12    3.40    4.00
  -8  -5 -12   -2.30    3.40
  -9  -5 -12   13.30    4.20
  -9  -5 -12   21.80    8.60
  -9  -5 -12   27.30    4.20
  -9  -5 -12    8.30    5.70
 -10  -5 -12   45.00   17.50
 -10  -5 -12   14.00    6.10
 -11  -5 -12   -4.70    4.90
 -11  -5 -12    0.00    7.70
 -12  -5 -12   -8.30    6.70
 -12  -5 -12    5.40    5.50
   3  -6 -12   15.60    9.90
  -3   6  12    4.80    9.10
   2  -6 -12    3.40    8.20
  -2   6  12   -1.40    8.20
  -2   6  12    8.50    9.20
   1  -6 -12   18.70   10.20
  -1   6  12   20.80   10.00
   0  -6 -12    1.30    7.80
   0  -6 -12   -3.20    6.30
   0   6  12    1.70    8.20
  -1  -6 -12   44.80   10.60
  -1  -6 -12   30.10    9.10
   1   6  12   32.10   10.40
  -2  -6 -12   10.20    6.30
  -2  -6 -12    2.90    6.60
  -2  -6 -12    0.80    5.40
  -3  -6 -12    8.90    7.50
  -3  -6 -12   18.00    7.00
  -3  -6 -12    8.20    6.30
  -4  -6 -12   -2.30    4.70
  -4  -6 -12    4.20    6.00
  -4  -6 -12    3.20    5.80
  -5  -6 -12   34.10    7.70
  -5  -6 -12   13.10    7.50
  -5  -6 -12   16.20    7.00
  -5  -6 -12   29.00    7.50
  -6  -6 -12   42.70   10.80
  -6  -6 -12   50.89   14.80
  -6  -6 -12   50.59    9.70
  -6  -6 -12   69.39   11.00
  -7  -6 -12   13.40    5.70
  -7  -6 -12    9.80    6.00
  -7  -6 -12   -5.00    5.00
  -7  -6 -12    5.60    4.50
  -8  -6 -12    3.00    5.00
  -8  -6 -12    7.20    4.00
  -8  -6 -12    7.50    4.70
  -8  -6 -12   -9.00    6.10
  -9  -6 -12   -6.30    4.60
  -9  -6 -12   -4.00    6.50
  -9  -6 -12    1.90    3.10
 -10  -6 -12   26.30    7.70
 -10  -6 -12   27.90    9.80
 -11  -6 -12   -1.50    8.00
 -11  -6 -12   -1.00    5.90
 -12  -6 -12   -5.10    5.00
 -12  -6 -12  -10.10    7.70
   2  -7 -12   -8.40    6.80
  -2   7  12   10.30    9.10
  -2   7  12    9.20   11.40
   1  -7 -12   -1.40    6.40
   1  -7 -12    5.80    7.90
  -1   7  12   18.90   10.50
   0  -7 -12   -8.20    9.60
   0  -7 -12   -3.20    7.10
   0   7  12    0.20    8.40
  -1  -7 -12   -2.70    6.10
  -1  -7 -12   -1.60    6.20
   1   7  12    9.60    8.10
  -2  -7 -12   19.30    7.70
  -2  -7 -12   28.80    8.60
  -3  -7 -12    2.10    5.70
  -3  -7 -12    6.00    6.30
  -3  -7 -12    2.70    7.50
  -4  -7 -12   -4.90    5.10
  -4  -7 -12   -6.70    5.50
  -4  -7 -12   -3.40    5.00
  -5  -7 -12    1.70    7.90
  -5  -7 -12   -0.80    5.70
  -5  -7 -12   -1.30    5.60
  -5  -7 -12    1.20    5.20
  -6  -7 -12   24.70    8.90
  -6  -7 -12   37.70    9.10
  -6  -7 -12   33.10    7.80
  -6  -7 -12   40.90    8.10
  -7  -7 -12    4.30    4.70
  -7  -7 -12    4.90    5.20
  -7  -7 -12   -3.30    6.50
  -7  -7 -12    3.80    5.50
  -8  -7 -12    2.50    4.00
  -8  -7 -12    9.40    6.10
  -8  -7 -12    9.50    6.20
  -8  -7 -12   -6.00    7.00
  -9  -7 -12   26.70    7.50
  -9  -7 -12   16.80    5.70
  -9  -7 -12   28.80    5.30
  -9  -7 -12   20.60    9.20
 -10  -7 -12    1.40    5.30
 -10  -7 -12    3.50    7.50
 -11  -7 -12   45.90   12.70
 -11  -7 -12   29.70    9.00
   2  -8 -12    4.60    8.60
   2  -8 -12   11.00    8.60
  -2   8  12   12.90   10.30
   1  -8 -12    3.10    7.70
   1  -8 -12    5.60    8.50
  -1   8  12    1.90    8.50
   0  -8 -12  -10.50    5.60
   0  -8 -12   11.40    8.90
  -1  -8 -12    6.70    8.30
  -1  -8 -12   -1.00   10.50
   1   8  12   13.40    9.70
  -2  -8 -12   39.20    9.90
  -2  -8 -12   34.40   10.00
  -3  -8 -12    3.10    6.70
  -3  -8 -12   12.90    8.40
  -3  -8 -12   12.90    7.10
  -4  -8 -12    0.70    6.70
  -4  -8 -12    9.80    6.40
  -4  -8 -12   -1.90    5.40
  -5  -8 -12   11.80    6.20
  -5  -8 -12    5.60    6.50
  -5  -8 -12   15.80    6.70
  -6  -8 -12    9.20    5.80
  -6  -8 -12    0.40    6.20
  -6  -8 -12    1.10    6.80
  -6  -8 -12    6.70    5.60
  -7  -8 -12    2.00    4.20
  -7  -8 -12    7.70    5.70
  -7  -8 -12    4.00    6.60
  -8  -8 -12   -1.50    5.30
  -8  -8 -12    7.60    7.50
  -8  -8 -12    7.90    4.50
  -8  -8 -12   -5.20    5.40
  -9  -8 -12   29.40    6.20
  -9  -8 -12   18.60    6.60
  -9  -8 -12   43.40    9.60
  -9  -8 -12   44.60   11.10
 -10  -8 -12    8.10    5.90
 -10  -8 -12   11.00    8.30
 -10  -8 -12    6.80    3.60
 -11  -8 -12   28.20   13.50
 -11  -8 -12    7.00    8.20
   1  -9 -12   -3.10    7.20
   1  -9 -12    2.80    7.20
  -1   9  12   -5.40    8.20
   0  -9 -12   -7.40    7.20
   0  -9 -12    7.80    7.70
   0   9  12    0.00    9.20
  -1  -9 -12   35.40   10.40
   1   9  12   44.40   12.50
  -2  -9 -12   -4.20    6.00
  -2  -9 -12   17.00    8.20
  -3  -9 -12   10.00    7.60
  -3  -9 -12   23.10    9.20
  -3  -9 -12    8.80   11.90
  -4  -9 -12    4.70    6.30
  -4  -9 -12    0.80    6.30
  -4  -9 -12    4.20    7.90
  -5  -9 -12   16.90    8.00
  -5  -9 -12    9.20    8.20
  -5  -9 -12   20.90    7.80
  -6  -9 -12   34.30   10.00
  -6  -9 -12   30.70    8.00
  -6  -9 -12   18.00    6.80
  -7  -9 -12    2.50    5.90
  -7  -9 -12    5.10    5.50
  -7  -9 -12   -9.30    6.40
  -7  -9 -12   -3.90    6.90
  -8  -9 -12    2.20    6.10
  -8  -9 -12   -5.70    6.10
  -8  -9 -12    2.10    8.40
  -8  -9 -12    2.80    4.90
  -9  -9 -12   -4.80    7.20
  -9  -9 -12    6.90    9.90
  -9  -9 -12    2.30    6.20
  -9  -9 -12    1.70    4.10
 -10  -9 -12   33.70    8.90
 -10  -9 -12   11.40    5.70
 -10  -9 -12   23.00    5.50
 -10  -9 -12   19.50    9.60
   0 -10 -12    5.00    7.70
   0 -10 -12    2.40    8.10
  -1 -10 -12   -3.00    7.20
  -1 -10 -12   -1.10    7.80
   1  10  12   -3.70    9.00
  -2 -10 -12    4.20    6.50
  -3 -10 -12    3.40    7.20
  -3 -10 -12   -3.70    7.00
  -3 -10 -12   -2.50    6.70
  -4 -10 -12   -8.10    5.80
  -4 -10 -12   -6.80    6.20
  -4 -10 -12    7.00    8.00
  -5 -10 -12   -4.30    6.70
  -5 -10 -12   12.30    6.90
  -5 -10 -12   -3.50    4.60
  -6 -10 -12   30.30    8.40
  -6 -10 -12   38.90   11.20
  -6 -10 -12   36.80   10.00
  -7 -10 -12    1.50    5.50
  -7 -10 -12   -0.90    6.70
  -7 -10 -12   -1.20    5.60
  -8 -10 -12    6.70    7.90
  -8 -10 -12   -0.30    7.10
  -8 -10 -12    0.90    5.20
  -8 -10 -12    3.10    8.80
  -9 -10 -12   10.90    6.50
  -9 -10 -12   21.30    8.10
  -9 -10 -12    6.20    8.80
  -2 -11 -12   24.00    9.20
  -2 -11 -12   22.00    9.00
  -3 -11 -12   14.90    8.90
  -3 -11 -12    9.00   10.30
  -3 -11 -12   -4.10    6.20
  -4 -11 -12    5.00    7.30
  -4 -11 -12    8.80    6.90
  -4 -11 -12    2.60    7.30
  -5 -11 -12    5.70    6.70
  -5 -11 -12   -1.00    6.80
  -5 -11 -12    8.80    8.20
  -6 -11 -12    7.80    8.10
  -6 -11 -12    1.90    5.80
  -6 -11 -12    2.80    6.50
  -7 -11 -12    6.00    6.50
  -7 -11 -12   13.00    8.80
  -7 -11 -12    9.80    7.00
   5  -7  13   35.50   11.00
  -2   6 -13   -4.00    5.70
   2  -6  13   -2.30    6.20
   2  -6  13    4.10    7.00
  -3   6 -13    6.60    4.60
   3  -6  13   -5.00    7.20
   3  -6  13   -2.70    4.60
   4  -6  13    2.60    7.90
   5  -6  13   68.89   14.10
  -6   6 -13    5.40    5.50
  -6   6 -13   11.30    4.90
   6  -6  13    1.20    7.30
  -7   6 -13   19.40    6.80
  -7   6 -13    2.40    7.20
   7  -6  13   -4.40    6.60
  -8   6 -13   13.30    8.40
   8  -6  13   12.80    7.50
   0  -5  13    4.70    7.90
   0  -5  13   10.30    7.40
  -1   5 -13   13.60    8.60
   1  -5  13   15.50    8.10
   1  -5  13   27.40    8.20
  -2   5 -13    0.70    6.60
   2  -5  13   10.00    7.20
   2  -5  13    0.40    6.80
  -3   5 -13   -4.60    4.70
   3  -5  13   -3.20    5.70
   3  -5  13   -4.60    4.80
   4  -5  13   18.30    8.80
  -5   5 -13    6.20    4.60
   5  -5  13   13.60    7.50
  -6   5 -13   26.80    7.20
  -6   5 -13   22.40    7.20
   6  -5  13   40.30    9.40
  -7   5 -13   -7.20    6.90
  -7   5 -13   -2.50    6.00
   7  -5  13   -8.40    6.00
  -8   5 -13   14.50    8.00
   8  -5  13   14.40    7.80
  -9   5 -13    3.90    7.70
   9  -5  13    9.00    6.60
  -1  -4  13    2.60    7.50
  -1  -4  13   -3.90    7.20
   0  -4  13   31.10    8.90
   0  -4  13    9.70    8.10
  -1   4 -13   -0.20    8.50
   1  -4  13   -3.10    6.80
   1  -4  13    5.90    6.40
   2  -4  13    1.00    6.50
  -3   4 -13   -1.80    5.20
   3  -4  13    2.30    6.70
   3  -4  13    8.20    6.20
  -4   4 -13   16.40    4.90
   4  -4  13    6.40    6.10
  -5   4 -13   27.20    6.60
  -5   4 -13   14.80    6.00
   5  -4  13   26.90    8.00
  -6   4 -13    7.00    5.90
  -6   4 -13    6.90    6.40
   6  -4  13   11.70    6.90
  -7   4 -13   -0.30    7.30
  -7   4 -13    1.90    7.80
   7  -4  13    8.70    5.70
  -8   4 -13   -5.50    7.30
   8  -4  13   -1.10    4.90
  -9   4 -13   20.80    9.00
  -9   4 -13   12.30    7.50
   9  -4  13   22.60    7.20
 -10   4 -13    1.40    8.60
 -10   4 -13   -2.50    6.50
  10  -4  13    1.90    5.20
  -1  -3  13    0.10    7.50
  -1  -3  13    3.40    7.40
   0  -3  13   14.70    7.70
   0  -3  13    1.60    7.20
   1  -3  13   39.80   15.90
   1  -3  13   26.70    8.70
  -2   3 -13    1.50    6.40
   2  -3  13   -2.10    6.60
   2  -3  13    2.60    6.30
  -3   3 -13    0.10    5.40
  -3   3 -13   -1.80    4.30
  -3   3 -13    8.90    4.70
   3  -3  13    2.10    5.70
   3  -3  13    4.70    7.10
  -4   3 -13    4.20    4.60
  -4   3 -13    2.00    4.40
  -4   3 -13   -3.30    4.90
   4  -3  13   10.50    6.60
  -5   3 -13   52.09   10.60
  -5   3 -13   60.49   10.90
  -5   3 -13   80.39    9.40
  -5   3 -13   37.40   11.60
   5  -3  13   79.19   12.90
  -6   3 -13    0.20    5.90
  -6   3 -13    5.20    6.20
   6  -3  13   -6.80    5.20
  -7   3 -13   19.10    9.10
  -7   3 -13    1.70    6.80
   7  -3  13    2.80    5.50
  -8   3 -13    4.20    6.10
  -8   3 -13    3.00    7.10
   8  -3  13    8.60    5.80
  -9   3 -13   14.60    8.60
  -9   3 -13   19.80    7.30
   9  -3  13    9.70    6.20
 -10   3 -13   17.90    6.50
 -10   3 -13   12.50    9.90
  10  -3  13   16.00    6.20
 -11   3 -13    5.80    5.60
 -11   3 -13   -4.90    8.40
  11  -3  13   -0.90    4.60
   2   2 -13   -1.10    3.90
   2   2 -13   -3.40    6.00
  -2  -2  13    7.10    8.40
  -2  -2  13   10.70    8.60
   1   2 -13    2.00    4.70
   1   2 -13    3.00    6.60
  -1  -2  13   16.20    8.70
  -1  -2  13   10.20    7.80
   0   2 -13   -1.20    3.90
   0   2 -13   -5.50    7.20
   0  -2  13    8.10    7.10
   0  -2  13    4.00    7.00
  -1   2 -13   34.60    9.10
  -1   2 -13   31.40    6.60
   1  -2  13   30.50   10.00
   1  -2  13   40.60    9.90
  -2   2 -13   -0.30    7.00
  -2   2 -13    8.40    4.60
  -2   2 -13    2.00    4.70
   2  -2  13   -1.70    7.30
   2  -2  13   15.40    6.70
  -3   2 -13   10.70    5.10
  -3   2 -13    8.30    5.20
  -3   2 -13    2.70    6.20
   3  -2  13    2.60    5.70
   3  -2  13   10.90    7.00
  -4   2 -13   -1.00    5.20
  -4   2 -13    2.70    4.50
  -4   2 -13   -1.20    4.80
  -4   2 -13   -1.10    5.10
   4  -2  13   -5.60    5.50
  -5   2 -13    6.90    4.80
  -5   2 -13    6.50    5.90
  -5   2 -13    9.00    5.90
  -5   2 -13   15.90    4.30
   5  -2  13   -3.60    6.10
  -6   2 -13   11.00    4.70
  -6   2 -13   33.60    8.10
  -6   2 -13   27.50    4.50
  -6   2 -13   40.50   12.10
   6  -2  13   33.30    7.90
  -7   2 -13   -0.80    5.60
  -7   2 -13   -1.20    7.80
  -7   2 -13   -6.30    5.60
   7  -2  13   -4.80    5.00
  -8   2 -13    0.30    6.20
  -8   2 -13    6.00    7.30
   8  -2  13   10.60    6.50
  -9   2 -13    4.00    4.80
  -9   2 -13   -5.30    7.40
   9  -2  13    3.70    5.30
 -10   2 -13   31.60    7.10
 -10   2 -13   23.70   10.30
  10  -2  13   37.20    7.40
 -11   2 -13  -12.60    7.90
 -11   2 -13    3.90    4.20
  11  -2  13    6.60    4.00
   2   1 -13    4.20    7.00
   2   1 -13    9.70    6.00
  -2  -1  13   10.70    8.30
  -2  -1  13    1.80    8.10
   1   1 -13    0.70    4.60
   1   1 -13   -8.80    5.60
  -1  -1  13    1.30    7.50
  -1  -1  13  -11.70    6.20
   0   1 -13   -1.10    4.70
   0   1 -13    8.50    5.70
   0  -1  13   -2.00    6.60
  -1   1 -13    7.10    5.10
  -1   1 -13   10.80    5.40
   1  -1  13    5.50    7.50
   1  -1  13   -0.90    7.00
  -2   1 -13   28.80    9.80
  -2   1 -13   45.80    8.10
  -2   1 -13   28.70    7.10
   2  -1  13   26.80    9.10
   2  -1  13   50.99    9.90
  -3   1 -13   -9.30    4.40
  -3   1 -13   -0.50    9.10
  -3   1 -13    1.10    5.10
   3  -1  13    0.20    7.00
  -4   1 -13    0.60    6.10
  -4   1 -13    1.40    5.50
  -4   1 -13    7.20    5.40
  -4   1 -13  -10.20    4.00
   4  -1  13    5.80    7.20
  -5   1 -13    4.50    6.50
  -5   1 -13   12.50    5.80
  -5   1 -13   13.50    4.80
  -5   1 -13    7.40    6.40
   5  -1  13   24.30    7.50
  -6   1 -13   15.30    6.40
  -6   1 -13   22.30    5.10
  -6   1 -13   31.00    8.60
  -6   1 -13   36.70    8.70
  -6   1 -13   32.50    8.10
   6  -1  13   43.20    8.50
  -7   1 -13   12.80    6.60
  -7   1 -13    6.00    4.70
  -7   1 -13    4.70    7.50
  -7   1 -13    3.00    2.90
  -7   1 -13    2.70    5.50
   7  -1  13    6.80    5.80
  -8   1 -13    9.40    5.60
  -8   1 -13   10.90    7.50
   8  -1  13    8.40    5.90
  -9   1 -13    5.50    7.00
  -9   1 -13   17.80    5.60
   9  -1  13   16.40    5.80
 -10   1 -13    8.70    4.20
 -10   1 -13   -3.70    8.10
 -11   1 -13   -2.30    8.60
  -2   0  13   13.50    8.20
  -2   0  13   -8.60    6.60
   1   0 -13    2.50    6.60
   1   0 -13    1.20    7.00
  -1   0  13   -2.10    6.00
  -1   0  13    6.00    7.70
   0   0 -13    4.90    5.00
   0   0 -13    8.00    6.30
   0   0  13   -2.90    7.30
   0   0  13   12.50    7.60
  -1   0 -13    8.50    5.70
  -1   0 -13   17.60    6.70
   1   0  13   11.00    7.80
   1   0  13   29.30    8.30
  -2   0 -13   40.00    8.80
  -2   0 -13   42.60   11.30
  -2   0 -13   39.70    8.90
   2   0  13   37.00   10.50
   2   0  13   59.39   10.60
  -3   0 -13    5.70    6.40
  -3   0 -13   -0.70    5.10
  -3   0 -13    3.00    5.30
   3   0  13    9.80    7.50
  -4   0 -13   -0.90    4.60
  -4   0 -13   -6.80    5.20
  -4   0 -13    6.70    6.70
   4   0  13    7.40    6.40
  -5   0 -13   92.39   18.80
  -5   0 -13  123.09   19.00
  -5   0 -13  178.78   18.60
   5   0  13  143.29   20.20
  -6   0 -13    5.50    6.10
  -6   0 -13    8.50    4.30
  -6   0 -13   -1.30    5.50
  -6   0 -13   -2.10    5.40
  -6   0 -13   -4.70    6.40
   6   0  13   -0.60    5.60
  -7   0 -13   49.90    9.30
  -7   0 -13   68.29   11.50
  -7   0 -13   50.89    8.30
  -8   0 -13   -2.70    4.50
  -8   0 -13   -3.10    6.50
  -8   0 -13   10.40    4.90
  -8   0 -13   -0.50    3.10
   8   0  13    0.00    4.90
  -9   0 -13   19.90    8.90
  -9   0 -13   11.40    3.90
  -9   0 -13    9.70    7.80
  -9   0 -13   17.40    5.20
 -10   0 -13   31.80    9.60
 -10   0 -13   25.00    6.20
 -10   0 -13   24.20    5.10
 -11   0 -13    5.80    8.30
 -12   0 -13    5.30    9.60
   2  -1 -13   21.30    9.20
  -2   1  13   21.60    8.20
  -2   1  13   23.40   10.10
  -2   1  13   26.40   14.10
   1  -1 -13   15.30    8.30
  -1   1  13   17.50    9.00
  -1   1  13    3.40    7.90
   0  -1 -13    6.80    6.70
   0  -1 -13   -7.40    5.30
   0   1  13   -3.70    6.70
   0   1  13   -1.30    7.30
  -1  -1 -13   49.50   10.20
  -1  -1 -13   30.80    8.30
   1   1  13   49.90   10.90
   1   1  13   39.40   10.70
  -2  -1 -13    1.60    6.20
  -2  -1 -13   10.60    5.50
   2   1  13   12.60    7.30
   2   1  13    6.20    6.50
  -3  -1 -13   17.30    6.30
  -3  -1 -13    5.60    5.70
  -3  -1 -13    3.40    7.20
  -3  -1 -13   12.90    6.40
   3   1  13   -6.10    6.20
  -4  -1 -13   13.30    6.70
  -4  -1 -13    1.60    6.70
  -4  -1 -13    3.60    5.40
  -4  -1 -13    1.70    5.10
   4   1  13   -8.40    5.40
  -5  -1 -13   62.99    9.60
  -5  -1 -13   44.60   10.90
  -5  -1 -13   37.10    9.70
  -5  -1 -13   52.49   10.70
  -5  -1 -13   44.90   12.40
   5   1  13   78.89   12.20
  -6  -1 -13   96.59   16.00
  -6  -1 -13   68.09   15.50
  -6  -1 -13  129.39   14.90
   6   1  13  121.19   16.80
  -7  -1 -13   16.40    5.00
  -7  -1 -13   13.60    6.00
  -7  -1 -13   13.30    6.60
  -7  -1 -13   21.20    7.70
  -8  -1 -13    6.40    5.50
  -8  -1 -13   -1.50    3.30
  -8  -1 -13    4.00    4.30
  -8  -1 -13    6.50    6.30
  -9  -1 -13    2.30    3.80
  -9  -1 -13   -0.30    3.90
  -9  -1 -13   -0.20    5.30
  -9  -1 -13    1.80    3.80
  -9  -1 -13    8.10    7.50
 -10  -1 -13   66.29   12.50
 -10  -1 -13   53.69    9.50
 -10  -1 -13   43.20    8.40
 -11  -1 -13    6.20    5.50
 -11  -1 -13    8.70    9.40
 -11  -1 -13    4.80    4.60
 -12  -1 -13   -4.50    5.20
 -12  -1 -13    0.10    5.90
 -12  -1 -13   -0.20    8.50
  -2   2  13    1.80    7.50
  -2   2  13    0.40    7.90
  -1   2  13   20.90    9.70
  -1   2  13    3.70    8.00
   0  -2 -13   -2.20    7.30
   0  -2 -13   -1.60    5.10
   0   2  13   -0.80    7.40
   0   2  13    6.20    8.40
  -1  -2 -13    5.70    7.00
  -1  -2 -13    5.30    6.10
   1   2  13   16.00    8.50
   1   2  13   19.90    9.00
  -2  -2 -13   55.79   11.10
  -2  -2 -13   60.39   12.00
   2   2  13   56.99   12.60
  -3  -2 -13    1.50    5.40
  -3  -2 -13    7.50    6.50
  -3  -2 -13   -5.10    4.60
   3   2  13    0.70    6.90
  -4  -2 -13   -1.00    6.30
  -4  -2 -13    1.00    5.60
  -4  -2 -13    5.20    7.70
  -4  -2 -13    5.40    5.10
   4   2  13   -2.10    6.30
  -5  -2 -13    5.70    5.80
  -5  -2 -13    0.60    6.20
  -5  -2 -13   -2.90    4.20
  -5  -2 -13  -12.30    5.40
  -6  -2 -13   57.89   10.90
  -6  -2 -13   75.39   11.30
  -6  -2 -13   46.20   10.40
  -6  -2 -13   50.39   10.80
  -7  -2 -13   -2.30    4.00
  -7  -2 -13    3.00    5.00
  -7  -2 -13   12.90    6.50
  -7  -2 -13    2.40    5.20
  -7  -2 -13   15.80    6.90
  -8  -2 -13    0.40    4.50
  -8  -2 -13    1.30    5.60
  -8  -2 -13    0.50    3.90
  -8  -2 -13   -2.00    6.40
  -8  -2 -13    1.60    4.50
  -9  -2 -13    9.50    6.00
  -9  -2 -13    3.30    3.70
  -9  -2 -13   -0.30    3.90
  -9  -2 -13    4.90    3.90
  -9  -2 -13    5.30    7.20
 -10  -2 -13    5.60    6.00
 -10  -2 -13    1.40    7.00
 -10  -2 -13    8.60    4.80
 -11  -2 -13    3.60    5.20
 -11  -2 -13   21.40    7.90
 -12  -2 -13   -3.70    6.90
 -12  -2 -13   -2.60    8.40
 -12  -2 -13   13.40    7.80
   2  -3 -13   -6.50    8.50
  -2   3  13    9.30    8.40
  -2   3  13  -14.50    7.40
   1  -3 -13    4.10    8.40
  -1   3  13   -0.10    7.20
  -1   3  13   -0.60    8.00
   0  -3 -13    0.60    7.60
   0   3  13  -10.60    6.30
  -1  -3 -13    6.20    6.40
  -1  -3 -13    6.80    7.40
   1   3  13    2.50    6.40
  -2  -3 -13   46.00   11.00
  -2  -3 -13   53.09   10.90
  -2  -3 -13   51.49   10.60
  -3  -3 -13    7.20    5.50
  -3  -3 -13    8.20    6.60
  -3  -3 -13    3.20    5.00
  -4  -3 -13    4.40    5.90
  -4  -3 -13   -1.40    5.10
  -4  -3 -13   -1.30    5.30
  -5  -3 -13   17.00    6.20
  -5  -3 -13   19.80    7.10
  -5  -3 -13   24.60    8.10
  -5  -3 -13    5.50    6.30
  -5  -3 -13   13.70    5.50
  -6  -3 -13    6.40    6.10
  -6  -3 -13    3.30    5.60
  -6  -3 -13    7.10    4.70
  -6  -3 -13    9.30    6.10
  -6  -3 -13   -8.40    5.60
  -7  -3 -13   18.70    6.60
  -7  -3 -13   20.80    6.60
  -7  -3 -13   20.30    7.60
  -7  -3 -13   28.60    6.60
  -7  -3 -13   20.70    7.60
  -8  -3 -13   -1.00    4.20
  -8  -3 -13   -4.80    4.40
  -8  -3 -13   -4.70    3.90
  -8  -3 -13    1.70    6.20
  -8  -3 -13   -4.50    5.80
  -9  -3 -13   13.00    7.60
  -9  -3 -13    8.10    7.80
  -9  -3 -13   12.60    4.60
  -9  -3 -13   13.20    5.50
  -9  -3 -13   14.40    4.30
 -10  -3 -13    2.60    7.00
 -10  -3 -13    8.50    5.40
 -10  -3 -13   13.70    7.60
 -11  -3 -13   13.90    5.90
 -11  -3 -13   16.80    9.00
 -11  -3 -13    3.40    7.30
 -12  -3 -13   -5.90    7.50
 -12  -3 -13    5.70    6.00
 -12  -3 -13    1.00    8.00
   2  -4 -13    0.80    8.60
  -2   4  13    0.10    8.00
  -2   4  13    6.10    8.20
   1  -4 -13    8.80    8.50
  -1   4  13   -0.40    7.50
   0  -4 -13   -7.40    8.80
   0   4  13   -6.60    7.20
   0   4  13    6.00    7.50
  -1  -4 -13   14.20    7.20
  -1  -4 -13    6.10    8.00
  -2  -4 -13    3.40    6.10
  -2  -4 -13    2.20    5.80
  -2  -4 -13    6.70    6.50
  -3  -4 -13   10.50    7.10
  -3  -4 -13    7.40    5.60
  -3  -4 -13   15.80    6.10
  -4  -4 -13    2.90    5.70
  -4  -4 -13   -2.30    4.90
  -4  -4 -13   -2.60    5.50
  -5  -4 -13   25.20    8.40
  -5  -4 -13   24.00    6.70
  -5  -4 -13   15.90    7.10
  -5  -4 -13   31.30    7.90
  -6  -4 -13   26.50    7.00
  -6  -4 -13   40.50    8.70
  -6  -4 -13   19.50    8.40
  -6  -4 -13   35.80    7.80
  -7  -4 -13    6.90    5.90
  -7  -4 -13   13.20    5.40
  -7  -4 -13   23.60    8.30
  -7  -4 -13   18.40    7.90
  -7  -4 -13    5.60    5.40
  -8  -4 -13    0.50    4.00
  -8  -4 -13   -6.90    3.80
  -8  -4 -13    8.10    5.10
  -8  -4 -13  -11.30    5.60
  -8  -4 -13    5.50    7.10
  -9  -4 -13    5.50    3.60
  -9  -4 -13   -2.70    4.00
  -9  -4 -13    6.50    4.30
  -9  -4 -13    8.10    7.60
  -9  -4 -13    5.20    6.80
 -10  -4 -13   31.70    7.70
 -11  -4 -13   -0.60    7.20
 -11  -4 -13    3.20    5.40
 -12  -4 -13   -2.70    5.60
 -12  -4 -13  -10.50    8.00
   2  -5 -13   -8.40    7.70
  -2   5  13   -2.00    8.60
  -2   5  13  -11.00    7.40
   1  -5 -13   -4.80    7.40
  -1   5  13    8.10    9.30
  -1   5  13   34.60   11.30
   0  -5 -13    0.20    9.90
   0   5  13   -3.70    7.50
  -1  -5 -13   -7.90    5.90
  -1  -5 -13   -6.50    7.00
  -2  -5 -13   21.90    7.80
  -2  -5 -13   16.10    8.40
  -2  -5 -13   12.60    7.40
  -3  -5 -13   15.90    7.60
  -3  -5 -13   10.70    6.80
  -3  -5 -13    5.60    6.30
  -4  -5 -13   -2.60    5.00
  -4  -5 -13   -3.70    4.80
  -4  -5 -13    3.10    5.70
  -5  -5 -13    2.50    5.10
  -5  -5 -13    3.80    6.80
  -5  -5 -13    1.40    5.30
  -6  -5 -13   69.99   11.00
  -6  -5 -13   53.89   11.00
  -6  -5 -13   32.80   11.00
  -6  -5 -13   78.19   11.40
  -7  -5 -13    3.80    6.30
  -7  -5 -13    9.80    5.60
  -7  -5 -13    9.90    5.70
  -7  -5 -13    0.70    5.20
  -8  -5 -13   -8.30    6.60
  -8  -5 -13    4.70    4.60
  -8  -5 -13    3.00    4.80
  -8  -5 -13    1.20    5.40
  -9  -5 -13    2.00    3.90
  -9  -5 -13   11.50   10.90
  -9  -5 -13   11.60    5.40
  -9  -5 -13    3.30    3.50
 -10  -5 -13    1.40    5.50
 -10  -5 -13   12.00    7.80
 -11  -5 -13   16.30    7.20
 -11  -5 -13   16.80    9.20
   1  -6 -13   19.90    9.90
  -1   6  13    5.60   10.00
  -1   6  13    9.40    9.80
   0  -6 -13   -4.40    7.40
   0  -6 -13    0.50    6.70
   0   6  13   -3.10    8.20
  -1  -6 -13   -8.40    6.90
  -1  -6 -13   -2.30    6.30
  -2  -6 -13   47.80   10.30
  -2  -6 -13   22.00    8.70
  -2  -6 -13   53.39   11.50
  -3  -6 -13   -1.00    6.10
  -3  -6 -13    6.80    7.20
  -3  -6 -13   -2.20    5.70
  -4  -6 -13   11.50    6.70
  -4  -6 -13    4.10    6.10
  -4  -6 -13    1.60    6.00
  -5  -6 -13    9.40    6.50
  -5  -6 -13   10.30    7.00
  -5  -6 -13    8.10    6.20
  -6  -6 -13   33.20    8.10
  -6  -6 -13   17.90    8.00
  -6  -6 -13   28.00    7.60
  -6  -6 -13   36.30   10.30
  -7  -6 -13   38.80    8.50
  -7  -6 -13   26.20    9.00
  -7  -6 -13   29.00    7.20
  -8  -6 -13   -2.30    5.00
  -8  -6 -13    6.60    7.70
  -8  -6 -13    1.20    5.00
  -8  -6 -13   -2.50    4.30
  -9  -6 -13   11.30    4.30
  -9  -6 -13    6.20    5.60
  -9  -6 -13    9.20    4.90
  -9  -6 -13   12.70    8.50
 -10  -6 -13    1.20    7.70
 -10  -6 -13   -2.40    4.60
 -11  -6 -13   21.00    7.30
 -11  -6 -13   -2.30    8.60
   1  -7 -13    5.20    8.40
   1  -7 -13   -6.40    6.40
  -1   7  13  -17.20    8.10
   0  -7 -13   -9.00    7.20
   0  -7 -13    3.60    7.70
  -1  -7 -13   16.70    8.20
   1   7  13   15.20   10.00
  -2  -7 -13   -0.80    6.70
  -2  -7 -13   15.20    8.20
  -2  -7 -13    0.10    7.20
  -3  -7 -13   11.90    8.20
  -3  -7 -13   13.30    7.10
  -3  -7 -13    1.50    7.00
  -4  -7 -13    7.40    6.80
  -4  -7 -13   -2.30    5.80
  -4  -7 -13   -3.80    6.00
  -5  -7 -13   10.80    7.70
  -5  -7 -13   16.50    7.00
  -5  -7 -13   19.30    7.20
  -6  -7 -13    6.70    6.40
  -6  -7 -13   11.50    5.70
  -6  -7 -13   13.80    8.00
  -7  -7 -13   -5.70   10.60
  -7  -7 -13   11.10    7.30
  -7  -7 -13   22.30    7.30
  -7  -7 -13   20.60    6.20
  -8  -7 -13    1.80    5.50
  -8  -7 -13    3.00    4.30
  -8  -7 -13    0.70    6.80
  -8  -7 -13    0.20    5.80
  -9  -7 -13    5.70    4.10
  -9  -7 -13   -2.80    7.50
  -9  -7 -13    7.80    5.00
  -9  -7 -13   -5.30    4.70
 -10  -7 -13   28.70    8.40
 -10  -7 -13   25.30   10.30
   0  -8 -13   -7.30    6.10
   0  -8 -13   -2.80    7.60
   0   8  13    1.60   10.30
  -1  -8 -13   13.30    9.00
  -1  -8 -13   20.20    9.10
   1   8  13   27.60   12.00
  -2  -8 -13   16.70    8.20
  -2  -8 -13   16.30    8.80
  -2  -8 -13   26.20    9.30
  -3  -8 -13   11.70    7.70
  -3  -8 -13   24.00   11.10
  -3  -8 -13   22.50    9.70
  -4  -8 -13    4.90    6.70
  -4  -8 -13    9.60    7.50
  -4  -8 -13   21.70    9.50
  -5  -8 -13    3.40    6.20
  -5  -8 -13   13.80    7.30
  -5  -8 -13    5.60    7.20
  -6  -8 -13   42.50    9.50
  -6  -8 -13   56.69   10.10
  -6  -8 -13   34.90   10.90
  -7  -8 -13   16.80    8.80
  -7  -8 -13   -2.50    5.60
  -7  -8 -13    8.80    5.40
  -7  -8 -13    6.70    6.70
  -8  -8 -13    1.60    5.10
  -8  -8 -13   -3.10    6.60
  -8  -8 -13    2.20    6.00
  -9  -8 -13    3.50    4.30
  -9  -8 -13    3.20    6.40
  -9  -8 -13   -1.40    5.60
  -9  -8 -13    3.50    7.80
  -1  -9 -13   -4.10    6.90
  -1  -9 -13   11.40    8.40
   1   9  13  -11.20    8.40
  -2  -9 -13   48.70   10.90
  -2  -9 -13   25.50   10.70
  -2  -9 -13   36.90   11.30
  -3  -9 -13   10.70    7.00
  -3  -9 -13   -4.30    6.30
  -3  -9 -13   -7.80    7.60
  -4  -9 -13   17.60    7.80
  -4  -9 -13    4.20    7.30
  -4  -9 -13    2.40    7.40
  -5  -9 -13   -0.10    6.00
  -5  -9 -13    3.20    5.90
  -5  -9 -13    0.40    7.40
  -6  -9 -13   31.60    8.80
  -6  -9 -13   26.80    8.00
  -6  -9 -13    9.10    7.90
  -7  -9 -13   12.10    9.10
  -7  -9 -13   19.30    6.70
  -7  -9 -13    8.10    6.40
  -8  -9 -13    8.90    7.40
  -8  -9 -13   -4.20    5.70
  -8  -9 -13    3.70    7.10
  -8  -9 -13    5.20    5.40
  -3 -10 -13   17.90    9.90
  -4 -10 -13  -10.60    6.00
  -4 -10 -13    3.00    6.80
  -4 -10 -13   -1.40    7.20
  -5 -10 -13    8.60    7.60
  -5 -10 -13   11.70    7.20
  -5 -10 -13    1.20    6.50
  -6 -10 -13   -6.70    5.10
  -6 -10 -13   -1.70    6.00
  -6 -10 -13    3.10    8.20
  -4   5 -14    3.10    4.50
   4  -5  14   -0.20    6.40
   5  -5  14    2.00    7.20
  -6   5 -14    3.10    5.40
  -6   5 -14    8.00    5.80
   6  -5  14    4.20    6.50
  -2   4 -14    0.00    7.10
   2  -4  14    3.70    6.80
   2  -4  14   -0.90    7.50
  -3   4 -14    3.90    6.20
   3  -4  14    3.20    6.50
   3  -4  14   -3.30    7.30
  -4   4 -14    0.10    0.40
  -4   4 -14   -4.60    4.40
   4  -4  14   -4.90    7.00
  -5   4 -14   12.40    5.50
   5  -4  14   18.00    7.70
  -6   4 -14   16.90    6.60
  -6   4 -14   22.10    7.40
   6  -4  14    5.30    7.00
  -7   4 -14    5.20    9.00
  -7   4 -14    1.60    7.00
   7  -4  14    0.60    6.20
  -8   4 -14   17.80    8.40
  -8   4 -14    3.40    8.80
   8  -4  14   -7.10    5.50
   1  -3  14    6.00    8.50
   1  -3  14   -3.80    7.00
  -2   3 -14    7.50    8.10
   2  -3  14   11.20    7.30
   2  -3  14    6.60    7.60
  -3   3 -14   13.40    8.60
   3  -3  14   -3.50    7.60
  -4   3 -14    0.00    5.30
  -4   3 -14    1.80    4.90
  -4   3 -14   10.10    5.20
  -4   3 -14   -2.50    4.90
   4  -3  14    1.60    7.20
  -5   3 -14   -2.90    5.50
  -5   3 -14    0.50    3.30
  -5   3 -14   -1.60    5.50
  -5   3 -14   -3.40    4.30
   5  -3  14    6.10    6.80
  -6   3 -14   18.10    7.50
  -6   3 -14   27.20    7.70
   6  -3  14   22.60    8.10
  -7   3 -14   -6.10    6.80
  -7   3 -14   -1.00    6.60
   7  -3  14    6.10    6.80
  -8   3 -14   15.40    8.70
   8  -3  14   -3.20    5.80
  -9   3 -14    6.20    6.70
  -9   3 -14   -7.00    7.70
   9  -3  14   10.20    6.60
   0   2 -14   -4.60    4.20
   0  -2  14   -6.40    7.30
   0  -2  14    7.60    8.30
  -1   2 -14   -3.70    7.60
  -1   2 -14    0.30    4.60
   1  -2  14   -4.10    7.70
   1  -2  14   -6.60    6.90
  -2   2 -14   26.80    6.50
  -2   2 -14   12.60    5.70
   2  -2  14   26.70    9.40
   2  -2  14   17.40   14.80
  -3   2 -14    2.90    5.30
  -3   2 -14    6.30    5.10
  -3   2 -14    1.40    6.90
   3  -2  14   -1.30    7.20
  -4   2 -14   -5.70    4.80
  -4   2 -14    3.20    5.00
  -4   2 -14   -6.80    5.10
  -4   2 -14   -1.60    6.00
   4  -2  14   -1.00    6.30
  -5   2 -14   10.00    6.60
  -5   2 -14   -3.50    4.60
  -5   2 -14    6.20    4.60
  -5   2 -14   -2.70    5.50
   5  -2  14    4.60    7.00
  -6   2 -14    0.30    2.90
  -6   2 -14    7.40    8.30
   6  -2  14    0.00    6.20
  -7   2 -14   -3.60    6.60
  -7   2 -14   -0.60    7.40
   7  -2  14   10.10    7.10
  -8   2 -14    0.30    7.10
  -8   2 -14    9.80    8.20
   8  -2  14   -1.90    6.10
  -9   2 -14   14.10    8.90
  -9   2 -14    5.30    6.30
   9  -2  14   10.30    6.50
 -10   2 -14   -3.20    8.20
 -10   2 -14    4.00    6.10
  10  -2  14   -1.40    5.40
   0   1 -14    6.00    5.80
   0   1 -14    0.00    6.10
   0  -1  14    4.30    7.60
   0  -1  14   -1.10    7.80
  -1   1 -14   15.80    5.90
  -1   1 -14   17.70    6.70
   1  -1  14    2.20    7.50
   1  -1  14   23.10    9.20
  -2   1 -14    1.90    5.30
  -2   1 -14    1.10    5.80
   2  -1  14    1.50    8.00
   2  -1  14    3.10    7.30
  -3   1 -14    2.70    5.30
  -3   1 -14   14.10    6.20
  -3   1 -14   -5.50    7.10
   3  -1  14   -0.30    7.00
  -4   1 -14   -4.10    6.40
  -4   1 -14    1.20    5.70
  -4   1 -14   10.10    6.20
   4  -1  14    3.40    7.20
  -5   1 -14    5.60    7.60
  -5   1 -14   15.10    5.70
  -5   1 -14   27.50    7.50
   5  -1  14   15.50    7.90
  -6   1 -14   19.40    7.60
  -6   1 -14    0.10    7.00
  -6   1 -14   22.50    5.00
  -6   1 -14   10.90    5.80
   6  -1  14   10.40    6.70
  -7   1 -14   13.70    4.10
  -7   1 -14   18.80    7.70
   7  -1  14   17.20    7.40
  -8   1 -14    7.60    7.20
  -8   1 -14   -7.30    5.50
   8  -1  14   -4.90    5.30
  -9   1 -14    9.40    7.90
  -9   1 -14   10.80    6.30
   9  -1  14   11.50    5.50
 -10   1 -14   10.40    9.60
 -10   1 -14   27.70    6.60
   0   0 -14   -0.30    7.10
   0   0  14   -1.90    7.10
   0   0  14   -7.60    7.70
  -1   0 -14   19.20    7.50
   1   0  14   26.30    9.60
   1   0  14   25.60    9.80
  -2   0 -14   31.20    9.10
   2   0  14   26.90    9.40
   2   0  14   23.60    9.30
  -3   0 -14    7.30    9.80
  -3   0 -14   24.00   11.60
  -3   0 -14    3.80    6.20
   3   0  14    8.40    7.30
  -4   0 -14    4.00    5.60
  -4   0 -14    4.90    7.40
  -4   0 -14    0.00    5.30
  -4   0 -14   11.00    5.60
   4   0  14   -0.20    6.60
  -5   0 -14    1.70    5.50
  -5   0 -14    2.80    6.30
  -5   0 -14    5.20    7.60
  -5   0 -14   -3.00    4.80
   5   0  14    3.80    6.30
  -6   0 -14   61.69   10.10
  -6   0 -14   95.29   20.20
  -6   0 -14   62.29   11.30
   6   0  14   55.69   11.30
  -7   0 -14    7.20    4.20
  -7   0 -14   13.00    6.80
  -7   0 -14   -3.60    6.00
  -7   0 -14    3.50    5.50
   7   0  14    1.40    6.10
  -8   0 -14   -2.00    7.10
  -8   0 -14    4.40    5.00
  -8   0 -14   -6.00    2.80
  -8   0 -14    1.70    7.10
   8   0  14  -11.60    9.50
  -9   0 -14   12.60    6.00
  -9   0 -14    5.00    3.40
  -9   0 -14    9.20    8.10
 -10   0 -14   13.90    5.20
 -10   0 -14    5.30    8.00
   1  -1 -14   15.90    8.00
   0  -1 -14    2.30    6.10
   0  -1 -14    9.20    8.20
   0   1  14   11.70    8.50
   0   1  14   23.20   10.30
  -1  -1 -14    3.50    7.20
  -1  -1 -14   -0.90    5.80
   1   1  14   -2.60    8.00
  -2  -1 -14   55.69   10.90
  -2  -1 -14   45.30    9.60
   2   1  14   23.10    9.50
  -3  -1 -14   10.50    6.10
  -3  -1 -14    3.30    6.50
  -3  -1 -14   -0.70    4.90
   3   1  14   -1.40    6.60
  -4  -1 -14   -3.50    5.90
  -4  -1 -14   -8.00    6.60
  -4  -1 -14    1.50    6.60
  -4  -1 -14    2.20    5.30
   4   1  14   -1.00    6.40
  -5  -1 -14    5.10    6.30
  -5  -1 -14   10.90    5.70
  -5  -1 -14    0.30    6.80
   5   1  14    2.10    7.40
  -6  -1 -14   12.50    5.70
  -6  -1 -14   17.10    7.30
  -6  -1 -14   11.40    7.30
   6   1  14   12.40    7.30
  -7  -1 -14   28.30    6.30
  -7  -1 -14   29.60    9.10
  -7  -1 -14   18.00    7.60
  -7  -1 -14   32.80    8.60
  -8  -1 -14    0.60    6.70
  -8  -1 -14   -5.30    3.60
  -8  -1 -14    2.10    5.20
  -8  -1 -14   -0.20    6.10
  -9  -1 -14   14.80    5.40
  -9  -1 -14   16.80    8.20
  -9  -1 -14    2.60    6.30
  -9  -1 -14    5.10    3.90
  -9  -1 -14    4.50    5.00
 -10  -1 -14    0.00    3.70
 -10  -1 -14    1.60    4.10
 -10  -1 -14    3.00    5.60
 -10  -1 -14    5.00    7.80
 -10  -1 -14    2.00    4.10
 -11  -1 -14   24.40    6.20
 -11  -1 -14   22.10    7.20
 -11  -1 -14   35.20   11.70
   0  -2 -14   -3.10    6.30
   0   2  14    8.40    9.60
  -1  -2 -14   14.10    6.70
   1   2  14    3.20    7.70
  -2  -2 -14    0.60    5.30
   2   2  14   13.90    8.30
  -3  -2 -14   17.40    7.30
  -3  -2 -14   27.40    8.30
  -4  -2 -14    0.50    5.80
  -4  -2 -14    0.10    5.30
  -5  -2 -14   10.40    5.70
  -5  -2 -14   -2.50    7.30
  -5  -2 -14    7.40    6.30
  -6  -2 -14    8.30    6.60
  -6  -2 -14   -1.10    7.20
  -6  -2 -14   17.30    6.50
  -6  -2 -14    9.10    5.40
  -7  -2 -14   14.80    7.30
  -7  -2 -14   13.40    5.40
  -7  -2 -14    4.10    6.90
  -7  -2 -14   17.50    6.70
  -8  -2 -14    8.20    6.00
  -8  -2 -14    5.20    7.70
  -8  -2 -14   -0.80    4.80
  -8  -2 -14    0.30    4.80
  -8  -2 -14    9.80    7.10
  -9  -2 -14    4.10    4.60
  -9  -2 -14   12.40    5.30
  -9  -2 -14    5.80    7.00
  -9  -2 -14   -0.80    6.80
  -9  -2 -14    6.60    4.60
 -10  -2 -14    9.50    4.50
 -10  -2 -14   24.80    6.30
 -10  -2 -14   26.40    9.20
 -10  -2 -14   17.30    7.40
 -10  -2 -14   19.80    4.50
 -11  -2 -14   -3.50    8.40
 -11  -2 -14    0.80    5.30
 -11  -2 -14    7.00    7.00
   0  -3 -14    7.10    8.40
   0  -3 -14   13.20    7.40
   0   3  14    4.70    8.90
  -1  -3 -14   -3.10    8.60
  -1  -3 -14   18.10    7.40
  -2  -3 -14   23.30    8.70
  -2  -3 -14    2.10    6.80
  -2  -3 -14    5.40    6.30
  -3  -3 -14   15.70    6.40
  -3  -3 -14   18.90    7.00
  -3  -3 -14    2.20    7.80
  -4  -3 -14    5.40    6.00
  -4  -3 -14   -1.70    6.30
  -4  -3 -14   -1.30    5.70
  -5  -3 -14    5.00    5.50
  -5  -3 -14   14.90    7.00
  -5  -3 -14    1.50    5.70
  -6  -3 -14   17.90   11.00
  -6  -3 -14   30.60    7.40
  -6  -3 -14   20.60    7.50
  -6  -3 -14   14.20    7.70
  -7  -3 -14   -3.60    6.10
  -7  -3 -14   -1.20    5.30
  -7  -3 -14   12.90    7.80
  -7  -3 -14   -1.30    4.20
  -7  -3 -14    1.10    6.10
  -8  -3 -14    4.10    5.10
  -8  -3 -14   -0.40    5.00
  -8  -3 -14    4.40    6.70
  -8  -3 -14    0.90    6.70
  -8  -3 -14    3.00    4.60
  -9  -3 -14   -0.70    4.40
  -9  -3 -14   -7.40    4.00
  -9  -3 -14    1.10    4.40
  -9  -3 -14    5.80    7.60
  -9  -3 -14    2.10    7.90
 -10  -3 -14   12.30    5.30
 -10  -3 -14   -8.00    6.70
 -10  -3 -14    5.10    8.00
 -11  -3 -14    2.20    5.00
 -11  -3 -14   12.30    8.40
 -11  -3 -14    3.30    8.30
   0  -4 -14    3.10    7.60
   0   4  14   -4.80    7.60
  -1  -4 -14    2.70    7.20
  -1  -4 -14   -0.40    8.00
  -1  -4 -14    4.90    6.50
  -2  -4 -14   39.90   10.20
  -2  -4 -14   61.79   11.80
  -2  -4 -14   34.00   10.30
  -3  -4 -14    7.10    6.20
  -3  -4 -14    4.90    6.30
  -3  -4 -14    0.10    7.20
  -4  -4 -14   10.20    6.90
  -4  -4 -14    5.60    6.80
  -4  -4 -14    7.20    6.30
  -5  -4 -14    5.10    6.20
  -5  -4 -14   -4.80    6.20
  -5  -4 -14    3.80    5.00
  -6  -4 -14   10.30    7.30
  -6  -4 -14   17.60    6.30
  -6  -4 -14   24.60    7.20
  -7  -4 -14   -1.70    5.90
  -7  -4 -14    8.90    5.80
  -7  -4 -14   -0.10    4.60
  -7  -4 -14    9.90    7.80
  -8  -4 -14   -3.70    7.30
  -8  -4 -14    3.70    5.00
  -8  -4 -14   -2.20    5.20
  -8  -4 -14   -0.40    4.60
  -9  -4 -14    4.40    4.80
  -9  -4 -14    1.30    4.50
  -9  -4 -14   12.00    4.50
 -10  -4 -14   17.00    9.40
 -10  -4 -14   -4.50    4.70
   0  -5 -14    1.10    8.40
  -1  -5 -14    5.20    9.30
  -1  -5 -14   -5.40    7.30
  -1  -5 -14    2.60    6.90
  -2  -5 -14   27.00    9.20
  -2  -5 -14    0.80    6.60
  -2  -5 -14    6.70    6.80
  -3  -5 -14    1.20    6.40
  -3  -5 -14   16.70    7.30
  -3  -5 -14    4.40    6.30
  -4  -5 -14    1.60    5.90
  -4  -5 -14    6.00    6.50
  -4  -5 -14    4.70    6.00
  -5  -5 -14    0.90    5.90
  -5  -5 -14   -3.50    5.20
  -5  -5 -14  -10.10    6.10
  -6  -5 -14   -7.10    6.90
  -6  -5 -14   12.40    6.20
  -6  -5 -14    2.00    5.80
  -7  -5 -14   30.10    9.80
  -7  -5 -14   37.90    8.20
  -7  -5 -14   22.40    7.80
  -7  -5 -14   27.60    7.70
  -8  -5 -14   -1.30    5.70
  -8  -5 -14    4.30    4.90
  -8  -5 -14   -1.70    4.80
  -9  -5 -14    0.80    4.50
  -9  -5 -14    9.90    5.50
  -9  -5 -14   15.30    9.00
  -9  -5 -14   16.50    6.00
 -10  -5 -14   14.90    6.60
 -10  -5 -14   10.30    9.10
  -1  -6 -14    4.70    7.90
  -1  -6 -14    6.90    7.20
  -1  -6 -14    5.90    8.20
  -2  -6 -14    7.90   10.30
  -2  -6 -14    6.70    7.50
  -3  -6 -14   30.10    9.10
  -3  -6 -14   30.10    9.40
  -3  -6 -14    9.20    7.90
  -4  -6 -14    2.90    6.90
  -4  -6 -14    1.70    6.00
  -4  -6 -14    2.20    6.30
  -5  -6 -14   -7.20    6.70
  -5  -6 -14    3.60    5.90
  -5  -6 -14    4.60    6.40
  -6  -6 -14   12.80    6.90
  -6  -6 -14   12.70    6.80
  -6  -6 -14   11.50    8.60
  -7  -6 -14   14.20    6.10
  -7  -6 -14    4.20    5.30
  -7  -6 -14   11.40    6.80
  -7  -6 -14   -4.50    7.70
  -8  -6 -14    6.70    6.40
  -8  -6 -14   10.00    6.10
  -8  -6 -14   -4.20    6.90
  -9  -6 -14   -3.80    3.80
  -9  -6 -14    6.10    5.90
  -9  -6 -14   -4.70    5.00
  -9  -6 -14   -1.10    7.60
 -10  -6 -14    9.00    6.40
  -2  -7 -14   17.60    9.50
  -2  -7 -14   15.50    9.80
  -2  -7 -14   18.70    8.40
  -3  -7 -14   14.10    7.90
  -3  -7 -14    5.90    8.20
  -3  -7 -14    4.70    7.80
  -4  -7 -14   -5.90    6.40
  -4  -7 -14   11.10    7.60
  -4  -7 -14    2.80    6.90
  -5  -7 -14    5.30    6.40
  -5  -7 -14   17.30    7.20
  -5  -7 -14    2.10    6.90
  -6  -7 -14   57.69   10.60
  -6  -7 -14   44.20   11.90
  -6  -7 -14   29.60    9.60
  -7  -7 -14    3.00    7.50
  -7  -7 -14   11.00    6.40
  -7  -7 -14    8.10    6.50
  -8  -7 -14    6.90    6.50
  -8  -7 -14    1.40    6.30
  -8  -7 -14    6.90    5.30
  -8  -7 -14   18.00    9.40
  -9  -7 -14   -3.80    5.60
  -9  -7 -14   -1.10    5.30
  -9  -7 -14    0.50    4.60
  -9  -7 -14   18.30    9.40
  -3  -8 -14   29.30    9.90
  -3  -8 -14   28.10   11.10
  -4  -8 -14    8.70    7.10
  -4  -8 -14   -2.30    5.90
  -4  -8 -14    9.80    8.40
  -5  -8 -14    4.10    6.70
  -5  -8 -14    9.10    8.00
  -5  -8 -14   -3.00    6.50
  -6  -8 -14    5.00    6.30
  -6  -8 -14   12.40    7.30
  -6  -8 -14   -7.30    7.10
  -7  -8 -14   22.30   10.20
  -7  -8 -14   18.20   13.20
  -7  -8 -14   23.80    7.40
  -4   2 -15    1.10    5.80
  -4   2 -15   -0.80    6.40
  -4   2 -15   -0.30   11.80
  -4   2 -15   -3.20    5.40
   4  -2  15    1.10    9.10
  -5   2 -15  -10.70    5.80
  -5   2 -15    0.50    6.20
  -5   2 -15   -1.80    4.80
  -5   2 -15    0.40    5.30
   5  -2  15   16.00    8.40
  -6   2 -15    2.90    3.50
  -6   2 -15    0.20    4.90
  -6   2 -15    7.80    7.10
   6  -2  15    4.50    7.40
  -7   2 -15   16.90    8.30
  -7   2 -15   -3.00    7.60
   7  -2  15   14.50    8.10
  -3   1 -15   10.50    7.20
  -3   1 -15    2.50    6.40
   3  -1  15    5.80    8.30
  -4   1 -15    3.00    5.90
  -4   1 -15    0.30    7.90
  -4   1 -15   12.80    7.50
   4  -1  15   10.50    8.40
  -5   1 -15   -2.70    6.90
  -5   1 -15   -9.20    5.80
  -5   1 -15    6.80    7.20
  -5   1 -15    4.00    5.30
   5  -1  15    3.90    7.60
  -6   1 -15   15.30    5.20
  -6   1 -15   19.30    9.50
  -6   1 -15    7.40    6.70
  -6   1 -15    7.70    7.40
   6  -1  15    6.50    7.90
  -7   1 -15   13.90    7.80
  -7   1 -15   15.30    6.70
  -7   1 -15   13.50    4.80
   7  -1  15   18.00    8.00
  -8   1 -15   -7.30    7.40
   8  -1  15   15.40    7.10
  -2   0 -15   10.60    6.60
   2   0  15   -2.80    8.60
  -3   0 -15   21.90    8.10
  -3   0 -15   10.80    7.20
  -3   0 -15    1.70    6.00
   3   0  15    7.80   13.00
  -4   0 -15   -0.40    6.50
  -4   0 -15   -2.00    9.90
  -4   0 -15    6.40    6.80
  -4   0 -15    7.00    6.20
   4   0  15    4.00    7.10
  -5   0 -15   -3.50    5.30
  -5   0 -15   11.60    7.90
  -5   0 -15    5.60    7.60
  -5   0 -15    3.30    7.70
   5   0  15    7.90    7.40
  -6   0 -15   10.60    7.40
  -6   0 -15    5.30    6.50
  -6   0 -15    3.70    4.90
   6   0  15   -1.70    6.50
  -7   0 -15   24.10    6.10
  -7   0 -15   16.40    7.70
  -7   0 -15   35.90    8.80
   7   0  15   31.50    9.00
  -8   0 -15    6.50    8.00
  -8   0 -15    0.90    5.40
  -8   0 -15    6.10    3.90
  -8   0 -15   29.70    9.30
   8   0  15    8.30    6.60
  -9   0 -15   -0.80   10.50
  -2  -1 -15    8.70   10.30
  -2  -1 -15    2.90    7.00
   2   1  15    6.30    8.70
  -3  -1 -15   -0.20    6.50
  -3  -1 -15   16.20    7.40
   3   1  15   16.30    9.70
  -4  -1 -15    4.80    5.90
  -4  -1 -15    1.10    6.00
   4   1  15    3.00    7.30
  -5  -1 -15    2.60    5.40
  -5  -1 -15    7.00    7.90
  -5  -1 -15    2.00    6.40
   5   1  15    3.50    7.40
  -6  -1 -15    9.50    8.00
  -6  -1 -15    6.50    5.80
  -6  -1 -15    9.20    6.90
   6   1  15    4.80    6.80
  -7  -1 -15    5.80    7.30
  -7  -1 -15    0.90    5.10
  -7  -1 -15    5.20    6.80
  -8  -1 -15    0.20    4.00
  -8  -1 -15    3.30    6.70
  -8  -1 -15    5.20    6.10
  -8  -1 -15    0.60    6.20
  -8  -1 -15   14.00    8.00
  -9  -1 -15   -1.50    3.70
  -9  -1 -15    4.30    6.30
  -9  -1 -15   -4.70    5.40
  -9  -1 -15    1.40    8.10
  -9  -1 -15  -13.60    8.90
  -2  -2 -15   21.80    8.20
  -2  -2 -15   26.50    9.00
  -3  -2 -15    4.90    6.90
  -3  -2 -15    9.70    7.00
  -4  -2 -15    6.10    6.80
  -4  -2 -15    4.00    6.20
  -5  -2 -15    0.60    6.10
  -5  -2 -15    4.70    6.90
  -5  -2 -15    4.50    5.60
  -6  -2 -15   13.80    7.50
  -6  -2 -15   16.00    6.30
  -6  -2 -15   10.00    9.00
  -6  -2 -15   18.30    8.30
  -7  -2 -15    2.20    6.40
  -7  -2 -15    8.80    6.80
  -7  -2 -15    3.70    5.20
  -7  -2 -15    4.30    8.00
  -8  -2 -15    0.00    7.10
  -8  -2 -15    5.20    6.20
  -8  -2 -15    2.50    6.80
  -8  -2 -15    3.10    4.90
  -8  -2 -15    4.20    9.50
  -9  -2 -15    6.00    9.00
  -9  -2 -15    1.40    7.10
  -9  -2 -15    4.10    5.40
  -9  -2 -15    0.80    5.60
  -2  -3 -15    3.80    6.60
  -2  -3 -15   -5.60    7.80
  -2  -3 -15    6.00    7.30
  -3  -3 -15   18.30    7.60
  -3  -3 -15   -2.40    6.00
  -3  -3 -15    2.30    8.60
  -4  -3 -15   19.00    8.50
  -4  -3 -15   19.70    7.50
  -4  -3 -15   -1.60    7.20
  -5  -3 -15    4.90    6.10
  -5  -3 -15   12.30    7.10
  -5  -3 -15    2.40    6.40
  -6  -3 -15    7.90    5.90
  -6  -3 -15    1.80    6.80
  -6  -3 -15    5.80    6.50
  -7  -3 -15   13.00    8.30
  -7  -3 -15    0.00    4.80
  -7  -3 -15    8.50    6.70
  -8  -3 -15    6.00    6.90
  -8  -3 -15   -0.30    8.80
  -8  -3 -15    2.30    5.60
  -8  -3 -15   10.50    8.20
  -8  -3 -15   -0.40    5.10
  -9  -3 -15    8.70    5.70
  -9  -3 -15   -6.60    8.00
  -9  -3 -15    5.30   10.70
  -9  -3 -15    3.30    5.60
  -9  -3 -15   -2.90    4.80
  -3  -4 -15   22.10    8.50
  -3  -4 -15   14.40   10.60
  -3  -4 -15   32.10    8.80
  -4  -4 -15    6.50    7.50
  -4  -4 -15   -4.40    5.90
  -4  -4 -15  -10.00    6.20
  -5  -4 -15    4.20    6.60
  -5  -4 -15   -1.50    6.90
  -5  -4 -15    1.00    5.20
  -6  -4 -15    6.90    7.50
  -6  -4 -15   -3.20    6.00
  -6  -4 -15   -2.50    5.40
  -7  -4 -15   -0.60    6.80
  -7  -4 -15    1.00    6.30
  -7  -4 -15    5.60    5.50
  -8  -4 -15    2.80    5.80
  -8  -4 -15    2.10    6.50
  -8  -4 -15    0.80    5.00
  -8  -4 -15   -8.50   10.80
  -3  -5 -15    2.00    7.10
  -3  -5 -15    4.60    7.20
  -4  -5 -15   -2.70    6.10
  -4  -5 -15    3.90    6.50
  -4  -5 -15   -1.00    6.30
  -5  -5 -15   -1.30    5.70
  -5  -5 -15    4.00    7.30
  -5  -5 -15  -10.30    6.40
  -6  -5 -15   -0.50    5.90
  -6  -5 -15    8.80    6.90
  -7  -5 -15    2.90    7.60
  -7  -5 -15    5.30    6.50
  -7  -5 -15    5.60    5.90
  -8  -5 -15    9.10    7.10
  -8  -5 -15   -1.60    7.10
  -8  -5 -15    0.90    5.60
  -8  -5 -15    2.80    5.20
  -4  -6 -15   -0.50    7.00
  -5  -6 -15   -1.00    6.60
  -5  -6 -15    3.60    7.50
  -5  -6 -15    5.50    6.80
  -6  -6 -15   -5.10    7.80
  -6  -6 -15   11.50    7.10
  -6  -6 -15   -2.40    5.80
  -7  -6 -15   18.60    7.30
   0   0   0    0.00    0.00

_computing_structure_solution     'SHELXT 2018/2 (Sheldrick, 2018)'
;
_shelx_hkl_checksum   62368

