 
data_pvl449a_auto_a
 
_audit_creation_method            'SHELXL-2018/3'
_shelx_SHELXL_version_number      '2018/3'
_chemical_name_systematic         ?
_chemical_name_common             ?
_chemical_melting_point           ?
_chemical_formula_moiety          ?
_chemical_formula_sum
 'C24 H12.13 N12.07 O5.33 S1.33 Zn1.33' 
_chemical_formula_weight          684.76

loop_
 _atom_type_symbol
 _atom_type_description
 _atom_type_scat_dispersion_real
 _atom_type_scat_dispersion_imag
 _atom_type_scat_source
 'C'  'C'   0.0033   0.0016
 'International Tables Vol C Tables 4.2.6.8 and 6.1.1.4'
 'H'  'H'   0.0000   0.0000
 'International Tables Vol C Tables 4.2.6.8 and 6.1.1.4'
 'N'  'N'   0.0061   0.0033
 'International Tables Vol C Tables 4.2.6.8 and 6.1.1.4'
 'O'  'O'   0.0106   0.0060
 'International Tables Vol C Tables 4.2.6.8 and 6.1.1.4'
 'S'  'S'   0.1246   0.1234
 'International Tables Vol C Tables 4.2.6.8 and 6.1.1.4'
 'Zn'  'Zn'   0.2839   1.4301
 'International Tables Vol C Tables 4.2.6.8 and 6.1.1.4'
 
_space_group_crystal_system       monoclinic
_space_group_IT_number            14
_space_group_name_H-M_alt         'P 21/n'
_space_group_name_Hall            '-P 2yn'
 
_shelx_space_group_comment
;
The symmetry employed for this shelxl refinement is uniquely defined
by the following loop, which should always be used as a source of
symmetry information in preference to the above space-group names.
They are only intended as comments.
;
 
loop_
 _space_group_symop_operation_xyz
 'x, y, z'
 '-x+1/2, y+1/2, -z+1/2'
 '-x, -y, -z'
 'x-1/2, -y-1/2, z-1/2'
 
_cell_length_a                    9.0374(4)
_cell_length_b                    17.9691(8)
_cell_length_c                    11.7983(5)
_cell_angle_alpha                 90
_cell_angle_beta                  101.105(4)
_cell_angle_gamma                 90
_cell_volume                      1880.10(14)
_cell_formula_units_Z             3
_cell_measurement_temperature     150(2)
_cell_measurement_reflns_used     ?
_cell_measurement_theta_min       ?
_cell_measurement_theta_max       ?
 
_exptl_crystal_description        ?
_exptl_crystal_colour             ?
_exptl_crystal_density_meas       ?
_exptl_crystal_density_method     ?
_exptl_crystal_density_diffrn     1.814          
_exptl_crystal_F_000              1034
_exptl_transmission_factor_min    ?
_exptl_transmission_factor_max    ?
_exptl_crystal_size_max           ?
_exptl_crystal_size_mid           ?
_exptl_crystal_size_min           ?
_exptl_absorpt_coefficient_mu     1.471
_shelx_estimated_absorpt_T_min    ?
_shelx_estimated_absorpt_T_max    ?
_exptl_absorpt_correction_type    ?
_exptl_absorpt_correction_T_min   ?
_exptl_absorpt_correction_T_max   ?
_exptl_absorpt_process_details    ?
_exptl_absorpt_special_details    ?
_diffrn_ambient_temperature       150(2)
_diffrn_radiation_wavelength      0.71073
_diffrn_radiation_type            MoK\a
_diffrn_source                    ?
_diffrn_measurement_device_type   ?
_diffrn_measurement_method        ?
_diffrn_detector_area_resol_mean  ?
_diffrn_reflns_number             9902
_diffrn_reflns_av_unetI/netI      0.0333
_diffrn_reflns_av_R_equivalents   0.0199
_diffrn_reflns_limit_h_min        -11
_diffrn_reflns_limit_h_max        7
_diffrn_reflns_limit_k_min        -16
_diffrn_reflns_limit_k_max        22
_diffrn_reflns_limit_l_min        -16
_diffrn_reflns_limit_l_max        13
_diffrn_reflns_theta_min          2.093
_diffrn_reflns_theta_max          29.678
_diffrn_reflns_theta_full         25.242
_diffrn_measured_fraction_theta_max   0.843
_diffrn_measured_fraction_theta_full  1.000
_diffrn_reflns_Laue_measured_fraction_max    0.843
_diffrn_reflns_Laue_measured_fraction_full   1.000
_diffrn_reflns_point_group_measured_fraction_max   0.843
_diffrn_reflns_point_group_measured_fraction_full  1.000
_reflns_number_total              4491
_reflns_number_gt                 3792
_reflns_threshold_expression      'I > 2\s(I)'
_reflns_Friedel_coverage          0.000
_reflns_Friedel_fraction_max      .
_reflns_Friedel_fraction_full     .
 
_reflns_special_details
;
 Reflections were merged by SHELXL according to the crystal
 class for the calculation of statistics and refinement.
 
 _reflns_Friedel_fraction is defined as the number of unique
 Friedel pairs measured divided by the number that would be
 possible theoretically, ignoring centric projections and
 systematic absences.
;
 
_computing_data_collection        ?
_computing_cell_refinement        ?
_computing_data_reduction         ?
_computing_structure_solution     'SHELXT 2018/2 (Sheldrick, 2018)'
_computing_structure_refinement 'SHELXL-2018/3 (Sheldrick, 2018)'
_computing_molecular_graphics     ?
_computing_publication_material   ?
_refine_special_details           ?
_refine_ls_structure_factor_coef  Fsqd
_refine_ls_matrix_type            full
_refine_ls_weighting_scheme       calc
_refine_ls_weighting_details
'w=1/[\s^2^(Fo^2^)+(0.0358P)^2^+1.4544P] where P=(Fo^2^+2Fc^2^)/3'
_atom_sites_solution_primary      ?
_atom_sites_solution_secondary    ?
_atom_sites_solution_hydrogens    mixed
_refine_ls_hydrogen_treatment     mixed
_refine_ls_extinction_method      none
_refine_ls_extinction_coef        .
_refine_ls_number_reflns          4491
_refine_ls_number_parameters      355
_refine_ls_number_restraints      20
_refine_ls_R_factor_all           0.0448
_refine_ls_R_factor_gt            0.0339
_refine_ls_wR_factor_ref          0.0840
_refine_ls_wR_factor_gt           0.0789
_refine_ls_goodness_of_fit_ref    1.051
_refine_ls_restrained_S_all       1.074
_refine_ls_shift/su_max           1.905
_refine_ls_shift/su_mean          0.030
 
loop_
 _atom_site_label
 _atom_site_type_symbol
 _atom_site_fract_x
 _atom_site_fract_y
 _atom_site_fract_z
 _atom_site_U_iso_or_equiv
 _atom_site_adp_type
 _atom_site_occupancy
 _atom_site_site_symmetry_order  
 _atom_site_calc_flag
 _atom_site_refinement_flags_posn
 _atom_site_refinement_flags_adp
 _atom_site_refinement_flags_occupancy
 _atom_site_disorder_assembly
 _atom_site_disorder_group
Zn1_1 Zn 0.80819(3) 0.53244(2) 0.51440(2) 0.01762(8) Uani 1 1 d . . . . .
S1_1 S 0.59601(8) 0.71867(4) 0.96932(6) 0.03644(17) Uani 1 1 d . . . . .
O1_1 O 0.80127(19) 0.61315(10) 0.40544(14) 0.0288(4) Uani 1 1 d . . . . .
O2_1 O 0.49891(18) 0.95914(9) 0.12640(13) 0.0234(3) Uani 1 1 d . . . . .
C2_1 C 0.0621(3) 0.60161(16) 1.2069(2) 0.0333(6) Uani 1 1 d . . . . .
H2_1 H -0.005699 0.582784 1.252328 0.040 Uiso 1 1 calc R U . . .
O3_1 O 0.71244(18) 0.93563(9) 0.06754(13) 0.0242(4) Uani 1 1 d . . . . .
C3_1 C 0.2000(3) 0.67612(15) 1.1401(2) 0.0357(6) Uani 1 1 d . . . . .
H3_1 H 0.253490 0.719070 1.123797 0.043 Uiso 1 1 calc R U . . .
O4_1 O 0.6493(2) 0.66124(10) 0.51305(15) 0.0351(4) Uani 1 1 d . . . . .
C4_1 C 0.2865(3) 0.58552(13) 1.00459(18) 0.0217(5) Uani 1 1 d . . . . .
C5_1 C 0.4081(3) 0.62898(13) 0.98032(18) 0.0214(5) Uani 1 1 d . . . . .
C6_1 C 0.4891(2) 0.60405(13) 0.89454(18) 0.0206(5) Uani 1 1 d . . . . .
C7_1 C 0.4490(2) 0.53631(13) 0.83546(18) 0.0191(4) Uani 1 1 d . . . . .
C8_1 C 0.3328(3) 0.49575(14) 0.86161(19) 0.0224(5) Uani 1 1 d . . . . .
H8_1 H 0.305778 0.450067 0.822554 0.027 Uiso 1 1 calc R U . . .
C9_1 C 0.2516(3) 0.52031(14) 0.9458(2) 0.0245(5) Uani 1 1 d . . . . .
H9_1 H 0.170885 0.490790 0.961895 0.029 Uiso 1 1 calc R U . . .
C10_1 C 0.6113(3) 0.55115(13) 0.68929(19) 0.0226(5) Uani 1 1 d . . . . .
H10_1 H 0.629460 0.603183 0.696157 0.027 Uiso 1 1 calc R U . . .
C11_1 C 0.6086(3) 0.43796(14) 0.6397(2) 0.0245(5) Uani 1 1 d . . . . .
H11_1 H 0.628559 0.393975 0.600523 0.029 Uiso 1 1 calc R U . . .
C13_1 C 0.7101(3) 0.66356(13) 0.4278(2) 0.0251(5) Uani 1 1 d . . . . .
C14_1 C 0.6797(3) 0.72739(13) 0.34523(19) 0.0215(5) Uani 1 1 d . . . . .
C15_1 C 0.7775(3) 0.74120(13) 0.27069(19) 0.0219(5) Uani 1 1 d D . . . .
C16_1 C 0.7602(3) 0.80359(13) 0.19881(18) 0.0202(5) Uani 1 1 d D . . . .
C17_1 C 0.6369(2) 0.85155(12) 0.19920(18) 0.0194(4) Uani 1 1 d . . . . .
C18_1 C 0.5365(3) 0.83623(13) 0.2726(2) 0.0239(5) Uani 1 1 d D . . . .
C19_1 C 0.5571(3) 0.77524(14) 0.3464(2) 0.0246(5) Uani 1 1 d D . . . .
C20_1 C 0.6142(3) 0.91893(12) 0.12613(18) 0.0190(4) Uani 1 1 d . . . . .
N1_1 N 0.1107(3) 0.67360(13) 1.2153(2) 0.0399(6) Uani 1 1 d . . . . .
N2_1 N 0.2054(2) 0.60935(12) 1.08903(16) 0.0255(4) Uani 1 1 d . . . . .
N3_1 N 0.1146(2) 0.55997(13) 1.13242(18) 0.0303(5) Uani 1 1 d . . . . .
N4_1 N 0.4597(2) 0.69364(12) 1.02965(17) 0.0284(5) Uani 1 1 d . . . . .
N5_1 N 0.6006(2) 0.65099(12) 0.88089(17) 0.0283(5) Uani 1 1 d . . . . .
N6_1 N 0.5298(2) 0.51174(11) 0.75070(15) 0.0194(4) Uani 1 1 d . . . . .
N7_1 N 0.5271(2) 0.43838(11) 0.71948(17) 0.0253(4) Uani 1 1 d . . . . .
N8_1 N 0.6629(2) 0.50603(11) 0.61717(15) 0.0202(4) Uani 1 1 d . . . . .
H11A_1 H 0.942(2) 0.7825(13) 0.145(2) 0.030 Uiso 1 1 d D U . . .
H11B_1 H 0.866(3) 0.8503(12) 0.093(2) 0.030 Uiso 1 1 d D U . . .
N12_1 N 0.4604(9) 0.7671(4) 0.4164(6) 0.0328(17) Uani 0.3 1 d D . P A 1
H12A_1 H 0.475(9) 0.732(3) 0.471(5) 0.049 Uiso 0.3 1 d D U P B 1
H12B_1 H 0.427(9) 0.808(2) 0.447(6) 0.049 Uiso 0.3 1 d D U P C 1
N13_1 N 0.4298(17) 0.8764(8) 0.2926(13) 0.034(4) Uani 0.15 1 d D . P D 2
H13A_1 H 0.400(16) 0.920(5) 0.258(11) 0.051 Uiso 0.15 1 d D U P E 2
H13B_1 H 0.398(16) 0.877(8) 0.361(7) 0.051 Uiso 0.15 1 d D U P F 2
N11_1 N 0.8686(4) 0.8123(2) 0.1351(3) 0.0194(8) Uani 0.5 1 d D . P G 3
N14_1 N 0.858(2) 0.6996(12) 0.259(2) 0.035(5) Uani 0.1 1 d D . P H 4
H14A_1 H 0.973(6) 0.691(7) 0.29(2) 0.052 Uiso 0.1 1 d D U P I 4
H14B_1 H 0.853(13) 0.640(9) 0.235(17) 0.052 Uiso 0.1 1 d D U P J 4
 
loop_
 _atom_site_aniso_label
 _atom_site_aniso_U_11
 _atom_site_aniso_U_22
 _atom_site_aniso_U_33
 _atom_site_aniso_U_23
 _atom_site_aniso_U_13
 _atom_site_aniso_U_12
Zn1_1 0.01990(14) 0.01459(14) 0.01885(13) -0.00074(10) 0.00493(9) -0.00108(10)
S1_1 0.0374(4) 0.0383(4) 0.0368(4) -0.0154(3) 0.0150(3) -0.0168(3)
O1_1 0.0308(9) 0.0211(9) 0.0331(9) 0.0095(7) 0.0022(7) 0.0014(8)
O2_1 0.0248(8) 0.0218(9) 0.0217(8) -0.0007(6) -0.0005(6) 0.0066(7)
C2_1 0.0346(14) 0.0361(15) 0.0333(13) 0.0041(11) 0.0170(11) 0.0025(12)
O3_1 0.0286(9) 0.0194(8) 0.0259(8) 0.0064(7) 0.0086(7) 0.0036(7)
C3_1 0.0468(16) 0.0233(13) 0.0437(15) 0.0050(11) 0.0256(13) 0.0064(12)
O4_1 0.0573(12) 0.0240(10) 0.0259(9) 0.0049(7) 0.0127(8) -0.0066(9)
C4_1 0.0224(11) 0.0227(12) 0.0207(11) 0.0058(9) 0.0058(9) 0.0047(9)
C5_1 0.0242(11) 0.0220(12) 0.0177(10) 0.0027(9) 0.0029(8) 0.0022(10)
C6_1 0.0185(10) 0.0237(12) 0.0195(10) 0.0028(9) 0.0036(8) -0.0005(9)
C7_1 0.0196(10) 0.0207(12) 0.0171(10) 0.0037(8) 0.0039(8) 0.0022(9)
C8_1 0.0227(11) 0.0190(12) 0.0258(11) 0.0035(9) 0.0055(9) 0.0015(10)
C9_1 0.0220(11) 0.0248(13) 0.0287(12) 0.0072(9) 0.0093(9) 0.0004(10)
C10_1 0.0256(12) 0.0190(12) 0.0248(11) 0.0004(9) 0.0092(9) -0.0014(9)
C11_1 0.0258(12) 0.0202(12) 0.0286(12) -0.0021(10) 0.0079(9) -0.0029(10)
C13_1 0.0325(13) 0.0165(12) 0.0240(12) 0.0018(9) -0.0002(10) -0.0046(10)
C14_1 0.0271(12) 0.0160(11) 0.0205(11) -0.0005(8) 0.0022(9) -0.0037(9)
C15_1 0.0260(12) 0.0161(11) 0.0234(11) -0.0015(9) 0.0042(9) 0.0008(10)
C16_1 0.0235(11) 0.0165(11) 0.0202(10) -0.0017(8) 0.0038(9) -0.0022(9)
C17_1 0.0215(11) 0.0152(11) 0.0201(10) 0.0003(8) 0.0004(8) -0.0024(9)
C18_1 0.0231(11) 0.0209(12) 0.0277(12) 0.0007(9) 0.0047(9) -0.0003(10)
C19_1 0.0263(12) 0.0232(12) 0.0252(11) 0.0001(9) 0.0073(9) -0.0044(10)
C20_1 0.0228(11) 0.0157(11) 0.0167(10) -0.0022(8) -0.0008(8) -0.0012(9)
N1_1 0.0504(15) 0.0308(13) 0.0472(14) 0.0038(11) 0.0306(12) 0.0070(11)
N2_1 0.0277(10) 0.0264(11) 0.0250(10) 0.0057(8) 0.0117(8) 0.0040(9)
N3_1 0.0300(11) 0.0341(12) 0.0301(11) 0.0023(9) 0.0143(9) -0.0044(10)
N4_1 0.0303(11) 0.0298(12) 0.0257(10) -0.0042(9) 0.0067(8) -0.0031(9)
N5_1 0.0266(10) 0.0316(12) 0.0280(11) -0.0067(9) 0.0089(8) -0.0079(9)
N6_1 0.0195(9) 0.0182(10) 0.0210(9) 0.0013(7) 0.0055(7) 0.0000(8)
N7_1 0.0274(10) 0.0190(10) 0.0312(10) -0.0030(8) 0.0103(8) -0.0043(9)
N8_1 0.0209(9) 0.0173(10) 0.0233(9) 0.0010(8) 0.0063(7) -0.0015(8)
N12_1 0.034(4) 0.028(4) 0.040(4) 0.013(3) 0.017(3) 0.006(3)
N13_1 0.035(8) 0.021(8) 0.041(8) 0.023(6) -0.006(6) 0.002(6)
N11_1 0.0194(18) 0.0146(19) 0.0250(19) 0.0089(15) 0.0066(15) 0.0063(15)
N14_1 0.021(10) 0.021(11) 0.069(16) 0.028(11) 0.026(10) 0.012(9)
 
_geom_special_details
;
 All esds (except the esd in the dihedral angle between two l.s. planes)
 are estimated using the full covariance matrix.  The cell esds are taken
 into account individually in the estimation of esds in distances, angles
 and torsion angles; correlations between esds in cell parameters are only
 used when they are defined by crystal symmetry.  An approximate (isotropic)
 treatment of cell esds is used for estimating esds involving l.s. planes.
;
 
loop_
 _geom_bond_atom_site_label_1
 _geom_bond_atom_site_label_2
 _geom_bond_distance
 _geom_bond_site_symmetry_2
 _geom_bond_publ_flag
Zn1_1 O1_1 1.9309(16) . ?
Zn1_1 O2_1 1.9652(16) 4_676 ?
Zn1_1 O3_1 1.9815(16) 2_645 ?
Zn1_1 N8_1 2.0083(18) . ?
S1_1 N4_1 1.602(2) . ?
S1_1 N5_1 1.608(2) . ?
O1_1 C13_1 1.286(3) . ?
O2_1 C20_1 1.269(3) . ?
C2_1 N3_1 1.311(3) . ?
C2_1 N1_1 1.364(4) . ?
O3_1 C20_1 1.262(3) . ?
C3_1 N1_1 1.310(3) . ?
C3_1 N2_1 1.348(3) . ?
O4_1 C13_1 1.237(3) . ?
C4_1 C9_1 1.367(3) . ?
C4_1 N2_1 1.412(3) . ?
C4_1 C5_1 1.421(3) . ?
C5_1 N4_1 1.342(3) . ?
C5_1 C6_1 1.431(3) . ?
C6_1 N5_1 1.348(3) . ?
C6_1 C7_1 1.415(3) . ?
C7_1 C8_1 1.361(3) . ?
C7_1 N6_1 1.418(3) . ?
C8_1 C9_1 1.415(3) . ?
C10_1 N8_1 1.323(3) . ?
C10_1 N6_1 1.332(3) . ?
C11_1 N7_1 1.303(3) . ?
C11_1 N8_1 1.363(3) . ?
C13_1 C14_1 1.495(3) . ?
C14_1 C15_1 1.384(3) . ?
C14_1 C19_1 1.405(3) . ?
C15_1 N14_1 1.07(2) . ?
C15_1 C16_1 1.396(3) . ?
C16_1 N11_1 1.354(4) . ?
C16_1 C17_1 1.409(3) . ?
C17_1 C18_1 1.397(3) . ?
C17_1 C20_1 1.477(3) . ?
C18_1 N13_1 1.263(15) . ?
C18_1 C19_1 1.390(3) . ?
C19_1 N12_1 1.322(7) . ?
N2_1 N3_1 1.373(3) . ?
N6_1 N7_1 1.368(3) . ?
 
loop_
 _geom_angle_atom_site_label_1
 _geom_angle_atom_site_label_2
 _geom_angle_atom_site_label_3
 _geom_angle
 _geom_angle_site_symmetry_1
 _geom_angle_site_symmetry_3
 _geom_angle_publ_flag
O1_1 Zn1_1 O2_1 107.56(7) . 4_676 ?
O1_1 Zn1_1 O3_1 110.28(7) . 2_645 ?
O2_1 Zn1_1 O3_1 112.55(7) 4_676 2_645 ?
O1_1 Zn1_1 N8_1 129.66(8) . . ?
O2_1 Zn1_1 N8_1 101.72(7) 4_676 . ?
O3_1 Zn1_1 N8_1 94.36(7) 2_645 . ?
N4_1 S1_1 N5_1 101.20(11) . . ?
C13_1 O1_1 Zn1_1 109.42(15) . . ?
C20_1 O2_1 Zn1_1 131.05(14) . 4_575 ?
N3_1 C2_1 N1_1 115.9(2) . . ?
C20_1 O3_1 Zn1_1 117.78(14) . 2_655 ?
N1_1 C3_1 N2_1 110.6(2) . . ?
C9_1 C4_1 N2_1 121.1(2) . . ?
C9_1 C4_1 C5_1 118.7(2) . . ?
N2_1 C4_1 C5_1 120.1(2) . . ?
N4_1 C5_1 C4_1 127.3(2) . . ?
N4_1 C5_1 C6_1 113.3(2) . . ?
C4_1 C5_1 C6_1 119.4(2) . . ?
N5_1 C6_1 C7_1 127.3(2) . . ?
N5_1 C6_1 C5_1 112.6(2) . . ?
C7_1 C6_1 C5_1 120.0(2) . . ?
C8_1 C7_1 C6_1 119.0(2) . . ?
C8_1 C7_1 N6_1 121.2(2) . . ?
C6_1 C7_1 N6_1 119.84(19) . . ?
C7_1 C8_1 C9_1 121.3(2) . . ?
C4_1 C9_1 C8_1 121.5(2) . . ?
N8_1 C10_1 N6_1 108.9(2) . . ?
N7_1 C11_1 N8_1 114.2(2) . . ?
O4_1 C13_1 O1_1 123.1(2) . . ?
O4_1 C13_1 C14_1 120.1(2) . . ?
O1_1 C13_1 C14_1 116.8(2) . . ?
C15_1 C14_1 C19_1 119.8(2) . . ?
C15_1 C14_1 C13_1 119.5(2) . . ?
C19_1 C14_1 C13_1 120.6(2) . . ?
N14_1 C15_1 C14_1 119.0(10) . . ?
N14_1 C15_1 C16_1 119.1(11) . . ?
C14_1 C15_1 C16_1 121.3(2) . . ?
N11_1 C16_1 C15_1 115.0(2) . . ?
N11_1 C16_1 C17_1 126.0(2) . . ?
C15_1 C16_1 C17_1 119.0(2) . . ?
C18_1 C17_1 C16_1 119.3(2) . . ?
C18_1 C17_1 C20_1 119.3(2) . . ?
C16_1 C17_1 C20_1 121.3(2) . . ?
N13_1 C18_1 C19_1 110.4(6) . . ?
N13_1 C18_1 C17_1 127.9(6) . . ?
C19_1 C18_1 C17_1 121.3(2) . . ?
N12_1 C19_1 C18_1 117.0(4) . . ?
N12_1 C19_1 C14_1 123.8(4) . . ?
C18_1 C19_1 C14_1 119.2(2) . . ?
O3_1 C20_1 O2_1 122.1(2) . . ?
O3_1 C20_1 C17_1 118.8(2) . . ?
O2_1 C20_1 C17_1 119.1(2) . . ?
C3_1 N1_1 C2_1 102.5(2) . . ?
C3_1 N2_1 N3_1 109.4(2) . . ?
C3_1 N2_1 C4_1 130.8(2) . . ?
N3_1 N2_1 C4_1 119.7(2) . . ?
C2_1 N3_1 N2_1 101.6(2) . . ?
C5_1 N4_1 S1_1 106.44(16) . . ?
C6_1 N5_1 S1_1 106.40(16) . . ?
C10_1 N6_1 N7_1 110.42(18) . . ?
C10_1 N6_1 C7_1 129.2(2) . . ?
N7_1 N6_1 C7_1 120.34(18) . . ?
C11_1 N7_1 N6_1 102.53(19) . . ?
C10_1 N8_1 C11_1 103.89(19) . . ?
C10_1 N8_1 Zn1_1 126.56(16) . . ?
C11_1 N8_1 Zn1_1 129.15(16) . . ?
 
_refine_diff_density_max    0.368
_refine_diff_density_min   -0.400
_refine_diff_density_rms    0.071

_shelx_res_file
;
TITL pvl449a_auto_a.res in P2(1)/n; 150K; Xcalibur
    pvl449a_auto_a.res
    created by SHELXL-2018/3 at 17:43:19 on 02-Apr-2021
CELL  0.71073   9.0374  17.9691  11.7983   90.000  101.105   90.000
ZERR    3.000   0.0004   0.0008   0.0005    0.000    0.004    0.000
LATT  1
SYMM 1/2-X, 1/2+Y, 1/2-Z
SFAC C H N O S ZN
UNIT 72 36.4 36.2 16 4 4
DFIX_1 0.89 N14 H14a
DFIX_1 0.89 N14 H14b
DANG_1 1.5 H14a H14b! 1,3 dist H..H
DANG_1 2 C15 H14a C15 H14b!
DFIX_1 0.89 N13 H13a
DFIX_1 0.89 N13 H13b
DANG_1 1.5 H13a H13b! 1,3 dist H..H
DANG_1 2 C18 H13a C18 H13b!
DFIX_1 0.89 N12 H12a
DFIX_1 0.89 N12 H12b
DANG_1 1.5 H12a H12b! 1,3 dist H..H
DANG_1 2 C19 H12a C19 H12b!
ACTA
DFIX_1 0.89 N11 H11a
DFIX_1 0.89 N11 H11b
DANG_1 1.5 H11a H11b! 1,3 dist H..H
DANG_1 2 C16 H11a C16 H11b!
TEMP -123
L.S. 10
BOND
LIST 6
OMIT 0 1 2
FMAP 2
PLAN 20
WGHT    0.035800    1.454400
FVAR       0.28596   0.40211   0.37724   1.01762   0.42601   0.51996   0.27138
RESI 1 M001
ZN1   6    0.808194    0.532444    0.514401    11.00000    0.01990    0.01459 =
         0.01885   -0.00074    0.00493   -0.00108
S1    5    0.596015    0.718670    0.969317    11.00000    0.03736    0.03833 =
         0.03679   -0.01538    0.01504   -0.01681
O1    4    0.801266    0.613145    0.405437    11.00000    0.03082    0.02105 =
         0.03305    0.00952    0.00216    0.00143
O2    4    0.498907    0.959144    0.126395    11.00000    0.02477    0.02180 =
         0.02167   -0.00067   -0.00050    0.00660
C2    1    0.062050    0.601608    1.206931    11.00000    0.03462    0.03609 =
         0.03334    0.00408    0.01702    0.00254
AFIX  43
H2    2   -0.005699    0.582784    1.252328    11.00000   -1.20000
AFIX   0
O3    4    0.712435    0.935632    0.067540    11.00000    0.02857    0.01942 =
         0.02589    0.00636    0.00855    0.00363
C3    1    0.199960    0.676115    1.140081    11.00000    0.04675    0.02335 =
         0.04368    0.00501    0.02564    0.00643
AFIX  43
H3    2    0.253490    0.719070    1.123797    11.00000   -1.20000
AFIX   0
O4    4    0.649253    0.661244    0.513054    11.00000    0.05727    0.02396 =
         0.02590    0.00489    0.01266   -0.00661
C4    1    0.286488    0.585521    1.004591    11.00000    0.02244    0.02271 =
         0.02069    0.00576    0.00575    0.00468
C5    1    0.408081    0.628983    0.980322    11.00000    0.02415    0.02198 =
         0.01771    0.00266    0.00292    0.00224
C6    1    0.489098    0.604049    0.894537    11.00000    0.01850    0.02368 =
         0.01945    0.00284    0.00359   -0.00049
REM R-NH2 (non planar) FIX
C7    1    0.448986    0.536307    0.835457    11.00000    0.01961    0.02069 =
         0.01714    0.00369    0.00389    0.00219
C8    1    0.332822    0.495750    0.861607    11.00000    0.02269    0.01902 =
         0.02577    0.00353    0.00549    0.00145
AFIX  43
H8    2    0.305778    0.450067    0.822554    11.00000   -1.20000
AFIX   0
C9    1    0.251583    0.520307    0.945816    11.00000    0.02196    0.02477 =
         0.02866    0.00719    0.00930    0.00036
AFIX  43
H9    2    0.170885    0.490790    0.961895    11.00000   -1.20000
AFIX   0
C10   1    0.611305    0.551152    0.689291    11.00000    0.02559    0.01903 =
         0.02484    0.00036    0.00919   -0.00142
AFIX  43
H10   2    0.629460    0.603183    0.696157    11.00000   -1.20000
AFIX   0
C11   1    0.608627    0.437957    0.639675    11.00000    0.02583    0.02018 =
         0.02857   -0.00211    0.00795   -0.00292
AFIX  43
H11   2    0.628559    0.393975    0.600523    11.00000   -1.20000
AFIX   0
C13   1    0.710068    0.663564    0.427782    11.00000    0.03254    0.01652 =
         0.02395    0.00176   -0.00021   -0.00459
C14   1    0.679700    0.727386    0.345230    11.00000    0.02714    0.01603 =
         0.02046   -0.00050    0.00218   -0.00365
C15   1    0.777502    0.741205    0.270692    11.00000    0.02597    0.01612 =
         0.02344   -0.00153    0.00417    0.00083
C16   1    0.760171    0.803593    0.198814    11.00000    0.02354    0.01654 =
         0.02020   -0.00172    0.00376   -0.00224
C17   1    0.636888    0.851555    0.199203    11.00000    0.02149    0.01524 =
         0.02012    0.00033    0.00038   -0.00244
C18   1    0.536474    0.836227    0.272582    11.00000    0.02314    0.02086 =
         0.02767    0.00069    0.00473   -0.00034
C19   1    0.557081    0.775240    0.346365    11.00000    0.02633    0.02318 =
         0.02519    0.00007    0.00727   -0.00441
C20   1    0.614237    0.918932    0.126133    11.00000    0.02280    0.01574 =
         0.01672   -0.00217   -0.00082   -0.00123
N1    3    0.110654    0.673600    1.215263    11.00000    0.05040    0.03076 =
         0.04717    0.00383    0.03062    0.00702
N2    3    0.205397    0.609346    1.089033    11.00000    0.02767    0.02638 =
         0.02498    0.00574    0.01166    0.00400
N3    3    0.114568    0.559970    1.132418    11.00000    0.03001    0.03407 =
         0.03011    0.00228    0.01429   -0.00442
N4    3    0.459667    0.693645    1.029648    11.00000    0.03027    0.02978 =
         0.02565   -0.00418    0.00672   -0.00312
N5    3    0.600629    0.650986    0.880888    11.00000    0.02660    0.03162 =
         0.02802   -0.00675    0.00889   -0.00789
N6    3    0.529792    0.511742    0.750697    11.00000    0.01952    0.01817 =
         0.02105    0.00126    0.00552   -0.00001
N7    3    0.527094    0.438378    0.719482    11.00000    0.02744    0.01901 =
         0.03116   -0.00299    0.01025   -0.00431
N8    3    0.662880    0.506033    0.617166    11.00000    0.02090    0.01733 =
         0.02327    0.00098    0.00627   -0.00147
REM R-NH2 (non planar) FIX
H11A  2    0.942038    0.782468    0.145497    11.00000   -1.50000
H11B  2    0.866186    0.850299    0.092783    11.00000   -1.50000
PART 1
N12   3    0.460353    0.767051    0.416440    10.30000    0.03439    0.02754 =
         0.04041    0.01276    0.01712    0.00586
REM R-NH2 (non planar) FIX
H12A  2    0.475274    0.731986    0.471023    10.30000   -1.50000
H12B  2    0.426804    0.808474    0.447372    10.30000   -1.50000
PART 0
PART 2
N13   3    0.429788    0.876409    0.292606    10.15000    0.03468    0.02121 =
         0.04146    0.02252   -0.00563    0.00201
REM R-NH2 (non planar) FIX
H13A  2    0.400389    0.920415    0.257900    10.15000   -1.50000
H13B  2    0.397635    0.877380    0.361241    10.15000   -1.50000
PART 0
PART 3
N11   3    0.868591    0.812348    0.135129    10.50000    0.01945    0.01458 =
         0.02498    0.00894    0.00662    0.00629
PART 0
PART 4
PART 0
RESI 1 M001
PART 4
N14   3    0.857692    0.699619    0.259493    10.10000    0.02104    0.02143 =
         0.06920    0.02822    0.02593    0.01239
REM R-NH2 (non planar) FIX
H14A  2    0.973202    0.690983    0.287448    10.10000   -1.50000
H14B  2    0.853303    0.639804    0.235284    10.10000   -1.50000
PART 0
RESI 0
HKLF 4




REM  pvl449a_auto_a.res in P2(1)/n; 150K; Xcalibur
REM wR2 = 0.0840, GooF = S = 1.051, Restrained GooF = 1.074 for all data
REM R1 = 0.0339 for 3792 Fo > 4sig(Fo) and 0.0448 for all 4491 data
REM 355 parameters refined using 20 restraints

END

WGHT      0.0360      1.4330

REM Highest difference peak  0.368,  deepest hole -0.400,  1-sigma level  0.071
Q1    1   0.8063  0.5798  0.4452  11.00000  0.05    0.37
Q2    1   0.5845  0.8505  0.2435  11.00000  0.05    0.37
Q3    1   0.6853  0.8210  0.1814  11.00000  0.05    0.35
Q4    1   0.7126  0.5282  0.5864  11.00000  0.05    0.35
Q5    1   0.4750  0.8610  0.2599  11.00000  0.05    0.34
Q6    1   0.3388  0.6141  0.9818  11.00000  0.05    0.33
Q7    1   0.6714  0.6900  1.0161  11.00000  0.05    0.33
Q8    1   0.5240  0.7725  0.3937  11.00000  0.05    0.32
Q9    1   0.5999  0.5335  0.6339  11.00000  0.05    0.31
Q10   1   0.4257  0.6198  0.9223  11.00000  0.05    0.30
Q11   1   0.1368  0.5908  1.0838  11.00000  0.05    0.30
Q12   1   0.6170  0.7568  0.3666  11.00000  0.05    0.29
Q13   1   0.7788  0.7772  0.2437  11.00000  0.05    0.29
Q14   1   0.4276  0.9535  0.1449  11.00000  0.05    0.28
Q15   1   0.3000  0.5452  0.9878  11.00000  0.05    0.28
Q16   1   0.5248  0.6310  0.8816  11.00000  0.05    0.27
Q17   1   0.8865  0.7309  0.2732  11.00000  0.05    0.27
Q18   1   0.6093  0.8742  0.1445  11.00000  0.05    0.26
Q19   1   0.3676  0.5230  0.8249  11.00000  0.05    0.26
Q20   1   0.6096  0.6823  0.9160  11.00000  0.05    0.26
;
_shelx_res_checksum   90508

_shelx_hkl_file
;
   0   0   2  984.81   12.70
   0   0  -2  991.83   12.69
   0   0   3    1.56    0.75
   0   0  -3    1.06    0.87
   0   0   4  196.96    4.49
   0   0  -4  197.67    4.60
   0   0   5    0.57    0.81
   0   0  -5    0.13    0.98
   0   0  -6  468.93    9.14
   0   0  -7    0.13    1.02
   0   0  -8  853.75   15.19
   0   0  -9    1.64    1.33
   0   0 -10   98.53    4.86
   0   0 -11    2.21    1.63
   0   0 -12    2.02    1.48
   0   0 -13    1.58    1.62
   0   0 -14   30.23    3.51
   0   1  -1  735.59    9.26
   0   1  -2   29.33    1.33
   0  -1   2   29.42    1.27
   0  -1  -3  255.14    4.80
   0  -1   3  253.90    4.80
   0   1  -3  244.83    4.84
   0  -1  -4  134.91    2.18
   0  -1   4  138.15    2.28
   0  -1   4  137.88    3.67
   0  -1  -4  141.34    3.75
   0   1  -4  137.24    3.79
   0  -1  -5  158.84    2.46
   0  -1   5  155.91    2.56
   0  -1   5  173.49    4.56
   0  -1  -5  162.40    4.39
   0   1  -5  166.64    4.53
   0  -1   6    7.24    0.49
   0  -1  -6    7.10    1.32
   0  -1   6    7.42    1.19
   0   1  -6    6.44    1.26
   0  -1   7  118.74    4.37
   0  -1  -7  110.06    4.25
   0   1  -7  113.84    4.35
   0  -1   8    1.45    1.09
   0   1  -8    3.07    1.21
   0  -1  -8    2.85    1.29
   0   1  -9  170.40    6.08
   0  -1  -9  171.03    6.03
   0   1 -10    2.36    1.57
   0  -1 -10    3.35    1.54
   0   1 -10    0.31    0.54
   0   1 -11   50.39    2.16
   0  -1 -11   51.87    2.12
   0   1 -11   51.56    3.83
   0  -1 -11   56.25    3.98
   0  -1 -12   16.10    2.50
   0   1 -12   14.30    2.41
   0  -1 -13    2.04    1.76
   0   1 -13    4.70    1.83
   0   1 -14   29.54    3.49
   0  -1 -14   30.63    3.54
   0   2   0 1424.53   17.09
   0  -2   0 1413.14   17.10
   0   2  -1   42.61    1.29
   0  -2   1   42.85    1.27
   0   2   1   43.56    1.24
   0  -2  -1   43.70    1.24
   0  -2   1   42.77    1.35
   0  -2  -2  305.29    4.59
   0   2  -2  299.55    4.69
   0  -2   2  306.85    5.10
   0   2  -2  299.67    5.15
   0   2  -3   38.32    1.42
   0   2  -3   39.49    1.89
   0  -2   3   43.40    1.86
   0  -2  -4    6.25    0.56
   0  -2  -4    8.31    1.23
   0  -2   4    7.55    1.12
   0   2  -4    6.24    1.22
   0  -2   5    9.64    1.29
   0   2  -5    6.72    1.31
   0  -2  -5    9.13    0.61
   0  -2  -5    9.04    1.40
   0  -2  -6   59.48    1.44
   0  -2   6   61.70    1.59
   0  -2  -6   61.65    2.92
   0  -2   6   60.42    2.91
   0   2  -6   64.68    3.08
   0  -2   7  140.96    2.61
   0  -2   7  151.02    5.00
   0  -2  -7  144.68    4.86
   0   2  -7  146.52    5.00
   0  -2   8  319.75    8.06
   0  -2   8  282.41    4.17
   0   2  -8  307.13    5.75
   0   2  -8  310.34    8.00
   0  -2  -8  308.93    7.82
   0   2  -9  107.76    3.17
   0  -2  -9  102.58    4.66
   0   2  -9  103.82    4.77
   0  -2 -10   68.66    2.50
   0   2 -10   71.60    2.63
   0   2 -10   66.29    3.99
   0  -2 -10   68.14    4.00
   0  -2 -11  101.83    3.09
   0   2 -11  106.47    3.27
   0  -2 -11  103.84    5.24
   0   2 -11  102.11    5.28
   0  -2 -12   30.14    3.21
   0   2 -12   30.18    3.32
   0   2 -13   28.92    3.38
   0  -2 -13   28.32    3.44
   0  -2 -14    9.96    2.32
   0   2 -14   11.84    2.72
   0  -3   0    1.31    0.51
   0   3   0    0.36    0.59
   0   3  -1 1652.87   20.32
   0   3   1 1642.54   20.24
   0  -3   1 1652.13   20.28
   0  -3  -1 1643.09   20.23
   0  -3   2  589.37    8.39
   0  -3  -2  598.11    8.33
   0   3  -2  582.63    8.39
   0   3   2  597.60    8.30
   0   3  -2  578.08    8.78
   0  -3   2  571.82    8.71
   0  -3  -3  398.90    6.21
   0   3  -3  393.88    6.33
   0   3  -3  392.93    7.04
   0  -3   3  398.94    6.94
   0   3  -4   47.14    1.81
   0  -3  -4   48.27    1.72
   0   3  -4   46.28    2.32
   0  -3   4   48.92    2.27
   0  -3  -5  238.55    4.16
   0  -3  -5  244.65    4.66
   0   3  -5  244.30    4.78
   0   3  -5  251.40    5.97
   0  -3   5  254.49    5.95
   0  -3  -6  109.14    2.43
   0  -3  -6  112.91    3.96
   0  -3  -6  114.36    2.99
   0   3  -6  115.91    3.14
   0  -3   6  115.51    4.11
   0   3  -6  114.96    4.13
   0  -3   7  225.57    6.30
   0  -3  -7  209.32    6.00
   0  -3   7  215.05    3.90
   0  -3  -7  212.41    3.64
   0   3  -7  212.48    4.67
   0  -3  -7  216.49    4.57
   0   3  -7  212.09    6.16
   0  -3   8  174.06    5.82
   0  -3  -8  165.73    5.59
   0  -3   8  162.34    3.12
   0  -3  -8  160.84    2.80
   0   3  -8  167.43    4.12
   0  -3  -8  166.79    4.01
   0   3  -8  163.78    5.70
   0  -3   9  307.76    4.66
   0   3  -9  335.68    6.46
   0  -3  -9  325.73    6.22
   0  -3  -9  316.39    8.51
   0   3  -9  332.79    8.86
   0  -3 -10   75.55    2.69
   0   3 -10   75.62    2.80
   0   3 -10   76.02    4.35
   0  -3 -10   73.31    4.25
   0  -3 -11   -2.46    1.61
   0   3 -11    1.37    1.57
   0  -3 -11    0.75    0.60
   0   3 -11    0.42    0.57
   0  -3 -12   17.11    2.60
   0   3 -12   11.13    2.23
   0  -3 -13    1.45    1.70
   0   3 -13    2.71    1.92
   0   3 -14   13.39    2.88
   0  -3 -14   10.69    2.53
   0   4   0  548.82    8.25
   0  -4   0  550.51    8.25
   0  -4  -1    3.30    0.72
   0   4   1    2.58    0.82
   0  -4   1    3.73    0.77
   0   4  -1    2.00    0.75
   0   4   2   97.67    2.63
   0  -4   2   95.95    2.66
   0   4  -2   92.64    2.66
   0  -4  -2   96.82    2.60
   0  -4   2   92.39    2.79
   0   4  -3  232.24    4.60
   0  -4  -3  229.33    4.51
   0  -4   3  221.05    4.98
   0   4  -3  218.29    5.06
   0  -4  -4  221.42    4.52
   0   4  -4  224.23    4.65
   0  -4   4  220.51    5.32
   0   4  -4  229.73    5.43
   0   4  -5   52.58    2.13
   0  -4  -5   55.83    2.10
   0   4  -5   54.82    2.72
   0  -4   5   54.99    2.69
   0  -4  -6  374.02    6.17
   0  -4  -6  388.03    6.88
   0   4  -6  387.71    7.03
   0   4  -6  384.79    8.37
   0  -4   6  399.00    8.53
   0  -4  -7   39.88    2.65
   0  -4  -7   40.04    1.52
   0   4  -7   42.65    2.01
   0  -4  -7   43.52    1.96
   0   4  -7   41.89    2.74
   0  -4   7   45.21    2.84
   0  -4  -8  116.34    4.70
   0  -4   8  121.59    2.90
   0  -4  -8  118.42    2.65
   0  -4  -8  122.26    3.51
   0   4  -8  120.42    3.61
   0   4  -8  116.37    4.83
   0  -4  -9   17.02    2.13
   0   4  -9   19.48    2.27
   0  -4  -9   17.67    0.82
   0  -4   9   18.62    1.03
   0  -4  -9   15.17    1.27
   0   4  -9   17.81    1.43
   0  -4  10   93.18    2.09
   0   4 -10  107.04    3.46
   0  -4 -10  106.76    3.39
   0  -4 -10   97.64    4.83
   0   4 -10  103.16    5.08
   0   4 -11   -1.12    1.40
   0  -4 -11   -2.34    1.70
   0  -4 -11    0.65    0.64
   0   4 -11   -0.19    0.69
   0   4 -12    1.50    1.60
   0  -4 -12    2.12    1.67
   0   4 -13   30.71    3.49
   0  -4 -13   30.21    3.50
   0   4 -14    3.91    1.90
   0  -4 -14   -0.85    1.90
   0   5   0    1.28    0.85
   0  -5   0    1.04    0.77
   0   5  -1   18.60    1.43
   0   5   1   17.52    1.34
   0  -5  -1   17.22    1.28
   0  -5   1   17.30    1.25
   0  -5   2   68.48    2.44
   0  -5  -2   70.12    2.42
   0   5   2   69.74    2.44
   0   5  -2   69.53    2.48
   0  -5   2   66.45    2.47
   0   5  -3   46.65    2.05
   0  -5   3   46.76    2.08
   0  -5  -3   48.38    2.01
   0   5   3   49.52    2.05
   0  -5   3   48.69    2.28
   0   5  -4  475.99    8.15
   0  -5  -4  471.65    8.06
   0   5  -4  479.94    8.91
   0  -5   4  478.66    8.86
   0  -5  -5   79.31    2.70
   0   5  -5   72.69    2.68
   0   5  -5   76.36    3.31
   0  -5   5   74.50    3.21
   0   5  -6   47.20    2.19
   0  -5  -6   46.34    2.12
   0   5  -6   45.94    2.74
   0  -5   6   43.46    2.64
   0  -5  -7   54.99    2.06
   0   5  -7   59.02    2.51
   0  -5  -7   60.68    2.48
   0  -5   7   60.24    3.32
   0   5  -7   59.28    3.34
   0  -5  -8    3.91    1.25
   0   5  -8    4.51    1.34
   0  -5  -8    3.79    0.63
   0  -5  -8    4.51    0.86
   0   5  -8    3.48    0.83
   0  -5  -9  175.32    6.24
   0  -5   9  171.13    3.86
   0  -5  -9  176.28    3.58
   0  -5  -9  171.86    4.59
   0   5  -9  179.78    4.79
   0   5  -9  181.54    6.55
   0  -5 -10   49.55    3.52
   0  -5  10   46.04    1.71
   0  -5 -10   48.33    1.38
   0   5 -10   49.14    2.44
   0  -5 -10   48.74    2.43
   0   5 -10   51.44    3.76
   0   5 -11  127.89    4.02
   0   5 -11  133.19    6.16
   0  -5 -11  122.16    5.71
   0   5 -12   95.79    5.52
   0  -5 -12   96.22    5.46
   0   5 -13    4.20    1.84
   0  -5 -13    2.66    1.83
   0  -5 -14    5.26    3.02
   0   5 -14    4.90    2.25
   0  -6   0  215.74    4.96
   0   6   0  216.43    4.94
   0  -6  -1  151.02    3.97
   0   6   1  150.19    4.00
   0   6  -1  156.10    4.07
   0  -6   1  151.99    4.00
   0   6  -2   23.56    1.68
   0  -6  -2   21.57    1.54
   0   6   2   21.57    1.57
   0  -6   2   23.52    1.58
   0   6   3  561.03    9.37
   0  -6   3  563.81    9.54
   0  -6  -3  567.95    9.49
   0   6  -3  581.11    9.63
   0  -6   3  567.60    9.87
   0  -6  -4  232.92    5.27
   0   6  -4  232.26    5.36
   0  -6   4  228.23    5.76
   0   6  -5  218.61    5.25
   0  -6  -5  218.78    5.16
   0   6  -5  225.19    6.04
   0  -6   5  227.20    6.02
   0  -6  -6   48.05    2.30
   0   6  -6   49.34    2.39
   0  -6   6   49.00    2.88
   0   6  -6   48.03    2.93
   0  -6  -7  207.20    5.16
   0   6  -7  204.86    5.26
   0  -6   7  213.85    6.49
   0   6  -7  209.39    6.44
   0  -6  -8   63.66    3.60
   0  -6  -8   56.31    2.23
   0   6  -8   60.83    2.76
   0  -6  -8   58.37    2.63
   0   6  -8   63.33    3.71
   0  -6  -9   43.18    1.85
   0  -6  -9   44.66    3.29
   0   6  -9   40.32    2.32
   0  -6  -9   38.10    2.16
   0   6  -9   44.80    3.36
   0  -6  10    3.61    0.76
   0  -6 -10    4.74    0.67
   0  -6 -10    2.24    1.38
   0   6 -10    3.00    1.41
   0  -6 -10    3.83    0.91
   0   6 -10    4.30    0.97
   0  -6 -11   66.73    4.35
   0  -6  11   56.96    1.97
   0   6 -11   62.97    2.98
   0   6 -11   57.62    4.21
   0  -6 -12    0.88    1.55
   0   6 -12    1.66    1.84
   0  -6 -13  101.77    5.88
   0   6 -13   99.06    6.01
   0  -6 -14   -0.74    1.94
   0   6 -14    4.77    2.15
   0   7   0    1.03    0.95
   0  -7   0    0.15    0.72
   0  -7   1  113.11    3.62
   0   7   1  115.45    3.64
   0  -7  -1  110.74    3.62
   0   7  -1  117.42    3.70
   0  -7  -2  767.78   12.29
   0   7   2  754.90   12.18
   0  -7   2  770.96   12.28
   0   7  -2  779.17   12.35
   0  -7  -3  708.20   11.67
   0   7  -3  718.48   11.80
   0  -7   3  732.86   11.85
   0   7   3  704.92   11.57
   0  -7   3  721.68   12.05
   0  -7  -4   58.43    2.60
   0  -7   4   57.58    2.61
   0   7   4   58.92    2.59
   0   7  -4   55.29    2.63
   0  -7   4   56.18    2.85
   0   7  -5   70.17    2.98
   0  -7  -5   70.12    2.89
   0  -7   5   74.75    3.43
   0   7  -6   51.98    2.62
   0  -7  -6   54.67    2.59
   0  -7   6   54.74    3.16
   0   7  -6   54.32    3.13
   0  -7  -7   63.07    2.82
   0   7  -7   68.52    3.04
   0   7  -7   67.65    3.71
   0  -7  -8  185.16    4.61
   0   7  -8  182.85    5.28
   0  -7  -8  179.87    5.08
   0   7  -8  181.31    6.47
   0  -7  -9    1.76    0.73
   0  -7  -9    1.60    1.30
   0   7  -9    2.00    1.53
   0  -7  -9    0.93    0.68
   0   7  -9    1.95    0.93
   0  -7 -10  286.99    8.88
   0  -7 -10  302.62    5.83
   0  -7 -10  304.06    7.07
   0   7 -10  310.74    7.34
   0   7 -10  302.56    9.40
   0   7 -11   36.93    3.47
   0  -7 -11   25.39    2.84
   0  -7  11   32.28    1.73
   0   7 -11   35.75    2.36
   0  -7 -12  155.39    7.05
   0   7 -12  169.19    7.57
   0   7 -13    2.21    1.79
   0  -7 -13    1.72    1.70
   0  -7 -14   37.71    3.88
   0  -8   0  134.57    4.26
   0   8   0  132.69    4.18
   0  -8   1  382.23    7.81
   0   8   1  369.62    7.72
   0   8  -1  368.46    7.69
   0  -8  -1  377.00    7.77
   0   8   2    5.36    1.25
   0  -8  -2    3.91    0.96
   0  -8   2    2.65    0.97
   0   8  -2    3.63    1.05
   0  -8   3    0.15    0.82
   0   8   3    0.88    0.84
   0   8  -3    1.37    0.99
   0  -8   3    1.81    0.84
   0  -8  -3    0.37    0.74
   0  -8   4    6.73    1.24
   0   8   4   11.34    1.31
   0  -8  -4    8.58    1.20
   0   8  -4   10.00    1.34
   0  -8   4    9.93    1.32
   0  -8  -5   46.80    2.55
   0   8  -5   49.76    2.66
   0  -8   5   44.54    2.77
   0  -8  -6  126.82    4.28
   0   8  -6  130.51    4.44
   0  -8   6  134.55    5.05
   0  -8  -7   21.31    1.78
   0   8  -7   22.29    1.91
   0   8  -8    0.32    1.33
   0   8  -8    0.23    0.77
   0  -8  -8    0.69    0.71
   0  -8  -9   57.46    2.61
   0   8  -9   64.09    3.21
   0  -8  -9   59.50    2.99
   0   8  -9   64.03    4.10
   0  -8 -10   -1.70    0.72
   0  -8 -10    2.81    1.55
   0   8 -10    1.42    1.44
   0   8 -10    1.05    0.82
   0  -8 -10    2.32    1.04
   0  -8 -11   81.86    4.90
   0  -8  11   81.27    3.05
   0   8 -11   86.58    3.83
   0   8 -11   87.12    5.31
   0  -8 -12   15.18    2.62
   0   8 -12   11.18    2.47
   0  -8 -13   91.24    5.65
   0   8 -13   95.86    6.00
   0  -8 -14   28.92    3.71
   0   9   0    0.28    0.88
   0  -9   0   -0.03    0.79
   0  -9  -1  980.92   15.76
   0   9  -1  963.60   15.62
   0  -9   1 1011.79   15.85
   0   9   1  972.26   15.63
   0   9   2   99.60    3.87
   0  -9  -2  105.62    3.92
   0  -9   2  106.54    3.97
   0   9  -2  101.11    3.86
   0  -9   3  360.18    7.98
   0   9   3  340.41    7.74
   0   9  -3  348.38    7.84
   0  -9  -3  350.62    7.86
   0  -9   3  350.33    7.90
   0  -9   4   24.14    1.96
   0   9   4   28.25    2.12
   0  -9  -4   29.03    2.12
   0  -9   4   26.08    2.16
   0   9  -4   23.93    1.98
   0   9  -5  131.81    4.60
   0  -9  -5  127.88    4.49
   0  -9   5  133.22    4.92
   0  -9  -6   13.26    1.52
   0   9  -6   11.77    1.53
   0   9  -7    2.28    1.06
   0  -9  -7    1.58    0.82
   0  -9  -8   58.43    3.10
   0   9  -8   51.98    3.02
   0  -9  -9    3.32    1.00
   0  -9  -9    0.44    0.77
   0   9  -9    1.77    1.04
   0  -9 -10   68.03    4.38
   0  -9 -10   65.09    3.31
   0   9 -10   65.68    3.45
   0   9 -11    4.78    1.87
   0  -9 -11    6.29    1.96
   0   9 -11    6.15    1.32
   0  -9 -12  108.73    6.04
   0   9 -12  114.61    6.38
   0  -9 -13    2.38    1.76
   0   9 -13    0.88    1.82
   0  10   0  105.43    4.13
   0 -10   0  111.92    4.22
   0  10  -1  164.53    5.25
   0 -10  -1  162.09    5.24
   0  10   1  159.67    5.16
   0 -10   1  170.89    5.30
   0  10   2    1.52    0.88
   0 -10   2   -0.36    0.90
   0  10  -2   -0.20    0.95
   0 -10  -2    1.61    0.83
   0  10   3   48.24    2.79
   0 -10   3   50.60    2.89
   0  10  -3   49.96    2.90
   0 -10  -3   48.87    2.87
   0 -10   3   50.85    2.92
   0  10   4   56.62    3.02
   0  10  -4   54.99    3.06
   0 -10   4   59.25    3.17
   0 -10  -4   58.47    3.11
   0 -10   4   62.86    3.34
   0  10  -5  141.34    5.00
   0 -10  -5  147.63    5.03
   0 -10   5  138.48    4.91
   0 -10   5  142.76    5.30
   0 -10  -6   93.88    4.03
   0  10  -6   88.50    3.97
   0  10  -7  248.41    7.07
   0 -10  -7  262.62    7.07
   0 -10  -8    3.27    1.04
   0  10  -8    4.44    1.35
   0  10  -9  295.30    7.94
   0 -10  -9  288.50    7.71
   0  10 -10    0.55    1.00
   0 -10 -11  109.99    5.83
   0  10 -11  108.91    4.66
   0 -10 -12    1.66    1.79
   0 -10 -13   53.18    4.51
   0 -11   0    0.01    0.93
   0  11   0    1.44    1.22
   0 -11   1  132.68    4.86
   0 -11  -1  132.86    4.89
   0  11  -1  126.52    4.78
   0  11   1  123.00    4.68
   0  11   2    0.58    1.06
   0 -11   2    0.21    0.85
   0 -11  -2   -1.15    0.98
   0  11  -2    0.30    1.00
   0  11   3   15.23    1.78
   0 -11  -3   13.53    1.65
   0  11  -3   16.79    1.96
   0 -11   3   14.67    1.77
   0 -11   4    6.50    1.30
   0  11   4    8.02    1.49
   0  11  -4    7.70    1.46
   0 -11   4    7.60    1.32
   0 -11  -4    6.44    1.22
   0 -11   5  218.68    6.58
   0  11  -5  203.56    6.40
   0 -11  -5  215.25    6.49
   0 -11  -6   19.10    1.99
   0  11  -6   16.51    1.87
   0 -11  -7    9.04    1.50
   0  11  -7   11.69    1.78
   0  11  -8   -0.10    0.99
   0 -11  -8   -0.74    0.99
   0 -11  -9   71.21    3.80
   0  11  -9   72.67    3.94
   0  11 -10   66.10    3.76
   0 -11 -11   15.78    2.58
   0  11 -11   17.19    2.04
   0 -11 -12    2.66    1.88
   0 -11 -13   34.99    3.71
   0 -12   0  130.12    4.97
   0  12   0  124.08    4.95
   0  12   1    1.31    1.02
   0  12  -1    3.25    1.17
   0 -12   1    4.12    1.27
   0 -12  -1    2.10    1.05
   0 -12  -2  446.11   10.11
   0 -12   2  453.20   10.23
   0  12  -2  416.67    9.89
   0  12   2  420.04    9.86
   0 -12   3   46.93    3.12
   0  12  -3   42.97    2.95
   0  12   3   40.54    2.84
   0 -12  -3   46.71    3.00
   0 -12  -4  122.25    4.93
   0  12   4  112.91    4.73
   0  12  -4  109.13    4.72
   0 -12   4  117.82    4.92
   0  12   5    7.28    1.41
   0  12  -5   10.70    2.19
   0 -12  -5   12.15    1.76
   0  12  -6  266.05    7.79
   0 -12  -6  284.02    7.97
   0  12  -7    1.09    1.16
   0  12  -8    4.62    1.46
   0  12  -9   54.55    3.56
   0  12 -10   40.87    3.12
   0 -12 -11    5.32    2.28
   0  12 -11    3.07    1.27
   0 -12 -12   13.50    2.76
   0  13   0    0.13    1.01
   0  13  -1  193.71    6.54
   0  13   1  202.52    6.62
   0  13   2   12.13    1.76
   0  13  -2   11.77    1.81
   0  13   3  152.61    5.75
   0  13  -3  151.85    5.77
   0  13   4   -0.56    1.16
   0  13  -4    1.35    1.14
   0  13  -5   96.89    4.62
   0  13   5   87.26    4.36
   0  13  -6   29.00    2.63
   0  13  -7  133.98    5.62
   0  13  -8  115.18    5.26
   0  13  -9   43.59    3.29
   0  13 -10  138.03    5.90
   0  13 -11    6.52    1.53
   0 -13 -12   37.49    3.87
   0  14   0  164.86    6.19
   0  14   1   17.07    2.15
   0  14  -1   16.32    2.11
   0  14   2  101.06    4.83
   0  14  -2  100.58    4.87
   0  14   3   23.27    2.44
   0  14  -3   25.91    2.58
   0  14  -4  102.19    4.93
   0  14   4   97.18    4.79
   0  14   5   27.08    2.62
   0  14  -5   31.42    2.93
   0  14  -6   41.84    3.32
   0  14  -7    1.25    1.19
   0  14  -8   26.65    2.74
   0  14  -9   70.35    4.34
   0  14 -10   73.01    4.47
   0  14 -11   10.21    1.79
   0 -14 -12   40.82    4.16
   0  15   0   -0.53    1.28
   0  15   1  186.87    6.95
   0  15  -1  190.74    6.98
   0  15   2   27.38    2.60
   0  15  -2   29.76    2.82
   0  15  -3  514.72   12.37
   0  15   3  507.86   12.24
   0  15   4    4.32    1.55
   0  15  -4    4.76    1.38
   0  15   5  147.50    6.16
   0  15  -5  165.62    6.60
   0  15  -6    4.12    1.36
   0  15  -7  296.34    9.26
   0  15  -8   23.85    2.66
   0  15  -9   57.92    4.07
   0  15 -10    2.43    1.44
   0  15 -11   31.12    3.08
   0  16   0  263.34    8.62
   0  16  -1   69.79    4.34
   0  16   1   60.10    4.06
   0  16   2  384.43   10.71
   0  16  -2  393.93   10.83
   0  16   3    3.70    1.62
   0  16  -3    1.30    1.42
   0  16   4  251.83    8.47
   0  16  -4  251.05    8.49
   0  16   5    6.35    1.67
   0  16  -5    5.62    1.74
   0  16  -6  213.79    7.92
   0  16  -7   21.74    2.71
   0  16  -8   41.56    3.61
   0  16  -9    7.32    2.03
   0  16 -10   34.70    3.39
   0  17   0    2.37    1.60
   0  17   1   76.62    4.67
   0  17  -1   75.05    4.66
   0  17   2   51.30    3.95
   0  17  -2   43.42    3.67
   0  17  -3   75.36    4.71
   0  17   3   69.89    4.51
   0  17   4    2.83    1.41
   0  17  -4    3.85    1.65
   0  17   5   73.74    4.63
   0  17  -5   86.44    5.10
   0  17  -6    8.32    1.93
   0  17  -7   66.00    4.55
   0  17  -8    6.14    2.03
   0  17  -9   27.18    3.20
   0  17 -10    2.30    1.67
   0  18   0   11.46    2.20
   0  18  -1   50.27    4.00
   0  18   1   50.56    3.98
   0  18  -2   94.95    5.47
   0  18   2   85.08    5.25
   0  18  -3   -2.69    1.67
   0  18   3    0.72    1.52
   0  18  -4  188.06    7.83
   0  18   4  189.90    7.85
   0  18   5   10.47    2.15
   0  18  -5   13.84    2.51
   0  18  -6  118.94    6.23
   0  18  -7    9.89    2.20
   0  18  -8   27.32    3.16
   0  18  -9   23.01    3.10
   0  18 -10   32.94    3.60
   0  19   0    1.24    1.68
   0  19  -1   47.18    4.00
   0  19   1   51.31    4.24
   0  19  -2   36.57    3.64
   0  19   2   38.33    3.76
   0  19   3   25.15    3.05
   0  19  -3   30.38    3.38
   0  19   4    6.92    2.19
   0  19  -4    6.53    1.91
   0  19  -5   19.17    2.88
   0  19  -6   85.38    5.45
   0  19  -7   46.19    4.20
   0  19  -8   34.69    3.76
   0  19  -9   35.18    3.67
   0  19 -10   30.22    3.55
   0  20   0   39.36    3.87
   0  20   1   11.49    2.43
   0  20  -1   13.27    2.38
   0  20   2  118.67    6.56
   0  20  -2  123.59    6.74
   0  20   3   36.70    3.71
   0  20  -3   32.15    3.59
   0  20   4   47.51    4.17
   0  20  -4   48.70    4.33
   0  20  -5   25.45    3.25
   0  20  -6   40.08    3.94
   0  20  -7    8.02    2.23
   0  20  -8    8.32    2.12
   0  20  -9    2.47    1.80
   0  21   0    0.14    1.55
   0  21   1   19.82    3.03
   0  21  -1   22.99    3.34
   0  21   2    2.38    1.57
   0  21  -2    2.12    1.68
   0  21   3   39.91    4.04
   0  21  -3   47.33    4.38
   0  21  -4    9.14    2.40
   0  21   4    8.67    2.20
   0  21  -5    4.06    2.16
   0  21  -6    5.59    2.21
   0  21  -7   15.37    2.89
   0  22   0    6.67    2.24
   0  22  -1    3.17    1.88
   0  22   1    0.65    1.67
   0  22  -2    9.39    2.56
   0  22   2   10.22    2.40
   0  22  -3   10.41    2.65
   0  22   3   10.46    2.52
   0  22  -4   24.72    3.43
   0  22   4   26.23    3.68
   1   0 -15   97.22    6.13
   1   0 -14    0.51    1.64
   1   0 -13  352.17   10.89
   1   0 -12   -2.77    1.70
   1   0 -11  265.22    8.46
   1   0 -10   -1.14    1.43
   1   0  -9  284.57    4.13
   1   0  -9  272.29    4.12
   1   0  -9  300.82    7.99
   1   0  -8   -0.60    1.19
   1   0  -8   -0.15    0.27
  -1   0   7   48.54    2.70
  -1   0   7   37.47    1.50
   1   0  -7   40.94    2.52
  -1   0   6    0.11    0.45
  -1   0   6   -0.29    0.84
   1   0  -6   -0.09    0.95
  -1   0   5   60.43    1.83
  -1   0   5   64.68    2.56
   1   0  -5   60.91    2.57
  -1   0   4    0.72    0.50
   1   0  -4    0.67    0.45
  -1   0   4   -0.24    0.75
   1   0  -4    1.41    0.95
   1   0  -3  994.51   12.72
  -1   0   3  988.27   12.73
  -1   0   3 1011.17   13.19
   1   0  -3 1000.98   13.20
  -1   0   2    0.26    0.37
   1   0  -2    0.02    0.41
   1   0  -2    0.47    0.55
  -1   0   2    0.53    0.39
   1   0  -1 1471.43   17.73
  -1   0   1 1473.37   17.72
   1   0   0    0.88    0.29
  -1   0   0    0.75    0.33
   1   0   1  537.27    6.85
  -1   0  -1  539.09    6.86
  -1   0  -2    0.65    0.82
  -1   0  -3 1704.76   22.00
  -1   0  -4    0.35    1.01
  -1   0  -5   29.59    2.19
  -1   0  -6   -1.33    1.16
  -1   0  -7  613.52   11.85
  -1   0  -8   -0.49    1.17
  -1   0  -9  437.64   10.63
  -1   0 -10   -0.95    1.33
  -1   0 -11  422.82   11.48
  -1   0 -12    1.68    1.61
  -1   0 -13   39.90    3.81
  -1   0 -14   -2.60    1.97
   1   1 -15    1.68    2.11
   1  -1 -15    3.37    2.04
   1   1 -14   10.67    2.51
   1  -1 -14    8.79    2.16
   1  -1 -13   35.64    3.44
   1   1 -13   34.50    3.54
   1  -1 -12  123.81    5.94
   1   1 -12  122.48    5.92
   1  -1 -11    8.37    1.76
   1   1 -11    6.63    1.57
   1   1 -10   59.21    1.40
   1  -1 -10   68.49    3.88
   1   1 -10   69.32    3.94
   1   1  -9    9.34    1.69
   1  -1  -9   12.54    1.83
  -1  -1   9    9.88    0.87
   1  -1  -9    8.21    0.53
   1   1  -9    9.32    0.61
  -1  -1   8  355.12    8.26
  -1  -1   8  318.63    5.46
   1  -1  -8  320.28    4.69
   1   1  -8  321.11    4.81
   1   1  -8  335.81    8.14
   1  -1  -8  328.36    7.97
   1  -1  -7   11.02    1.47
   1   1  -7   12.29    1.66
  -1  -1   7   14.05    1.66
  -1  -1   7   11.75    0.91
   1   1  -7   10.20    0.62
   1  -1  -7   10.68    0.58
  -1  -1   6   90.18    3.37
   1  -1  -6   84.16    2.22
  -1  -1   6   86.03    2.28
   1  -1  -6   81.91    1.62
   1   1  -6   81.67    1.70
   1   1  -6   89.10    3.42
   1  -1  -6   79.98    3.18
  -1   1   5    1.51    0.57
  -1  -1   5    0.51    0.47
   1  -1  -5    0.76    0.40
   1   1  -5    2.12    0.97
   1  -1  -5    1.78    1.02
  -1  -1   5    0.54    0.80
   1   1  -5    1.22    0.32
   1  -1  -4    2.14    0.51
  -1   1   4   -0.51    0.59
  -1  -1   4    1.37    0.51
  -1  -1   4    0.61    0.74
   1   1  -4    1.46    0.97
   1  -1  -4    3.38    0.99
   1  -1  -3   17.07    0.95
  -1  -1   3   18.15    0.99
   1  -1  -3   19.18    1.22
  -1  -1   3   16.14    1.14
   1   1  -3   19.03    1.30
  -1   1   3   13.47    0.82
   1  -1  -2  212.12    3.69
  -1  -1   2  220.00    3.69
   1  -1  -2  222.86    3.48
  -1   1   2  214.42    3.69
  -1  -1   2  216.26    3.74
   1   1  -2  211.15    3.78
   1  -1  -1  385.31    5.52
  -1   1   1  382.54    5.52
   1  -1   0   79.81    1.73
  -1   1   0   81.78    1.75
   1  -1   1  567.71    7.42
   1  -1   1  573.61    7.62
  -1   1  -1  572.30    7.64
   1  -1   2    1.14    0.36
  -1   1  -2    1.15    0.79
   1  -1   2    0.09    0.72
   1  -1   3  106.35    2.97
   1  -1   3   94.50    1.74
  -1   1  -3  105.43    3.07
  -1  -1  -4    2.82    1.17
  -1   1  -4    1.73    1.01
   1  -1   4    1.73    0.95
  -1  -1  -5   74.34    3.03
   1  -1   5   77.96    3.13
  -1   1  -5   74.74    3.21
  -1  -1  -6  141.55    4.61
   1  -1   6  146.34    4.72
  -1   1  -6  136.23    4.62
  -1   1  -7   27.46    2.27
  -1  -1  -7   30.58    2.35
  -1  -1  -8  410.08    9.63
  -1   1  -8  395.06    9.51
  -1  -1  -9   47.29    3.29
  -1   1  -9   45.10    3.24
  -1   1 -10  269.68    8.48
  -1  -1 -10  272.12    8.44
  -1   1 -11   70.06    4.53
  -1  -1 -11   68.25    4.41
  -1   1 -12   44.03    3.86
  -1  -1 -12   50.79    4.18
  -1   1 -13  105.23    6.09
  -1  -1 -13  104.82    6.06
  -1   1 -14  123.72    6.97
  -1  -1 -14  124.34    7.02
   1  -2 -15   18.67    2.78
   1   2 -14   10.15    2.32
   1  -2 -14    8.72    2.25
   1   2 -13    3.33    1.90
   1  -2 -13    1.24    1.73
   1  -2 -12   49.04    3.75
   1   2 -12   50.80    3.90
   1   2 -11   26.63    2.77
   1  -2 -11   30.29    2.94
   1   2 -11   24.15    0.89
  -1  -2  10  118.24    2.77
   1   2 -10  119.96    2.52
   1  -2 -10  107.96    2.23
   1  -2 -10  123.65    5.23
   1   2 -10  122.63    5.32
   1   2  -9   17.19    1.95
  -1  -2   9   16.81    1.05
   1  -2  -9   18.87    2.09
   1  -2  -9   19.26    0.88
   1   2  -9   19.04    0.96
   1   2  -8   21.17    2.08
   1  -2  -8   19.62    1.99
  -1  -2   8   22.99    2.09
  -1  -2   8   19.20    1.15
   1  -2  -8   21.11    1.12
   1   2  -8   20.48    1.02
   1  -2  -8   20.65    0.92
  -1  -2   7   79.63    3.48
  -1  -2   7   72.65    2.22
   1  -2  -7   74.94    2.17
   1   2  -7   73.42    1.91
   1  -2  -7   71.19    1.76
   1   2  -7   72.70    3.38
   1  -2  -7   78.86    3.41
  -1  -2   6    3.97    0.63
   1  -2  -6    3.74    0.60
  -1  -2   6    4.40    1.16
   1   2  -6    3.83    1.17
   1  -2  -6    3.57    1.13
   1  -2  -6    2.81    0.41
   1   2  -6    2.43    0.46
   1  -2  -5    0.61    0.47
  -1  -2   5    0.25    0.50
   1   2  -5   -0.17    0.94
   1  -2  -5    1.14    0.88
  -1  -2   5    1.47    0.90
   1   2  -5    0.59    0.40
   1  -2  -5    0.45    0.33
   1  -2  -4  104.25    2.56
   1  -2  -4  113.39    3.08
   1   2  -4  103.02    2.12
   1  -2  -4  103.21    2.04
   1   2  -4  105.22    3.22
  -1  -2   4  105.90    3.16
   1   2  -3    4.62    1.01
  -1  -2   3    4.97    0.92
   1  -2  -3    3.17    0.65
  -1   2   3    4.06    0.49
   1   2  -3    3.59    0.52
   1  -2  -3    3.41    0.47
  -1  -2   3    2.48    0.43
   1  -2  -2 2545.47   30.74
   1  -2  -2 2523.03   30.17
   1   2  -2 2651.36   30.23
  -1   2   2 2600.71   30.18
  -1  -2   2 2565.48   30.22
  -1  -2   2 2561.05   30.87
  -1   2   1  102.16    2.14
  -1  -2   1   96.16    2.08
   1  -2   0  148.29    2.37
  -1   2  -1  664.42    8.84
   1  -2   1  663.24    8.86
   1  -2   2   84.15    2.39
  -1   2  -2   86.53    2.49
   1  -2   3  388.48    6.86
  -1   2  -3  394.75    6.99
   1  -2   4  157.18    4.23
  -1   2  -4  157.82    4.33
  -1   2  -5   19.01    1.77
  -1  -2  -5   21.94    1.95
   1  -2   5   19.11    1.64
   1  -2   6   63.08    3.08
  -1  -2  -6   65.83    3.13
  -1   2  -6   61.08    3.10
  -1  -2  -7  169.64    5.51
   1  -2   7  185.60    5.77
  -1   2  -7  172.50    5.62
  -1   2  -8   30.67    2.56
  -1  -2  -8   33.62    2.70
  -1  -2  -9   62.71    3.77
  -1   2  -9   67.28    3.92
  -1   2 -10   13.30    2.09
  -1  -2 -10   16.46    2.24
  -1   2 -11  135.50    6.25
  -1  -2 -11  133.47    6.13
  -1  -2 -12    6.63    1.98
  -1   2 -12    1.76    1.56
  -1   2 -12    4.93    1.04
  -1   2 -13  186.19    8.15
  -1  -2 -13  177.74    7.89
  -1  -2 -14    0.32    1.82
  -1   2 -14    1.83    2.00
   1  -3 -15    0.31    1.97
   1  -3 -14   15.08    2.59
   1   3 -14   14.12    2.57
   1  -3 -13   14.21    2.57
   1   3 -13   15.40    2.42
   1  -3 -12   76.35    4.72
   1   3 -12   83.31    4.99
  -1  -3  11  196.53    3.69
   1   3 -11  217.81    3.75
   1   3 -11  215.12    7.56
   1  -3 -11  217.83    7.39
  -1  -3  10   49.90    1.87
   1   3 -10   53.26    1.79
   1  -3 -10   45.96    1.53
   1   3 -10   47.37    3.45
   1  -3 -10   51.77    3.44
  -1  -3   9  321.36    5.83
   1  -3  -9  326.56    5.62
   1  -3  -9  319.91    5.32
   1   3  -9  330.48    5.60
   1  -3  -9  332.38    8.52
   1   3  -9  322.87    8.63
  -1  -3   8    7.57    0.84
   1  -3  -8    7.36    0.75
  -1  -3   8    7.49    1.48
   1  -3  -8    8.09    1.53
   1   3  -8    8.25    1.47
   1   3  -8    8.11    0.76
   1  -3  -8    7.85    0.69
   1  -3  -7  160.39    4.93
   1  -3  -7  156.96    3.54
  -1  -3   7  159.35    3.67
   1   3  -7  157.82    3.36
   1  -3  -7  157.54    3.20
   1   3  -7  160.52    5.17
  -1  -3   7  164.29    5.19
   1  -3  -6   33.95    2.11
  -1  -3   6   33.07    1.54
   1  -3  -6   32.77    1.50
   1  -3  -6   31.58    1.26
   1   3  -6   31.17    1.33
   1   3  -6   33.04    2.24
  -1  -3   6   34.27    2.21
   1  -3  -5  599.05    8.89
   1  -3  -5  595.80    9.84
   1   3  -5  590.67    8.42
   1  -3  -5  581.66    8.27
  -1  -3   5  605.25   10.32
   1   3  -5  619.35   10.41
   1   3  -4    1.32    1.02
  -1  -3   4    0.50    0.78
   1  -3  -4    1.57    0.60
  -1   3   4    0.22    0.48
   1  -3  -4    0.99    0.47
   1   3  -4    0.65    0.49
  -1  -3   4    1.39    0.52
   1  -3  -3  714.98   10.19
  -1   3   3  729.38    9.66
   1   3  -3  714.46    9.76
   1  -3  -3  726.83    9.69
  -1  -3   3  711.62    9.76
   1   3  -3  719.42   10.75
  -1  -3   3  729.39   10.73
   1  -3  -2   60.17    1.76
   1   3  -2   58.79    1.79
  -1  -3   2   61.34    1.81
  -1   3   2   62.29    1.80
  -1  -3   1  727.11   10.01
   1  -3  -1  745.11   10.02
  -1   3   1  744.28   10.01
   1   3  -1  725.94    9.99
  -1  -3   0   18.31    1.07
  -1   3   0   18.75    1.21
   1  -3   1 1340.91   16.95
  -1   3  -1 1364.19   16.97
  -1   3  -2 9999.00  114.74
   1  -3   2 9961.37  114.77
  -1   3  -3  830.05   12.30
   1  -3   3  827.02   12.25
   1  -3   4   46.70    2.28
  -1   3  -4   47.57    2.38
  -1   3  -5   38.82    2.34
   1  -3   5   36.86    2.27
  -1  -3  -6  461.24    9.45
   1  -3   6  469.71    9.55
  -1   3  -6  460.80    9.51
   1  -3   7   30.55    2.41
  -1  -3  -7   28.04    2.34
  -1   3  -7   32.34    2.52
  -1  -3  -8  217.52    6.72
  -1   3  -8  216.98    6.78
  -1   3  -9    1.54    1.22
  -1  -3  -9    3.60    1.51
  -1   3 -10  176.02    5.12
  -1   3 -10  179.01    6.86
  -1  -3 -10  176.61    6.73
  -1  -3 -11   16.38    2.44
  -1   3 -11   24.60    2.81
  -1  -3 -11   20.41    1.74
  -1   3 -11   19.04    1.73
  -1   3 -12   28.20    3.44
  -1  -3 -12   24.20    3.08
  -1   3 -12   25.84    2.01
  -1  -3 -13   -1.52    1.59
  -1   3 -13    3.10    1.81
  -1   3 -14    8.19    2.24
  -1  -3 -14    6.26    2.13
   1  -4 -15    9.99    2.61
   1  -4 -14    4.36    1.83
   1   4 -14    2.55    1.88
   1   4 -13   32.43    3.45
   1  -4 -13   33.31    3.46
   1   4 -12    2.48    1.60
   1  -4 -12    1.24    1.71
  -1  -4  11  168.59    3.72
   1  -4 -11  153.42    3.31
   1   4 -11  174.38    3.76
   1   4 -11  177.49    6.97
   1  -4 -11  174.98    6.66
  -1  -4  10  308.77    5.85
   1  -4 -10  322.55    5.59
   1  -4 -10  296.01    5.38
   1   4 -10  313.14    5.74
   1  -4 -10  300.79    8.61
   1   4 -10  316.78    9.12
   1   4  -9   27.02    2.55
   1  -4  -9   24.56    2.39
   1  -4  -9   25.14    1.37
  -1  -4   9   26.40    1.51
   1   4  -9   25.87    1.41
   1  -4  -9   23.45    1.28
   1  -4  -8   72.67    3.54
  -1  -4   8   74.86    2.55
   1  -4  -8   70.54    2.38
   1  -4  -8   70.91    2.24
   1   4  -8   75.42    2.42
  -1  -4   8   77.55    3.83
   1   4  -8   80.58    3.97
   1  -4  -7   36.84    2.37
   1  -4  -7   34.61    1.66
   1  -4  -7   35.05    1.52
   1   4  -7   35.98    1.62
   1   4  -7   35.05    2.52
  -1  -4   7   37.63    2.52
   1  -4  -6   81.52    3.28
   1  -4  -6   79.58    2.56
   1  -4  -6   82.65    2.37
   1   4  -6   82.67    2.47
  -1  -4   6   88.21    3.58
   1   4  -6   85.04    3.55
   1  -4  -5   40.89    1.82
   1   4  -5   39.18    1.65
   1  -4  -5   38.30    1.58
   1   4  -5   37.73    2.27
  -1  -4   5   41.74    2.30
   1   4  -4  185.78    3.89
   1  -4  -4  188.75    3.85
  -1   4   4  195.96    3.84
  -1  -4   4  188.06    3.94
  -1  -4   4  191.38    4.79
   1   4  -4  188.81    4.79
  -1  -4   3    2.89    0.86
  -1  -4   3    2.87    0.68
   1   4  -3    3.71    0.80
   1  -4  -3    3.30    0.63
  -1   4   3    3.12    0.70
  -1   4   2  196.82    3.92
   1  -4  -2  185.61    3.84
  -1  -4   2  189.13    3.92
   1   4  -2  183.75    3.87
   1   4  -1  190.69    3.95
   1  -4  -1  189.53    3.94
  -1  -4   1  191.08    3.96
  -1   4   1  193.29    3.97
   1   4   0    4.88    0.87
  -1  -4   0    3.95    0.75
   1  -4   0    5.78    0.87
  -1   4   0    4.20    0.91
   1  -4   1    3.28    0.75
  -1  -4  -1    4.60    0.84
  -1   4  -1    4.18    1.01
  -1  -4  -2 1136.83   15.68
  -1   4  -2 1182.18   15.83
  -1   4  -2 1148.38   15.62
   1  -4   2 1131.00   15.56
  -1   4  -3  551.87    8.95
  -1   4  -3  543.84    9.16
   1  -4   3  539.32    9.12
  -1   4  -4  230.88    5.53
   1  -4   4  225.59    5.47
  -1   4  -5  759.39   12.77
   1  -4   5  742.76   12.69
   1  -4   6  408.40    8.81
  -1   4  -6  390.39    8.71
  -1  -4  -7   51.76    3.10
  -1  -4  -7   47.52    1.43
   1  -4   7   50.17    2.99
  -1   4  -7   49.12    3.10
  -1  -4  -8    7.32    1.52
  -1   4  -8    8.72    1.63
  -1   4  -8    8.89    1.26
  -1  -4  -9   36.59    3.04
  -1   4  -9   35.64    2.29
  -1  -4  -9   40.62    2.30
  -1   4  -9   38.57    3.16
  -1   4 -10    2.89    1.54
  -1  -4 -10    1.97    1.64
  -1  -4 -10    2.19    0.85
  -1   4 -10    3.37    0.90
  -1   4 -11   69.04    3.25
  -1  -4 -11   71.44    4.58
  -1   4 -11   75.62    4.77
  -1   4 -12    7.99    2.04
  -1  -4 -12    4.97    1.79
  -1   4 -12    6.93    1.15
  -1   4 -13   77.40    5.39
  -1  -4 -13   78.09    5.27
  -1  -4 -14    8.90    2.48
   1   5 -14    2.12    1.68
   1  -5 -14    0.14    1.59
   1   5 -13    0.90    1.71
   1  -5 -13    3.09    1.81
   1  -5 -12    2.18    1.55
   1   5 -12    4.31    1.79
  -1  -5  11   98.60    2.99
   1   5 -11  104.19    3.08
   1  -5 -11  100.42    5.07
   1   5 -11  101.84    5.36
   1  -5 -10    3.41    0.66
  -1  -5  10    5.95    0.88
   1   5 -10    3.30    1.39
   1  -5 -10    6.54    1.68
   1  -5 -10    4.09    0.71
   1   5 -10    4.87    0.79
   1  -5  -9  234.83    7.10
  -1  -5   9  246.92    5.36
   1  -5  -9  240.77    5.09
   1  -5  -9  233.42    4.96
   1   5  -9  241.39    5.20
   1   5  -9  243.13    7.60
   1  -5  -8    1.26    0.62
   1   5  -8    1.34    1.11
   1  -5  -8    0.80    1.07
   1   5  -8    0.58    0.52
   1  -5  -8    0.21    0.53
   1  -5  -7  123.01    3.48
   1  -5  -7  121.19    4.38
   1   5  -7  125.62    3.45
   1  -5  -7  126.72    3.33
  -1  -5   7  125.47    4.70
   1   5  -7  123.55    4.74
   1  -5  -6   24.70    1.56
   1   5  -6   28.87    2.23
   1   5  -6   26.14    1.54
   1  -5  -6   26.13    1.45
  -1  -5   6   27.57    2.14
   1   5  -5  233.14    4.87
   1  -5  -5  230.36    4.76
  -1   5   5  236.78    4.73
  -1  -5   5  224.27    4.86
  -1  -5   5  235.83    5.93
   1   5  -5  234.88    5.93
  -1  -5   4  326.90    6.15
   1  -5  -4  333.40    6.08
   1   5  -4  334.64    6.13
  -1   5   4  333.53    6.00
  -1  -5   4  334.35    6.96
  -1   5   3  369.02    6.45
   1   5  -3  366.32    6.51
   1  -5  -3  358.93    6.45
  -1  -5   3  367.81    6.55
  -1  -5   3  371.35    7.10
   1   5  -2  279.13    5.48
   1  -5  -2  279.98    5.45
  -1  -5   2  284.94    5.51
  -1   5   2  293.09    5.53
   1  -5  -1  296.84    5.66
  -1  -5   1  299.22    5.68
   1   5  -1  291.82    5.64
  -1   5   1  295.59    5.71
   1  -5   0  283.84    5.62
  -1  -5   0  284.28    5.61
   1   5   0  284.36    5.62
  -1   5   0  290.56    5.68
   1   5   1    6.21    1.10
  -1  -5  -1    7.61    1.06
  -1   5  -1    7.29    1.20
   1  -5   1    7.63    1.05
  -1   5  -2  115.24    3.45
  -1  -5  -2  112.83    3.35
   1  -5   2  109.09    3.19
  -1   5  -3  140.83    3.94
  -1  -5  -3  142.66    3.88
  -1   5  -3  141.27    4.06
   1  -5   3  135.15    3.90
  -1   5  -4  247.56    5.61
  -1  -5  -4  234.18    5.42
  -1   5  -4  243.53    5.87
   1  -5   4  238.40    5.80
  -1  -5  -5  696.70   11.48
  -1   5  -5  717.39   11.73
   1  -5   5  711.39   12.40
  -1   5  -5  707.93   12.40
  -1   5  -6    3.59    1.23
   1  -5   6    5.34    1.25
  -1  -5  -6    4.98    0.89
  -1   5  -6    6.08    1.10
  -1  -5  -7  361.54    7.57
  -1   5  -7  367.85    7.82
  -1   5  -7  362.92    8.85
   1  -5   7  369.64    8.89
  -1   5  -8    1.99    1.42
  -1  -5  -8    1.91    1.35
  -1  -5  -8    0.92    0.43
  -1  -5  -8    0.44    0.63
  -1   5  -8    1.03    0.73
  -1  -5  -9    3.73    1.48
  -1   5  -9    7.16    1.71
  -1  -5  -9    8.86    1.24
  -1   5  -9    6.73    1.21
  -1  -5 -10   47.90    3.65
  -1  -5 -10   54.39    2.87
  -1   5 -10   53.31    2.90
  -1   5 -10   61.86    4.14
  -1  -5 -11    0.03    1.52
  -1   5 -11    1.46    1.66
  -1   5 -11    0.38    0.89
  -1  -5 -12   45.81    3.95
  -1   5 -12   47.25    4.06
  -1   5 -12   40.36    2.60
  -1   5 -13    4.36    2.35
  -1  -5 -13   -0.06    1.64
  -1  -5 -14   27.75    3.46
   1   6 -14    7.21    2.26
   1  -6 -14    9.55    2.41
   1   6 -13   12.18    2.57
   1  -6 -13   15.23    2.65
   1   6 -12   22.74    2.84
   1  -6 -12   23.30    2.86
  -1  -6  11    6.04    0.95
   1  -6 -11    7.33    1.93
   1   6 -11    5.30    1.67
   1   6 -11    7.80    1.02
   1  -6 -10  255.35    7.94
   1  -6 -10  265.40    5.59
  -1  -6  10  272.57    5.94
   1   6 -10  261.57    5.83
   1  -6 -10  266.78    5.66
   1   6 -10  251.19    8.31
   1  -6  -9   97.81    4.50
   1  -6  -9   99.60    3.22
  -1  -6   9  101.62    3.40
   1   6  -9  101.39    3.34
   1  -6  -9   97.48    3.16
   1   6  -9   94.58    4.72
   1  -6  -8  401.37    7.57
   1  -6  -8  394.46    9.15
   1   6  -8  405.81    7.64
   1  -6  -8  394.66    7.41
   1   6  -8  413.90    9.95
   1  -6  -7   40.34    2.07
   1  -6  -7   38.28    1.94
   1   6  -7   40.58    2.04
  -1  -6   7   42.18    2.82
   1   6  -7   38.98    2.80
   1  -6  -6  482.48    8.64
   1   6  -6  492.26    8.57
   1  -6  -6  486.55    8.44
   1   6  -6  481.76   10.02
  -1  -6   6  498.33   10.15
  -1  -6   5   10.31    1.41
  -1   6   5    8.74    1.03
  -1  -6   5   10.21    1.12
   1   6  -5    9.29    1.08
   1  -6  -5    9.62    1.04
   1   6  -4 1175.83   16.58
   1  -6  -4 1173.82   16.55
  -1  -6   4 1174.72   16.64
  -1   6   4 1197.60   16.50
  -1  -6   4 1186.57   17.64
   1   6  -3  125.92    3.59
   1  -6  -3  121.82    3.52
  -1  -6   3  125.91    3.60
  -1   6   3  123.42    3.51
  -1  -6   3  125.93    3.87
   1  -6  -2  924.75   13.73
  -1  -6   2  961.01   13.91
  -1   6   2  947.52   13.80
   1   6  -2  937.69   13.78
  -1  -6   1   27.71    1.69
   1  -6  -1   25.40    1.61
  -1   6   1   27.31    1.77
   1   6  -1   23.94    1.66
  -1   6   0  313.90    6.42
   1   6   0  316.87    6.37
   1  -6   0  319.39    6.41
  -1  -6   0  318.76    6.37
   1   6   1   15.55    1.41
  -1  -6  -1   18.78    1.44
   1  -6   1   16.57    1.38
  -1   6  -1   16.93    1.55
  -1  -6  -2  253.58    5.69
  -1   6  -2  259.16    5.76
   1  -6   2  252.45    5.48
  -1  -6  -3   37.57    2.09
  -1   6  -3   36.13    2.11
   1  -6   3   38.59    2.13
  -1  -6  -4  759.12   12.36
  -1   6  -4  772.42   12.48
   1  -6   4  749.63   12.67
  -1   6  -4  769.14   12.79
  -1   6  -5   24.30    2.07
   1  -6   5   24.26    2.02
  -1  -6  -5   25.77    1.82
  -1   6  -5   24.35    1.88
  -1   6  -6  297.25    6.87
  -1  -6  -6  291.35    6.68
  -1   6  -6  292.26    7.53
   1  -6   6  293.91    7.51
   1  -6   7   -0.47    0.98
  -1   6  -7    0.02    1.10
  -1  -6  -7    0.84    0.78
  -1   6  -7   -0.29    0.78
  -1   6  -8   13.29    2.02
  -1  -6  -8   12.41    1.45
  -1   6  -8   12.12    1.50
  -1  -6  -9   21.31    1.10
  -1  -6  -9   32.04    2.98
  -1   6  -9   25.85    2.73
  -1   6  -9   28.04    2.17
  -1  -6  -9   22.94    1.90
  -1  -6 -10   -0.08    1.42
  -1   6 -10    2.00    1.57
   1  -6  10    1.56    0.56
  -1  -6 -10    0.89    0.85
  -1   6 -10    3.66    1.17
  -1  -6 -11   25.63    3.02
  -1   6 -11   26.46    3.20
  -1   6 -11   24.83    2.16
  -1  -6 -12   23.33    3.03
  -1   6 -12   18.68    2.81
  -1   6 -12   20.43    2.00
  -1   6 -13   27.33    3.45
  -1  -6 -13   25.15    3.36
   1  -7 -14    2.54    1.90
   1   7 -14    6.21    2.31
   1  -7 -13   10.04    2.33
   1   7 -13   17.42    2.78
   1  -7 -12   13.57    2.38
   1   7 -12   14.15    2.47
   1  -7 -11  116.15    5.61
  -1  -7  11  120.34    3.83
   1   7 -11  120.25    3.90
   1   7 -11  124.09    6.13
   1  -7 -10   37.90    3.09
   1   7 -10   40.60    3.34
  -1  -7  10   37.30    2.15
   1  -7 -10   35.40    1.98
   1   7 -10   33.35    2.05
   1  -7 -10   36.04    2.01
   1  -7  -9   70.22    3.88
   1  -7  -9   63.10    2.72
   1  -7  -9   71.42    2.86
   1   7  -9   71.63    2.95
   1   7  -9   70.70    4.19
   1  -7  -8  274.05    6.21
   1  -7  -8  276.75    6.18
   1   7  -8  281.67    6.35
   1   7  -8  280.66    8.09
   1  -7  -7  324.12    6.94
   1   7  -7  326.21    6.94
   1  -7  -7  324.88    6.81
  -1  -7   7  351.06    8.65
  -1  -7   6    1.23    0.96
   1   7  -6   -0.16    0.67
   1  -7  -6    1.68    0.68
   1   7  -5 1127.61   16.55
  -1  -7   5 1117.53   16.62
  -1   7   5 1135.41   16.37
   1  -7  -5 1126.42   16.51
  -1  -7   5 1163.72   17.94
   1   7  -4   29.80    1.89
   1  -7  -4   28.59    1.81
  -1  -7   4   28.57    1.84
  -1   7   4   29.12    1.82
  -1  -7   4   29.72    2.12
  -1  -7   3 1350.74   18.98
   1   7  -3 1328.31   18.87
  -1   7   3 1357.67   18.86
   1  -7  -3 1329.96   18.87
   1  -7  -2  174.25    4.58
  -1   7   2  169.25    4.54
  -1  -7   2  173.96    4.62
   1   7  -2  169.90    4.55
   1   7  -1  512.08    9.19
  -1   7   1  518.67    9.27
  -1  -7   1  522.49    9.29
   1  -7  -1  521.91    9.21
   1   7   0    1.30    0.94
  -1  -7   0    1.57    0.89
   1  -7   0    2.44    0.92
  -1   7   0    1.19    1.00
   1  -7   1  425.57    8.13
  -1  -7  -1  406.70    8.00
  -1   7  -1  412.20    8.06
   1   7   1  403.54    7.94
  -1  -7  -2  262.15    6.12
   1   7   2  248.44    5.97
  -1   7  -2  267.01    6.15
   1  -7   2  265.52    6.11
   1  -7   2  266.70    5.89
  -1  -7  -3  301.58    6.75
  -1   7  -3  298.51    6.74
   1  -7   3  304.43    6.73
  -1   7  -4  643.08   11.31
  -1  -7  -4  636.18   11.23
   1  -7   4  636.07   11.44
  -1  -7  -5   79.53    3.31
  -1   7  -5   77.23    3.32
  -1   7  -5   80.63    3.63
   1  -7   5   81.78    3.65
  -1   7  -6   92.77    3.74
  -1  -7  -6   92.36    3.66
  -1   7  -6   94.51    4.23
   1  -7   6   99.31    4.22
  -1  -7  -7  213.94    5.90
  -1   7  -7  216.75    6.08
  -1   7  -7  213.99    6.77
  -1   7  -8    3.31    1.51
  -1  -7  -8    2.72    1.04
  -1   7  -8    2.63    1.02
  -1   7  -9    3.58    1.57
  -1  -7  -9    0.16    1.34
  -1  -7  -9    3.16    0.67
  -1  -7  -9    4.14    1.05
  -1   7  -9    2.93    1.10
  -1  -7 -10   82.21    4.85
  -1   7 -10   88.53    3.98
  -1  -7 -10   86.91    3.84
  -1   7 -10   90.33    5.08
  -1  -7 -11   23.86    2.92
  -1   7 -11   28.31    3.18
  -1   7 -11   32.03    2.49
  -1   7 -12    3.26    2.06
  -1  -7 -12    2.66    2.07
  -1   7 -12    0.48    0.94
  -1  -7 -13    2.09    1.73
  -1   7 -13    1.22    1.84
   1  -8 -14   31.81    3.69
   1  -8 -13    0.65    1.74
   1   8 -13    1.16    1.66
   1  -8 -12   53.52    4.14
   1   8 -12   52.26    4.34
  -1  -8  11    0.05    0.80
   1  -8 -11   -1.56    1.67
   1   8 -11    3.04    0.97
   1  -8 -10  145.26    4.45
   1  -8 -10  148.43    6.01
   1   8 -10  150.20    4.68
   1  -8 -10  149.65    4.54
   1  -8  -9  102.79    4.73
   1  -8  -9   95.97    3.58
   1   8  -9  102.05    3.79
   1  -8  -9   99.74    3.67
   1  -8  -8  284.68    6.69
   1   8  -8  295.69    6.85
   1  -8  -8  283.63    6.62
   1   8  -7   -0.26    0.77
   1  -8  -7    0.09    0.66
   1   8  -6  100.25    3.66
  -1  -8   6   98.69    3.65
   1  -8  -6   97.96    3.57
  -1  -8   6  103.76    4.40
  -1  -8   5    2.73    1.18
  -1   8   5    2.22    0.92
  -1  -8   5    2.15    0.94
   1  -8  -5    1.61    0.76
   1   8  -5    0.84    0.71
   1   8  -4  155.52    4.59
   1  -8  -4  158.71    4.61
  -1  -8   4  160.54    4.69
  -1   8   4  160.12    4.59
  -1  -8   4  160.42    5.07
   1   8  -3  165.27    4.70
   1  -8  -3  159.94    4.64
  -1  -8   3  168.64    4.79
  -1   8   3  162.02    4.61
   1   8  -2 1282.71   18.84
  -1  -8   2 1323.54   19.04
  -1   8   2 1289.46   18.85
   1  -8  -2 1289.75   18.86
   1  -8  -1   67.08    2.90
  -1   8   1   72.22    3.03
  -1  -8   1   76.06    3.12
   1   8  -1   66.25    2.98
   1  -8   0  644.66   11.21
  -1  -8   0  635.91   11.17
   1   8   0  624.35   11.07
  -1   8   0  641.90   11.26
   1   8   1   12.34    1.55
  -1  -8  -1   13.88    1.51
   1  -8   1   13.21    1.49
  -1   8  -1   14.84    1.64
  -1   8  -2  484.41    9.40
   1  -8   2  482.43    9.39
  -1  -8  -2  474.83    9.32
   1   8   2  477.13    9.24
   1  -8   2  474.39    8.98
   1  -8   3   22.22    1.82
  -1   8  -3   23.66    1.91
  -1  -8  -3   21.94    1.80
  -1   8  -4  412.24    8.74
  -1  -8  -4  417.20    8.79
   1  -8   4  423.72    8.95
  -1  -8  -5   42.21    2.54
  -1   8  -5   45.41    2.67
   1  -8   5   43.22    2.78
  -1   8  -6  369.71    8.44
  -1  -8  -6  368.02    8.33
   1  -8   6  376.73    9.10
  -1   8  -6  381.10    9.12
  -1   8  -7   26.05    2.49
  -1  -8  -7   30.53    2.26
  -1   8  -7   26.64    2.19
  -1  -8  -8  132.73    4.77
  -1   8  -8  127.20    4.85
  -1   8  -8  133.58    5.71
  -1   8  -9   15.31    2.28
  -1  -8  -9   14.48    1.74
  -1   8  -9   10.54    1.67
  -1  -8 -10  137.65    6.18
  -1   8 -10  139.72    5.23
  -1  -8 -10  130.22    4.96
  -1   8 -10  144.98    6.60
  -1   8 -11   12.15    2.50
  -1  -8 -11   10.05    2.18
  -1   8 -11    9.15    1.53
  -1   8 -12   45.93    4.31
  -1  -8 -12   34.68    3.59
  -1  -8 -13    2.64    1.98
  -1   8 -13   -3.44    2.16
   1  -9 -14  117.88    6.61
   1  -9 -13    6.49    2.22
   1  -9 -12  105.50    5.69
   1  -9 -11   53.10    3.94
   1   9 -11   56.99    2.96
  -1  -9  11   55.97    2.91
   1  -9 -10   27.05    2.02
   1  -9 -10   28.44    2.88
   1  -9 -10   31.45    2.20
   1   9 -10   29.52    2.17
   1  -9  -9   48.09    2.73
   1  -9  -9   45.97    2.63
   1   9  -9   52.82    2.86
   1  -9  -8   20.41    1.87
   1  -9  -8   18.25    1.71
   1   9  -8   17.19    1.71
   1  -9  -7  132.62    4.48
   1   9  -7  132.54    4.54
  -1  -9   6  107.53    4.08
  -1   9   6  117.76    4.08
   1   9  -6  114.64    4.17
   1  -9  -6  116.20    4.14
   1   9  -5  221.10    5.96
  -1  -9   5  223.36    6.03
   1  -9  -5  224.45    5.98
  -1   9   5  232.74    5.97
  -1  -9   5  231.04    6.66
  -1  -9   4   11.18    1.55
  -1   9   4   12.43    1.49
   1  -9  -4   10.64    1.37
  -1  -9   4   12.52    1.50
   1   9  -4    9.21    1.38
  -1   9   3  355.15    7.77
   1   9  -3  349.44    7.73
   1  -9  -3  352.62    7.78
  -1  -9   3  355.44    7.86
  -1   9   2   83.78    3.45
   1   9  -2   80.24    3.41
  -1  -9   2   82.38    3.47
   1  -9  -2   84.75    3.44
   1  -9  -1  856.59   14.13
  -1   9   1  830.85   14.08
   1   9  -1  827.47   13.96
  -1  -9   1  867.29   14.25
  -1  -9   0  148.16    4.75
   1  -9   0  142.11    4.67
  -1   9   0  144.98    4.71
   1   9   0  137.64    4.58
  -1   9  -1  778.00   13.50
  -1  -9  -1  784.71   13.46
   1   9   1  770.27   13.33
   1  -9   1  799.91   13.59
   1  -9   2   17.06    1.66
   1   9   2   11.25    1.44
  -1   9  -2   14.66    1.69
   1  -9   2   13.59    1.50
  -1  -9  -2   15.49    1.59
  -1   9  -3  308.77    7.49
  -1  -9  -3  319.76    7.54
   1  -9   3  306.79    7.32
  -1   9  -4   25.67    2.16
  -1  -9  -4   28.84    2.19
   1  -9   4   28.15    2.22
  -1  -9  -5  282.01    7.24
  -1   9  -5  277.37    7.21
   1  -9   5  278.52    7.45
  -1  -9  -6   46.57    2.82
  -1   9  -6   45.06    2.84
  -1  -9  -7   59.24    3.22
  -1   9  -7   58.02    3.30
  -1  -9  -8  114.04    4.56
  -1   9  -8  110.06    4.63
  -1   9  -8  108.54    5.23
  -1  -9  -9   42.64    2.86
  -1   9  -9   40.94    2.91
  -1   9  -9   46.33    3.72
  -1   9 -10    1.45    1.77
  -1  -9 -10    1.47    1.69
  -1   9 -10    2.27    1.15
  -1  -9 -11    1.66    1.71
  -1   9 -11    2.30    1.87
  -1   9 -11    1.75    1.09
  -1  -9 -12   13.36    2.62
  -1   9 -12   14.40    2.71
  -1  -9 -13   12.48    2.79
   1 -10 -14   64.13    5.01
   1 -10 -13    3.91    2.07
   1 -10 -12   74.97    4.87
   1 -10 -11   16.24    2.53
   1  10 -11   18.72    1.92
   1 -10 -10  115.52    5.50
   1  10 -10  103.78    4.28
   1 -10  -9   36.21    2.55
   1 -10  -9   38.01    2.55
   1  10  -9   39.80    2.67
   1  10  -8  567.01   11.30
   1 -10  -8  565.17   11.17
   1 -10  -7    3.80    0.91
   1  10  -7    6.59    1.25
   1  10  -6  569.05   11.18
   1 -10  -6  558.21   11.06
  -1  10   6  573.97   11.03
  -1 -10   6  575.72   11.32
  -1 -10   5   13.49    1.73
  -1  10   5   14.31    1.58
  -1 -10   5   12.55    1.61
   1 -10  -5   14.03    1.58
   1  10  -5   15.96    1.73
   1  10  -4  429.53    9.30
   1 -10  -4  451.98    9.44
  -1  10   4  433.15    9.31
  -1 -10   4  451.63    9.54
  -1 -10   4  452.15    9.91
  -1  10   3   40.57    2.58
   1  10  -3   42.78    2.59
  -1 -10   3   44.57    2.64
   1 -10  -3   45.47    2.66
   1  10  -2  171.14    5.35
  -1  10   2  168.04    5.34
  -1 -10   2  180.63    5.53
   1 -10  -2  182.25    5.48
   1  10  -1   12.60    1.61
  -1  10   1   14.59    1.71
   1 -10  -1   18.71    1.85
  -1 -10   1   15.06    1.67
   1 -10   0 1446.31   21.42
  -1  10   0 1355.50   21.12
  -1 -10   0 1424.22   21.41
   1  10   0 1388.86   21.19
   1  10   1    2.25    1.05
   1 -10   1    1.96    0.97
  -1  10  -1    3.91    1.23
  -1 -10  -1    2.12    0.92
  -1  10  -2  212.04    6.22
  -1 -10  -2  222.70    6.33
   1  10   2  203.81    6.08
   1 -10   2  224.12    6.39
   1 -10   3    1.78    1.05
   1 -10   3    1.56    0.95
  -1 -10  -3    2.35    1.07
  -1  10  -3    2.40    1.15
   1 -10   4   11.46    1.70
  -1 -10  -4   10.48    1.54
  -1  10  -4    9.49    1.53
  -1 -10  -5   65.86    3.45
  -1  10  -5   70.53    3.64
   1 -10   5   65.94    3.62
  -1 -10  -6    9.93    1.52
  -1  10  -6   11.11    1.68
  -1  10  -7   16.61    1.96
  -1 -10  -7   16.04    1.87
  -1  10  -8   10.46    1.69
  -1 -10  -8    9.19    1.59
  -1  10  -9   24.34    2.36
  -1  10 -10    3.98    1.30
  -1 -10 -11   43.63    3.93
  -1  10 -11   37.38    3.02
  -1 -10 -12   36.03    3.75
   1 -11 -13   -0.70    1.79
   1 -11 -12    7.86    2.24
   1 -11 -11   51.46    4.04
   1  11 -11   51.18    3.12
   1  11 -10    4.33    1.15
   1 -11  -9   45.98    3.00
   1 -11  -9   46.97    2.97
   1  11  -9   51.49    3.16
   1 -11  -8   10.00    1.40
   1  11  -8   10.40    1.61
   1  11  -7   79.55    3.85
   1 -11  -7   76.96    3.74
   1  11  -6   38.39    2.72
   1 -11  -6   42.65    2.79
  -1  11   6   45.67    2.84
  -1 -11   6   44.37    2.92
  -1  11   5   20.58    1.97
   1 -11  -5   19.33    1.89
  -1 -11   5   21.84    2.04
   1  11  -5   18.93    2.03
  -1 -11   4    8.84    1.54
  -1  11   4   10.81    1.65
   1  11  -4   12.01    1.60
  -1 -11   4    9.80    1.54
   1 -11  -4   12.54    1.58
  -1  11   3  198.75    6.04
  -1 -11   3  207.85    6.25
   1  11  -3  194.58    6.01
   1 -11  -3  199.53    6.08
   1  11  -2   18.15    1.96
   1 -11  -2   17.74    1.88
  -1 -11   2   17.13    1.89
  -1  11   2   18.33    1.93
   1  11  -1   91.99    4.06
  -1  11   1   90.08    4.00
   1 -11  -1   97.70    4.27
  -1 -11   1   99.75    4.20
   1  11   0   10.73    1.63
   1 -11   0    8.53    1.55
  -1 -11   0    8.55    1.41
  -1  11   0    8.27    1.50
   1 -11   1  913.16   15.77
  -1 -11  -1  922.48   15.83
  -1  11  -1  865.91   15.55
   1  11   1  840.24   15.34
   1  11   2   18.27    1.95
   1 -11   2   24.98    2.18
  -1  11  -2   20.71    2.13
  -1 -11  -2   23.13    2.12
   1 -11   3   45.85    2.93
  -1 -11  -3   46.76    3.04
  -1  11  -3   48.99    3.12
   1  11   3   42.68    2.85
   1 -11   3   45.05    2.81
   1 -11   4   20.42    2.13
  -1 -11  -4   18.32    1.95
  -1  11  -4   18.93    2.05
  -1  11  -5   11.10    1.69
  -1 -11  -5   12.04    1.64
  -1  11  -6   21.54    2.23
  -1 -11  -6   20.14    2.12
  -1  11  -7    0.81    1.21
  -1  11  -8  126.61    5.33
  -1  11  -9    0.67    1.13
  -1  11 -10   17.18    2.19
  -1 -11 -11    5.63    2.23
  -1  11 -11    4.21    1.39
  -1 -11 -12   56.75    4.65
   1 -12 -13   -4.53    2.32
   1 -12 -12   17.88    2.71
   1 -12 -11   12.81    2.60
   1  12 -11   10.55    1.69
   1  12 -10   -0.09    0.96
   1  12  -9    6.51    1.53
   1  12  -8   23.04    2.25
   1 -12  -8   22.25    2.13
   1 -12  -7    3.10    1.05
   1  12  -7    2.70    1.02
  -1  12   6   26.74    2.36
   1 -12  -6   25.35    2.33
  -1 -12   6   26.19    2.45
   1  12  -6   23.40    2.26
  -1  12   5    3.00    1.30
   1  12  -5    0.68    0.96
  -1 -12   5   -0.14    0.85
   1 -12  -5    2.26    1.09
  -1  12   4    8.45    1.55
  -1 -12   4    9.51    1.59
   1 -12  -4    9.23    1.51
   1  12  -4    7.36    1.44
   1  12  -3   32.57    2.56
   1 -12  -3   30.87    2.47
  -1 -12   3   29.21    2.44
  -1  12   3   30.22    2.51
   1  12  -2   30.90    2.49
  -1  12   2   33.44    2.60
  -1 -12   2   31.44    2.50
   1 -12  -2   32.27    2.54
   1 -12  -1  219.63    6.70
  -1  12   1  220.70    6.75
  -1 -12   1  232.10    6.95
   1  12  -1  212.89    6.64
   1  12   0   24.13    2.27
   1 -12   0   30.71    2.42
  -1 -12   0   28.79    2.38
  -1  12   0   25.82    2.38
  -1  12  -1  290.23    8.01
   1 -12   1  303.41    8.11
   1  12   1  271.08    7.70
  -1 -12  -1  301.80    8.12
  -1 -12  -2  227.27    6.95
   1  12   2  218.53    6.81
   1 -12   2  233.57    7.04
  -1  12  -2  216.25    6.85
  -1 -12  -3  204.32    6.56
  -1  12  -3  187.53    6.38
   1  12   3  177.73    6.17
   1 -12   3  203.21    6.58
   1 -12   3  205.26    6.35
  -1  12  -4   59.83    3.58
  -1  12  -5  257.88    7.76
  -1  12  -6   21.33    2.28
  -1  12  -7  116.54    5.26
  -1  12  -8  103.37    4.98
  -1  12  -9  110.56    5.28
  -1  12 -10   57.24    3.83
  -1 -12 -11   24.98    3.31
  -1  12 -11   20.08    2.70
  -1 -12 -12   -0.48    1.78
   1 -13 -13   26.67    3.37
   1 -13 -12   24.64    3.35
   1 -13 -11   15.62    2.66
   1  13 -11   17.23    2.12
   1  13 -10   21.29    2.30
   1  13  -9   77.56    4.23
   1  13  -8   11.40    1.91
   1  13  -7   38.41    2.97
   1  13  -6   91.70    4.46
  -1  13   6   89.44    4.33
   1  13  -5  105.57    4.81
  -1  13   5  114.22    4.92
  -1  13   4    0.75    1.09
   1  13  -4    1.74    1.27
  -1  13   3  235.84    7.29
   1  13  -3  237.17    7.28
  -1  13   2   52.30    3.42
   1  13  -2   51.94    3.40
  -1  13   1  155.80    5.81
   1  13  -1  159.88    5.86
   1  13   0   65.05    3.71
  -1  13   0   71.13    3.92
   1  13   1  773.68   15.00
  -1  13  -1  768.71   15.06
  -1  13  -2   84.21    4.33
   1  13   2   83.07    4.23
   1  13   3   20.75    2.19
  -1  13  -3   23.84    2.42
  -1  13  -4   73.15    4.11
  -1  13  -5   25.45    2.53
  -1  13  -6  133.80    5.71
  -1  13  -7   41.84    3.29
  -1  13  -8  258.77    8.36
  -1  13  -9    1.93    1.32
  -1  13 -10   41.36    3.54
  -1  13 -11    6.85    1.64
   1 -14 -12   11.11    2.82
   1  14 -11    4.05    1.36
   1  14 -10    3.54    1.58
   1  14  -9    7.03    1.82
   1  14  -8   28.98    2.76
   1  14  -7    3.83    1.39
   1  14  -6   42.88    3.24
  -1  14   6   43.49    3.14
   1  14  -5   29.54    2.73
  -1  14   5   31.20    2.70
   1  14  -4   19.49    2.29
  -1  14   4   19.16    2.30
   1  14  -3    9.46    1.74
  -1  14   3   10.31    1.75
  -1  14   2   46.88    3.32
   1  14  -2   45.67    3.32
   1  14  -1    3.26    1.39
  -1  14   1    1.85    1.38
   1  14   0  160.80    6.16
  -1  14   0  159.87    6.14
   1  14   1   36.51    2.91
  -1  14  -1   33.57    2.85
   1  14   2   22.72    2.37
  -1  14  -2   26.33    2.62
   1  14   3    5.42    1.52
  -1  14  -3    4.76    1.51
  -1  14  -4   -1.39    1.46
  -1  14  -5    7.39    1.82
  -1  14  -6   -0.33    1.31
  -1  14  -7  182.89    7.07
  -1  14  -8    3.02    1.49
  -1  14  -9   29.32    3.00
  -1  14 -10    3.03    1.70
  -1  14 -11   34.55    3.32
   1 -15 -12   75.01    5.38
   1  15 -10    3.39    1.38
   1  15  -9   40.68    3.37
   1  15  -8    4.93    1.65
   1  15  -7    5.08    1.63
   1  15  -6   37.73    3.20
  -1  15   6   40.39    3.27
  -1  15   5   16.78    2.25
   1  15  -5   16.52    2.31
   1  15  -4    3.95    1.47
  -1  15   4    4.72    1.46
   1  15  -3   11.73    1.93
  -1  15   3   10.35    1.78
   1  15  -2    4.08    1.62
  -1  15   2    4.88    1.57
   1  15  -1    0.50    1.33
  -1  15   1    0.13    1.17
  -1  15   0  169.92    6.62
   1  15   0  170.89    6.63
   1  15   1   15.56    2.24
  -1  15  -1   12.66    1.95
   1  15   2    1.93    1.22
  -1  15  -2    3.31    1.33
   1  15   3   29.20    2.84
  -1  15  -3   33.11    3.01
  -1  15  -4  139.28    6.12
  -1  15  -5   48.37    3.69
  -1  15  -6  130.96    6.09
  -1  15  -7    7.99    1.91
  -1  15  -8  189.95    7.55
  -1  15  -9   11.23    2.20
  -1  15 -10   55.21    4.15
  -1  15 -11    8.59    2.09
   1  16 -10    5.90    1.79
   1  16  -9   11.67    2.08
   1  16  -8    2.38    1.43
   1  16  -7    7.69    1.83
  -1  16   6    0.42    1.18
   1  16  -6   -0.33    1.17
   1  16  -5   63.62    4.17
  -1  16   5   57.30    4.04
  -1  16   4   34.27    3.16
   1  16  -4   31.02    3.10
   1  16  -3   27.46    2.88
  -1  16   3   30.34    3.09
  -1  16   2   36.41    3.17
   1  16  -2   34.76    3.11
  -1  16   1   81.96    4.68
   1  16  -1   83.28    4.78
  -1  16   0   53.86    3.92
   1  16   0   53.40    3.84
  -1  16  -1   88.29    4.92
   1  16   1   91.27    4.94
   1  16   2    0.06    1.28
  -1  16  -2    0.89    1.48
   1  16   3   23.80    2.57
  -1  16  -3   27.45    2.94
  -1  16  -4   11.07    2.02
  -1  16  -5  183.43    7.39
  -1  16  -6    9.58    2.01
  -1  16  -7  157.62    6.97
  -1  16  -8   10.17    2.20
  -1  16  -9  121.94    6.27
  -1  16 -10    0.97    1.71
  -1  16 -11   51.12    4.16
   1  17 -10    4.04    1.63
   1  17  -9   11.21    2.24
   1  17  -8    1.81    1.50
   1  17  -7    6.88    1.85
   1  17  -6    8.10    1.96
  -1  17   6   12.49    2.14
   1  17  -5    0.99    1.29
  -1  17   5    0.53    1.22
   1  17  -4   16.06    2.50
  -1  17   4   15.51    2.35
  -1  17   3   33.25    3.14
   1  17  -3   34.46    3.33
   1  17  -2    2.12    1.33
  -1  17   2    5.48    1.65
  -1  17   1   51.76    3.97
   1  17  -1   49.12    3.90
   1  17   0   30.54    3.07
  -1  17   0   35.30    3.30
  -1  17  -1   49.15    3.91
   1  17   1   45.29    3.78
   1  17   2   22.23    2.68
  -1  17  -2   22.50    2.83
   1  17   3   -0.31    1.28
  -1  17  -3    1.93    1.52
  -1  17  -4  105.66    5.67
  -1  17  -5   10.12    2.12
  -1  17  -6   63.38    4.52
  -1  17  -7   28.60    3.21
  -1  17  -8   41.70    3.77
  -1  17  -9   -0.09    1.46
  -1  17 -10    9.65    2.32
   1  18 -10    7.53    2.14
   1  18  -9   -0.18    1.49
   1  18  -8   20.33    2.88
   1  18  -7   -0.47    1.46
  -1  18   6   13.88    2.38
   1  18  -6   15.42    2.65
  -1  18   5   12.31    2.27
   1  18  -5   15.08    2.41
   1  18  -4   32.54    3.22
  -1  18   4   36.21    3.44
  -1  18   3   44.66    3.78
   1  18  -3   46.52    3.91
  -1  18   2  209.72    8.22
   1  18  -2  216.75    8.28
   1  18  -1  112.82    5.93
  -1  18   1  113.83    5.93
  -1  18   0   84.94    5.28
   1  18   0   82.53    5.10
   1  18   1   11.48    2.07
  -1  18  -1   14.50    2.37
   1  18   2   43.61    3.80
  -1  18  -2   47.81    3.99
   1  18   3    3.80    1.87
  -1  18  -3    2.77    1.81
  -1  18  -4   12.55    2.35
  -1  18  -5   89.78    5.47
  -1  18  -6   54.51    4.39
  -1  18  -7   27.58    3.23
  -1  18  -8    8.82    2.18
  -1  18  -9   51.09    4.38
  -1  18 -10    0.65    1.56
   1  19 -10    2.67    1.78
   1  19  -9   36.99    3.72
   1  19  -8    2.57    1.67
   1  19  -7   46.54    4.06
  -1  19   6   11.57    2.47
   1  19  -6   13.92    2.63
  -1  19   5  178.60    7.80
   1  19  -5  174.19    7.70
  -1  19   4   43.50    3.90
   1  19  -4   48.57    4.05
  -1  19   3  216.01    8.63
   1  19  -3  221.45    8.77
   1  19  -2   12.57    2.47
  -1  19   2   14.88    2.60
   1  19  -1   28.62    3.33
  -1  19   1   26.29    3.19
  -1  19   0   45.09    4.05
   1  19   0   42.07    3.84
   1  19   1   27.08    3.18
  -1  19  -1   25.96    3.11
   1  19   2   19.12    2.75
  -1  19  -2   19.55    2.74
  -1  19  -3   77.50    5.27
   1  19   3   77.92    5.21
  -1  19  -4   72.09    5.01
  -1  19  -5    3.88    1.48
  -1  19  -6   59.12    4.68
  -1  19  -7   12.89    2.45
  -1  19  -8   45.40    4.15
  -1  19  -9    4.99    1.90
  -1  19 -10   11.86    2.73
   1  20  -9    0.81    1.85
   1  20  -8    9.59    2.10
   1  20  -7    9.85    2.26
   1  20  -6    2.53    1.69
  -1  20   6    2.19    1.67
   1  20  -5    1.94    1.77
  -1  20   5    0.17    1.45
   1  20  -4   22.68    3.04
  -1  20   4   27.95    3.28
   1  20  -3   63.85    4.84
  -1  20   3   60.00    4.78
  -1  20   2   26.80    3.42
   1  20  -2   20.74    2.99
   1  20  -1    2.27    1.39
  -1  20   1    1.36    1.55
   1  20   0   18.87    2.89
  -1  20   0   16.91    2.76
  -1  20  -1   15.04    2.65
   1  20   1   12.82    2.42
   1  20   2   10.00    2.38
  -1  20  -2   12.85    2.62
  -1  20  -3   13.12    2.46
  -1  20  -4   54.03    4.49
  -1  20  -5   47.57    4.39
  -1  20  -6   12.49    2.61
  -1  20  -7   12.90    2.56
  -1  20  -8    0.52    1.84
   1  21  -8   -1.79    1.91
   1  21  -7   19.68    2.98
   1  21  -6   15.99    2.80
  -1  21   6   14.67    2.52
   1  21  -5   74.52    5.32
  -1  21   5   77.37    5.41
  -1  21   4    0.76    1.83
   1  21  -4    0.07    1.57
  -1  21   3   70.15    5.24
   1  21  -3   68.19    5.19
  -1  21   2   -0.13    1.56
   1  21  -2    1.61    1.92
  -1  21   1  104.49    6.37
   1  21  -1   99.22    6.19
  -1  21   0    5.25    2.07
   1  21   0    6.09    1.95
   1  21   1   42.27    4.15
  -1  21  -1   48.36    4.42
   1  21   2    2.97    1.74
  -1  21  -2    6.61    2.19
  -1  21  -3    9.74    2.68
  -1  21  -4   13.92    2.76
  -1  21  -5  151.64    7.81
  -1  21  -6   14.37    2.98
  -1  22   5   11.51    2.84
   1  22  -4  118.98    7.01
  -1  22   4  120.39    6.97
  -1  22   3    2.30    2.01
   1  22  -3   -1.38    1.53
   1  22  -2  140.45    7.52
  -1  22   2  140.88    7.60
  -1  22   1    1.21    1.62
   1  22  -1    2.78    1.97
  -1  22   0   81.89    5.87
   1  22   0   73.38    5.45
  -1  22  -1    5.37    1.87
   1  22   1    2.22    1.70
  -1  22  -2   74.40    5.55
   1  22   2   74.07    5.52
   2   0 -15    3.29    1.77
   2   0 -14  268.73    9.72
   2   0 -13   -1.12    1.60
   2   0 -12  249.92    8.41
   2   0 -11   -1.12    1.47
   2   0 -10  282.40    8.05
  -2   0   9    1.94    0.70
   2   0  -9   -1.66    1.20
  -2   0   8  467.39    8.12
  -2   0   8  498.85   10.01
   2   0  -8  466.56    9.80
  -2   0   7   -0.08    0.58
   2   0  -7    0.31    0.97
  -2   0   7    0.87    0.88
  -2   0   6  441.81    8.23
  -2   0   6  437.85    7.52
   2   0  -6  432.45    8.24
   2   0  -5    0.34    0.53
  -2   0   5    0.59    0.58
  -2   0   5   -1.30    0.89
   2   0  -5    0.66    0.83
  -2   0   4 1029.10   14.08
   2   0  -4 1025.97   14.08
  -2   0   4 1017.51   13.88
   2   0  -4 1027.75   13.93
   2   0  -3    0.13    0.58
  -2   0   3   -1.33    0.83
  -2   0   3    0.11    0.52
   2   0  -3    0.42    0.63
   2   0  -2  209.89    4.16
  -2   0   2  205.75    4.17
  -2   0   2  209.74    3.32
  -2   0   1    0.61    0.68
   2   0  -1    0.91    0.64
   2   0   0  364.46    5.86
  -2   0   0  369.68    5.91
  -2   0  -1    1.78    0.60
   2   0   1    1.19    0.55
   2   0   2 4745.08   54.83
  -2   0  -2 4721.89   54.87
  -2   0  -2 4710.00   55.79
   2   0   3   -0.42    0.40
  -2   0  -3    0.18    0.40
  -2   0  -3    0.06    0.97
  -2   0  -4  117.64    3.78
  -2   0  -5    0.41    1.03
  -2   0  -6    9.42    1.52
  -2   0  -7    0.69    1.29
  -2   0  -8  280.52    7.97
  -2   0  -9    0.05    1.32
  -2   0 -10   10.07    2.07
  -2   0 -11    1.82    3.35
  -2   0 -12    6.56    2.23
  -2   0 -13    1.53    2.05
   2  -1 -15   49.22    4.34
   2   1 -15   45.29    4.24
   2  -1 -14    2.43    2.06
   2   1 -14    1.74    1.88
   2  -1 -13   55.83    4.18
   2   1 -13   57.90    4.23
   2  -1 -12    1.45    1.35
   2   1 -12    2.12    1.59
   2  -1 -11  144.45    6.18
   2   1 -11  142.39    5.97
  -2  -1  10    3.40    0.82
   2   1 -10    2.04    1.29
   2  -1 -10    2.55    1.39
  -2  -1   9  209.62    4.87
  -2  -1   9  228.55    6.69
   2   1  -9  213.76    6.56
   2  -1  -9  208.31    6.39
  -2   1   8    0.06    0.63
  -2  -1   8    1.31    0.70
   2   1  -8    1.27    1.07
  -2  -1   8    0.33    0.91
   2  -1  -8   -0.37    0.96
  -2  -1   7  256.35    5.34
   2  -1  -7  255.84    5.28
  -2   1   7  255.23    5.34
  -2  -1   7  272.23    6.52
   2  -1  -7  258.05    6.30
   2   1  -7  261.04    6.47
   2  -1  -6   58.25    2.19
  -2  -1   6   57.44    2.23
  -2   1   6   57.27    2.23
  -2  -1   6   58.68    2.66
   2   1  -6   57.70    2.68
   2  -1  -6   59.97    2.61
   2  -1  -5  262.90    5.22
  -2  -1   5  263.80    5.25
  -2   1   5  261.76    5.25
  -2   1   5  277.20    5.51
   2  -1  -5  267.67    5.47
   2   1  -5  268.90    5.67
  -2  -1   5  266.74    5.62
   2   1  -4    1.99    0.80
  -2   1   4    0.79    0.55
  -2  -1   4    1.67    0.58
   2  -1  -4    2.39    0.81
  -2  -1   4    2.82    0.71
   2  -1  -4    2.88    0.68
  -2   1   4   -1.97    0.93
  -2  -1   4    1.86    0.33
   2  -1  -3  376.73    6.41
  -2  -1   3  373.03    6.40
  -2   1   3  379.24    6.45
  -2   1   3  380.84    5.64
  -2  -1   3  372.79    6.02
   2   1  -3  376.12    6.09
   2  -1  -3  372.90    5.66
   2  -1  -2   89.44    2.52
   2   1  -2   91.20    2.54
  -2  -1   2   88.95    2.55
  -2   1   2   90.65    1.64
  -2   1   2   87.18    2.55
   2  -1  -2   86.72    1.65
  -2  -1   2   87.53    2.09
   2  -1  -1  411.85    6.62
  -2  -1   1  415.04    6.61
   2   1  -1  407.73    6.61
  -2   1   1  412.74    6.64
   2   1   0 1146.16   15.13
   2  -1   0 1167.15   15.12
  -2  -1   0 1145.68   15.11
  -2   1   0 1192.87   15.18
  -2   1   0 1168.99   13.94
  -2  -1  -1 1191.38   15.34
   2  -1   1 1208.27   15.41
  -2   1  -1 1210.36   15.15
  -2   1  -1 1199.05   15.41
   2  -1   2  190.16    3.59
  -2  -1  -2  198.16    3.57
  -2   1  -2  191.15    3.62
  -2   1  -2  194.65    4.07
   2  -1   3  320.57    5.00
  -2  -1  -3  320.20    4.92
  -2   1  -3  320.67    6.22
   2  -1   4    0.07    0.35
  -2  -1  -4    0.31    0.35
  -2  -1  -4    0.41    1.00
  -2   1  -4    0.69    0.93
   2  -1   5  137.76    2.29
  -2  -1  -5  125.76    2.14
  -2  -1  -5  140.66    4.48
  -2   1  -5  136.50    4.38
  -2  -1  -6   -0.34    1.05
  -2   1  -6    1.56    1.17
  -2   1  -7   14.58    1.90
  -2  -1  -7   15.66    1.93
  -2   1  -8   20.02    2.28
  -2  -1  -8   18.88    2.29
  -2   1  -9    2.99    1.58
  -2  -1  -9   -1.12    1.50
  -2   1 -10   23.96    2.81
  -2  -1 -10   21.06    2.54
  -2  -1 -11   23.18    2.92
  -2   1 -11   19.04    4.17
  -2   1 -12   47.05    4.08
  -2  -1 -12   45.69    4.15
  -2  -1 -13    7.00    2.31
  -2   1 -13    4.28    1.85
   2  -2 -15    9.97    2.50
   2   2 -15    4.58    1.84
   2  -2 -14   56.83    4.47
   2   2 -14   67.30    4.85
   2   2 -13    4.37    1.70
   2  -2 -13    3.40    1.54
   2  -2 -12   78.83    4.63
   2   2 -12   78.40    4.73
  -2  -2  11   58.15    2.39
   2  -2 -11   62.74    3.86
   2   2 -11   61.57    3.97
  -2  -2  10   37.83    2.01
   2   2 -10   42.29    3.19
   2  -2 -10   36.98    2.91
  -2  -2   9   25.31    1.62
   2   2  -9   23.78    2.28
   2  -2  -9   20.32    2.12
   2  -2  -8    1.19    0.55
  -2  -2   8    1.00    0.59
   2   2  -8    0.54    0.99
  -2  -2   8    1.18    0.99
   2  -2  -8    0.33    0.98
  -2  -2   7  154.47    3.96
   2  -2  -7  157.81    3.95
   2   2  -7  152.50    4.84
  -2  -2   7  157.64    4.85
   2  -2  -7  150.20    4.60
   2  -2  -6  771.51   11.60
  -2  -2   6  771.02   11.67
  -2   2   6  775.06   11.71
   2  -2  -6  777.56   12.26
   2   2  -6  766.33   12.70
  -2  -2   6  800.81   12.76
  -2   2   5  361.77    6.56
   2  -2  -5  354.67    6.48
  -2  -2   5  360.92    6.53
  -2   2   5  360.51    4.76
  -2  -2   5  339.38    4.95
   2   2  -5  364.82    7.06
   2  -2  -5  354.64    6.55
  -2  -2   5  359.08    6.96
  -2   2   4  524.89    8.49
   2  -2  -4  525.06    8.46
  -2  -2   4  529.01    8.47
  -2  -2   4  516.99    7.16
  -2   2   4  523.48    7.06
   2   2  -4  533.44    8.67
  -2  -2   4  530.77    8.58
   2  -2  -4  534.62    8.02
  -2   2   3   27.44    1.56
  -2  -2   3   27.92    1.48
   2  -2  -3   26.99    1.48
  -2   2   3   28.37    1.17
  -2  -2   3   28.02    1.10
   2  -2  -3   30.43    1.21
  -2  -2   3   28.25    1.44
  -2  -2   2  286.53    5.38
   2  -2  -2  291.47    3.96
  -2   2   2  291.95    5.41
   2  -2  -2  285.86    5.32
  -2   2   1  447.06    7.20
   2  -2  -1  447.54    7.18
   2  -2   0  230.60    4.47
  -2   2   0  239.48    4.51
   2  -2   0  233.45    3.45
  -2   2   0  236.04    3.46
   2  -2   1   10.31    0.94
  -2   2  -1   11.62    0.94
   2  -2   1   10.53    0.82
   2  -2   2 7353.88   84.81
   2  -2   2 7346.10   85.28
  -2   2  -2 7368.04   85.28
  -2  -2  -3  656.42    8.96
   2  -2   3  640.14    9.10
   2  -2   3  649.40   10.27
  -2   2  -3  663.54   10.34
  -2  -2  -4  155.39    2.90
   2  -2   4  146.81    2.99
   2  -2   4  152.90    4.34
  -2   2  -4  155.85    4.38
   2  -2   5    5.64    0.56
  -2  -2  -5    4.60    0.44
  -2  -2  -5    5.98    1.37
   2  -2   5    4.58    1.19
  -2   2  -5    4.69    1.20
   2  -2   6    1.89    0.33
  -2  -2  -6    0.55    1.07
  -2   2  -6    2.66    1.19
   2  -2   6    1.94    1.14
  -2  -2  -7  213.65    6.48
  -2   2  -7  210.98    6.46
  -2  -2  -8   46.00    3.26
  -2   2  -8   43.07    3.07
  -2  -2  -9   50.42    3.54
  -2   2  -9   50.17    3.52
  -2   2 -10   18.52    2.47
  -2  -2 -10   13.21    2.27
  -2  -2 -11   -1.22    1.52
  -2   2 -11    1.35    1.60
  -2  -2 -12   12.51    2.37
  -2   2 -12    9.03    2.08
  -2   2 -13    3.01    1.87
  -2  -2 -13    2.71    1.92
   2  -3 -15   22.26    3.13
   2   3 -15   29.61    3.69
   2   3 -14   77.52    5.28
   2  -3 -14   69.52    4.91
   2   3 -13  125.13    6.36
   2  -3 -13  124.60    6.14
  -2  -3  12    4.06    0.92
   2  -3 -12    4.23    1.60
   2   3 -12    7.16    1.85
  -2  -3  11  285.85    6.09
   2   3 -11  297.83    8.99
   2  -3 -11  290.27    8.58
   2  -3 -10   23.96    1.55
  -2  -3  10   24.32    1.67
   2   3 -10   25.17    2.57
   2  -3 -10   23.86    2.44
  -2  -3   9  213.90    5.10
   2  -3  -9  221.73    5.07
   2   3  -9  221.54    6.88
   2  -3  -9  223.60    6.59
   2  -3  -8   33.40    1.79
  -2  -3   8   32.05    1.79
   2   3  -8   29.89    2.37
   2  -3  -8   29.12    2.23
  -2  -3   8   33.35    2.44
   2  -3  -7  805.47   12.25
  -2  -3   7  808.97   12.39
   2   3  -7  806.06   13.92
  -2  -3   7  837.84   14.00
   2  -3  -7  802.54   13.31
   2  -3  -6   41.19    1.95
  -2  -3   6   41.72    1.98
  -2  -3   6   41.50    2.38
   2  -3  -6   41.89    2.18
   2   3  -6   40.04    2.38
   2  -3  -5  129.99    3.51
   2  -3  -5  127.67    3.56
  -2  -3   5  131.29    3.58
  -2  -3   5  127.40    2.71
  -2   3   5  132.67    2.63
  -2  -3   5  130.75    3.94
   2   3  -5  133.33    4.03
   2  -3  -4  169.35    3.65
   2  -3  -4  163.10    4.02
  -2  -3   4  165.60    3.30
  -2   3   4  165.69    3.24
  -2  -3   4  164.25    4.15
   2  -3  -3  691.27   10.59
  -2  -3   3  703.36    9.80
  -2   3   3  707.42    9.75
  -2  -3   3  698.47   10.48
   2  -3  -2  457.83    7.72
  -2  -3   2  472.89    7.23
  -2   3   2  469.55    7.24
   2  -3  -1  107.50    3.00
   2  -3   0  153.19    3.57
   2  -3   0  149.53    2.67
   2  -3   1   30.68    1.53
   2  -3   1   30.02    1.31
  -2   3  -1   32.54    1.42
   2  -3   2  721.62   10.40
   2  -3   2  721.61   10.58
  -2   3  -2  728.75   10.58
   2  -3   3   56.52    1.96
  -2   3  -3   59.10    2.45
   2  -3   3   57.28    2.40
   2  -3   4  406.96    6.55
   2  -3   4  422.69    8.11
  -2   3  -4  431.20    8.17
   2  -3   5    0.78    0.48
  -2  -3  -5    1.06    0.39
   2  -3   5    1.80    0.99
  -2   3  -5   -1.66    1.15
  -2  -3  -6  503.42    6.78
  -2  -3  -6  512.00   10.41
   2  -3   6  510.23   10.32
   2  -3   6  492.12    7.17
  -2   3  -6  520.49   10.41
   2  -3   7    1.35    0.33
   2  -3   7    4.54    1.26
  -2   3  -7   -1.00    1.35
  -2  -3  -7    3.07    1.41
  -2  -3  -8   50.36    3.37
  -2   3  -8   59.91    3.66
  -2  -3  -9   54.35    3.70
  -2   3  -9   54.03    3.66
  -2  -3 -10   10.91    1.99
  -2   3 -10    7.04    1.74
  -2   3 -11    4.65    1.82
  -2  -3 -11    0.40    1.54
  -2   3 -12   40.61    3.81
  -2  -3 -12   37.11    3.69
  -2   3 -12   39.19    2.80
  -2   3 -13    5.11    2.14
  -2  -3 -13    4.37    2.07
   2  -4 -15   17.29    2.87
   2  -4 -14   81.25    5.28
   2   4 -14   83.33    5.53
   2  -4 -13   10.10    2.26
   2   4 -13   13.66    2.39
  -2  -4  12   31.27    1.83
   2   4 -12   33.01    3.26
   2  -4 -12   39.64    3.44
  -2  -4  11   24.10    1.69
   2   4 -11   23.86    2.71
   2  -4 -11   22.47    2.51
   2  -4 -10  157.82    4.26
  -2  -4  10  155.92    4.40
   2   4 -10  171.61    6.41
   2  -4 -10  154.37    5.79
   2   4  -9    0.61    1.26
   2  -4  -9    0.61    1.15
   2  -4  -9    0.33    0.65
  -2  -4   9    0.86    0.71
   2   4  -9    1.27    0.42
  -2  -4   8  284.14    6.15
   2  -4  -8  281.64    6.02
   2   4  -8  278.29    4.79
   2   4  -8  267.64    7.43
   2  -4  -8  287.27    7.12
  -2  -4   8  295.05    7.68
   2   4  -7    7.94    1.42
   2  -4  -7    8.71    1.38
  -2  -4   7    8.79    1.46
   2  -4  -7    7.28    0.99
  -2  -4   7    8.22    1.06
   2   4  -7    7.96    0.72
   2  -4  -7    7.52    0.67
   2  -4  -6  966.06   14.24
   2  -4  -6  968.65   14.53
  -2  -4   6  971.52   14.32
  -2   4   6  977.01   12.63
  -2  -4   6  926.27   12.89
   2  -4  -6  934.89   12.68
   2   4  -6  962.09   12.85
   2   4  -6  980.13   15.48
  -2  -4   6 1002.91   15.50
   2  -4  -5   52.17    2.31
   2  -4  -5   52.85    2.24
  -2   4   5   53.27    1.79
   2   4  -5   55.31    1.85
   2  -4  -5   49.37    1.72
  -2  -4   5   48.63    1.79
  -2  -4   5   51.34    2.52
   2  -4  -4  493.01    8.55
  -2  -4   4  492.28    7.78
  -2   4   4  507.05    7.70
   2   4  -4  506.81    7.72
   2  -4  -4  488.31    7.60
  -2  -4   4  506.98    8.84
   2  -4  -3  183.72    4.40
  -2  -4   3  183.80    3.94
  -2   4   3  181.09    3.91
  -2  -4   3  184.03    4.38
   2  -4  -2  152.37    3.92
  -2   4   2  155.95    3.65
  -2  -4   2  155.32    3.64
  -2  -4   1    1.24    0.71
  -2   4   1    1.48    0.84
   2  -4   0   67.55    1.82
   2  -4   1  201.01    3.97
  -2   4  -1  207.04    4.04
  -2   4  -2   25.55    1.55
   2  -4   2   24.38    1.46
   2  -4   3  332.44    6.64
  -2   4  -3  338.31    6.67
   2  -4   4   29.03    1.92
  -2   4  -4   28.12    1.94
   2  -4   5  382.62    8.20
  -2   4  -5  374.45    8.13
   2  -4   6   47.58    1.77
   2  -4   6   51.82    2.98
  -2   4  -6   54.07    3.00
  -2  -4  -7  169.11    2.95
  -2  -4  -7  171.25    5.87
   2  -4   7  163.43    3.34
   2  -4   7  174.27    5.89
  -2   4  -7  164.74    5.72
   2  -4   8   10.89    0.64
  -2   4  -8   13.52    2.13
  -2  -4  -8   12.67    1.98
  -2  -4  -9  101.11    4.96
  -2   4  -9  104.46    5.10
  -2  -4 -10    3.85    1.63
  -2   4 -10    4.32    1.64
  -2   4 -11   20.51    2.90
  -2  -4 -11   18.61    2.66
  -2   4 -11   16.77    2.00
  -2   4 -12   87.65    4.22
  -2  -4 -12   94.87    5.66
  -2   4 -12  100.27    5.88
  -2   4 -13   26.75    3.51
  -2  -4 -13   26.21    3.33
   2  -5 -15    1.11    1.74
   2  -5 -14    8.06    2.26
   2   5 -14    3.15    1.73
   2   5 -13    2.87    1.73
   2  -5 -13    2.00    1.84
  -2  -5  12    2.36    0.87
   2  -5 -12   -0.12    1.41
   2   5 -12    0.26    1.44
   2  -5 -11    2.15    0.69
  -2  -5  11    0.22    0.73
   2  -5 -11   -2.71    1.63
   2   5 -11    0.78    1.62
   2  -5 -10   89.25    3.23
  -2  -5  10   90.82    3.39
   2   5 -10   94.18    2.44
   2  -5 -10   87.34    4.33
   2   5 -10   89.31    4.72
   2   5  -9   15.96    2.07
   2  -5  -9   21.21    2.19
  -2  -5   9   19.09    1.57
   2  -5  -9   20.59    1.58
   2  -5  -9   17.05    1.02
   2   5  -9   20.48    1.20
   2  -5  -8    3.05    1.16
   2   5  -8    5.32    1.53
  -2  -5   8    4.44    1.35
   2  -5  -8    5.14    0.85
  -2  -5   8    5.46    0.92
   2   5  -8    4.31    0.72
   2  -5  -8    2.87    0.59
   2   5  -7   27.28    2.27
   2  -5  -7   24.23    1.92
   2  -5  -7   26.16    1.73
   2  -5  -7   24.78    1.31
   2   5  -7   25.86    1.39
  -2  -5   7   27.71    2.19
   2  -5  -6   34.32    2.06
   2  -5  -6   30.77    1.85
   2  -5  -6   34.48    1.58
  -2  -5   6   30.36    1.57
  -2   5   6   34.06    1.53
   2   5  -6   32.84    1.58
  -2  -5   6   32.46    2.25
   2  -5  -5   93.97    3.26
  -2   5   5   96.16    2.74
   2  -5  -5   92.29    2.71
   2   5  -5   96.06    2.80
  -2  -5   5   91.61    2.80
  -2  -5   5   99.48    3.66
   2  -5  -4   46.37    2.28
  -2   5   4   47.29    1.96
   2  -5  -4   46.26    1.94
  -2  -5   4   48.90    2.04
   2   5  -4   46.25    1.93
  -2  -5   4   47.62    2.42
   2  -5  -3  248.59    5.56
   2  -5  -3  248.87    5.12
  -2   5   3  257.22    5.18
   2   5  -3  250.50    5.12
  -2  -5   3  251.07    5.17
  -2  -5   2    6.47    0.89
  -2   5   2    6.08    1.02
  -2   5   1  455.07    7.96
  -2  -5   1  450.32    7.90
  -2  -5   0  304.82    6.23
  -2   5   0  323.60    6.43
  -2  -5  -1  124.41    3.70
  -2   5  -1  132.64    3.82
   2  -5   1  123.27    3.12
  -2   5  -2   81.24    2.73
   2  -5   2   76.23    2.66
  -2   5  -3  101.45    3.38
   2  -5   3  101.56    3.36
   2  -5   4  801.25   13.19
  -2   5  -4  814.51   13.24
   2  -5   5  828.72   14.04
  -2   5  -5  829.52   14.04
   2  -5   6  377.64    8.77
  -2   5  -6  379.66    8.78
   2  -5   7   73.31    2.38
  -2   5  -7   81.43    3.98
  -2  -5  -8  227.88    3.72
   2  -5   8  228.01    4.32
  -2  -5  -8  227.54    7.31
  -2   5  -8  233.76    7.40
  -2   5  -9   19.09    2.43
  -2  -5  -9   20.89    2.48
   2  -5   9   15.50    0.81
  -2   5  -9   19.03    1.99
  -2  -5 -10   73.50    4.51
  -2  -5 -10   65.99    3.46
  -2   5 -10   68.60    3.67
  -2   5 -10   72.28    4.48
  -2   5 -11   21.40    2.84
  -2  -5 -11   20.10    2.73
  -2   5 -11   19.49    2.10
  -2   5 -12   70.80    3.89
  -2   5 -12   67.04    4.85
  -2  -5 -12   77.36    5.16
  -2   5 -13   23.80    3.24
  -2  -5 -13   18.65    3.08
   2  -6 -15   17.43    2.93
   2  -6 -14    1.17    1.56
   2   6 -14    0.13    1.69
   2  -6 -13   20.16    2.86
   2   6 -13   28.34    3.31
  -2  -6  12   16.66    1.49
   2   6 -12   24.01    2.95
   2  -6 -12   19.29    2.55
  -2  -6  11  146.46    4.51
   2   6 -11  147.00    3.42
   2   6 -11  147.85    6.49
   2  -6 -11  145.43    5.98
   2  -6 -10   12.83    1.92
   2   6 -10   10.20    2.11
  -2  -6  10   13.34    1.48
   2  -6 -10   12.81    1.34
   2   6 -10   13.68    1.09
   2  -6 -10    9.49    0.87
   2  -6  -9   81.21    3.90
  -2  -6   9   82.96    3.35
   2  -6  -9   79.85    3.18
   2  -6  -9   78.98    2.53
   2   6  -9   83.02    2.74
   2   6  -9   83.54    4.36
   2  -6  -8   20.84    2.06
   2  -6  -8   20.61    1.66
   2  -6  -8   17.66    1.24
   2   6  -8   20.33    1.39
   2  -6  -7  152.86    4.49
   2  -6  -7  149.16    4.74
   2  -6  -7  149.89    3.80
   2   6  -7  155.50    3.96
  -2  -6   7  155.17    5.34
   2  -6  -6   34.92    2.07
   2  -6  -6   32.55    1.72
  -2  -6   6   31.81    1.76
  -2   6   6   36.53    1.77
   2   6  -6   31.37    1.71
  -2  -6   6   35.76    2.46
  -2  -6   5   12.87    1.43
   2  -6  -5   14.69    1.40
   2   6  -5   14.17    1.22
   2  -6  -5   11.03    1.07
  -2   6   5   14.50    1.23
  -2  -6   5   11.24    1.17
  -2  -6   4   -0.47    0.93
   2   6  -4    1.45    0.70
  -2   6   4    0.96    0.75
   2  -6  -4    1.49    0.70
  -2  -6   4    1.63    0.72
  -2  -6   3   65.79    2.60
   2  -6  -3   66.79    2.59
  -2   6   3   71.24    2.66
   2   6  -3   66.55    2.57
  -2  -6   2  274.09    5.85
   2   6  -2  269.74    5.78
  -2   6   2  279.73    5.89
   2  -6  -2  267.70    5.78
  -2   6   1  564.22    9.65
  -2  -6   1  556.86    9.61
  -2   6   0   87.43    3.20
  -2  -6   0   87.05    3.18
  -2   6  -1  634.35   10.75
  -2  -6  -1  627.30   10.65
   2  -6   1  611.17    9.65
   2  -6   2    3.97    0.97
  -2  -6  -2    2.67    0.75
  -2   6  -2    5.26    1.16
  -2  -6  -3 1153.72   17.35
  -2   6  -3 1178.28   17.53
   2  -6   3 1150.57   16.96
  -2   6  -3 1145.31   16.92
  -2   6  -4  112.59    4.02
  -2  -6  -4  108.61    3.89
  -2   6  -4  108.85    3.94
   2  -6   4  106.35    3.86
  -2   6  -5 1522.03   22.20
  -2   6  -5 1517.18   22.52
   2  -6   5 1528.92   22.52
  -2   6  -6  112.20    4.26
  -2   6  -6  109.21    4.45
   2  -6   6  116.52    4.61
  -2   6  -7  399.67    9.02
  -2  -6  -7  401.87    8.88
  -2   6  -7  399.66    9.73
  -2   6  -8   12.78    2.00
  -2  -6  -8   13.28    1.52
  -2   6  -8   11.92    1.69
  -2  -6  -9   43.45    1.38
   2  -6   9   52.02    1.89
  -2  -6  -9   49.07    3.55
  -2  -6  -9   50.65    1.36
  -2  -6  -9   55.07    3.16
  -2   6  -9   58.26    3.36
  -2   6  -9   53.80    3.80
  -2   6 -10    2.12    1.48
  -2  -6 -10    1.15    1.45
  -2  -6 -10    2.08    0.92
  -2   6 -10    0.38    0.96
  -2  -6 -11   63.14    4.53
  -2   6 -11   57.42    3.51
  -2   6 -11   62.04    4.48
  -2   6 -12    9.53    2.38
  -2  -6 -12    7.86    2.31
  -2   6 -12    8.74    1.67
  -2   6 -13   48.39    4.53
  -2  -6 -13   47.31    4.40
   2  -7 -15   16.63    3.07
   2  -7 -14   42.54    3.94
   2   7 -13   11.78    2.68
   2  -7 -13   10.47    2.32
   2   7 -12    2.43    1.61
   2  -7 -12    1.86    1.54
  -2  -7  12    2.46    0.97
   2  -7 -11   19.96    2.45
   2   7 -11   20.75    1.40
  -2  -7  11   22.25    1.91
   2  -7 -10   55.24    3.55
   2  -7 -10   55.28    2.23
   2   7 -10   57.32    2.44
  -2  -7  10   60.75    2.99
   2  -7 -10   56.53    2.80
   2  -7  -9  267.39    7.47
   2  -7  -9  259.89    6.42
  -2  -7   9  270.61    6.66
   2  -7  -9  250.60    5.50
   2   7  -9  261.29    5.79
   2  -7  -8   -0.40    1.15
   2  -7  -8   -0.32    0.80
   2   7  -8   -0.73    0.58
   2  -7  -8    0.24    0.57
   2  -7  -7  204.18    5.52
  -2  -7   7  195.05    4.97
   2   7  -7  205.22    5.03
   2  -7  -7  199.91    4.89
  -2  -7   7  210.21    6.44
  -2  -7   6    8.42    1.41
   2  -7  -6   10.29    1.31
  -2   7   6    9.38    1.07
   2   7  -6   10.25    1.14
   2  -7  -6   10.96    1.18
  -2  -7   6    9.01    1.12
   2  -7  -5  159.48    4.76
   2  -7  -5  157.37    4.30
  -2  -7   5  150.10    4.32
   2   7  -5  158.87    4.35
  -2   7   5  163.50    4.33
  -2  -7   5  163.59    5.13
  -2   7   4  384.14    7.47
   2  -7  -4  375.75    7.44
  -2  -7   4  381.59    7.58
   2   7  -4  383.50    7.50
  -2  -7   4  380.81    8.16
   2   7  -3   47.47    2.34
  -2  -7   3   49.62    2.41
   2  -7  -3   45.79    2.29
  -2   7   3   47.66    2.36
  -2  -7   2  195.20    5.03
  -2   7   2  191.94    5.03
   2  -7  -2  196.16    5.06
   2   7  -2  194.67    5.00
  -2  -7   1    8.67    1.16
   2   7  -1    7.23    1.12
  -2   7   1    8.69    1.27
   2  -7  -1   11.29    1.32
  -2  -7   0   17.49    1.60
  -2   7   0   20.28    1.75
   2  -7   1    6.29    0.97
  -2  -7  -1    6.36    1.19
  -2   7  -1    7.33    1.23
  -2   7  -2  266.85    6.49
  -2  -7  -2  270.29    6.48
   2  -7   2  256.45    5.79
   2  -7   3   18.15    1.67
  -2  -7  -3   17.82    1.68
  -2   7  -3   20.42    1.86
  -2   7  -4    5.87    1.22
   2  -7   4    8.63    1.42
  -2  -7  -4    4.48    1.03
  -2   7  -4    4.95    1.23
  -2   7  -5   29.44    2.28
  -2   7  -5   30.37    2.29
  -2  -7  -5   31.01    2.30
   2  -7   5   29.34    2.22
  -2   7  -6  499.19   10.37
  -2  -7  -6  495.12   10.22
   2  -7   6  497.51   10.70
  -2   7  -6  485.56   10.60
  -2   7  -7   62.37    3.38
  -2  -7  -7   65.07    3.35
  -2   7  -7   61.12    3.68
  -2  -7  -8   84.20    3.92
  -2   7  -8   77.56    3.89
  -2   7  -8   83.21    4.45
  -2   7  -9    0.29    1.30
  -2  -7  -9    1.09    1.64
   2  -7   9    2.90    0.87
  -2  -7  -9    2.31    1.03
  -2   7  -9    3.59    1.33
  -2  -7 -10   53.24    4.02
  -2   7 -10   43.59    3.06
  -2   7 -10   59.08    4.29
  -2  -7 -11   -0.12    1.83
  -2   7 -11   -1.48    1.59
  -2   7 -11   -0.56    1.06
  -2   7 -12   31.33    3.60
  -2  -7 -12   32.88    3.56
  -2   7 -12   26.17    2.50
  -2  -7 -13    3.48    2.00
  -2   7 -13    4.83    2.41
   2  -8 -14    3.19    1.73
   2  -8 -13   20.61    2.98
  -2  -8  12   50.00    2.81
   2  -8 -12   45.84    3.76
   2  -8 -11   53.86    3.81
  -2  -8  11   56.66    3.02
   2   8 -11   56.35    2.54
   2  -8 -10    3.96    1.68
  -2  -8  10    1.47    0.90
   2  -8 -10    2.56    0.98
   2   8 -10    2.23    0.76
   2  -8 -10    2.87    0.84
   2  -8  -9    2.61    1.31
   2  -8  -9    1.54    0.82
   2   8  -9    1.86    0.73
   2  -8  -9    2.38    0.76
   2  -8  -8   25.58    2.03
   2  -8  -8   24.85    1.75
   2   8  -8   22.10    1.72
   2  -8  -7    1.53    0.88
  -2   8   7    2.84    0.87
   2   8  -7    4.20    0.97
   2  -8  -7    3.00    0.86
  -2  -8   7    3.24    0.90
  -2  -8   6    6.73    1.37
   2  -8  -6    6.94    1.24
  -2   8   6    8.27    1.09
   2   8  -6    5.98    1.00
   2  -8  -6    8.47    1.15
  -2  -8   6    6.10    1.10
  -2   8   5   60.06    2.69
   2  -8  -5   58.87    2.71
  -2  -8   5   55.49    2.68
   2   8  -5   55.56    2.64
  -2  -8   5   58.30    3.16
  -2   8   4  153.47    4.51
   2  -8  -4  151.09    4.49
  -2  -8   4  151.99    4.57
   2   8  -4  147.32    4.46
  -2  -8   4  156.22    5.01
   2  -8  -3  121.19    4.03
  -2  -8   3  127.78    4.16
  -2   8   3  120.81    4.01
   2   8  -3  120.94    4.02
   2   8  -2    3.65    1.04
  -2   8   2    3.96    1.10
   2  -8  -2    3.14    0.98
  -2  -8   2    3.13    0.87
  -2   8   1   39.52    2.36
  -2  -8   1   43.05    2.38
   2  -8  -1   38.79    2.31
   2   8  -1   41.04    2.37
  -2  -8   0   30.44    2.14
  -2   8   0   30.12    2.17
   2  -8   1    1.63    0.81
  -2  -8  -1    1.86    0.92
  -2   8  -1    1.65    0.98
   2  -8   2   21.57    1.73
  -2  -8  -2   21.77    1.91
  -2   8  -2   23.60    1.98
  -2   8  -3  365.62    8.27
  -2  -8  -3  368.65    8.29
   2  -8   3  355.79    7.76
   2  -8   4    2.93    1.15
  -2  -8  -4    3.16    1.09
  -2   8  -4    3.86    1.15
  -2  -8  -5  115.27    4.47
  -2   8  -5  109.56    4.42
   2  -8   5  113.83    4.51
  -2   8  -5  111.97    4.45
  -2   8  -6    0.59    1.21
  -2  -8  -6    1.26    0.84
  -2   8  -6    1.16    1.06
  -2   8  -7  393.47    9.41
  -2  -8  -7  391.25    9.24
  -2   8  -7  389.28    9.89
  -2   8  -8    0.58    1.44
  -2  -8  -8    0.47    0.84
  -2   8  -8    1.36    1.15
  -2   8  -9  211.58    6.88
  -2   8  -9  220.43    7.82
  -2   8 -10    2.56    1.66
  -2  -8 -10    5.87    2.07
  -2   8 -10    3.79    1.36
  -2  -8 -11   74.07    5.06
  -2   8 -11   67.74    4.02
  -2   8 -11   80.36    5.18
  -2   8 -12    1.71    1.83
  -2  -8 -12   -1.60    1.77
  -2   8 -12    0.25    1.04
   2  -9 -14   27.49    3.30
   2  -9 -13   36.76    3.67
   2  -9 -12   21.55    2.83
  -2  -9  12   27.07    2.25
   2  -9 -11   36.51    3.68
  -2  -9  11   34.78    2.53
   2   9 -11   30.73    2.08
   2  -9 -10    6.95    1.63
   2  -9 -10    7.45    1.36
   2   9 -10    8.78    1.28
   2  -9 -10    4.47    0.99
   2  -9  -9   15.95    2.08
   2  -9  -9   16.96    1.83
   2   9  -9   15.98    1.63
   2  -9  -9   17.03    1.65
   2  -9  -8   20.88    1.97
   2   9  -8   22.84    1.84
   2  -9  -8   21.38    1.75
   2  -9  -7    1.36    0.89
  -2   9   7    1.94    0.80
   2   9  -7    1.86    0.91
   2  -9  -7    2.51    0.86
  -2  -9   7    0.86    0.76
  -2   9   6   12.90    1.47
   2   9  -6   11.91    1.41
  -2  -9   6   10.94    1.47
   2  -9  -6   11.28    1.41
   2  -9  -5   47.78    2.64
  -2   9   5   51.22    2.68
   2   9  -5   49.11    2.65
  -2  -9   5   44.61    2.56
  -2  -9   5   48.20    3.01
  -2   9   4   98.69    3.77
   2  -9  -4   98.02    3.75
  -2  -9   4   95.34    3.79
   2   9  -4   97.60    3.75
   2  -9  -3  412.89    8.68
  -2   9   3  406.36    8.64
  -2  -9   3  421.11    8.80
   2   9  -3  403.61    8.57
  -2  -9   2  391.20    8.41
   2  -9  -2  375.84    8.25
  -2   9   2  382.84    8.36
   2   9  -2  371.01    8.12
   2   9  -1   -0.22    0.89
  -2  -9   1    0.67    0.88
  -2   9   1    2.13    1.06
   2  -9  -1    0.22    0.87
  -2  -9   0  156.49    5.01
   2   9   0  141.84    4.78
  -2   9   0  154.78    4.99
   2  -9   0  154.91    4.94
   2  -9   1   -0.12    0.71
  -2  -9  -1    0.84    0.83
  -2   9  -1    0.25    0.96
  -2   9  -2  192.90    5.83
  -2  -9  -2  198.91    5.86
   2  -9   2  189.11    5.25
  -2   9  -3   52.66    3.01
  -2  -9  -3   52.16    2.98
   2  -9   3   47.17    2.69
  -2   9  -4  306.41    7.90
  -2  -9  -4  309.59    7.87
   2  -9   4  309.47    7.61
   2  -9   5    8.80    1.56
  -2  -9  -5    9.43    1.51
  -2   9  -5    8.50    1.58
  -2   9  -6  207.26    6.60
  -2  -9  -6  213.33    6.58
  -2   9  -7    7.26    1.66
  -2  -9  -7    7.99    1.47
  -2   9  -7    8.58    1.64
  -2   9  -8  252.62    7.67
  -2   9  -8  255.48    8.32
  -2   9  -9   66.38    3.89
  -2   9  -9   68.71    4.35
  -2  -9 -10   95.39    5.45
  -2   9 -10   93.80    4.69
  -2   9 -10   95.22    5.46
  -2  -9 -11    5.48    2.20
  -2   9 -11    1.74    1.84
  -2   9 -11    0.66    1.17
  -2  -9 -12  119.41    6.61
  -2   9 -12  115.51    5.45
  -2   9 -12  123.15    6.85
   2 -10 -14    3.88    2.07
   2 -10 -13    6.06    1.87
   2 -10 -12   12.60    2.32
   2 -10 -11    1.50    1.54
   2  10 -11   -0.18    0.78
  -2 -10  11    2.22    1.04
   2 -10 -10    4.09    1.64
   2 -10 -10    0.66    0.98
   2  10 -10    3.78    1.01
   2 -10  -9    0.31    0.87
   2  10  -9   -0.34    0.79
   2 -10  -9   -0.37    0.75
   2 -10  -8    4.10    1.19
   2  10  -8    4.82    1.17
   2 -10  -8    3.43    1.04
   2 -10  -7    1.08    0.94
  -2  10   7    1.31    0.90
   2  10  -7    0.41    0.80
   2 -10  -7    2.51    1.06
  -2 -10   7   -0.20    0.85
   2  10  -6   27.26    2.14
   2 -10  -6   26.66    2.09
  -2 -10   6   30.12    2.28
  -2  10   6   28.19    2.11
   2 -10  -5   29.09    2.21
  -2 -10   5   35.09    2.39
  -2  10   5   32.00    2.31
   2  10  -5   32.65    2.32
  -2 -10   5   33.20    2.62
  -2 -10   4  511.21   10.38
  -2  10   4  502.83   10.20
   2 -10  -4  498.03   10.18
   2  10  -4  502.46   10.22
  -2  10   3  687.90   12.62
   2 -10  -3  677.01   12.54
  -2 -10   3  714.19   12.85
   2  10  -3  668.39   12.48
  -2 -10   2  149.25    5.08
  -2  10   2  147.90    5.04
   2 -10  -2  155.65    5.12
   2  10  -2  138.28    4.80
  -2 -10   1 1084.53   17.46
  -2  10   1 1048.15   17.31
   2 -10  -1 1086.18   17.45
   2  10  -1 1014.71   17.04
   2  10   0    0.74    0.88
  -2  10   0    2.26    1.06
   2 -10   0    1.74    1.08
  -2 -10   0    2.55    1.04
  -2 -10  -1   69.13    3.41
  -2  10  -1   64.39    3.39
  -2 -10  -2   56.83    3.20
  -2  10  -2   56.13    3.22
   2 -10   2   57.95    2.91
  -2 -10  -3  613.18   12.21
  -2  10  -3  591.72   12.07
   2 -10   3  593.18   11.40
  -2  10  -4   86.45    4.14
  -2 -10  -4   93.66    4.21
   2 -10   4   85.27    3.88
  -2 -10  -5  148.60    5.50
  -2  10  -5  143.99    5.44
   2 -10   5  139.01    5.28
  -2  10  -6   78.51    4.07
  -2  10  -7  113.36    5.00
  -2  10  -8   20.36    2.32
  -2  10  -9   50.33    3.47
  -2  10 -10    0.66    1.66
  -2  10 -10   -0.22    1.16
  -2 -10 -11   77.99    5.27
  -2  10 -11   74.31    4.37
  -2  10 -11   75.14    5.27
  -2 -10 -12    8.73    2.26
  -2  10 -12   10.41    2.58
   2 -11 -14   13.60    2.70
   2 -11 -13  145.55    6.92
   2 -11 -12   32.07    3.32
   2 -11 -11   22.99    2.87
   2  11 -11   19.97    1.95
   2 -11 -10    8.55    1.90
   2  11 -10    9.37    1.47
   2  11  -9   18.01    1.92
   2 -11  -9   18.12    1.90
   2 -11  -8    0.79    1.08
   2  11  -8    0.43    0.98
   2 -11  -8    1.18    0.99
   2 -11  -7   80.32    3.73
  -2 -11   7   76.27    3.78
  -2  11   7   78.21    3.64
   2  11  -7   79.99    3.77
   2 -11  -6   30.59    2.37
  -2 -11   6   28.10    2.31
   2  11  -6   25.60    2.22
  -2  11   6   29.62    2.31
   2 -11  -5  102.64    4.27
   2  11  -5  102.89    4.29
  -2 -11   5  110.85    4.49
  -2  11   5  111.32    4.45
  -2  11   4   26.10    2.24
   2 -11  -4   28.74    2.33
  -2 -11   4   27.06    2.28
   2  11  -4   28.10    2.33
  -2  11   3  220.75    6.48
   2 -11  -3  225.58    6.55
  -2 -11   3  229.66    6.66
   2  11  -3  215.48    6.41
  -2  11   2  125.63    4.85
   2 -11  -2  126.14    4.78
  -2 -11   2  133.53    4.99
   2  11  -2  121.25    4.69
  -2 -11   1   59.71    3.33
  -2  11   1   59.59    3.38
   2  11  -1   56.02    3.23
   2 -11  -1   62.57    3.40
  -2 -11   0  488.20   10.56
   2  11   0  452.28   10.20
  -2  11   0  471.45   10.47
   2 -11   0  492.19   10.56
  -2 -11  -1  368.62    8.95
  -2  11  -1  344.35    8.77
  -2 -11  -2  137.29    5.18
  -2  11  -2  118.53    4.91
   2 -11   2  127.46    4.55
  -2  11  -3   73.41    3.90
  -2 -11  -3   71.51    3.78
   2 -11   3   78.20    3.62
  -2  11  -4   34.40    2.78
   2 -11   4   34.11    2.58
  -2  11  -5   63.60    3.79
  -2  11  -6   80.26    4.28
  -2  11  -7   91.97    4.68
  -2  11  -8   79.00    4.43
  -2  11  -9   27.85    2.82
  -2  11 -10   69.42    4.30
  -2 -11 -11    2.34    1.89
  -2  11 -11   -0.43    1.17
  -2 -11 -12   58.42    4.96
   2 -12 -14    4.62    2.09
   2 -12 -13    5.64    2.21
   2 -12 -12   55.67    4.29
   2 -12 -11    2.37    1.82
   2  12 -10  273.36    7.68
   2  12  -9    7.91    1.51
   2 -12  -9    6.91    1.41
   2  12  -8  108.17    4.63
   2 -12  -8  110.03    4.64
  -2 -12   8  100.00    4.54
   2 -12  -7  164.92    5.77
  -2 -12   7  172.07    6.02
  -2  12   7  174.97    5.83
   2  12  -7  160.57    5.72
  -2  12   6   25.02    2.29
   2  12  -6   24.37    2.32
   2 -12  -6   26.28    2.28
  -2 -12   6   23.17    2.36
   2 -12  -5   28.24    2.34
   2  12  -5   24.59    2.24
  -2  12   5   26.03    2.26
  -2 -12   5   26.40    2.44
  -2  12   4  236.70    7.04
   2 -12  -4  257.28    7.29
  -2 -12   4  257.83    7.38
   2  12  -4  241.37    7.12
   2  12  -3   19.16    2.07
  -2 -12   3   19.62    2.06
   2 -12  -3   21.46    2.18
  -2  12   3   20.63    2.14
  -2  12   2   87.01    4.16
   2 -12  -2   88.64    4.12
  -2 -12   2   84.46    4.10
   2  12  -2   80.20    3.99
   2  12  -1   50.42    3.18
  -2 -12   1   50.97    3.24
  -2  12   1   49.74    3.21
   2 -12  -1   53.93    3.28
   2  12   0    1.60    1.18
  -2 -12   0    1.35    0.94
   2 -12   0    2.40    1.20
  -2  12   0    2.70    1.23
  -2  12  -1   32.23    2.76
   2 -12   2    6.80    1.26
  -2  12  -2    8.35    1.64
   2 -12   3   22.14    2.09
  -2  12  -3   24.37    2.44
  -2  12  -4   45.01    3.26
  -2  12  -5  124.44    5.44
  -2  12  -6    3.29    1.34
  -2  12  -7  129.00    5.72
  -2  12  -8   17.90    2.41
  -2  12  -9   94.52    5.07
  -2  12 -10   20.84    2.62
  -2 -12 -11  145.18    7.35
  -2  12 -11  130.61    6.18
   2 -13 -13   11.29    2.46
   2 -13 -12   10.89    2.32
   2 -13 -11  246.10    8.66
   2  13 -10    3.33    1.33
   2  13  -9  223.42    7.17
   2  13  -8   15.37    2.06
  -2  13   7  167.60    5.95
   2  13  -7  159.87    5.94
  -2  13   6  148.24    5.60
   2  13  -6  143.53    5.59
   2  13  -5  325.67    8.83
  -2  13   5  350.16    9.06
   2  13  -4   18.76    2.16
  -2  13   4   20.96    2.24
  -2  13   3  332.79    8.83
   2  13  -3  308.97    8.56
  -2  13   2  128.64    5.30
   2  13  -2  122.16    5.12
  -2  13   1  291.25    8.31
   2  13  -1  286.66    8.21
   2  13   0   22.77    2.39
  -2  13   0   25.01    2.52
   2  13   1    1.54    1.27
  -2  13  -1   -0.22    1.14
  -2  13  -2   88.28    4.59
   2 -13   2   91.72    4.18
  -2  13  -3   48.08    3.44
  -2  13  -4   21.12    2.44
  -2  13  -5   53.08    3.73
  -2  13  -6    2.06    1.36
  -2  13  -7    5.01    1.62
  -2  13  -8   14.31    2.83
  -2  13  -9    5.23    1.78
  -2  13 -10   19.29    2.59
  -2  13 -11    2.81    1.46
   2 -14 -13    4.29    2.05
   2 -14 -12   34.17    3.65
   2 -14 -11   14.09    2.55
   2  14 -10   66.34    3.99
   2  14  -9    0.81    1.12
   2  14  -8  108.58    5.09
   2  14  -7   18.30    2.20
  -2  14   7   16.73    2.12
   2  14  -6   24.47    2.51
  -2  14   6   22.48    2.33
   2  14  -5   74.23    4.16
  -2  14   5   68.68    3.98
  -2  14   4  244.78    7.74
   2  14  -4  234.14    7.56
   2  14  -3    2.61    1.26
  -2  14   3    2.33    1.35
  -2  14   2  139.61    5.75
   2  14  -2  134.60    5.61
  -2  14   1   78.49    4.37
   2  14  -1   79.01    4.27
  -2  14   0  149.50    6.06
   2  14   0  144.09    5.87
  -2  14  -1   60.06    3.89
   2  14   1   50.19    3.44
  -2  14  -2   94.84    4.91
  -2  14  -3   72.35    4.33
  -2  14  -4  172.73    6.84
  -2  14  -5   11.63    2.10
  -2  14  -6   42.99    3.49
  -2  14  -7    1.81    1.48
  -2  14  -8   10.15    2.00
  -2  14  -9    2.36    1.59
  -2  14 -10   -1.21    1.42
  -2  14 -11    7.03    1.94
   2 -15 -12   -4.45    2.09
   2  15 -10   10.35    1.92
   2  15  -9   60.22    3.95
   2  15  -8   31.97    2.99
  -2  15   7   74.66    4.29
   2  15  -7   72.73    4.30
   2  15  -6    4.51    1.54
  -2  15   6    3.95    1.30
   2  15  -5  203.07    7.25
  -2  15   5  211.24    7.39
  -2  15   4    2.46    1.38
   2  15  -4    2.15    1.49
  -2  15   3   78.90    4.52
   2  15  -3   70.63    4.22
   2  15  -2   21.77    2.50
  -2  15   2   18.63    2.43
  -2  15   1  252.57    8.25
   2  15  -1  244.85    8.08
  -2  15   0  155.51    6.41
   2  15   0  141.90    6.07
  -2  15  -1   40.59    3.32
   2  15   1   42.76    3.38
  -2  15  -2    9.08    1.85
  -2  15  -3    7.90    1.89
  -2  15  -4    4.16    1.58
  -2  15  -5   66.34    4.37
  -2  15  -6    1.20    1.29
  -2  15  -7    4.04    1.67
  -2  15  -8    4.64    1.73
  -2  15  -9   16.49    2.56
  -2  15 -10   29.67    3.37
  -2  15 -11   -0.44    1.67
   2 -16 -12   43.08    4.04
   2  16 -10  173.80    6.98
   2  16  -9    3.36    1.57
   2  16  -8  192.38    7.38
  -2  16   7    2.83    1.15
   2  16  -7    3.90    1.40
  -2  16   6  144.74    6.30
   2  16  -6  128.23    5.94
   2  16  -5    3.34    1.49
  -2  16   5    0.38    1.16
  -2  16   4  426.96   11.42
   2  16  -4  428.26   11.40
  -2  16   3   40.06    3.33
   2  16  -3   39.28    3.30
  -2  16   2  509.97   12.66
   2  16  -2  485.91   12.25
   2  16  -1  134.78    6.10
  -2  16   1  131.34    6.02
   2  16   0   27.39    2.84
  -2  16   0   24.16    2.74
   2  16   1   20.14    2.60
  -2  16  -1   16.72    2.54
  -2  16  -2    6.32    1.87
  -2  16  -3   77.51    4.79
  -2  16  -4   57.67    4.30
  -2  16  -5    0.61    1.34
  -2  16  -6   24.20    3.05
  -2  16  -7   -0.43    1.53
  -2  16  -8    1.95    1.43
  -2  16  -9   24.88    3.08
  -2  16 -10   14.69    2.54
  -2  16 -11    0.68    1.51
   2  17 -10    2.96    1.51
   2  17  -9   28.57    3.12
   2  17  -8    2.39    1.70
   2  17  -7  118.12    5.93
  -2  17   7  124.08    6.02
  -2  17   6   32.78    3.21
   2  17  -6   35.38    3.36
   2  17  -5  228.01    8.32
  -2  17   5  238.51    8.47
   2  17  -4   56.80    4.14
  -2  17   4   57.27    4.13
  -2  17   3   46.87    3.72
   2  17  -3   45.76    3.66
   2  17  -2    2.12    1.51
  -2  17   2    1.45    1.39
   2  17  -1   21.86    2.71
  -2  17   1   17.80    2.53
  -2  17   0   56.19    4.13
   2  17   0   56.24    4.12
  -2  17  -1   57.54    4.23
   2  17   1   53.14    4.01
  -2  17  -2    1.17    1.27
  -2  17  -3   13.38    2.30
  -2  17  -4    2.37    1.71
  -2  17  -5   19.25    2.78
  -2  17  -6    0.17    1.50
  -2  17  -7    6.89    2.01
  -2  17  -8   29.22    3.52
  -2  17  -9   11.28    2.40
  -2  17 -10    9.46    2.06
   2  18 -10   49.17    4.04
   2  18  -9    0.08    1.39
   2  18  -8   24.38    3.02
  -2  18   7   -2.02    1.53
   2  18  -7    1.47    1.51
   2  18  -6   42.71    3.77
  -2  18   6   42.82    3.75
  -2  18   5    3.99    1.50
   2  18  -5    0.09    1.44
  -2  18   4  213.53    8.32
   2  18  -4  203.83    8.07
  -2  18   3  161.23    7.13
   2  18  -3  154.06    6.98
  -2  18   2   55.81    4.24
   2  18  -2   49.38    4.06
   2  18  -1   25.88    3.05
  -2  18   1   27.23    3.12
  -2  18   0   94.16    5.49
   2  18   0   86.90    5.32
  -2  18  -1   30.15    3.20
  -2  18  -2    2.54    1.62
  -2  18  -3    9.55    1.97
  -2  18  -4  135.04    6.84
  -2  18  -5   14.68    2.61
  -2  18  -6   54.04    4.54
  -2  18  -7   27.95    3.30
  -2  18  -8   21.33    3.04
  -2  18  -9   38.57    3.97
  -2  18 -10    1.06    1.54
   2  19  -9   26.72    3.15
   2  19  -8    1.48    1.73
  -2  19   7   94.13    5.62
   2  19  -7   97.29    5.80
  -2  19   6    8.57    2.36
   2  19  -6    8.01    2.14
   2  19  -5   94.68    5.65
  -2  19   5   99.50    5.81
   2  19  -4   22.18    2.90
  -2  19   4   23.83    3.04
   2  19  -3   29.97    3.28
  -2  19   3   31.15    3.45
  -2  19   2   73.83    5.02
   2  19  -2   70.33    4.86
  -2  19   1   42.45    3.98
   2  19  -1   40.35    3.75
  -2  19   0  151.39    7.25
   2  19   0  142.18    6.97
  -2  19  -1    2.83    1.78
  -2  19  -2   40.09    3.85
  -2  19  -3    7.18    2.20
  -2  19  -4   34.45    3.61
  -2  19  -5   10.10    2.58
  -2  19  -6   49.79    4.39
  -2  19  -7    3.28    1.93
  -2  19  -8   27.76    3.53
   2  20  -9   -0.65    1.63
   2  20  -8   31.23    3.55
  -2  20   7   -0.65    1.44
   2  20  -7   -0.29    1.70
  -2  20   6   44.42    4.10
   2  20  -6   42.86    4.03
   2  20  -5   -0.41    1.62
  -2  20   5    1.15    1.60
  -2  20   4    3.68    1.85
   2  20  -4    2.87    1.80
  -2  20   3   25.96    3.33
   2  20  -3   30.14    3.46
  -2  20   2   89.98    5.68
   2  20  -2   74.51    5.16
   2  20  -1    4.49    1.87
  -2  20   1    8.12    2.28
   2  20   0   20.86    2.82
  -2  20   0   23.43    3.17
  -2  20  -1    5.43    1.96
  -2  20  -2    7.70    2.27
  -2  20  -3   68.20    5.18
  -2  20  -4    8.31    2.24
  -2  20  -5   55.33    4.72
  -2  20  -6    2.21    1.54
  -2  20  -7    4.29    2.30
   2  21  -8   10.73    2.36
  -2  21   7    9.59    2.14
   2  21  -7   15.97    2.82
  -2  21   6   -1.03    1.89
   2  21  -6    1.07    1.69
   2  21  -5    2.98    1.66
  -2  21   5    6.30    2.27
  -2  21   4   10.89    2.38
   2  21  -4   15.57    2.73
  -2  21   3    5.90    2.03
   2  21  -3    6.74    2.33
   2  21  -2   47.26    4.40
  -2  21   2   47.12    4.25
  -2  21   1   20.90    3.10
   2  21  -1   21.22    3.17
  -2  21   0   49.98    4.62
  -2  21  -1   18.60    3.06
  -2  21  -2   33.06    3.81
  -2  21  -3   31.68    3.85
  -2  21  -4  100.90    6.38
  -2  22   5   19.94    3.22
   2  22  -4    2.98    1.89
  -2  22   4    3.12    1.90
   2  22  -3   58.73    4.94
  -2  22   3   53.39    4.76
   2  22  -2   11.81    2.57
  -2  22   2   13.34    2.79
   2  22  -1   43.72    4.41
  -2  22   1   58.36    5.02
  -2  22   0   27.01    3.77
  -2  22  -1    7.86    1.98
   3   0 -15    9.36    2.32
   3   0 -14    2.78    1.63
   3   0 -13    3.62    1.65
   3   0 -12    3.82    1.56
  -3   0  11   35.76    2.19
   3   0 -11   40.44    3.14
  -3   0  10   -1.03    0.82
   3   0 -10   -0.25    1.16
  -3   0   9   35.30    2.59
  -3   0   9   29.32    1.96
   3   0  -9   33.51    2.61
  -3   0   8    0.80    0.68
   3   0  -8    1.09    1.09
  -3   0   8    0.61    1.07
  -3   0   7    1.71    0.70
   3   0  -7    2.02    1.00
  -3   0   7    2.58    0.83
  -3   0   6   -0.13    0.60
   3   0  -6    0.35    0.63
   3   0  -6   -0.24    0.79
  -3   0   6   -0.05    0.63
  -3   0   5 2444.02   31.45
   3   0  -5 2468.40   31.51
   3   0  -5 2440.74   30.67
  -3   0   5 2463.35   30.57
   3   0  -4    0.46    0.65
  -3   0   4    0.10    0.74
  -3   0   4    1.10    0.64
   3   0  -4    0.44    0.62
  -3   0   3 1180.06   16.56
   3   0  -3 1161.21   16.53
  -3   0   3 1176.91   14.78
  -3   0   2    0.05    0.92
   3   0  -2    0.40    0.70
  -3   0   1 1430.18   19.01
   3   0  -1 1399.29   19.01
   3   0   0    0.26    0.65
  -3   0   0   -0.57    0.86
   3   0   1  249.84    4.94
  -3   0  -1  241.99    4.92
  -3   0  -2    0.35    0.64
   3   0   2    0.62    0.56
   3   0   3  586.99    8.74
  -3   0  -3  579.07    8.79
  -3   0  -3  571.81    9.78
  -3   0  -4    1.44    0.59
  -3   0  -4   -0.96    1.04
  -3   0  -5  132.19    4.52
  -3   0  -6   -0.69    1.04
  -3   0  -7    2.73    1.30
  -3   0  -8   -2.05    1.40
  -3   0  -9  170.85    6.65
  -3   0 -10   -2.64    1.65
  -3   0 -11   20.28    2.85
  -3   0 -12   -2.39    1.94
  -3   0 -13   95.01    6.13
   3   1 -15    4.63    1.78
   3  -1 -15    3.54    2.34
   3   1 -14    2.60    1.80
   3  -1 -14   -0.78    1.67
   3   1 -13    1.27    1.73
   3  -1 -13    0.04    1.45
  -3  -1  12   13.29    1.47
   3  -1 -12   12.87    2.08
   3   1 -12   15.13    2.36
  -3  -1  11   20.46    1.78
   3   1 -11   25.39    2.62
   3  -1 -11   25.79    2.61
  -3  -1  10   19.52    1.69
   3   1 -10   15.07    1.98
   3  -1 -10   14.62    1.93
  -3  -1   9    4.03    1.09
  -3   1   9    2.83    0.78
   3   1  -9    2.65    1.22
   3  -1  -9    3.02    1.23
  -3  -1   9    4.68    1.27
   3  -1  -8    2.05    0.68
  -3  -1   8    3.04    0.86
  -3   1   8    1.28    0.62
  -3  -1   8    2.70    0.92
   3  -1  -8    4.29    1.21
   3   1  -8    6.30    1.38
  -3  -1   7   65.39    2.80
   3  -1  -7   62.69    2.69
  -3   1   7   62.60    2.71
  -3  -1   7   68.80    2.99
   3   1  -7   64.50    2.97
   3  -1  -7   63.20    2.84
   3  -1  -6    1.35    0.68
  -3  -1   6    2.57    0.79
  -3   1   6    1.19    0.66
   3   1  -6    1.61    1.06
   3  -1  -6    1.58    0.79
  -3  -1   6    2.00    0.74
  -3   1   6    1.43    0.63
  -3   1   5  269.24    5.95
  -3   1   5  277.87    5.29
  -3  -1   5  279.34    6.00
   3  -1  -5  273.16    5.97
  -3  -1   5  273.91    4.26
   3  -1  -5  271.60    5.32
   3   1  -5  270.96    5.63
  -3  -1   5  271.07    5.58
  -3  -1   4  525.24    9.08
   3  -1  -4  531.54    9.15
   3   1  -4  533.47    9.16
  -3   1   4  524.15    9.10
  -3   1   4  537.02    7.78
   3  -1  -4  520.12    7.78
  -3  -1   4  517.05    8.24
   3   1  -3   34.14    1.88
   3  -1  -3   33.00    1.86
  -3  -1   3   32.35    1.88
  -3   1   3   35.82    1.96
  -3  -1   3   31.13    1.39
  -3   1   3   33.90    1.11
   3  -1  -2  463.30    7.99
  -3  -1   2  447.38    7.96
   3   1  -2  451.77    7.96
  -3   1   2  454.75    8.01
   3  -1  -1   22.56    1.52
   3   1  -1   23.86    1.57
  -3  -1   1   24.88    1.63
  -3   1   1   24.04    1.59
   3   1   0  647.80    9.98
  -3  -1   0  644.40    9.96
   3  -1   0  641.58    9.93
  -3   1   0  642.50    9.99
  -3   1   0  640.02    8.52
   3   1   1  768.21   11.22
   3  -1   1  776.31   11.23
  -3  -1  -1  756.03   11.20
  -3   1  -1  754.66   10.55
  -3   1  -1  758.54   11.26
  -3  -1  -2  158.56    3.67
   3  -1   2  164.58    3.75
  -3   1  -2  162.87    3.76
  -3   1  -2  162.07    3.84
  -3  -1  -3   58.09    2.01
   3  -1   3   58.46    2.00
  -3   1  -3   54.09    2.04
  -3   1  -3   59.67    2.54
   3  -1   4  704.04   10.03
  -3  -1  -4  707.13   10.01
  -3  -1  -4  702.05   11.99
  -3   1  -4  686.64   11.75
  -3  -1  -5   10.74    0.82
   3  -1   5   12.61    0.86
  -3  -1  -5   11.23    1.57
  -3   1  -5   13.70    1.66
  -3  -1  -6   40.83    2.74
  -3   1  -6   44.31    2.84
  -3  -1  -7    0.79    1.40
  -3   1  -7   -0.66    1.25
  -3   1  -8   99.32    4.78
  -3  -1  -8  104.04    4.91
  -3  -1  -9   19.76    2.51
  -3   1  -9   27.07    2.79
  -3  -1 -10  224.59    8.14
  -3   1 -10  225.16    8.12
  -3  -1 -11    0.43    1.56
  -3   1 -11   -1.52    1.68
  -3   1 -12  104.62    6.08
  -3  -1 -12   97.93    5.97
  -3   1 -13    0.84    1.95
  -3  -1 -13    0.38    2.06
   3   2 -15    0.63    1.62
   3  -2 -15    3.13    1.58
   3   2 -14   21.20    2.97
   3  -2 -14   24.63    3.16
   3  -2 -13    6.47    2.07
   3   2 -13    2.03    1.66
  -3  -2  12    5.30    1.13
   3   2 -12    2.17    1.47
   3  -2 -12    1.60    1.35
   3  -2 -11   33.73    2.86
   3   2 -11   34.48    2.97
  -3  -2  11   31.32    2.11
  -3  -2  10   14.03    1.52
   3   2 -10   14.83    1.96
   3  -2 -10   14.01    1.82
  -3  -2   9    1.88    0.81
   3  -2  -9    2.88    0.85
  -3  -2   9    3.57    1.24
   3  -2  -9    3.08    1.17
   3   2  -9    2.23    1.22
  -3  -2   8  115.94    3.91
   3  -2  -8  117.59    3.83
  -3   2   8  115.34    3.93
   3   2  -8  118.17    4.46
  -3  -2   8  125.95    4.50
   3  -2  -8  119.06    4.24
  -3   2   7    1.67    0.87
  -3  -2   7    1.02    0.67
   3  -2  -7    0.85    0.65
   3   2  -7    0.66    1.02
  -3  -2   7    2.06    0.88
   3  -2  -7    1.22    0.89
  -3   2   6  107.62    3.60
   3  -2  -6  106.80    3.54
  -3  -2   6  103.36    3.50
  -3   2   6  105.24    1.94
  -3  -2   6  100.08    2.08
   3  -2  -6  108.48    3.35
  -3  -2   6  105.19    3.54
   3   2  -6  104.16    3.64
  -3   2   5  111.86    3.61
  -3  -2   5  111.42    3.57
   3  -2  -5  115.08    3.64
  -3   2   5  109.71    2.44
  -3  -2   5  109.88    2.47
   3  -2  -5  110.71    3.01
  -3  -2   5  109.33    3.41
   3  -2  -4   46.71    2.24
  -3  -2   4   48.71    2.30
  -3   2   4   47.58    2.31
   3  -2  -4   51.87    1.70
  -3  -2   4   46.12    2.00
   3  -2  -3  607.02   10.05
  -3  -2   3  601.48   10.02
  -3   2   3  607.34   10.08
   3  -2  -3  617.66    7.84
  -3  -2   3  583.87    9.05
  -3   2   2    5.78    1.14
   3  -2  -2    5.01    0.93
  -3  -2   2    6.25    1.08
   3  -2  -1  718.69   10.99
  -3  -2   1  682.71   10.91
  -3   2   1  709.50   11.01
  -3  -2   0  214.65    4.82
   3  -2   0  224.09    4.85
  -3   2   0  221.09    4.85
  -3   2   0  217.06    3.53
  -3  -2  -1  331.03    6.20
   3  -2   1  339.97    6.28
  -3   2  -1  341.57    6.32
  -3   2  -1  329.24    5.51
  -3  -2  -2  149.16    3.61
   3  -2   2  149.71    3.67
  -3   2  -2  149.80    3.73
  -3   2  -2  151.97    3.70
  -3  -2  -3  894.46   12.48
   3  -2   3  893.50   12.57
  -3   2  -3  877.88   13.38
   3  -2   4    9.85    0.90
  -3  -2  -4   11.70    0.96
  -3   2  -4   11.05    1.42
   3  -2   5  947.12   12.73
  -3  -2  -5  935.05   12.59
  -3  -2  -5  949.92   15.65
  -3   2  -5  945.18   15.40
   3  -2   6   15.47    0.89
  -3  -2  -6   14.51    0.81
  -3   2  -6   12.27    1.80
  -3  -2  -6   16.69    1.97
  -3  -2  -7  415.44    9.92
  -3   2  -7  416.02    9.83
  -3  -2  -8    4.02    1.66
  -3   2  -8    1.19    1.23
  -3   2  -9  126.21    5.72
  -3  -2  -9  124.38    5.68
  -3  -2 -10    5.17    1.77
  -3   2 -10    4.98    1.77
  -3   2 -11  185.97    7.77
  -3  -2 -11  184.31    7.73
  -3  -2 -12   -2.16    2.06
  -3   2 -12   -1.42    1.81
  -3  -2 -13  146.60    7.53
  -3   2 -13  145.13    7.47
   3  -3 -15   36.71    3.78
   3   3 -15   39.45    4.00
   3   3 -14    1.28    1.83
   3  -3 -14    3.28    2.07
   3   3 -13   62.88    4.41
   3  -3 -13   63.67    4.35
  -3  -3  12   78.55    3.32
   3   3 -12   70.96    4.56
   3  -3 -12   77.50    4.50
  -3  -3  11   94.75    3.67
   3   3 -11   92.87    4.87
   3  -3 -11   89.92    4.55
  -3  -3  10    7.77    1.27
   3  -3 -10    7.62    1.11
   3  -3 -10    6.50    1.51
   3   3 -10    6.37    1.55
  -3  -3   9  232.53    5.91
   3  -3  -9  230.92    5.80
   3   3  -9  212.88    6.67
   3  -3  -9  232.94    6.54
   3  -3  -8   49.01    2.45
  -3  -3   8   50.56    2.58
  -3  -3   8   53.94    3.02
   3  -3  -8   51.94    2.77
   3   3  -8   47.87    2.92
  -3  -3   7  273.60    6.28
   3  -3  -7  277.70    6.22
   3   3  -7  271.29    6.72
  -3  -3   7  275.90    6.67
   3  -3  -7  263.53    6.07
  -3   3   6  188.99    5.01
   3  -3  -6  184.77    4.89
  -3  -3   6  190.72    5.00
  -3   3   6  180.12    3.31
  -3  -3   6  174.33    3.45
   3  -3  -6  183.59    4.47
  -3  -3   6  188.97    5.08
  -3   3   5   75.75    3.03
  -3  -3   5   74.30    2.92
   3  -3  -5   72.16    2.89
  -3  -3   5   72.53    2.11
  -3   3   5   68.87    2.06
   3  -3  -5   71.24    2.34
  -3  -3   5   71.70    2.81
  -3   3   4  749.04   11.97
   3  -3  -4  739.56   11.94
  -3  -3   4  730.58   11.88
  -3  -3   4  742.41   10.60
  -3   3   4  741.31   10.58
  -3  -3   4  745.47   11.43
   3  -3  -4  737.51   10.09
   3  -3  -3   14.67    1.42
  -3   3   3   13.40    1.42
  -3  -3   3   14.80    1.45
   3  -3  -3   15.98    0.74
  -3  -3   2  458.30    8.30
  -3   3   2  466.95    8.34
   3  -3  -2  458.04    8.30
  -3   3   1   10.85    1.30
  -3  -3   1   10.63    1.25
   3  -3  -1   12.13    1.22
  -3  -3   0  325.89    6.39
   3  -3   0  317.89    4.81
   3  -3   0  330.89    6.43
  -3   3   0  332.66    6.41
  -3   3   0  321.10    4.88
  -3  -3  -1    1.02    0.76
   3  -3   1    2.01    0.77
  -3   3  -1    1.27    0.64
   3  -3   1    0.64    0.62
  -3  -3  -2  344.81    6.36
   3  -3   2  347.39    6.46
   3  -3   2  330.92    6.23
  -3   3  -2  349.31    6.32
  -3  -3  -3    3.68    0.72
   3  -3   3    3.54    0.73
  -3   3  -3    3.66    0.96
   3  -3   3    2.57    0.92
  -3  -3  -4 1459.25   18.99
   3  -3   4 1458.14   19.21
   3  -3   4 1458.18   20.83
  -3   3  -4 1460.87   20.81
  -3  -3  -5  118.60    2.92
   3  -3   5  117.03    3.05
   3  -3   5  130.03    4.50
  -3   3  -5  115.71    4.25
  -3  -3  -6  181.87    3.57
   3  -3   6  183.51    3.76
  -3  -3  -6  177.57    5.85
  -3   3  -6  184.37    5.80
   3  -3   7    5.62    0.58
  -3  -3  -7    3.70    0.46
  -3   3  -7    5.90    1.37
  -3  -3  -7    7.71    1.63
  -3  -3  -8   73.95    4.18
  -3   3  -8   67.73    3.95
  -3  -3  -9    0.22    1.51
  -3   3  -9    1.43    1.61
  -3  -3 -10    8.64    2.11
  -3   3 -10    8.69    1.95
  -3   3 -11    0.80    1.59
  -3  -3 -11   -1.90    1.61
  -3  -3 -12   70.59    5.04
  -3   3 -12   79.52    5.35
  -3   3 -13    7.28    2.52
  -3  -3 -13    4.38    2.25
   3  -4 -15    5.63    2.22
   3   4 -15    7.41    2.40
   3   4 -14    7.73    2.31
   3  -4 -14    5.66    1.89
   3  -4 -13   18.21    2.45
   3   4 -13   22.27    2.94
  -3  -4  12    6.13    1.30
   3  -4 -12    4.73    1.64
   3   4 -12    7.81    1.98
   3  -4 -11   15.70    1.57
  -3  -4  11   18.72    1.82
   3  -4 -11   17.42    2.27
   3   4 -11   15.20    2.35
   3  -4 -10   39.21    2.37
  -3  -4  10   37.55    2.35
   3   4 -10   32.97    2.85
   3  -4 -10   39.59    2.87
  -3  -4   9   70.83    3.16
   3  -4  -9   70.27    3.08
   3   4  -9   69.58    3.82
   3  -4  -9   70.38    3.47
   3  -4  -8  467.72    9.16
  -3  -4   8  470.45    9.30
  -3  -4   8  500.75   10.42
   3  -4  -8  461.87    9.39
   3   4  -8  491.23   10.38
  -3  -4   7  102.14    3.69
   3  -4  -7   95.81    3.54
  -3  -4   7   82.73    2.32
  -3   4   7   99.46    2.26
   3  -4  -7   94.64    3.43
  -3  -4   7  100.47    3.97
  -3  -4   6  232.58    5.79
   3  -4  -6  235.29    5.77
  -3   4   6  239.90    4.41
  -3  -4   6  228.81    4.50
   3  -4  -6  236.13    5.22
  -3  -4   6  235.08    5.99
   3  -4  -5  609.32    9.33
  -3  -4   5  610.48   10.67
   3  -4  -5  619.33   10.76
  -3  -4   5  608.23    9.27
  -3   4   5  618.55    9.23
  -3  -4   5  605.60   10.56
   3  -4  -4  149.01    3.15
   3  -4  -4  148.98    4.34
  -3  -4   4  151.03    4.37
  -3   4   4  150.48    3.66
  -3  -4   4  146.70    3.63
  -3  -4   4  146.85    4.12
   3  -4  -3  580.80   10.15
  -3   4   3  592.69    9.36
  -3  -4   3  579.14    9.32
   3  -4  -2   16.66    1.50
   3  -4  -1  337.49    6.69
   3  -4  -1  311.66    4.49
   3  -4   0  193.75    4.79
   3  -4   0  189.67    3.45
   3  -4   1  116.88    3.51
   3  -4   1  106.35    2.80
  -3   4  -1  114.23    2.92
   3  -4   2  283.64    5.83
   3  -4   2  261.63    5.44
  -3   4  -2  278.05    5.53
   3  -4   3  484.99    8.78
   3  -4   3  496.86    8.44
  -3   4  -3  498.81    8.83
   3  -4   4  174.78    4.23
   3  -4   4  177.56    5.01
  -3   4  -4  178.83    5.00
   3  -4   5    0.87    0.56
  -3  -4  -5    1.95    0.50
  -3   4  -5    1.98    1.04
   3  -4   5    2.26    1.06
  -3  -4  -6   80.32    2.35
   3  -4   6   84.78    3.92
   3  -4   6   79.78    2.52
  -3   4  -6   78.80    3.77
   3  -4   7   34.44    1.50
  -3  -4  -7   33.88    1.33
  -3  -4  -7   34.37    2.86
  -3   4  -7   34.19    2.74
   3  -4   8    5.50    0.57
  -3   4  -8    2.78    1.22
  -3  -4  -8    6.95    1.71
  -3  -4  -9    3.90    1.68
  -3   4  -9   -0.25    1.46
  -3  -4 -10   -0.14    1.48
  -3   4 -10   -0.29    1.56
  -3   4 -11   11.82    2.45
  -3  -4 -11   12.29    2.52
  -3   4 -12   50.26    4.36
  -3  -4 -12   52.56    4.42
  -3   4 -13   21.84    3.31
  -3  -4 -13   24.33    3.31
   3  -5 -15   20.54    3.02
   3   5 -15   21.27    3.23
   3  -5 -14   22.27    2.93
   3   5 -14   18.78    2.84
   3  -5 -13  121.06    5.92
   3   5 -13  123.67    6.37
  -3  -5  12    4.57    1.25
   3  -5 -12    2.18    1.45
   3   5 -12    4.52    1.87
   3  -5 -11    3.98    1.03
  -3  -5  11    1.44    0.84
   3  -5 -11    2.63    1.37
   3   5 -11    1.66    1.45
   3  -5 -10   25.52    1.96
  -3  -5  10   23.27    1.97
   3  -5 -10   26.11    2.40
   3   5 -10   24.27    2.60
   3  -5  -9  457.92    9.28
  -3  -5   9  473.51    9.52
   3  -5  -9  457.72    9.86
  -3  -5   8   16.06    1.60
   3  -5  -8   15.93    1.66
  -3  -5   8   17.92    2.01
   3  -5  -8   18.05    1.74
   3  -5  -7  220.66    5.51
  -3  -5   7  217.56    5.82
   3  -5  -7  225.52    5.85
  -3  -5   7  214.04    4.58
  -3   5   7  230.49    4.41
  -3  -5   7  224.41    6.38
  -3  -5   6    2.45    0.86
   3  -5  -6    2.53    0.91
  -3  -5   6    3.44    1.10
   3  -5  -6    1.41    0.72
  -3  -5   6    2.90    0.74
  -3   5   6    2.53    0.64
   3  -5  -5  922.01   13.08
   3  -5  -5  914.15   14.67
  -3  -5   5  908.93   13.31
  -3   5   5  933.74   13.29
  -3  -5   5  932.29   14.74
   3  -5  -4  100.77    3.59
  -3  -5   4   96.75    3.06
  -3   5   4   99.45    3.08
  -3  -5   4   95.75    3.41
   3  -5  -3 1214.02   17.96
  -3   5   3 1228.94   17.17
  -3  -5   3 1228.88   17.18
   3  -5  -2    6.45    1.06
  -3  -5   2    6.92    1.06
  -3   5   2    6.61    1.10
   3  -5  -1  162.02    4.47
   3  -5  -1  151.66    2.93
   3  -5   0   86.33    3.21
   3  -5   0   83.85    2.25
   3  -5   1   76.43    2.99
   3  -5   1   80.29    2.49
   3  -5   2   81.17    2.99
  -3   5  -2   84.27    2.85
   3  -5   2   76.71    2.71
   3  -5   3  219.51    5.15
  -3   5  -3  215.36    5.28
   3  -5   3  211.96    5.25
   3  -5   4 2331.28   29.90
   3  -5   4 2330.14   31.06
  -3   5  -4 2334.95   31.04
   3  -5   5   96.90    3.11
   3  -5   5   93.12    3.90
  -3   5  -5   95.58    3.96
  -3  -5  -6  366.66    6.57
   3  -5   6  368.55    6.88
   3  -5   6  379.92    9.01
  -3   5  -6  382.93    8.99
  -3  -5  -7    9.94    0.88
   3  -5   7    6.71    0.83
  -3   5  -7   10.38    1.88
  -3  -5  -8   73.24    1.91
   3  -5   8   79.31    2.33
  -3  -5  -8   73.02    4.23
  -3   5  -8   83.06    4.43
   3  -5   9    4.63    0.50
  -3   5  -9    8.52    2.12
  -3  -5  -9    4.41    1.91
  -3  -5 -10   34.63    4.01
  -3   5 -10   33.55    3.28
  -3   5 -11   35.87    3.69
  -3  -5 -11   36.83    3.63
  -3   5 -11   30.62    2.82
  -3   5 -12   71.25    4.24
  -3   5 -12   76.11    5.31
  -3  -5 -12   71.98    5.19
   3  -6 -15    9.53    2.40
   3  -6 -14  155.87    7.12
   3  -6 -13    1.77    1.58
  -3  -6  12  167.68    5.39
   3  -6 -12  170.58    6.70
   3  -6 -11    0.66    0.84
  -3  -6  11    2.52    1.11
   3  -6 -11   -0.35    1.29
   3  -6 -10   75.54    3.40
  -3  -6  10   76.98    3.51
   3  -6 -10   72.44    3.80
   3  -6  -9    8.37    1.47
  -3  -6   9    9.62    1.39
   3  -6  -9    9.33    1.35
   3  -6  -8  682.73   12.11
   3  -6  -8  672.69   12.11
  -3  -6   8  684.85   12.29
  -3  -6   8  646.39   10.29
  -3  -6   7   -0.19    1.02
   3  -6  -7    0.29    0.83
   3  -6  -7    0.10    0.73
  -3  -6   7    1.93    0.96
  -3   6   7    0.36    0.55
  -3  -6   7    1.53    0.64
   3  -6  -6  359.62    7.93
   3  -6  -6  349.88    7.00
  -3   6   6  357.16    6.66
  -3  -6   6  344.35    6.81
  -3  -6   6  355.37    8.16
   3  -6  -5    1.67    0.87
  -3  -6   5    1.04    0.94
  -3  -6   5    1.86    0.69
  -3   6   5    2.78    0.80
   3  -6  -4  115.04    4.01
  -3  -6   4  110.95    3.49
  -3   6   4  108.04    3.44
  -3  -6   4  109.47    3.85
   3  -6  -3    1.94    0.99
  -3  -6   3    3.40    0.90
  -3   6   3    3.03    0.94
   3  -6  -2    9.48    1.32
  -3  -6   2    9.93    1.23
  -3   6   2   11.64    1.38
   3  -6  -1  151.87    4.60
  -3   6   1  151.88    4.52
  -3  -6   1  151.28    4.43
   3  -6   0    2.09    0.60
  -3  -6   0    2.67    0.89
  -3   6   0    0.98    0.91
   3  -6   1    1.37    0.63
   3  -6   2   18.31    1.43
  -3   6  -2   20.08    1.55
  -3   6  -3   16.24    1.53
   3  -6   3   16.25    1.51
   3  -6   4  353.73    7.25
   3  -6   4  365.87    7.94
  -3   6  -4  369.19    8.00
  -3   6  -5   19.86    1.92
   3  -6   5   23.87    1.74
   3  -6   5   22.81    2.14
   3  -6   6    0.20    0.67
  -3   6  -6    0.65    1.13
   3  -6   6    2.00    1.03
  -3  -6  -7   62.98    2.31
   3  -6   7   58.72    2.50
  -3   6  -7   67.64    3.81
  -3   6  -8    0.52    1.33
  -3  -6  -8    1.49    0.55
   3  -6   8    0.64    0.63
  -3   6  -9    3.71    1.57
  -3  -6  -9    3.32    1.48
  -3  -6  -9    2.22    0.36
   3  -6   9    3.52    0.64
  -3   6 -10   42.67    3.67
  -3  -6 -10   42.84    3.70
  -3   6 -10   41.84    3.21
  -3  -6 -11    7.96    2.37
  -3   6 -11    7.39    2.13
  -3   6 -11    6.21    1.65
  -3  -6 -12   11.60    2.48
  -3   6 -12   12.32    2.74
  -3   6 -12   10.23    1.93
   3  -7 -15   88.08    5.65
   3  -7 -14    2.33    1.91
   3  -7 -13  142.33    6.48
  -3  -7  12   64.74    3.35
   3  -7 -12   65.44    4.22
  -3  -7  11    5.31    1.28
   3  -7 -11    5.91    1.58
  -3  -7  10   40.76    2.67
   3  -7 -10   40.20    2.57
   3  -7 -10   39.57    2.96
   3  -7  -9   19.08    2.01
   3  -7  -9   15.51    1.71
  -3  -7   9   16.50    1.79
   3  -7  -8   22.12    1.87
   3  -7  -8   25.77    2.12
  -3  -7   8   25.78    2.13
  -3   7   8   22.33    1.47
  -3  -7   8   20.53    1.52
   3  -7  -7  365.54    7.79
   3  -7  -7  377.57    8.48
  -3  -7   7  355.64    7.24
  -3   7   7  381.38    7.18
  -3  -7   7  385.59    9.10
   3  -7  -6   60.82    3.08
  -3   7   6   65.75    2.65
  -3  -7   6   61.84    2.69
  -3  -7   6   65.93    3.34
   3  -7  -5  324.63    7.62
  -3  -7   5  323.67    6.93
  -3   7   5  320.09    6.79
  -3  -7   5  334.41    7.79
   3  -7  -4  336.82    7.75
  -3  -7   4  345.04    7.24
  -3   7   4  343.65    7.18
   3  -7  -3  306.94    7.33
  -3  -7   3  319.93    6.97
  -3   7   3  321.71    6.96
  -3   7   2   65.27    2.97
  -3  -7   2   65.16    2.89
  -3  -7   1   12.05    1.48
  -3   7   1   12.12    1.40
   3  -7   0    5.62    0.87
  -3  -7   0    7.17    1.29
  -3   7   0    5.44    1.22
  -3   7  -1   92.46    3.75
  -3  -7  -1   95.98    3.80
   3  -7   1   84.14    2.87
   3  -7   2    1.39    0.73
  -3  -7  -2    2.67    1.06
  -3   7  -2    1.60    1.11
  -3   7  -3   45.68    2.82
  -3   7  -3   47.11    2.50
   3  -7   3   47.33    2.48
   3  -7   4   16.71    1.66
  -3   7  -4   16.88    1.77
   3  -7   5   69.81    3.51
  -3   7  -5   68.30    3.48
   3  -7   6   17.89    1.64
  -3   7  -6   16.91    1.97
   3  -7   7    2.96    0.92
  -3   7  -7    0.41    1.35
  -3   7  -7    3.03    1.18
   3  -7   8   43.77    2.22
  -3  -7  -8   43.87    1.96
  -3   7  -8   43.61    3.16
  -3   7  -8   49.37    3.57
  -3  -7  -9    1.00    0.52
  -3   7  -9   -1.95    1.55
  -3  -7  -9    1.23    1.58
  -3   7  -9    0.72    1.15
  -3  -7 -10   22.29    3.07
  -3   7 -10   23.39    3.04
  -3   7 -10   25.06    2.60
  -3  -7 -11    1.94    1.64
  -3   7 -11    0.74    1.58
  -3   7 -11    1.20    1.36
  -3   7 -12   -1.39    2.03
  -3  -7 -12    4.63    2.41
  -3   7 -12    1.39    1.39
   3  -8 -15   -1.22    1.70
   3  -8 -14   25.73    3.23
   3  -8 -13    1.24    1.63
  -3  -8  12  116.21    4.66
   3  -8 -12  111.49    5.42
  -3  -8  11   43.20    2.87
   3  -8 -11   45.50    3.38
  -3  -8  10  173.51    5.77
   3  -8 -10  163.87    5.50
   3  -8 -10  161.05    5.91
   3  -8  -9    0.62    0.80
  -3  -8   9    0.44    0.87
   3  -8  -9    0.91    1.11
   3  -8  -8    1.06    1.09
   3  -8  -8    1.93    0.94
  -3   8   8    1.41    0.74
  -3  -8   8    1.48    0.77
   3  -8  -7    2.67    1.08
  -3   8   7    3.51    0.95
  -3  -8   7    2.86    0.91
   3  -8  -6  485.04   10.17
  -3   8   6  495.47    9.21
  -3  -8   6  472.94    9.28
  -3  -8   6  503.19   10.69
   3  -8  -5   -0.33    1.00
  -3  -8   5    2.43    1.12
  -3   8   5    0.99    0.83
  -3  -8   5    0.30    0.73
   3  -8  -4  643.83   12.15
  -3  -8   4  650.37   11.50
  -3   8   4  648.06   11.45
  -3  -8   3  114.78    4.07
  -3   8   3  116.78    4.06
  -3  -8   2  252.02    6.39
  -3   8   2  241.85    6.29
  -3  -8   1    0.71    0.78
  -3   8   1    0.60    1.06
  -3   8   0  204.12    5.84
  -3  -8   0  197.65    5.74
   3  -8   0  192.87    4.58
  -3   8  -1   57.52    3.08
  -3  -8  -1   64.37    3.23
   3  -8   1   58.55    2.50
  -3   8  -2  307.40    7.76
  -3  -8  -2  316.88    7.75
   3  -8   2  301.48    6.63
   3  -8   3   13.18    1.50
  -3  -8  -3   12.34    1.54
  -3   8  -3   13.66    1.76
  -3  -8  -4  166.27    5.61
  -3   8  -4  160.09    5.60
   3  -8   4  154.34    5.05
   3  -8   5   -0.72    1.13
  -3   8  -5    0.28    1.17
  -3  -8  -5   -0.94    0.93
  -3   8  -5    0.31    0.95
  -3   8  -6    7.47    1.58
  -3   8  -6    7.40    1.63
   3  -8   7   80.76    3.38
  -3   8  -7   89.02    4.45
  -3   8  -7   82.68    4.39
   3  -8   8    4.34    1.07
  -3   8  -8   -0.12    1.54
  -3   8  -8    4.31    1.45
  -3  -8  -9    7.86    0.96
  -3   8  -9   10.70    2.05
  -3   8  -9    6.33    1.65
  -3   8 -10    6.24    1.90
  -3  -8 -10    9.54    2.25
  -3   8 -10    2.78    1.33
  -3   8 -11    5.23    2.09
  -3  -8 -11    4.09    2.10
  -3   8 -11    2.36    1.54
  -3   8 -12   18.12    2.94
  -3  -8 -12   15.22    2.59
  -3   8 -12   18.84    2.51
   3  -9 -15   57.28    4.69
   3  -9 -14    1.69    1.85
   3  -9 -13   37.85    3.49
  -3  -9  12   21.42    2.19
   3  -9 -12   21.60    2.64
  -3  -9  11   44.87    3.01
   3  -9 -11   42.19    3.31
  -3  -9  10    9.56    1.59
   3  -9 -10   10.95    1.74
   3  -9 -10    9.71    1.82
   3  -9  -9  155.54    5.48
   3  -9  -9  152.70    5.45
   3  -9  -8   26.33    2.30
   3  -9  -8   25.83    2.26
  -3   9   8   24.43    1.81
   3   9  -8   20.77    1.74
  -3  -9   8   20.80    1.78
   3  -9  -7   58.26    3.29
  -3  -9   7   53.18    2.83
   3   9  -7   58.24    2.81
  -3   9   7   59.04    2.84
   3  -9  -6  509.23   10.77
  -3   9   6  512.66    9.83
   3   9  -6  496.75    9.77
  -3  -9   6  503.17    9.95
   3  -9  -5  235.11    6.73
  -3   9   5  229.38    6.09
  -3  -9   5  234.25    6.25
   3   9  -5  229.47    6.07
  -3  -9   5  241.99    6.94
  -3  -9   4   18.98    1.80
  -3   9   4   18.16    1.74
  -3   9   3   14.69    1.68
  -3  -9   3   18.36    1.78
  -3  -9   2    0.47    0.85
  -3   9   2    1.71    0.99
  -3  -9   1  169.44    5.36
  -3   9   1  158.46    5.25
  -3   9   0   30.04    2.35
  -3  -9   0   33.26    2.37
   3  -9   0   29.96    1.78
  -3   9  -1   37.05    2.68
  -3  -9  -1   39.44    2.65
   3  -9   1   36.73    2.07
   3  -9   2    1.34    0.94
  -3  -9  -2    0.46    0.82
  -3   9  -2    1.70    1.06
  -3   9  -3   59.90    3.46
  -3  -9  -3   60.74    3.41
   3  -9   3   60.43    2.99
   3  -9   4    5.25    1.27
  -3  -9  -4    2.92    1.20
  -3   9  -4    4.92    1.35
   3  -9   5    2.66    1.01
  -3   9  -5    1.97    1.13
  -3   9  -6   -0.65    1.13
  -3   9  -6    4.43    1.61
  -3   9  -7  277.78    8.37
  -3   9  -7  276.85    8.42
   3  -9   8    9.06    1.43
  -3   9  -8    6.61    1.74
  -3   9  -8    9.88    1.87
  -3   9  -9   23.65    2.88
  -3   9  -9   24.70    2.59
  -3  -9 -10    1.70    1.86
  -3   9 -10    3.59    2.04
  -3   9 -10    1.92    1.40
  -3  -9 -11   23.00    3.23
  -3   9 -11   20.64    2.98
  -3   9 -11   17.31    2.39
  -3   9 -12    0.48    1.83
  -3   9 -12   -1.54    1.50
   3 -10 -14  116.84    6.25
   3 -10 -13   16.50    2.67
  -3 -10  12  285.25    8.13
   3 -10 -12  278.62    9.13
   3 -10 -11    4.41    1.54
  -3 -10  11    4.47    1.16
   3 -10 -10  140.57    5.62
   3 -10  -9   18.25    2.04
   3  10  -9   16.16    1.70
   3  10  -8  246.86    6.50
  -3 -10   8  228.13    6.47
  -3  10   8  257.59    6.44
   3 -10  -8  233.78    6.27
  -3 -10   7  162.80    5.33
   3  10  -7  167.63    5.26
   3 -10  -7  159.47    5.10
  -3  10   7  175.58    5.32
   3 -10  -6  476.05   10.62
  -3  10   6  475.27    9.76
   3  10  -6  466.65    9.77
   3 -10  -6  471.53    9.75
  -3 -10   6  474.92    9.97
   3 -10  -5    3.39    1.36
   3  10  -5    3.30    0.96
  -3 -10   5    4.15    1.12
   3 -10  -5    4.34    1.06
  -3  10   5    4.64    1.10
  -3 -10   4   61.37    3.20
  -3  10   4   56.74    3.12
   3  10  -4   57.55    3.05
  -3 -10   3  156.23    5.27
  -3  10   3  155.92    5.27
  -3  10   2    5.30    1.31
  -3 -10   2    6.48    1.38
  -3 -10   1   79.86    3.76
  -3  10   1   71.96    3.68
   3 -10   0    2.02    0.85
  -3 -10   0    0.55    0.79
  -3  10   0   -0.65    0.97
   3 -10   1   12.08    1.38
  -3 -10  -1   11.97    1.62
  -3  10  -1    9.46    1.65
  -3  10  -2  118.56    4.90
  -3 -10  -2  114.68    4.74
   3 -10   2  111.26    4.04
   3 -10   3    1.46    0.92
  -3 -10  -3    1.13    0.91
  -3  10  -3    0.41    0.98
   3 -10   4    1.37    0.95
  -3  10  -4    1.36    1.25
  -3  10  -5  111.87    5.03
  -3  10  -6   -0.52    1.29
  -3  10  -7   11.32    2.00
  -3  10  -8   36.08    3.31
  -3  10  -8   40.51    3.39
  -3  10  -9   47.26    3.65
  -3  10  -9   50.08    3.96
  -3  10 -10    0.32    1.86
  -3  10 -10    0.70    1.26
  -3  10 -11   33.13    3.63
  -3 -10 -11   29.56    3.48
  -3  10 -11   28.59    3.08
  -3  10 -12    1.51    1.41
   3 -11 -14    8.65    2.52
   3 -11 -13   45.69    3.92
   3 -11 -12    6.51    1.73
  -3 -11  12    7.57    1.61
   3 -11 -11   76.73    4.50
  -3 -11  11   79.49    4.27
   3 -11 -10    7.54    1.79
   3  11 -10    8.55    1.37
   3  11  -9  104.48    4.28
  -3 -11   9  100.31    4.29
   3  11  -8   -0.91    0.96
  -3  11   8    1.56    1.00
  -3 -11   8    0.27    0.95
   3 -11  -8    0.91    0.86
  -3 -11   7   46.37    2.96
   3 -11  -7   43.42    2.72
   3  11  -7   42.44    2.73
  -3  11   7   44.84    2.79
   3  11  -6   13.91    1.68
  -3 -11   6   13.78    1.73
  -3  11   6   18.13    1.86
   3 -11  -6   13.78    1.65
  -3  11   5   49.12    2.96
  -3 -11   5   52.24    3.08
   3  11  -5   46.17    2.89
   3 -11  -5   52.74    3.06
   3  11  -4    5.50    1.35
   3 -11  -4    3.76    0.88
  -3  11   4    5.39    1.40
  -3 -11   4    3.63    1.16
  -3 -11   3   29.69    2.40
  -3  11   3   27.69    2.37
  -3 -11   2  129.85    5.02
  -3  11   2  121.10    4.90
  -3 -11   1  176.84    5.96
  -3  11   1  174.37    5.97
  -3 -11   0   43.26    2.91
  -3  11   0   42.71    2.98
  -3 -11  -1   51.70    3.31
  -3  11  -1   49.66    3.28
   3 -11   1   48.74    2.62
  -3  11  -2   64.21    3.71
   3 -11   2   63.92    3.16
  -3  11  -3  417.56   10.32
   3 -11   3  414.95    9.30
  -3  11  -4  368.50    9.77
   3 -11   4  372.41    9.11
  -3  11  -5    5.09    1.55
  -3  11  -6  105.22    5.19
  -3  11  -7    2.90    1.52
  -3  11  -8   35.75    3.30
  -3  11  -9   47.71    3.75
  -3  11 -10   78.66    5.06
  -3 -11 -11    5.67    2.26
  -3  11 -11    4.65    1.78
   3 -12 -14    7.40    2.31
   3 -12 -13    3.35    1.99
   3 -12 -12   14.03    2.51
  -3 -12  12   13.88    2.04
   3 -12 -11   50.34    3.70
   3 -12 -10   77.44    4.35
   3  12 -10   81.86    3.89
   3  12  -9   13.88    1.75
   3  12  -8   18.97    1.98
  -3  12   8   20.59    2.07
   3 -12  -8   24.14    2.17
  -3 -12   8   19.89    2.13
  -3 -12   7   39.11    2.91
   3 -12  -7   37.57    2.67
   3  12  -7   37.36    2.73
  -3  12   7   41.40    2.82
   3  12  -6  176.16    6.01
  -3  12   6  190.08    6.22
   3 -12  -6  179.45    6.01
  -3 -12   6  187.54    6.28
  -3  12   5   46.38    3.08
   3 -12  -5   44.74    2.89
  -3 -12   5   46.50    3.13
   3  12  -5   41.93    2.86
  -3  12   4  106.47    4.65
  -3 -12   4  107.11    4.71
   3  12  -4  100.09    4.57
   3 -12  -4  104.48    4.55
  -3  12   3  326.94    8.66
   3  12  -3  321.66    8.46
  -3  12   2   18.00    2.05
  -3  12   1  155.09    5.82
  -3  12   0   25.06    2.48
  -3  12  -1  191.37    6.64
   3 -12   1  186.09    5.59
  -3  12  -2  441.67   10.84
   3 -12   2  433.51    9.56
  -3  12  -3  284.91    8.54
   3 -12   3  289.10    7.73
  -3  12  -4    5.47    1.47
  -3  12  -5  126.49    5.74
  -3  12  -6   41.24    3.42
  -3  12  -7   29.87    3.04
  -3  12  -8   12.28    2.18
  -3  12  -9   28.19    3.01
  -3  12 -10    1.03    1.62
  -3  12 -11   10.56    2.21
   3 -13 -13   36.16    3.55
   3 -13 -12   68.86    4.60
  -3 -13  12   76.29    4.51
   3 -13 -11   50.64    3.78
   3 -13 -10    7.30    1.89
   3  13 -10    6.63    1.35
   3  13  -9    9.51    1.60
   3  13  -8   32.28    2.75
  -3  13   8   42.72    2.95
   3  13  -7   27.87    2.54
  -3  13   7   34.26    2.74
  -3  13   6   51.33    3.29
   3  13  -6   50.16    3.29
   3  13  -5    3.22    1.36
  -3  13   5    4.16    1.31
  -3  13   4   44.59    3.21
   3  13  -4   49.99    3.33
   3  13  -3    9.14    1.70
  -3  13   3    9.75    1.78
  -3  13   2  582.33   12.82
  -3  13   1   62.42    3.85
  -3  13   0  444.32   11.05
   3 -13   1   14.74    1.74
  -3  13  -1   15.49    2.14
  -3  13  -2  188.35    6.95
   3 -13   2  188.70    6.09
  -3  13  -3    2.77    1.43
  -3  13  -4   64.27    4.15
  -3  13  -5   28.78    2.85
  -3  13  -6  152.38    6.58
  -3  13  -7    0.99    1.29
  -3  13  -8   99.58    5.55
  -3  13  -9   24.05    2.90
  -3  13 -10   45.51    3.96
  -3  13 -11    3.14    1.76
   3 -14 -13    7.31    2.23
   3 -14 -12   -2.55    1.66
   3 -14 -11   14.18    2.35
   3  14 -10   13.51    1.86
   3  14  -9    5.00    1.48
   3  14  -8   23.72    2.51
  -3  14   8   25.16    2.49
  -3  14   7    7.03    1.49
   3  14  -7    5.93    1.45
  -3  14   6    0.93    1.08
   3  14  -6    4.20    1.47
  -3  14   5   55.42    3.61
   3  14  -5   60.14    3.76
   3  14  -4   10.20    1.69
  -3  14   4   16.09    2.05
  -3  14   3   57.75    3.75
   3  14  -3   56.02    3.64
  -3  14   2   19.11    2.37
  -3  14   1   14.23    2.21
  -3  14   0    1.97    1.39
  -3  14  -1   49.91    3.66
   3 -14   1   54.38    3.21
  -3  14  -2  156.66    6.56
  -3  14  -3  506.94   12.69
  -3  14  -4    6.68    1.84
  -3  14  -5  163.08    6.95
  -3  14  -6    3.84    1.58
  -3  14  -7  123.67    6.22
  -3  14  -8    4.89    1.80
  -3  14  -9  138.12    6.82
  -3  14 -10   10.47    2.52
  -3  14 -11   39.08    3.80
   3 -15 -12   -0.26    1.72
   3 -15 -11   -0.41    1.66
   3  15 -10   11.53    1.95
   3  15  -9    0.21    1.07
   3  15  -8   38.23    3.16
  -3  15   8   42.53    3.26
  -3  15   7    0.32    1.34
   3  15  -7    3.41    1.42
   3  15  -6    1.44    1.11
  -3  15   6    1.84    1.37
   3  15  -5   27.44    2.74
  -3  15   5   24.28    2.55
   3  15  -4   11.45    1.99
  -3  15   4    7.63    1.76
   3  15  -3   13.54    2.03
  -3  15   3   16.66    2.27
  -3  15   2  149.08    6.31
  -3  15   1  306.42    9.39
  -3  15   0   95.06    5.07
  -3  15  -1    1.11    1.21
  -3  15  -2  156.51    6.74
  -3  15  -3   20.15    2.67
  -3  15  -4   57.96    4.25
  -3  15  -5   27.24    3.26
  -3  15  -6  252.42    9.17
  -3  15  -7    6.64    2.03
  -3  15  -8  102.54    5.93
  -3  15  -9   -2.94    1.73
  -3  15 -10   87.56    5.63
  -3  15 -11    0.46    1.71
   3 -16 -12    5.87    2.48
   3 -16 -11    4.54    2.01
   3  16 -10    1.11    1.15
   3  16  -9   44.55    3.54
   3  16  -8    5.88    1.56
  -3  16   8    5.52    1.69
   3  16  -7   84.27    4.87
  -3  16   7   90.22    4.89
  -3  16   6    6.17    1.68
   3  16  -6    6.19    1.76
  -3  16   5  148.63    6.45
   3  16  -5  152.36    6.48
   3  16  -4    9.68    2.02
  -3  16   4    9.83    1.95
  -3  16   3  160.97    6.78
   3  16  -3  163.44    6.71
  -3  16   2   10.30    1.85
  -3  16   1   26.34    2.96
  -3  16   0   39.26    3.50
  -3  16  -1  274.52    9.32
  -3  16  -2    0.64    1.31
  -3  16  -3   60.25    4.44
  -3  16  -4   14.24    2.48
  -3  16  -5   79.64    5.14
  -3  16  -6   -0.71    1.49
  -3  16  -7   74.57    5.23
  -3  16  -8    0.24    1.48
  -3  16  -9   33.57    3.60
  -3  16 -10    3.84    1.51
   3  17 -10    5.11    1.73
   3  17  -9    1.87    1.45
   3  17  -8    8.05    1.96
  -3  17   8    7.54    1.80
   3  17  -7    9.46    1.92
  -3  17   7   14.29    2.35
   3  17  -6   77.90    4.83
  -3  17   6   85.16    5.05
   3  17  -5    0.94    1.35
  -3  17   5    0.87    1.32
   3  17  -4    4.19    1.58
  -3  17   4    5.94    1.65
  -3  17   3   98.34    5.44
   3  17  -3   99.19    5.42
  -3  17   2    2.17    1.58
  -3  17   1   24.86    2.96
  -3  17   0   64.22    4.50
  -3  17  -1   54.97    5.55
  -3  17  -2  207.66    8.31
  -3  17  -3   68.88    4.88
  -3  17  -4   80.05    5.23
  -3  17  -5    2.48    1.59
  -3  17  -6  154.65    7.49
  -3  17  -7    1.43    1.59
  -3  17  -8   33.69    3.74
  -3  17  -9    2.41    1.76
  -3  17 -10   40.75    4.24
   3  18  -9    2.80    1.70
   3  18  -8    5.32    1.74
  -3  18   8    9.58    1.95
   3  18  -7   10.27    2.21
  -3  18   7   10.29    2.20
   3  18  -6    6.15    1.79
  -3  18   6   12.29    2.43
   3  18  -5   11.27    2.21
  -3  18   5   13.62    2.36
   3  18  -4   14.19    2.45
  -3  18   4   11.12    2.22
   3  18  -3    8.07    1.96
  -3  18   3    8.93    2.22
  -3  18   2    1.27    1.64
  -3  18   1   60.83    4.57
  -3  18   0    0.77    1.37
  -3  18  -1  238.05    9.14
  -3  18  -2   10.79    2.31
  -3  18  -3  162.43    7.63
  -3  18  -4   -0.89    1.48
  -3  18  -5   63.59    5.03
  -3  18  -6   33.86    3.83
  -3  18  -7  115.02    6.71
  -3  18  -8    7.59    2.39
   3  19  -9   34.69    3.58
   3  19  -8   41.22    3.93
  -3  19   8   50.33    4.20
  -3  19   7   45.86    3.98
   3  19  -7   44.75    4.02
   3  19  -6   50.32    4.17
  -3  19   6   57.59    4.51
  -3  19   5   18.19    2.89
   3  19  -5   17.96    2.71
  -3  19   4   23.85    3.13
   3  19  -4   23.07    3.01
  -3  19   3   10.30    2.04
  -3  19   2   20.73    3.08
  -3  19   1    3.27    1.58
  -3  19   0  112.24    6.30
  -3  19  -1    0.19    1.69
  -3  19  -2   99.75    6.12
  -3  19  -3    2.57    1.82
  -3  19  -4  103.37    6.40
  -3  19  -5    0.24    1.57
  -3  19  -6   46.27    4.42
  -3  19  -7    1.54    1.81
   3  20  -9    2.08    1.72
  -3  20   8   23.83    3.09
   3  20  -8   19.79    2.90
  -3  20   7    9.78    2.43
   3  20  -7    9.60    2.29
   3  20  -6   38.47    3.83
  -3  20   6   38.78    3.84
  -3  20   5   28.32    3.29
   3  20  -5   29.31    3.49
  -3  20   4   53.50    4.42
  -3  20   3   67.79    5.05
  -3  20   2   45.23    4.27
  -3  20   1   16.26    2.91
  -3  20   0   44.75    4.24
  -3  20  -1  115.71    6.72
  -3  20  -2   42.32    4.30
  -3  20  -3   41.92    4.11
  -3  20  -4   12.39    2.64
  -3  20  -5    4.68    1.89
  -3  21   8    3.43    1.60
   3  21  -7   51.23    4.56
  -3  21   7   61.95    4.96
  -3  21   6    1.46    1.86
   3  21  -6    1.97    1.74
  -3  21   5   44.11    4.36
  -3  21   4    2.27    1.75
  -3  21   3   67.48    5.16
  -3  21   2    7.26    2.17
  -3  21   1   33.08    3.76
  -3  21   0   18.18    2.90
  -3  21  -1   18.74    3.15
  -3  21  -2    7.43    2.41
   4   0 -15   -0.55    1.66
   4   0 -14   57.26    4.38
   4   0 -13   -3.60    1.81
  -4   0  12  268.19    7.10
   4   0 -12  271.52    8.45
  -4   0  11    0.35    0.84
   4   0 -11   -0.47    1.23
  -4   0  10   22.03    1.99
   4   0 -10   25.74    2.34
  -4   0   9    1.79    0.87
   4   0  -9    1.17    1.06
  -4   0   9    2.98    1.20
  -4   0   8   14.05    1.48
   4   0  -8   16.04    1.61
  -4   0   8   16.40    1.54
   4   0  -7    1.42    0.82
  -4   0   7    1.60    0.95
   4   0  -7    0.96    0.82
  -4   0   7    1.16    0.81
   4   0  -6   22.89    1.82
  -4   0   6   24.30    1.93
  -4   0   6   23.78    1.52
   4   0  -6   18.65    1.49
   4   0  -5    0.70    0.77
  -4   0   5    1.00    0.84
  -4   0   5    0.54    0.65
   4   0  -4    5.36    1.05
  -4   0   4    4.14    1.03
  -4   0   4    3.21    0.62
  -4   0   3    0.39    0.82
   4   0  -3    0.91    0.82
  -4   0   3    0.97    0.47
   4   0  -2  161.26    4.60
  -4   0   2  170.00    4.71
  -4   0   1    0.86    0.94
   4   0  -1    0.76    0.79
  -4   0   0    1.29    0.89
   4   0   0    1.61    0.83
  -4   0  -1    0.45    0.75
   4   0   1    0.12    0.69
   4   0   2   29.85    1.75
  -4   0  -2   30.28    1.81
  -4   0  -2   27.94    1.81
  -4   0  -3    0.34    0.61
   4   0   3   -0.12    0.54
  -4   0  -3    0.18    0.84
  -4   0  -4  173.91    5.11
  -4   0  -4  170.77    4.17
  -4   0  -5   -0.88    0.53
  -4   0  -5    0.66    1.05
  -4   0  -6  505.05   10.83
  -4   0  -7    1.27    1.27
  -4   0  -8  141.16    5.89
  -4   0  -9   -0.67    1.36
  -4   0 -10   12.93    2.32
  -4   0 -11   -1.04    1.77
  -4   0 -12    2.00    1.98
   4  -1 -16    4.88    1.90
   4   1 -15   50.48    4.28
   4  -1 -15   54.63    4.52
   4   1 -14    4.07    1.69
   4  -1 -14    3.43    1.63
   4   1 -13   89.33    5.03
   4  -1 -13   87.67    4.96
  -4  -1  12   47.47    2.87
   4   1 -12   48.04    3.61
   4  -1 -12   48.18    3.48
  -4  -1  11   21.71    1.94
   4   1 -11   26.64    2.66
   4  -1 -11   24.37    2.39
  -4   1  11   24.86    2.16
  -4   1  10    1.16    0.81
  -4  -1  10    2.57    0.89
   4   1 -10    2.31    1.22
   4  -1 -10    1.92    1.10
  -4  -1   9  347.10    8.20
  -4  -1   9  332.44    7.86
  -4   1   9  330.46    7.84
   4  -1  -9  328.57    7.87
   4   1  -9  330.25    8.14
   4  -1  -8   37.98    2.37
  -4  -1   8   34.78    2.33
  -4   1   8   37.36    2.44
  -4  -1   8   34.99    2.26
   4  -1  -8   35.70    2.25
   4   1  -8   37.42    2.44
  -4   1   7   58.85    2.97
  -4   1   7   62.69    2.61
  -4  -1   7   57.16    2.87
   4  -1  -7   63.47    3.01
  -4  -1   7   56.97    1.34
  -4   1   7   51.78    1.22
   4  -1  -7   54.79    2.57
  -4  -1   7   58.51    2.67
   4   1  -7   59.46    2.83
  -4  -1   6    1.18    0.83
  -4   1   6    0.86    0.84
   4  -1  -6    1.42    0.83
   4  -1  -6    2.78    0.88
  -4   1   6    0.93    0.71
  -4  -1   6    1.78    0.78
   4   1  -5   73.42    3.20
   4  -1  -5   77.75    3.28
  -4  -1   5   75.55    3.21
  -4   1   5   79.39    2.36
  -4   1   5   80.86    3.33
  -4  -1   5   77.42    2.62
   4  -1  -5   70.23    2.35
   4  -1  -4    1.34    0.75
  -4   1   4    1.35    0.88
   4   1  -4    1.78    0.87
  -4  -1   4    1.93    0.91
  -4  -1   4    0.67    0.59
  -4   1   4    0.63    0.48
   4  -1  -3    2.06    0.75
  -4   1   3    2.45    1.08
  -4  -1   3    1.36    0.88
   4   1  -3    0.99    0.72
  -4   1   3    1.58    0.37
  -4  -1   3    1.41    0.60
   4  -1  -2    4.43    0.96
  -4  -1   2    4.26    1.03
  -4   1   2    6.01    1.23
   4   1  -2    4.87    1.15
   4   1  -1   16.90    1.52
   4  -1  -1   20.13    1.59
  -4  -1   1   20.03    1.59
  -4   1   1   20.59    1.64
   4   1   0   35.28    2.04
   4  -1   0   34.88    2.00
  -4  -1   0   31.42    1.93
  -4   1   0   36.11    1.45
  -4   1   0   35.93    2.07
   4  -1   1   18.79    1.51
   4   1   1   21.43    1.56
  -4   1  -1   19.96    1.57
  -4  -1  -1   20.15    1.56
  -4   1  -1   18.43    1.25
  -4  -1  -2    9.36    1.09
  -4   1  -2   12.06    1.33
   4  -1   2   10.99    1.14
  -4   1  -2   11.44    1.27
   4  -1   3    4.40    0.79
  -4   1  -3    4.10    0.84
  -4  -1  -3    4.16    0.78
  -4   1  -3    5.26    1.13
   4  -1   4  248.88    5.21
  -4   1  -4  237.73    5.23
  -4  -1  -4  240.23    5.15
  -4  -1  -4  242.07    6.28
  -4   1  -4  243.72    6.17
   4  -1   5   72.29    2.44
  -4  -1  -5   70.96    2.44
  -4  -1  -5   70.53    3.51
  -4   1  -5   72.99    3.49
  -4  -1  -6   12.81    1.05
  -4  -1  -6   14.93    1.84
  -4   1  -6   12.18    1.76
  -4  -1  -7   34.69    2.88
  -4   1  -7   35.36    2.92
  -4   1  -8  134.18    5.72
  -4  -1  -8  135.13    5.75
  -4  -1  -9  104.95    5.40
  -4   1  -9  111.85    5.51
  -4   1 -10   15.43    2.69
  -4  -1 -10    9.87    2.06
  -4  -1 -11   59.78    4.54
  -4   1 -11   64.31    4.78
  -4   1 -12    1.42    1.72
  -4  -1 -12    0.74    1.72
   4  -2 -16   16.64    2.84
   4  -2 -15    2.27    1.93
   4   2 -15    2.42    1.85
   4  -2 -14   72.68    4.77
   4   2 -14   73.08    5.07
   4   2 -13    5.76    1.97
   4  -2 -13    6.93    1.79
  -4  -2  12  138.46    4.99
   4  -2 -12  136.02    5.78
   4   2 -12  137.77    6.09
  -4  -2  11  124.77    4.70
   4  -2 -11  119.43    5.12
   4   2 -11  124.49    5.46
  -4  -2  10  226.44    6.42
   4  -2 -10  232.42    6.79
   4   2 -10  240.06    7.26
   4  -2  -9   13.76    1.52
  -4  -2   9   13.53    1.59
  -4   2   9   14.62    1.74
  -4  -2   9   15.35    1.61
   4  -2  -9   13.74    1.63
   4   2  -9   13.45    1.85
   4  -2  -8  386.28    8.48
  -4  -2   8  380.02    8.47
  -4   2   8  383.14    8.54
   4  -2  -8  389.83    8.10
   4   2  -8  377.80    8.53
  -4  -2   8  390.01    8.49
  -4   2   7  188.13    5.49
   4  -2  -7  192.42    5.48
  -4  -2   7  186.93    5.40
  -4  -2   7  175.03    3.23
  -4   2   7  180.10    3.09
  -4  -2   7  188.15    5.19
   4  -2  -7  178.38    4.71
  -4   2   6  332.39    7.57
  -4  -2   6  329.07    7.50
   4  -2  -6  339.91    7.58
  -4   2   6  325.81    5.51
  -4  -2   6  333.10    5.59
   4  -2  -6  319.30    6.24
  -4  -2   6  337.40    6.90
  -4  -2   5    0.39    0.81
  -4   2   5    1.31    0.90
   4  -2  -5    0.69    0.72
   4  -2  -5    0.34    0.51
  -4  -2   5    0.54    0.68
  -4  -2   4  276.04    6.56
   4  -2  -4  287.23    6.64
  -4   2   4  284.38    6.65
  -4  -2   4  270.38    5.46
  -4  -2   3  145.29    4.46
   4  -2  -3  148.51    4.48
  -4   2   3  144.68    4.46
  -4  -2   2  288.30    6.50
   4  -2  -2  286.84    6.52
  -4   2   2  289.68    6.58
  -4  -2   1   85.10    3.22
   4  -2  -1   90.75    3.28
  -4   2   1   92.44    3.35
  -4   2   1   84.85    1.57
  -4  -2   0  166.83    4.51
   4  -2   0  160.47    4.50
  -4   2   0  162.59    4.54
  -4   2   0  158.83    3.11
  -4  -2  -1   43.09    2.18
   4  -2   1   40.38    2.15
  -4   2  -1   46.06    2.29
  -4   2  -1   41.14    1.74
   4  -2   2   45.83    2.21
  -4  -2  -2   46.05    2.20
  -4   2  -2   44.69    2.29
  -4   2  -2   45.25    2.10
  -4  -2  -3   14.28    1.22
   4  -2   3   14.93    1.29
  -4   2  -3   15.62    1.40
  -4   2  -3   13.87    1.38
  -4  -2  -4   55.71    2.27
   4  -2   4   58.28    2.33
  -4   2  -4   60.59    2.92
   4  -2   5   16.52    1.24
  -4  -2  -5   15.97    1.22
  -4   2  -5   14.67    1.76
  -4  -2  -5   14.59    1.83
   4  -2   6  245.54    4.86
  -4  -2  -6  234.73    4.75
  -4  -2  -6  236.67    7.05
  -4   2  -6  232.51    6.87
  -4  -2  -7    4.17    1.59
  -4   2  -7    5.60    1.43
  -4  -2  -8  128.55    5.65
  -4   2  -8  136.13    5.73
  -4  -2  -9    3.84    1.67
  -4   2  -9    1.16    1.48
  -4  -2 -10  181.41    7.46
  -4   2 -10  166.05    7.15
  -4   2 -11    1.21    1.78
  -4  -2 -11   -0.45    1.69
  -4  -2 -12   54.39    4.63
  -4   2 -12   55.08    4.60
   4  -3 -16    0.97    1.89
   4   3 -15   52.76    4.44
   4  -3 -15   56.69    4.49
   4  -3 -14    2.36    1.60
   4   3 -14    2.37    1.90
   4  -3 -13  110.30    5.51
   4   3 -13  114.53    5.96
  -4  -3  12   48.95    3.01
   4   3 -12   45.13    3.51
   4  -3 -12   49.13    3.52
  -4  -3  11   86.98    3.91
   4  -3 -11   89.29    4.34
   4   3 -11   83.57    4.51
   4  -3 -10  139.30    4.86
  -4  -3  10  143.80    4.99
   4  -3 -10  131.74    4.99
   4   3 -10  141.05    5.53
   4  -3  -9   92.05    3.85
  -4  -3   9   98.39    4.05
  -4  -3   9   98.05    4.24
   4  -3  -9   97.54    3.93
  -4   3   8  155.57    5.04
  -4  -3   8  143.32    4.77
   4  -3  -8  142.42    4.76
  -4  -3   8  148.30    4.95
   4  -3  -8  145.84    4.45
  -4   3   7  196.34    5.71
  -4  -3   7  188.98    5.54
   4  -3  -7  188.19    5.52
  -4  -3   7  183.57    3.71
  -4   3   7  192.74    3.57
  -4  -3   7  190.81    5.37
   4  -3  -7  186.63    4.75
  -4   3   6  298.08    7.17
  -4  -3   6  297.37    7.12
   4  -3  -6  294.25    7.07
  -4   3   6  297.08    5.35
  -4  -3   6  293.35    5.39
  -4  -3   6  299.16    6.67
   4  -3  -6  291.86    5.74
  -4   3   5  100.59    3.88
   4  -3  -5  101.95    3.83
  -4  -3   5   96.74    3.76
  -4   3   5   97.47    2.89
  -4  -3   5  100.38    2.90
  -4  -3   5   96.00    3.29
   4  -3  -5   98.14    2.58
   4  -3  -4   27.16    1.97
  -4  -3   4   28.10    2.05
  -4   3   4   27.23    2.09
   4  -3  -4   26.15    0.98
  -4  -3   4   25.90    1.65
  -4  -3   3  103.81    3.78
   4  -3  -3  107.46    3.83
  -4   3   3  110.46    3.87
   4  -3  -2  323.50    7.10
  -4  -3   2  320.46    7.09
  -4   3   2  324.10    7.16
  -4   3   1    2.35    0.96
   4  -3  -1    3.03    1.00
  -4  -3   1    3.06    0.91
  -4  -3   0   20.34    1.73
   4  -3   0   28.78    1.89
  -4   3   0   26.49    1.91
  -4   3   0   22.87    1.09
  -4   3  -1   12.75    1.46
   4  -3   1   13.50    1.38
  -4  -3  -1   11.83    1.24
  -4   3  -1   11.47    1.06
  -4  -3  -2   27.77    1.77
   4  -3   2   31.28    1.87
  -4   3  -2   29.39    1.75
  -4  -3  -3   23.45    1.58
   4  -3   3   23.60    1.60
  -4   3  -3   22.68    1.70
   4  -3   4  110.27    3.38
  -4  -3  -4  104.42    3.25
  -4   3  -4  105.59    3.92
   4  -3   5   77.29    2.73
  -4  -3  -5   79.10    2.67
  -4   3  -5   71.71    3.49
   4  -3   6   27.50    1.55
  -4  -3  -6   27.51    1.48
  -4   3  -6   30.04    2.51
  -4  -3  -6   31.12    2.74
   4  -3   7    0.52    0.49
  -4  -3  -7    1.55    0.54
  -4  -3  -7   -2.00    1.44
  -4   3  -7    0.79    1.31
  -4  -3  -8   58.53    3.85
  -4   3  -8   53.76    3.67
  -4  -3  -9    9.17    2.30
  -4   3  -9    6.74    1.86
  -4  -3 -10   24.68    2.91
  -4   3 -10   24.72    2.90
  -4   3 -11   47.87    4.14
  -4  -3 -11   66.24    4.77
  -4   3 -12   -2.94    1.89
  -4  -3 -12    0.04    2.05
   4  -4 -16   37.63    4.12
   4  -4 -15   10.69    2.60
   4  -4 -14   76.83    4.90
   4  -4 -13    2.38    1.50
   4   4 -13    3.67    1.86
  -4  -4  12   44.41    2.84
   4  -4 -12   44.23    3.43
   4  -4 -11   29.17    2.30
  -4  -4  11   29.71    2.35
   4  -4 -11   29.12    2.59
  -4  -4  10    2.88    1.15
   4  -4 -10   -0.86    0.96
   4  -4 -10    1.47    1.17
  -4  -4   9   54.97    3.06
   4  -4  -9   53.68    2.96
   4  -4  -9   51.48    2.88
   4  -4  -8   17.98    1.58
  -4  -4   8   20.74    1.96
  -4  -4   8   21.90    1.97
   4  -4  -8   21.02    1.86
  -4  -4   8   17.62    0.98
  -4   4   8   21.08    0.93
  -4  -4   7   98.02    3.94
   4  -4  -7   97.97    3.91
  -4   4   7   98.72    2.62
  -4  -4   7   93.75    2.69
  -4  -4   7   96.48    3.84
   4  -4  -7   94.03    3.23
   4  -4  -6    8.25    1.36
  -4  -4   6    8.09    1.38
  -4  -4   6    7.72    1.21
   4  -4  -6    8.25    0.94
  -4   4   6    7.34    0.88
  -4  -4   6    5.92    0.74
  -4   4   5  227.46    6.15
   4  -4  -5  239.54    6.23
  -4  -4   5  225.74    6.10
  -4   4   5  240.79    5.11
  -4  -4   5  229.88    5.04
  -4  -4   5  238.09    5.70
   4  -4  -5  219.84    4.29
  -4   4   4  201.60    5.67
  -4  -4   4  200.68    5.62
   4  -4  -4  209.77    5.72
  -4  -4   4  205.84    4.81
  -4   4   4  201.23    4.79
   4  -4  -4  201.61    3.35
  -4  -4   4  201.63    5.00
   4  -4  -3  197.90    5.52
  -4  -4   3  197.99    5.50
  -4   4   3  201.15    5.53
  -4   4   2   13.06    1.54
  -4  -4   2   11.70    1.46
   4  -4  -2   11.25    1.47
  -4  -4   1  244.36    6.09
   4  -4  -1  270.14    6.33
  -4  -4   0   72.23    3.05
   4  -4   0   72.65    3.06
  -4   4   0   73.24    2.01
  -4  -4  -1  456.06    8.70
   4  -4   1  477.41    8.93
   4  -4   1  447.48    7.42
  -4   4  -1  463.18    7.48
  -4  -4  -2   71.29    2.88
   4  -4   2   74.52    3.02
   4  -4   2   71.38    2.66
  -4   4  -2   76.38    2.75
  -4  -4  -3  951.49   14.45
   4  -4   3  950.37   14.69
   4  -4   3  981.92   14.73
  -4   4  -3  953.74   14.65
  -4  -4  -4    1.87    0.65
   4  -4   4    4.37    0.91
  -4   4  -4    1.59    0.89
  -4  -4  -5  120.99    3.52
   4  -4   5  127.33    3.74
  -4   4  -5  124.90    4.63
  -4  -4  -6    0.31    0.50
   4  -4   6    1.13    0.62
  -4   4  -6    2.21    1.31
  -4  -4  -7  129.60    3.26
   4  -4   7  130.10    3.44
  -4  -4  -7  132.46    5.55
  -4   4  -7  128.44    5.35
  -4  -4  -8    1.25    0.51
   4  -4   8    0.98    0.52
  -4   4  -8   -0.10    1.30
  -4  -4  -8    0.75    1.38
  -4  -4  -9  157.08    6.72
  -4   4  -9  159.85    6.69
  -4  -4 -10    2.28    1.81
  -4   4 -10    2.63    1.55
  -4  -4 -11   31.15    3.51
  -4   4 -11   26.60    3.19
  -4   4 -12   33.72    3.74
  -4  -4 -12   27.62    3.49
   4  -5 -15   34.96    3.63
   4  -5 -14    1.23    1.56
   4  -5 -13    6.28    1.87
  -4  -5  12    7.29    1.34
   4  -5 -12    2.16    1.27
   4  -5 -11   64.91    3.48
  -4  -5  11   61.31    3.40
   4  -5 -11   58.69    3.53
   4  -5 -10   35.20    2.49
  -4  -5  10   34.42    2.56
   4  -5 -10   35.17    2.60
   4  -5  -9  282.46    7.41
  -4  -5   9  292.42    7.59
   4  -5  -9  289.75    7.16
  -4  -5   8  112.73    4.42
   4  -5  -8  114.43    4.40
  -4   5   8  116.07    2.80
  -4  -5   8  100.44    2.86
  -4  -5   8  106.45    4.43
   4  -5  -8  110.56    3.86
  -4  -5   7  152.80    5.10
   4  -5  -7  149.35    5.04
  -4   5   7  154.66    3.71
  -4  -5   7  145.42    3.78
   4  -5  -7  148.44    4.15
  -4  -5   7  153.39    5.07
   4  -5  -6  214.85    6.07
  -4  -5   6  212.25    6.07
  -4  -5   6  215.66    4.92
  -4   5   6  217.55    4.87
  -4  -5   6  205.47    5.73
   4  -5  -6  207.09    4.61
   4  -5  -5  189.81    5.63
  -4  -5   5  183.96    5.54
  -4   5   5  188.78    4.67
  -4  -5   5  191.95    4.74
  -4  -5   5  189.46    5.24
   4  -5  -5  185.88    3.84
   4  -5  -4  496.96    9.79
  -4  -5   4  451.27    9.49
  -4   5   4  480.87    8.71
  -4  -5   4  478.16    8.67
   4  -5  -4  471.99    6.69
   4  -5  -3   39.06    2.43
   4  -5  -3   40.93    0.98
  -4  -5   3   42.00    2.22
  -4   5   3   41.61    2.24
  -4  -5   3   39.39    2.45
   4  -5  -2  768.10   13.21
   4  -5  -1  362.51    7.82
   4  -5  -1  343.39    5.00
   4  -5   0  449.26    8.88
   4  -5   0  418.02    6.53
   4  -5   1   52.00    2.02
   4  -5   1   54.35    2.71
  -4   5  -1   57.01    2.15
   4  -5   2  703.68   11.30
   4  -5   2  744.80   12.37
  -4   5  -2  730.56   11.43
  -4  -5  -3   59.30    2.65
   4  -5   3   56.83    2.65
   4  -5   3   57.23    2.65
  -4   5  -3   55.93    2.63
  -4  -5  -4  684.21   11.38
   4  -5   4  713.52   11.73
   4  -5   4  687.75   12.26
  -4   5  -4  696.99   12.33
  -4  -5  -5   26.48    1.69
  -4   5  -5   25.92    2.20
   4  -5   5   26.43    1.80
   4  -5   5   22.34    1.99
  -4  -5  -6  303.89    6.16
   4  -5   6  297.68    6.34
   4  -5   6  305.62    8.25
  -4   5  -6  296.93    7.99
   4  -5   7   61.43    2.49
  -4  -5  -7   62.88    2.32
  -4   5  -7   63.58    3.80
   4  -5   8  130.71    3.41
  -4  -5  -8  126.92    3.08
  -4  -5  -8  136.57    5.99
  -4   5  -8  124.95    5.64
  -4   5  -9   39.76    3.48
  -4  -5  -9   37.26    3.45
  -4   5 -10   40.54    3.71
  -4  -5 -10   40.88    3.86
  -4  -5 -11   14.71    2.58
  -4   5 -11   17.14    2.87
  -4   5 -12    8.60    2.25
  -4  -5 -12   14.21    2.56
   4  -6 -15    7.28    2.14
   4  -6 -14    3.41    1.91
   4  -6 -13   22.73    2.78
  -4  -6  12    1.66    1.04
   4  -6 -12    3.61    1.44
  -4  -6  11   64.87    3.58
   4  -6 -11   68.23    3.80
  -4  -6  10  139.61    5.21
   4  -6 -10  133.01    5.00
   4  -6 -10  130.38    4.95
  -4  -6   9   89.02    4.08
   4  -6  -9   91.45    4.07
  -4  -6   9   86.68    2.66
   4  -6  -9   92.02    3.83
   4  -6  -8    0.99    0.91
  -4  -6   8    0.31    0.80
   4  -6  -8   -0.41    0.82
  -4   6   8    1.38    0.58
  -4  -6   8    0.92    0.59
  -4  -6   7  310.35    7.84
   4  -6  -7  318.09    7.89
  -4   6   7  317.90    6.26
  -4  -6   7  301.72    6.34
   4  -6  -7  312.59    6.54
  -4  -6   7  319.23    7.96
   4  -6  -6  123.64    3.43
  -4  -6   6  120.99    4.58
   4  -6  -6  133.07    4.79
  -4  -6   6  123.35    3.80
  -4   6   6  131.88    3.84
  -4  -6   6  123.12    4.49
   4  -6  -5  799.59   13.99
   4  -6  -5  767.69   11.09
  -4  -6   5  772.49   13.90
  -4  -6   5  796.92   12.68
  -4   6   5  793.85   12.57
  -4  -6   5  785.85   13.44
   4  -6  -4  119.98    4.44
  -4   6   4  121.93    3.95
  -4  -6   4  118.69    3.90
   4  -6  -3  113.71    4.26
  -4   6   3  109.93    3.88
  -4  -6   3  114.31    3.87
   4  -6  -2   24.46    2.00
  -4  -6   2   23.77    1.85
  -4   6   2   25.87    1.95
   4  -6  -2   22.27    0.94
   4  -6  -1    3.42    1.09
   4  -6  -1    2.80    0.56
   4  -6   0   40.41    2.45
   4  -6   0   37.86    1.58
   4  -6   1  328.34    7.40
   4  -6   1  307.08    5.93
   4  -6   2   13.30    1.47
   4  -6   2   11.68    1.21
  -4   6  -2   12.51    1.32
   4  -6   3  352.33    7.55
   4  -6   3  376.39    7.92
  -4   6  -3  375.02    7.76
   4  -6   4  123.91    4.13
   4  -6   4  120.13    4.30
  -4   6  -4  122.49    4.38
  -4  -6  -5  213.09    5.36
   4  -6   5  213.68    5.56
   4  -6   5  223.43    6.49
  -4   6  -5  218.75    6.39
  -4  -6  -6   52.14    2.39
   4  -6   6   48.14    2.43
  -4   6  -6   54.78    3.33
  -4  -6  -7   61.64    2.47
   4  -6   7   59.26    2.65
  -4   6  -7   61.01    3.72
   4  -6   8   13.40    1.23
  -4  -6  -8   11.96    1.03
  -4   6  -8   10.65    1.96
  -4  -6  -8   17.77    2.52
  -4   6  -9   41.21    3.55
  -4  -6  -9   37.19    3.49
  -4   6 -10    9.56    2.19
  -4  -6 -10    3.46    1.84
  -4   6 -11   16.08    2.81
  -4  -6 -11   18.19    3.02
  -4   6 -11   15.26    2.29
  -4  -6 -12   12.32    2.93
  -4   6 -12    6.79    1.98
  -4   6 -12    7.85    2.13
   4  -7 -15    0.73    1.77
   4  -7 -14    3.80    1.66
   4  -7 -13    3.14    1.74
  -4  -7  12   14.45    1.88
   4  -7 -12   14.54    2.08
  -4  -7  11    2.67    1.17
   4  -7 -11    6.27    1.59
  -4  -7  10   50.01    3.15
   4  -7 -10   54.67    3.26
   4  -7  -9    9.62    1.54
  -4  -7   9   11.46    1.70
   4  -7  -9   12.45    1.67
  -4   7   9   11.26    0.99
  -4  -7   9   10.29    1.14
  -4  -7   8  150.02    5.40
   4  -7  -8  145.84    5.29
  -4  -7   8  140.56    4.11
  -4   7   8  154.35    4.08
   4  -7  -8  153.39    4.70
  -4  -7   7    2.16    1.10
   4  -7  -7    3.04    1.09
   4  -7  -7    2.62    0.81
  -4  -7   7    1.66    1.01
  -4  -7   7    1.45    0.74
  -4   7   7    2.40    0.82
   4  -7  -6  354.04    8.59
   4  -7  -6  355.04    6.76
  -4  -7   6  356.44    7.51
  -4   7   6  358.03    7.41
  -4  -7   6  361.92    8.54
   4  -7  -5   21.89    2.03
  -4  -7   5   19.70    1.86
  -4   7   5   19.01    1.64
  -4  -7   5   21.85    1.69
   4  -7  -4  308.52    7.74
  -4   7   4  303.30    6.98
  -4  -7   4  313.35    7.09
   4  -7  -3   42.64    2.76
  -4   7   3   39.67    2.40
  -4  -7   3   44.28    2.52
   4  -7  -2  220.37    6.20
  -4   7   2  203.36    5.81
  -4  -7   2  218.65    5.90
   4  -7  -1   47.85    2.75
  -4   7   1   50.22    2.86
  -4  -7   1   50.64    2.80
   4  -7  -1   47.46    1.75
   4  -7   0   86.72    3.71
   4  -7   0   85.72    2.61
   4  -7   1    3.48    1.02
   4  -7   1    5.05    0.90
   4  -7   2  281.34    6.97
   4  -7   2  258.36    5.92
   4  -7   3    7.11    1.29
  -4   7  -3    5.13    1.07
   4  -7   3    6.06    1.09
   4  -7   4  342.41    7.73
   4  -7   4  336.37    7.90
  -4   7  -4  338.58    7.91
   4  -7   5   65.26    3.44
   4  -7   5   70.84    3.21
  -4   7  -5   67.78    3.51
   4  -7   6   16.45    1.68
  -4  -7  -6   13.60    1.32
  -4   7  -6   17.07    2.09
  -4  -7  -7  141.72    4.12
   4  -7   7  135.12    4.32
  -4   7  -7  136.21    5.70
   4  -7   8   75.60    3.02
  -4  -7  -8   71.66    2.66
  -4   7  -8   80.67    4.60
  -4  -7  -9    5.40    2.10
  -4   7  -9    4.57    1.80
  -4  -7 -10   89.44    5.48
  -4   7 -10   82.59    4.89
  -4   7 -10   83.97    5.32
  -4   7 -11   17.21    2.91
  -4  -7 -11   19.49    3.09
  -4   7 -11   15.42    2.35
  -4   7 -12   19.53    2.92
  -4   7 -12   27.52    3.16
   4  -8 -15    1.71    1.72
   4  -8 -14    1.95    1.71
   4  -8 -13    8.54    1.86
  -4  -8  12    1.07    1.09
   4  -8 -12    4.03    1.68
  -4  -8  11    6.71    1.51
   4  -8 -11    9.57    1.79
  -4  -8  10    8.38    1.64
   4  -8 -10   13.85    1.84
  -4  -8   9   45.03    3.04
  -4  -8   9   37.77    2.22
  -4   8   9   48.59    2.22
   4  -8  -9   46.30    2.82
   4  -8  -8   75.70    3.27
  -4  -8   8   70.56    3.09
  -4   8   8   77.59    3.02
  -4  -8   8   79.56    3.96
   4  -8  -7  383.10    9.30
   4  -8  -7  375.68    7.68
  -4   8   7  384.97    7.87
  -4  -8   7  373.64    8.03
   4  -8  -6   10.22    1.67
  -4  -8   6   10.97    1.63
  -4   8   6    9.27    1.33
  -4  -8   6    8.23    1.20
   4  -8  -5  353.79    8.71
  -4  -8   5  366.59    8.01
  -4   8   5  354.61    7.90
  -4  -8   5  352.52    8.48
   4  -8  -4    2.27    1.15
  -4   8   4    1.92    0.87
  -4  -8   4    0.53    0.75
   4  -8  -3  250.61    6.98
  -4   8   3  235.31    6.41
  -4  -8   3  254.75    6.61
   4  -8  -2  147.05    5.13
  -4   8   2  138.45    4.83
  -4  -8   2  150.57    4.99
   4  -8  -1  337.08    8.11
  -4   8   1  335.40    8.09
  -4  -8   1  337.74    8.02
   4  -8  -1  313.63    5.88
   4  -8   0    3.63    0.73
   4  -8   0    3.59    1.11
  -4  -8   0    3.94    1.19
  -4   8   0    3.85    1.22
   4  -8   1  588.48   11.49
  -4  -8  -1  594.17   11.81
  -4   8  -1  591.53   11.93
   4  -8   1  559.91    9.68
   4  -8   2   13.53    1.37
   4  -8   2   13.43    1.63
  -4  -8  -2   13.27    1.71
  -4   8  -2   12.51    1.82
   4  -8   3  364.17    8.36
   4  -8   3  346.97    7.74
   4  -8   4   25.72    2.10
  -4   8  -4   22.16    2.00
   4  -8   4   21.27    1.87
   4  -8   5  713.60   12.95
   4  -8   5  710.11   13.64
  -4   8  -5  734.92   13.82
  -4   8  -6   33.63    2.78
   4  -8   6   31.76    2.27
   4  -8   7  322.37    7.54
  -4  -8  -7  333.26    7.28
  -4   8  -7  335.92    9.53
  -4   8  -7  354.80    9.57
  -4  -8  -8    1.28    0.70
  -4   8  -8    3.99    1.79
  -4   8  -8    3.24    1.44
  -4  -8  -9   90.74    5.48
  -4   8  -9   94.01    5.16
  -4   8  -9   95.11    5.41
  -4   8 -10    0.94    1.76
  -4  -8 -10    0.77    1.62
  -4   8 -10    0.77    1.54
  -4   8 -11   16.78    2.83
  -4  -8 -11   13.05    2.89
  -4   8 -11   11.44    2.19
  -4   8 -12   -1.81    1.54
   4  -9 -14   -1.56    1.79
   4  -9 -13    5.22    2.00
  -4  -9  12    4.30    1.30
   4  -9 -12    5.33    1.53
  -4  -9  11   35.15    2.85
   4  -9 -11   35.53    2.90
  -4  -9  10   -0.34    1.20
   4  -9 -10    0.71    1.11
   4  -9  -9   -2.31    1.26
  -4  -9   9    1.46    1.04
  -4   9   9    0.65    0.71
  -4  -9   9    0.57    0.85
   4  -9  -8   89.38    3.66
  -4  -9   8   81.20    3.52
  -4   9   8   94.75    3.57
   4  -9  -7  104.17    3.76
  -4   9   7  108.74    3.98
  -4  -9   7  103.67    4.07
  -4   9   6  325.79    7.61
  -4  -9   6  312.81    7.59
   4  -9  -5  129.48    5.08
  -4  -9   5  128.08    4.59
  -4   9   5  120.96    4.48
  -4  -9   5  127.47    4.96
   4  -9  -4  287.64    7.83
  -4  -9   4  287.38    7.28
  -4   9   4  270.05    7.11
   4  -9  -3   75.89    3.82
  -4  -9   3   78.82    3.66
  -4   9   3   73.16    3.56
   4  -9  -2  276.53    7.55
  -4   9   2  261.07    7.19
  -4  -9   2  275.05    7.29
   4  -9  -1    8.60    0.96
   4  -9  -1    9.56    1.54
  -4  -9   1    8.54    1.38
  -4   9   1    9.93    1.58
   4  -9   0  312.08    7.92
  -4   9   0  294.50    7.99
  -4  -9   0  308.45    8.00
   4  -9   0  284.53    6.06
   4  -9   1    3.63    0.83
   4  -9   1    4.14    1.24
  -4  -9  -1    4.14    1.12
  -4   9  -1    4.64    1.26
   4  -9   2  317.31    8.02
  -4   9  -2  324.59    8.65
   4  -9   2  300.19    6.91
   4  -9   3   21.96    2.09
   4  -9   3   20.99    1.87
  -4   9  -3   22.27    2.28
   4  -9   4  247.23    6.88
  -4   9  -4  260.15    7.90
   4  -9   4  245.35    6.83
   4  -9   5  125.37    4.74
  -4   9  -5  129.53    5.57
  -4   9  -5  129.69    5.11
   4  -9   6   15.48    1.77
  -4   9  -6   17.54    2.23
  -4   9  -6   18.86    2.30
   4  -9   7    4.05    1.22
  -4   9  -7    2.07    1.25
  -4   9  -7    5.49    1.69
  -4  -9  -8   60.65    2.83
  -4   9  -8   61.37    4.17
  -4   9  -8   64.33    4.32
  -4   9  -9   21.95    2.85
  -4   9  -9   16.28    2.39
  -4   9 -10   35.50    3.74
  -4  -9 -10   35.99    3.84
  -4   9 -10   34.52    3.39
  -4  -9 -11   21.68    3.55
  -4   9 -11   17.66    3.00
  -4   9 -11   22.54    2.91
  -4   9 -12    4.76    2.05
   4 -10 -14   44.39    3.93
   4 -10 -13   39.61    3.43
  -4 -10  12   23.00    2.53
   4 -10 -12   22.16    2.45
  -4 -10  11  125.05    5.49
   4 -10 -11  118.25    5.17
   4 -10 -10   -0.51    1.10
  -4 -10  10    1.60    1.19
   4 -10  -9  112.33    4.52
  -4 -10   9  106.57    4.24
  -4  10   9  122.20    4.16
  -4 -10   9  107.17    4.99
   4 -10  -8   87.89    3.75
  -4  10   8   93.43    3.78
  -4 -10   8   82.11    3.74
  -4  10   7   30.44    2.26
  -4 -10   7   26.68    2.23
  -4  10   6    7.05    1.35
  -4 -10   6    6.75    1.23
  -4 -10   5  246.57    6.92
  -4  10   5  246.49    6.85
  -4 -10   4   48.75    2.95
  -4  10   4   46.05    2.94
  -4 -10   3  237.22    6.81
  -4  10   3  222.02    6.68
  -4 -10   2  101.81    4.40
  -4  10   2  101.72    4.40
  -4  10   1  360.81    9.08
  -4 -10   1  382.84    9.23
   4 -10  -1  349.06    6.99
   4 -10   0    9.45    1.13
  -4 -10   0   13.41    1.90
  -4  10   0   10.68    1.65
  -4  10  -1  356.89    9.23
   4 -10   1  341.78    7.37
   4 -10   2   25.13    1.97
  -4  10  -2   25.48    2.45
  -4  10  -3  256.65    7.95
   4 -10   3  243.40    6.62
   4 -10   4   20.72    2.02
  -4  10  -4   20.73    2.43
   4 -10   5   57.91    3.34
  -4  10  -5   59.88    3.93
   4 -10   6    1.46    1.14
  -4  10  -6    1.38    1.36
   4 -10   7    1.55    1.14
  -4  10  -7    1.69    1.39
  -4  10  -7   -0.02    1.35
  -4  10  -8    9.17    2.18
  -4  10  -8   11.74    2.14
  -4  10  -9  104.89    5.62
  -4  10  -9   99.27    5.71
  -4 -10 -10   46.26    4.36
  -4  10 -10   36.66    3.70
  -4  10 -10   35.42    3.51
  -4  10 -11   29.86    3.74
  -4  10 -11   37.61    3.77
  -4  10 -12   12.59    2.44
   4 -11 -13    5.62    1.87
   4 -11 -12    0.29    1.30
  -4 -11  12   -0.15    1.84
   4 -11 -11   21.93    2.50
  -4 -11  11   19.09    2.46
   4 -11 -10   -0.59    1.36
  -4 -11  10    4.50    1.51
   4 -11  -9  125.93    4.89
  -4 -11   9  111.65    4.57
  -4  11   9  126.06    4.52
  -4  11   8   27.95    2.22
  -4 -11   8   28.48    2.32
  -4  11   7  235.27    6.72
  -4 -11   7  231.67    6.87
  -4 -11   6    4.13    1.23
  -4  11   6    3.48    1.27
  -4 -11   5    1.63    1.14
  -4  11   5    1.09    0.97
  -4 -11   4  355.66    8.96
  -4  11   4  355.11    8.96
  -4 -11   3   94.31    4.34
  -4  11   3   90.49    4.31
  -4  11   2  184.12    6.31
  -4  11   1  193.36    6.57
   4 -11  -1  181.39    4.87
  -4  11   0  315.37    8.68
   4 -11   0  310.07    6.92
  -4  11  -1  122.30    5.29
   4 -11   1  110.93    3.98
  -4  11  -2  300.67    8.73
   4 -11   2  282.04    7.08
   4 -11   3    3.28    1.13
  -4  11  -3    1.03    1.17
  -4  11  -4   81.14    4.55
   4 -11   4   80.34    3.96
  -4  11  -5   32.59    3.08
  -4  11  -6  201.99    7.61
  -4  11  -7    2.16    1.42
  -4  11  -8   14.64    2.27
  -4  11  -9    0.10    1.43
  -4  11 -10   74.59    5.06
  -4  11 -11   78.19    5.23
   4 -12 -12    1.64    1.71
  -4 -12  12    3.44    1.60
   4 -12 -11   13.90    2.29
  -4 -12  11   13.60    2.04
   4 -12 -10  111.09    4.92
   4 -12  -9   11.90    1.93
  -4  12   9   13.25    1.61
  -4  12   8  104.59    4.47
  -4  12   7   41.73    2.91
  -4  12   6   22.03    2.27
  -4  12   5    6.99    1.49
  -4  12   4  131.55    5.35
  -4  12   3  166.39    6.12
  -4  12   2   16.73    2.07
  -4  12   1  338.97    9.17
   4 -12  -1  310.14    7.07
   4 -12   0    6.40    1.15
  -4  12   0    6.86    1.51
  -4  12  -1  851.09   16.60
   4 -12   1  823.75   14.16
   4 -12   2   25.65    2.12
  -4  12  -2   25.16    2.71
   4 -12   3    4.15    1.12
  -4  12  -3    3.52    1.54
  -4  12  -4   45.42    3.65
  -4  12  -5  137.52    6.33
  -4  12  -6    3.19    1.57
  -4  12  -7   82.50    5.08
  -4  12  -8   10.51    2.22
  -4  12  -9    0.45    1.38
  -4  12 -10   27.47    3.20
  -4  12 -11   20.73    2.91
   4 -13 -12    4.59    1.62
  -4 -13  12    1.18    1.45
   4 -13 -11  134.62    5.81
  -4 -13  11  125.11    6.14
   4 -13 -10   65.37    3.91
  -4  13   9   65.25    3.58
  -4  13   8   33.95    2.70
  -4  13   7   89.93    4.39
  -4  13   6   29.94    2.66
  -4  13   5  147.01    5.87
  -4  13   4  348.64    9.48
  -4  13   3    2.53    1.28
  -4  13   2   59.94    3.85
   4 -13  -1   10.04    1.42
  -4  13   1   14.03    2.16
  -4  13   0   77.46    4.53
   4 -13   0   74.91    3.46
  -4  13  -1   40.79    3.32
   4 -13   1   43.93    2.73
   4 -13   2   20.38    2.00
  -4  13  -2   16.73    2.35
  -4  13  -3    6.51    1.72
  -4  13  -4   28.24    3.04
  -4  13  -5   13.41    2.30
  -4  13  -6    2.67    1.80
  -4  13  -7    3.66    1.88
  -4  13  -8    5.23    1.78
  -4  13  -9    0.14    1.57
  -4  13 -10   -0.48    1.51
  -4  13 -11   31.43    3.55
  -4 -14  12   12.34    2.17
   4 -14 -11    6.07    1.63
  -4 -14  11    5.20    1.77
   4 -14 -10   84.12    4.51
  -4  14   9    5.13    1.42
  -4  14   8  257.37    7.92
  -4  14   7    0.98    1.14
  -4  14   6  127.17    5.56
  -4  14   5   27.81    2.67
  -4  14   4    0.90    1.10
  -4  14   3   34.46    3.12
  -4  14   2  117.05    5.55
   4 -14  -1   14.38    1.71
  -4  14   1   20.39    2.50
  -4  14   0  181.14    7.08
   4 -14   0  175.28    5.63
  -4  14  -1   34.92    3.20
   4 -14   1   35.25    2.62
  -4  14  -2    1.08    1.33
  -4  14  -3    4.14    1.67
  -4  14  -4   71.46    4.65
  -4  14  -5    3.98    1.47
  -4  14  -6   21.39    2.96
  -4  14  -7    5.00    1.76
  -4  14  -8   19.09    2.94
  -4  14  -9    3.20    1.80
  -4  14 -10   19.01    2.84
  -4  14 -11    4.15    2.09
  -4 -15  12    5.87    1.91
   4 -15 -10   13.33    2.20
  -4  15   9   56.67    3.72
  -4  15   8    6.28    1.48
  -4  15   7   70.00    4.23
  -4  15   6    0.21    1.32
  -4  15   5   22.04    2.58
  -4  15   4   14.90    2.05
  -4  15   3   92.17    5.03
  -4  15   2   37.09    3.26
   4 -15  -1   -0.45    0.88
  -4  15   1    3.09    1.56
  -4  15   0   42.63    3.56
   4 -15   0   35.85    2.60
  -4  15  -1    6.76    1.94
  -4  15  -2    8.39    1.82
  -4  15  -3   80.04    5.05
  -4  15  -4   13.96    2.63
  -4  15  -5   60.27    4.55
  -4  15  -6   19.67    3.03
  -4  15  -7   18.29    2.73
  -4  15  -8    9.83    2.31
  -4  15  -9   26.87    3.42
  -4  15 -10    0.90    1.75
  -4  16   9   -1.48    1.30
  -4  16   8   78.31    4.62
  -4  16   7   12.38    2.17
  -4  16   6   18.36    2.54
  -4  16   5    3.14    1.66
  -4  16   4    3.72    1.50
  -4  16   3    7.49    2.02
  -4  16   2   22.90    2.78
  -4  16   1    0.30    1.29
  -4  16   0    0.53    1.39
  -4  16  -1    9.14    2.05
  -4  16  -2   20.41    2.81
  -4  16  -3   13.25    2.57
  -4  16  -4  100.28    5.92
  -4  16  -5   31.34    3.51
  -4  16  -6   -1.10    1.51
  -4  16  -7    6.05    2.28
  -4  16  -8    0.07    1.61
  -4  16  -9   32.70    3.72
  -4  17   9    7.91    1.81
  -4  17   8   -1.80    1.52
  -4  17   7   47.81    3.83
  -4  17   6   50.06    3.99
  -4  17   5   44.55    3.72
  -4  17   4    6.64    2.13
  -4  17   3   42.39    3.80
  -4  17   2   16.69    2.62
  -4  17   1   -1.17    1.55
  -4  17   0   50.57    4.24
  -4  17  -1    3.53    1.75
  -4  17  -2   50.06    4.32
  -4  17  -3    9.97    2.02
  -4  17  -4   51.78    4.50
  -4  17  -5   62.97    4.91
  -4  17  -6    0.81    1.56
  -4  17  -7    5.87    2.21
  -4  17  -8   19.57    3.07
  -4  18   9   -0.44    1.74
  -4  18   8   45.27    3.87
  -4  18   7   28.87    3.25
  -4  18   6   79.61    5.05
  -4  18   5   24.85    2.99
  -4  18   4  104.71    5.85
  -4  18   3   11.39    2.23
  -4  18   2   83.73    5.34
  -4  18   1   33.32    3.47
  -4  18   0   17.00    2.57
  -4  18  -1   11.43    2.27
  -4  18  -2   10.20    2.08
  -4  18  -3   10.02    2.13
  -4  18  -4    4.31    2.05
  -4  18  -5   -1.28    1.82
  -4  18  -6   12.75    2.73
  -4  18  -7   -1.67    1.85
  -4  19   8   43.71    3.94
  -4  19   7    1.72    1.62
  -4  19   6   29.86    3.35
  -4  19   5   14.95    2.60
  -4  19   4   13.34    2.36
  -4  19   3    3.03    1.69
  -4  19   2   25.54    3.43
  -4  19   1    7.12    2.28
  -4  19   0   53.11    4.50
  -4  19  -1   -0.48    1.64
  -4  19  -2   59.69    4.81
  -4  19  -3   10.86    2.55
  -4  19  -4    8.21    2.50
  -4  19  -5    1.61    1.80
  -4  20   8    1.96    1.92
  -4  20   7    3.44    1.71
  -4  20   6    0.94    1.62
  -4  20   5   69.24    5.14
  -4  20   4   -0.96    1.72
  -4  20   3   32.28    3.64
  -4  20   2    3.75    1.91
  -4  20   1  166.36    8.06
  -4  20   0    0.21    1.71
  -4  20  -1   81.29    5.75
  -4  20  -2    4.47    2.11
  -4  20  -3   48.40    4.74
  -4  21   8   11.27    2.49
  -4  21   7    1.23    1.66
  -4  21   6   13.51    2.97
  -4  21   5   16.55    2.69
  -4  21   4   42.69    4.18
  -4  21   3    0.82    1.74
  -4  21   2  113.49    6.83
  -4  21   1   11.97    2.64
  -4  21   0   89.89    6.04
   5   0 -15   42.04    3.96
   5   0 -14    0.92    1.52
   5   0 -13   75.64    4.68
  -5   0  12    0.95    1.10
   5   0 -12   -0.59    1.46
  -5   0  11   69.63    3.79
   5   0 -11   69.73    3.91
  -5   0  10   -1.63    0.97
   5   0 -10    0.39    1.07
  -5   0   9  189.97    6.15
  -5   0   9  186.54    5.54
   5   0  -9  177.82    5.51
  -5   0   8    1.71    1.00
  -5   0   8   -0.20    1.18
  -5   0   8    0.57    0.30
  -5   0   8    0.44    0.32
   5   0  -7  284.42    7.41
  -5   0   7  271.09    7.32
  -5   0   7  272.32    6.00
  -5   0   6    0.39    0.87
   5   0  -6    0.02    0.84
  -5   0   6    1.04    0.67
   5   0  -5  185.15    5.65
  -5   0   5  173.25    5.53
  -5   0   5  173.15    3.81
  -5   0   4    0.19    0.92
   5   0  -4    0.35    0.76
  -5   0   4    1.80    0.54
  -5   0   3  232.73    6.26
   5   0  -3  241.50    6.39
  -5   0   3  224.89    3.96
  -5   0   2    2.20    0.96
   5   0  -2    1.67    0.99
   5   0  -1  528.22   10.14
  -5   0   1  510.07    9.97
  -5   0   0    1.08    0.87
   5   0   0    1.16    0.79
  -5   0  -1  280.47    6.63
   5   0   1  272.86    6.54
   5   0   2    1.81    0.83
  -5   0  -2   -0.49    0.97
  -5   0  -2    2.14    0.95
   5   0   3   11.49    1.22
  -5   0  -3    9.98    1.23
  -5   0  -3   11.26    1.49
  -5   0  -4    0.53    0.69
  -5   0  -4    1.08    0.98
  -5   0  -5   96.87    3.37
  -5   0  -5   94.01    4.18
  -5   0  -6    0.26    1.20
  -5   0  -7   56.19    3.70
  -5   0  -8    1.18    1.36
  -5   0  -9   76.47    4.71
  -5   0 -10   -2.39    1.80
  -5   0 -11   26.06    3.40
  -5   0 -12    1.40    2.10
   5  -1 -15    3.65    1.90
   5   1 -15    1.94    1.67
   5  -1 -14    2.22    1.42
   5   1 -14    5.35    2.02
  -5  -1  13    6.29    1.34
   5  -1 -13    6.28    1.86
   5   1 -13    8.45    1.98
  -5  -1  12  107.81    4.71
   5  -1 -12  110.87    5.11
   5   1 -12  111.12    5.24
  -5  -1  11    8.99    1.41
  -5   1  11   15.46    1.98
   5  -1 -11   10.92    1.69
   5   1 -11   12.01    1.81
  -5  -1  10  120.18    4.88
  -5   1  10  124.88    5.04
  -5  -1  10  119.20    4.76
   5  -1 -10  117.87    4.64
   5   1 -10  121.00    4.87
   5  -1  -9   86.70    4.04
  -5  -1   9   88.74    4.05
  -5  -1   9   85.96    3.73
  -5   1   9   82.26    4.01
   5  -1  -9   80.65    3.53
  -5   1   8   95.40    4.20
  -5  -1   8   99.46    3.72
   5  -1  -8  106.71    4.36
  -5  -1   8  101.16    4.36
  -5  -1   8   93.20    2.04
  -5   1   8   87.36    1.91
   5  -1  -8   99.21    3.63
  -5   1   7  165.79    5.58
   5  -1  -7  171.78    5.59
  -5  -1   7  158.03    5.43
  -5  -1   7  165.54    3.61
  -5  -1   7  168.69    4.62
  -5  -1   6  208.48    6.19
   5  -1  -6  214.58    6.25
  -5   1   6  209.35    6.21
  -5   1   6  211.41    4.47
  -5  -1   6  203.82    4.87
   5   1  -5   87.32    3.80
   5  -1  -5   82.36    3.68
  -5  -1   5   76.07    3.59
  -5   1   5   78.35    3.61
  -5   1   5   82.11    2.23
  -5  -1   5   77.71    2.61
   5   1  -4  272.66    6.99
  -5  -1   4  261.44    6.85
   5  -1  -4  278.52    7.04
  -5   1   4  256.83    6.80
  -5  -1   4  258.72    4.97
  -5   1   4  266.73    4.16
   5   1  -3    1.78    0.88
   5  -1  -3    0.43    0.78
  -5  -1   3    1.09    0.93
  -5   1   3    0.65    0.87
  -5   1   3    1.35    0.34
   5  -1  -2  947.98   15.50
   5   1  -2  940.08   15.50
  -5  -1   2  937.76   15.40
  -5   1   2  926.13   15.38
   5  -1  -1   43.77    2.54
   5   1  -1   46.48    2.63
  -5  -1   1   40.81    2.48
  -5   1   1   44.96    2.55
   5  -1   0  631.73   11.41
  -5  -1   0  629.67   11.36
   5   1   0  642.59   11.49
  -5   1   0  634.69   11.43
  -5   1   0  622.36    9.19
  -5  -1  -1    4.45    0.98
   5  -1   1    5.67    1.00
  -5   1  -1    5.21    1.08
   5   1   1    5.91    1.08
  -5   1  -1    6.06    0.92
   5  -1   2  617.48   10.85
  -5  -1  -2  602.30   10.75
  -5   1  -2  605.39   10.83
  -5   1  -2  590.69   10.12
  -5  -1  -3   84.60    3.26
   5  -1   3   87.22    3.29
  -5   1  -3   79.32    3.22
  -5   1  -3   79.64    3.29
  -5  -1  -3   83.71    3.49
   5  -1   4   42.66    2.23
  -5   1  -4   45.12    2.37
  -5  -1  -4   40.01    2.19
  -5  -1  -4   43.18    2.70
  -5   1  -4   42.82    2.64
  -5  -1  -5   60.52    2.62
  -5  -1  -5   60.47    3.42
  -5   1  -5   61.68    3.38
  -5  -1  -6  102.29    4.69
  -5  -1  -6  109.20    3.42
  -5   1  -6  112.19    4.79
  -5  -1  -7   93.15    4.68
  -5   1  -7   95.23    4.72
  -5   1  -8   21.10    2.60
  -5  -1  -8   23.54    2.78
  -5   1  -9   36.02    3.35
  -5  -1  -9   40.38    3.53
  -5   1 -10   11.25    2.51
  -5  -1 -10    6.31    2.03
  -5   1 -11   24.27    3.25
  -5  -1 -11   22.76    3.14
  -5   1 -12    0.48    1.86
   5  -2 -15    4.89    1.98
   5  -2 -14    1.52    1.51
  -5  -2  13    6.14    1.41
   5  -2 -13    8.31    1.92
  -5  -2  12    0.32    1.24
   5  -2 -12    1.53    1.20
  -5  -2  11   38.10    2.82
   5  -2 -11   40.93    2.94
  -5   2  10   67.43    3.78
  -5  -2  10   67.47    3.64
   5  -2 -10   68.17    3.46
   5  -2  -9   57.22    3.29
  -5  -2   9   61.87    3.43
  -5   2   9   58.04    3.42
  -5  -2   9   59.33    3.18
   5  -2  -9   62.66    3.05
   5  -2  -8    0.15    0.82
  -5  -2   8    0.10    0.86
  -5   2   8    1.71    1.08
   5  -2  -8    0.63    0.80
  -5  -2   8    1.06    0.89
  -5   2   8    0.94    0.41
  -5  -2   8    0.18    0.39
  -5   2   7  664.38   12.81
   5  -2  -7  673.37   12.84
  -5  -2   7  659.20   12.76
  -5   2   7  664.33    9.85
  -5  -2   7  672.47    9.93
  -5  -2   7  667.63   11.49
   5  -2  -7  646.22   10.65
  -5   2   6   13.16    1.69
   5  -2  -6   12.46    1.54
  -5  -2   6   12.74    1.60
  -5  -2   6   14.46    1.39
   5  -2  -5  186.94    5.75
  -5  -2   5  177.92    5.64
  -5   2   5  186.05    5.75
  -5  -2   5  172.93    4.38
  -5  -2   4   31.64    2.30
   5  -2  -4   31.01    2.33
  -5   2   4   29.27    2.26
  -5  -2   4   27.66    1.57
   5  -2  -3 1218.20   18.82
  -5  -2   3 1184.97   18.65
  -5   2   3 1209.50   18.86
   5  -2  -2   26.40    2.08
  -5  -2   2   26.27    2.10
  -5   2   2   27.47    2.14
   5  -2  -1 1303.68   19.39
  -5  -2   1 1274.45   19.24
  -5   2   1 1311.72   19.44
  -5   2   1 1265.12   15.48
  -5  -2   0  215.84    5.79
   5  -2   0  224.76    5.92
  -5   2   0  219.32    5.88
  -5   2   0  217.70    4.12
  -5  -2  -1 1461.09   21.15
   5  -2   1 1477.45   21.31
  -5   2  -1 1467.96   21.29
  -5   2  -1 1460.35   19.35
   5  -2   2   18.57    1.61
  -5   2  -2   19.62    1.73
  -5  -2  -2   21.21    1.73
  -5   2  -2   21.44    1.57
   5  -2   3    5.39    0.96
  -5   2  -3    5.97    1.13
  -5  -2  -3    2.50    0.76
  -5   2  -3    3.33    1.06
   5  -2   4  143.70    4.28
  -5  -2  -4  139.95    4.20
  -5   2  -4  139.84    4.71
   5  -2   5  172.02    4.62
  -5  -2  -5  164.45    4.50
  -5  -2  -5  163.52    5.69
  -5   2  -5  163.72    5.51
   5  -2   6   20.54    1.50
  -5  -2  -6   22.50    1.60
  -5  -2  -6   19.28    2.25
  -5   2  -6   21.57    2.28
  -5  -2  -7   62.79    3.87
  -5  -2  -7   63.81    2.42
  -5   2  -7   67.90    4.05
  -5  -2  -8    2.87    1.63
  -5   2  -8    1.65    1.41
  -5  -2  -9    8.94    2.01
  -5   2  -9   11.37    2.19
  -5   2 -10    7.41    2.15
  -5  -2 -10   -0.80    1.66
  -5   2 -11    3.57    1.93
  -5  -2 -11    1.03    1.85
  -5   2 -12   -0.62    2.00
   5  -3 -15   13.17    2.48
   5  -3 -14   26.25    3.11
  -5  -3  13    3.16    1.26
   5  -3 -13    3.96    1.60
  -5  -3  12   18.99    2.21
   5  -3 -12   17.27    2.15
  -5  -3  11   20.94    2.17
   5  -3 -11   20.72    2.11
  -5  -3  10  155.58    5.69
   5  -3 -10  167.64    5.41
  -5   3   9    2.87    1.32
  -5  -3   9   -2.50    1.26
   5  -3  -9    0.48    0.80
  -5  -3   9    0.22    0.87
  -5   3   8    2.81    1.27
  -5  -3   8    0.43    1.10
   5  -3  -8    3.70    1.09
   5  -3  -8    3.00    0.89
  -5  -3   8    4.46    1.17
  -5  -3   8    3.25    0.60
  -5   3   8    3.14    0.59
   5  -3  -7   17.97    1.33
  -5  -3   7   17.06    1.66
  -5   3   7   19.03    2.04
   5  -3  -7   19.84    2.05
  -5  -3   7   16.15    1.83
  -5   3   7   17.59    1.24
  -5  -3   7   17.56    1.21
  -5   3   6   43.84    2.81
  -5  -3   6   40.72    2.72
   5  -3  -6   43.15    2.75
  -5  -3   6   40.09    1.92
  -5   3   6   38.96    1.95
  -5  -3   6   40.96    2.28
   5  -3  -6   38.39    1.66
   5  -3  -5    0.14    0.80
  -5  -3   5    0.80    0.92
  -5   3   5    2.01    1.04
  -5  -3   5    0.47    0.72
  -5  -3   4  135.62    4.83
   5  -3  -4  142.14    4.61
  -5   3   4  147.48    5.00
  -5  -3   4  134.74    3.82
  -5  -3   3  140.42    4.80
   5  -3  -3  150.64    4.98
  -5   3   3  140.12    4.85
  -5  -3   2  228.64    6.22
   5  -3  -2  230.25    6.25
  -5   3   2  227.13    6.24
  -5   3   1    5.96    1.23
  -5  -3   1    7.11    1.25
   5  -3  -1    6.80    1.18
  -5   3   1    5.75    0.43
  -5  -3   0   80.28    3.41
   5  -3   0   80.11    3.42
  -5   3   0   80.52    3.49
  -5   3   0   81.19    2.19
  -5  -3  -1    3.22    0.90
  -5   3  -1    3.83    1.18
   5  -3   1    3.97    0.84
  -5   3  -1    3.37    0.78
   5  -3   2   51.48    2.65
  -5  -3  -2   42.71    2.43
  -5   3  -2   53.37    2.78
  -5   3  -2   47.13    2.27
   5  -3   3    6.55    1.06
  -5  -3  -3    8.03    1.16
  -5   3  -3    7.92    1.24
  -5  -3  -4  223.73    5.59
   5  -3   4  224.42    5.66
  -5   3  -4  226.60    6.15
   5  -3   5   22.51    1.63
  -5  -3  -5   21.71    1.59
  -5   3  -5   23.67    2.21
   5  -3   6  215.24    5.23
  -5  -3  -6  215.37    5.16
  -5  -3  -6  214.46    6.99
  -5   3  -6  205.46    6.64
   5  -3   7   32.13    1.76
  -5  -3  -7   35.89    3.19
  -5  -3  -7   32.13    1.75
  -5   3  -7   37.16    3.05
  -5  -3  -8    2.11    1.43
  -5   3  -8    3.33    1.63
  -5  -3  -9   19.54    2.75
  -5   3  -9   17.84    2.68
  -5  -3 -10    7.06    2.11
  -5   3 -10    7.79    2.02
  -5   3 -11    5.57    1.88
  -5  -3 -11    5.09    2.42
   5  -4 -14   23.13    2.74
  -5  -4  13   13.47    2.05
   5  -4 -13    8.48    2.08
  -5  -4  12  105.88    4.85
   5  -4 -12  104.18    4.83
  -5  -4  11   34.42    2.78
   5  -4 -11   38.56    2.74
  -5  -4  10   48.87    3.17
   5  -4 -10   48.01    2.85
   5  -4  -9   23.11    1.89
  -5  -4   9   23.64    2.22
  -5  -4   9   20.42    1.01
  -5   4   9   20.77    0.72
   5  -4  -8   45.70    2.97
  -5  -4   8   42.28    2.88
  -5  -4   8   44.77    1.88
  -5   4   8   48.81    1.86
   5  -4  -8   46.06    2.35
  -5  -4   8   43.98    2.73
  -5   4   7  196.54    6.29
   5  -4  -7  206.63    6.32
  -5  -4   7  195.36    6.22
  -5  -4   7  197.25    4.62
  -5   4   7  194.79    4.52
  -5  -4   7  195.61    5.67
   5  -4  -7  195.36    4.51
  -5   4   6  553.34   11.42
  -5  -4   6  536.93   11.25
   5  -4  -6  565.74   11.39
  -5   4   6  555.22    9.46
  -5  -4   6  538.87    9.40
   5  -4  -6  545.17    8.26
  -5  -4   6  539.80   10.18
  -5   4   5   28.49    2.33
  -5  -4   5   29.87    2.35
   5  -4  -5   31.00    2.43
  -5  -4   5   28.93    1.82
  -5  -4   5   29.44    1.97
  -5  -4   4   53.70    3.09
   5  -4  -4   59.28    3.19
  -5   4   4   56.55    3.17
  -5  -4   3   62.84    3.24
   5  -4  -3   61.28    3.21
  -5   4   3   62.04    3.26
   5  -4  -2   19.72    1.83
  -5   4   2   16.62    1.82
  -5  -4   2   16.18    1.75
  -5  -4   1  250.61    6.62
   5  -4  -1  260.56    6.78
  -5   4   1  261.51    6.82
   5  -4   0   16.09    1.71
  -5   4   0   15.23    1.76
  -5  -4   0   11.96    1.54
  -5   4   0   14.09    0.96
   5  -4   1   53.75    2.84
  -5  -4  -1   48.67    2.65
  -5   4  -1   51.29    2.05
  -5  -4  -2   34.99    2.26
   5  -4   2   35.01    2.31
  -5   4  -2   38.53    2.05
  -5  -4  -3   31.53    2.13
   5  -4   3   32.38    2.19
  -5   4  -3   33.73    2.12
  -5  -4  -4   66.58    2.91
   5  -4   4   65.40    2.95
  -5   4  -4   64.36    3.19
  -5  -4  -5   92.01    3.36
   5  -4   5   92.40    3.46
  -5   4  -5   88.99    4.08
  -5  -4  -6  230.20    5.49
   5  -4   6  230.88    5.61
  -5   4  -6  227.30    7.05
   5  -4   7   19.28    1.52
  -5  -4  -7   17.64    1.36
  -5   4  -7   17.86    2.17
  -5  -4  -7   17.03    2.47
  -5  -4  -8    1.76    0.73
  -5   4  -8    0.86    1.42
  -5  -4  -8    3.49    1.78
  -5  -4  -9   60.88    4.37
  -5   4  -9   64.97    4.38
  -5  -4 -10   76.17    5.09
  -5   4 -10   70.99    4.90
  -5   4 -11    4.10    2.10
  -5  -4 -11    2.27    1.96
   5  -5 -14   -1.39    1.55
  -5  -5  13   57.77    3.71
   5  -5 -13   62.04    4.05
  -5  -5  12   11.05    1.89
   5  -5 -12    7.78    1.56
  -5  -5  11   69.86    3.95
   5  -5 -11   70.16    3.72
  -5  -5  10   89.06    4.33
   5  -5 -10   94.07    3.96
   5  -5  -9   10.87    1.34
  -5  -5   9    8.77    1.48
  -5   5   9   12.76    0.86
  -5  -5   9   11.36    0.92
  -5  -5   8  148.21    5.51
  -5   5   8  158.19    3.84
  -5  -5   8  145.88    3.88
  -5  -5   8  148.53    5.28
   5  -5  -8  154.92    4.33
  -5  -5   7  285.85    7.86
   5  -5  -7  308.99    8.07
  -5  -5   7  290.28    6.19
  -5   5   7  295.98    6.14
  -5  -5   7  290.52    7.39
   5  -5  -7  301.06    5.86
  -5  -5   6  225.38    6.79
   5  -5  -6  240.42    6.93
  -5   5   6  236.72    5.62
  -5  -5   6  227.29    5.53
  -5  -5   6  235.20    6.21
   5  -5  -6  231.75    4.41
   5  -5  -5   10.15    0.64
  -5  -5   5   11.72    1.44
   5  -5  -5   10.16    1.53
  -5  -5   5    9.49    1.55
  -5  -5   5   10.76    1.22
  -5   5   5   10.54    1.30
  -5  -5   4  299.95    7.78
   5  -5  -4  319.93    8.04
  -5  -5   3  115.26    4.49
   5  -5  -3  118.92    4.57
  -5  -5   2  316.08    7.90
   5  -5  -2  343.67    8.16
   5  -5  -1    1.19    0.95
  -5  -5   1    2.05    1.09
  -5  -5   0   81.22    3.60
   5  -5   0   87.65    3.79
   5  -5   1  102.10    4.05
  -5  -5  -1   97.52    3.91
  -5   5  -1   96.70    2.95
   5  -5   2  111.15    4.18
  -5  -5  -2  101.79    3.94
  -5   5  -2  112.78    3.52
  -5  -5  -3  111.68    4.04
   5  -5   3  115.85    4.18
  -5   5  -3  114.55    3.96
  -5  -5  -4   56.13    2.76
   5  -5   4   62.51    3.00
  -5   5  -4   58.88    3.04
  -5  -5  -5   52.95    2.64
   5  -5   5   53.25    2.71
  -5   5  -5   51.48    3.13
  -5  -5  -6  142.81    4.27
   5  -5   6  136.13    4.32
  -5   5  -6  145.60    5.52
  -5  -5  -7   49.94    2.30
   5  -5   7   50.04    2.45
  -5  -5  -7   51.17    3.83
  -5   5  -7   50.39    3.64
  -5  -5  -8   52.26    2.16
  -5  -5  -8   59.25    4.23
  -5   5  -8   53.68    3.90
  -5  -5  -9   58.64    4.39
  -5   5  -9   64.14    4.48
  -5  -5 -10   -0.42    1.82
  -5   5 -10    1.06    1.79
  -5  -5 -11   45.87    4.20
  -5   5 -11   42.97    4.05
   5  -6 -14   23.11    2.80
  -5  -6  13   -0.96    1.13
   5  -6 -13    0.92    1.40
  -5  -6  12   27.23    2.64
   5  -6 -12   27.96    2.65
  -5  -6  11   17.90    2.12
   5  -6 -11   24.70    2.34
  -5  -6  10   29.78    2.63
   5  -6 -10   26.72    2.14
   5  -6  -9    1.47    0.82
  -5  -6   9    0.88    0.85
  -5   6   9    1.57    0.65
  -5  -6   9    0.79    0.50
  -5  -6   8   65.26    3.68
  -5   6   8   67.09    2.60
  -5  -6   8   64.02    2.63
   5  -6  -8   67.74    2.82
  -5  -6   7   35.94    2.79
  -5  -6   7   31.64    1.97
  -5   6   7   35.62    2.04
   5  -6  -7   36.16    1.83
  -5  -6   7   33.40    2.45
  -5  -6   6   15.10    1.64
   5  -6  -6   15.68    1.05
   5  -6  -6   18.30    1.94
  -5  -6   6   15.48    1.90
  -5  -6   6   16.08    1.46
  -5   6   6   15.85    1.49
  -5  -6   5  185.38    6.10
   5  -6  -5  197.63    6.27
  -5   6   5  188.52    5.28
  -5  -6   5  195.54    5.37
   5  -6  -5  189.09    3.32
  -5  -6   5  186.33    5.53
   5  -6  -4    8.57    1.47
  -5  -6   4    7.41    1.33
  -5  -6   4   11.01    1.38
  -5   6   4    8.83    1.38
   5  -6  -3  158.10    5.44
  -5  -6   3  155.46    4.94
  -5  -6   3  145.01    5.22
  -5  -6   2   22.41    2.15
   5  -6  -2   25.14    2.13
  -5  -6   1    0.36    1.01
   5  -6  -1    0.64    0.89
  -5  -6   0  166.73    5.46
   5  -6   0  174.47    5.59
   5  -6   0  168.76    3.61
   5  -6   1    5.57    1.21
  -5  -6  -1    3.60    1.13
   5  -6   1    4.57    0.84
  -5  -6  -2   70.26    3.39
   5  -6   2   78.16    3.01
   5  -6   2   82.80    3.62
  -5   6  -2   80.87    3.03
  -5  -6  -3   30.44    2.18
   5  -6   3   30.97    2.29
   5  -6   3   31.53    2.16
  -5   6  -3   31.67    2.12
   5  -6   4   20.66    1.88
  -5  -6  -4   19.18    1.72
  -5   6  -4   21.05    1.93
   5  -6   4   15.99    1.85
   5  -6   5   14.70    1.59
  -5  -6  -5   13.41    1.49
  -5   6  -5   15.33    1.88
  -5  -6  -6  102.85    3.68
   5  -6   6   98.20    3.76
  -5   6  -6  100.99    4.63
  -5  -6  -7    7.57    1.12
   5  -6   7    7.50    1.28
  -5   6  -7    7.31    1.70
  -5  -6  -8    3.14    0.74
  -5  -6  -8    5.25    1.80
  -5   6  -8    2.79    1.37
  -5   6  -9   -1.14    1.45
  -5  -6  -9    1.41    1.74
  -5   6 -10   31.09    3.40
  -5  -6 -10   23.97    3.15
  -5  -6 -11   12.28    2.36
  -5   6 -11    7.91    2.20
  -5   6 -12   29.70    3.36
  -5  -7  13   47.06    3.49
   5  -7 -13   52.85    3.67
  -5  -7  12    2.00    1.46
   5  -7 -12   -1.69    1.57
  -5  -7  11   58.51    3.76
   5  -7 -11   53.04    3.28
  -5  -7  10   61.62    3.74
   5  -7 -10   66.98    3.39
   5  -7  -9   26.05    1.96
  -5  -7   9   22.13    2.23
  -5  -7   9   20.98    1.57
  -5   7   9   22.11    1.47
  -5  -7   8   98.07    4.62
  -5   7   8  103.63    3.50
  -5  -7   8   97.01    3.54
   5  -7  -8  103.03    3.51
  -5  -7   7    4.36    1.42
  -5  -7   7    1.62    0.84
   5  -7  -7    1.89    0.72
  -5   7   7    1.23    0.74
  -5  -7   7    2.56    0.94
  -5  -7   6   32.80    2.65
  -5  -7   6   35.08    2.23
  -5   7   6   36.44    2.27
  -5  -7   6   32.63    2.44
   5  -7  -6   37.84    1.64
   5  -7  -5    2.38    0.50
  -5  -7   5    0.58    0.76
  -5  -7   5    1.56    1.01
  -5  -7   5    2.49    0.79
  -5   7   5    3.10    1.00
   5  -7  -4   25.14    2.30
  -5  -7   4   25.21    2.34
  -5   7   4   28.49    2.25
  -5  -7   4   28.42    2.16
   5  -7  -4   27.00    0.89
   5  -7  -3  106.88    4.56
  -5   7   3   98.33    4.13
  -5  -7   3  101.85    4.06
   5  -7  -2    8.61    0.56
   5  -7  -2    8.41    1.31
  -5  -7   2    8.28    1.26
  -5   7   2   10.60    1.53
   5  -7  -1  102.27    4.31
   5  -7  -1   98.60    2.36
   5  -7   0    6.66    1.42
   5  -7   0    4.13    0.76
   5  -7   1  274.23    7.29
   5  -7   1  246.51    5.37
   5  -7   2   19.77    1.91
   5  -7   2   19.97    1.63
  -5  -7  -3  180.25    5.61
   5  -7   3  175.34    5.18
   5  -7   3  185.77    5.78
  -5   7  -3  181.63    5.27
  -5  -7  -4    0.91    0.77
   5  -7   4    2.78    1.02
  -5   7  -4    1.53    1.06
   5  -7   4    1.87    1.05
  -5  -7  -5  101.16    3.97
   5  -7   5  114.62    4.33
   5  -7   5  108.29    4.63
  -5   7  -5  107.84    4.58
  -5  -7  -6  133.73    4.44
   5  -7   6  138.79    4.75
  -5   7  -6  141.96    5.56
   5  -7   7    2.84    0.97
  -5  -7  -7    1.83    0.82
  -5   7  -7    0.65    1.38
  -5  -7  -8    8.43    1.08
  -5   7  -8    8.32    1.95
  -5  -7  -9   95.92    5.66
  -5   7  -9   97.23    5.48
  -5   7 -10    2.14    1.64
  -5  -7 -10    2.09    1.88
  -5  -7 -11   94.11    6.12
  -5   7 -11   95.31    5.68
  -5   7 -11  100.49    6.24
  -5   7 -12    7.22    2.06
  -5  -8  13    6.23    1.68
   5  -8 -13   -2.74    1.42
  -5  -8  12   73.38    4.30
   5  -8 -12   73.61    4.06
  -5  -8  11    2.85    1.31
   5  -8 -11    2.30    1.23
  -5  -8  10  170.18    6.49
  -5   8  10  177.69    4.23
   5  -8 -10  170.83    5.57
   5  -8  -9   12.15    1.52
  -5  -8   9   10.21    1.81
  -5   8   9   13.44    1.30
  -5  -8   9   11.06    1.34
  -5  -8   8  111.81    5.05
  -5   8   8  126.24    4.12
  -5  -8   8  108.01    4.02
   5  -8  -8  117.33    3.83
  -5  -8   7   31.60    2.73
  -5  -8   7   29.91    2.17
  -5   8   7   32.17    2.20
   5  -8  -7   31.03    1.78
   5  -8  -6   96.28    2.80
  -5  -8   6   88.69    4.37
  -5  -8   6   84.07    3.66
  -5   8   6   95.22    3.87
  -5  -8   6   94.48    4.24
   5  -8  -5   -0.62    0.49
  -5  -8   5    0.37    1.12
  -5  -8   5    1.41    0.88
  -5   8   5    1.12    1.00
  -5   8   4   41.20    2.73
  -5  -8   4   40.63    2.63
   5  -8  -3    2.18    0.47
  -5  -8   3    3.31    1.02
  -5   8   3    2.76    1.17
   5  -8  -2   20.18    2.06
  -5  -8   2   22.11    2.02
  -5   8   2   19.48    2.09
   5  -8  -2   18.21    0.95
   5  -8  -1  161.03    5.69
  -5  -8   1  164.52    5.62
  -5   8   1  157.50    5.64
   5  -8  -1  147.45    3.37
   5  -8   0   24.14    2.22
   5  -8   0   21.85    1.36
   5  -8   1   23.16    2.25
   5  -8   1   19.30    1.45
   5  -8   2  231.31    6.78
   5  -8   2  211.31    5.44
   5  -8   3   18.44    1.96
   5  -8   3   14.98    1.54
   5  -8   4  202.93    6.23
   5  -8   4  187.26    5.89
  -5   8  -4  202.39    6.11
   5  -8   5    1.17    0.92
  -5  -8  -5    1.70    0.93
  -5   8  -5    1.15    1.13
  -5  -8  -6  154.15    5.02
   5  -8   6  160.52    5.36
  -5   8  -6  160.27    6.06
   5  -8   7    5.06    1.24
  -5  -8  -7    4.37    1.00
  -5   8  -7    4.05    1.44
  -5  -8  -8  175.60    4.94
  -5   8  -8  175.25    7.08
  -5   8  -9    2.70    1.92
  -5  -8  -9    1.67    1.66
  -5   8  -9    3.89    1.56
  -5  -8 -10   92.38    5.93
  -5   8 -10   80.98    5.27
  -5   8 -10   91.08    5.60
  -5   8 -11    2.06    1.98
  -5   8 -11    2.26    1.67
  -5   8 -12   47.52    4.32
  -5  -9  13   35.09    3.08
  -5  -9  12    9.06    1.92
   5  -9 -12   10.19    1.96
  -5  -9  11   60.57    3.94
   5  -9 -11   67.36    3.73
  -5  -9  10   32.09    2.82
   5  -9 -10   32.58    2.44
   5  -9  -9   26.63    2.08
  -5  -9   9   25.03    2.54
  -5   9   9   28.10    2.01
  -5  -9   9   22.76    1.97
  -5  -9   8  152.62    6.05
  -5   9   8  168.13    5.09
  -5  -9   8  151.65    5.05
   5  -9  -8  155.77    4.60
  -5  -9   7   10.43    1.81
   5  -9  -7   10.67    1.20
  -5  -9   7   12.15    1.58
  -5   9   7   13.75    1.59
   5  -9  -6   37.82    1.84
  -5  -9   6   36.77    2.53
  -5   9   6   39.26    2.64
  -5   9   5    3.39    1.23
  -5  -9   5    5.23    1.23
  -5  -9   4    1.65    1.00
  -5   9   4    1.89    1.09
   5  -9  -3    1.12    0.47
  -5  -9   3   -1.05    0.97
  -5   9   3    2.17    1.21
  -5   9   2   72.63    3.83
  -5  -9   2   83.49    4.01
   5  -9  -2   69.87    2.21
   5  -9  -1   13.83    1.11
  -5   9   1   14.56    1.93
   5  -9   0    9.32    1.06
  -5   9   0    9.82    1.75
  -5   9  -1   73.29    4.08
   5  -9   1   69.24    2.81
   5  -9   2    1.35    0.89
  -5   9  -2   -0.40    1.27
   5  -9   3  291.33    7.93
  -5   9  -3  298.83    8.82
   5  -9   3  279.76    7.07
   5  -9   4   75.84    3.69
   5  -9   4   86.93    4.10
  -5   9  -4   87.70    4.75
   5  -9   5    1.35    1.09
  -5   9  -5    2.21    1.15
  -5   9  -5    1.26    1.27
  -5  -9  -6   30.60    2.32
   5  -9   6   29.94    2.42
  -5   9  -6   31.84    2.79
  -5   9  -6   30.83    3.10
  -5  -9  -7  122.57    4.47
  -5   9  -7  121.39    6.11
  -5   9  -7  125.05    5.75
  -5  -9  -8    3.25    1.03
  -5   9  -8    1.01    1.54
  -5   9  -8    1.92    1.55
  -5   9  -9  114.23    6.12
  -5   9  -9  112.30    6.01
  -5   9 -10   11.80    2.72
  -5  -9 -10    6.89    2.02
  -5   9 -10   13.63    2.45
  -5   9 -11   64.60    4.87
  -5   9 -11   68.84    5.20
  -5   9 -12    0.25    1.74
  -5 -10  12   18.94    2.38
  -5 -10  11   -0.41    1.26
   5 -10 -11    1.73    1.15
  -5 -10  10   69.42    4.26
   5 -10 -10   77.99    3.71
  -5 -10   9   66.45    4.10
  -5  10   9   69.29    3.25
   5 -10  -9   63.91    3.16
  -5 -10   8    1.72    1.02
   5 -10  -8    5.07    1.05
  -5 -10   8    4.95    1.22
  -5  10   8    6.26    1.19
   5 -10  -7   61.38    2.69
  -5  10   7   58.99    3.22
  -5 -10   7   53.85    3.17
  -5 -10   6   70.25    3.66
  -5  10   6   71.57    3.66
  -5 -10   5   81.62    3.95
  -5  10   5   81.40    3.97
  -5  10   4   13.92    1.83
  -5 -10   4   16.94    1.99
  -5  10   3   26.95    2.51
   5 -10  -2    2.39    0.66
  -5  10   2    3.07    1.24
  -5  10   1  161.53    6.02
   5 -10  -1  158.39    4.04
   5 -10   0   26.45    1.76
  -5  10   0   28.06    2.67
  -5  10  -1   32.79    2.95
   5 -10   1   32.08    2.05
   5 -10   2   29.91    2.12
  -5  10  -2   33.96    3.03
   5 -10   3   21.21    2.01
  -5  10  -3   19.30    2.39
  -5  10  -4  113.16    5.52
   5 -10   4   97.51    4.33
  -5  10  -5   18.17    2.53
  -5  10  -6    9.95    2.05
  -5 -10  -7   20.68    1.96
  -5  10  -7   15.42    2.26
  -5  10  -7   24.62    3.05
  -5  10  -8   30.68    3.27
  -5  10  -8   25.55    3.10
  -5  10  -9   12.48    2.71
  -5  10  -9   12.70    2.47
  -5 -10 -10   23.41    3.21
  -5  10 -10   23.56    3.15
  -5  10 -10   18.19    2.77
  -5  10 -11    3.16    2.06
  -5 -11  12    1.74    1.54
  -5 -11  11   42.26    3.49
   5 -11 -11   49.33    3.29
  -5 -11  10   38.19    3.33
   5 -11 -10   44.08    2.87
   5 -11  -9  123.14    4.52
  -5  11   9  129.72    4.72
  -5 -11   9  112.41    5.52
   5 -11  -8   42.93    2.50
  -5  11   8   43.54    2.81
  -5 -11   8   41.85    2.90
  -5 -11   8   41.55    3.37
   5 -11  -7  160.89    4.68
  -5  11   7  169.93    5.75
  -5 -11   7  150.50    5.60
  -5  11   6   85.45    4.16
  -5  11   5    1.39    1.15
  -5  11   4  323.64    8.77
  -5  11   3   -0.23    1.04
  -5  11   2   98.87    4.77
   5 -11  -2   97.07    3.15
   5 -11  -1    3.39    0.83
  -5  11   1    1.98    1.23
  -5  11   0  567.98   12.83
   5 -11   0  524.62    9.67
  -5  11  -1   45.84    3.54
   5 -11   1   39.30    2.33
  -5  11  -2  377.59   10.42
   5 -11   2  350.69    8.12
   5 -11   3    2.92    1.01
  -5  11  -3    5.09    1.51
  -5  11  -4   28.50    3.08
  -5  11  -5   14.37    2.35
  -5  11  -6   19.56    2.63
  -5  11  -7   91.40    5.54
  -5  11  -8   76.53    5.12
  -5  11  -9  210.83    8.68
  -5  11 -10   16.08    2.72
  -5  11 -11   56.11    4.64
  -5 -12  12   90.50    5.24
  -5 -12  11    5.08    1.82
   5 -12 -10   53.11    3.27
  -5 -12  10   46.66    3.69
   5 -12  -9   35.97    2.56
  -5  12   9   34.89    2.64
  -5 -12   9   30.85    3.03
   5 -12  -8   97.41    3.86
  -5  12   8   99.31    4.46
  -5  12   7  120.20    5.06
  -5  12   6    2.58    1.24
  -5  12   5   15.77    2.09
  -5  12   4   17.08    2.20
  -5  12   3    3.02    1.23
   5 -12  -2   -0.19    0.70
  -5  12   2    0.44    1.14
  -5  12   1  138.86    5.93
   5 -12  -1  135.88    4.18
  -5  12   0   58.75    3.93
   5 -12   0   55.84    2.74
  -5  12  -1   68.87    4.27
   5 -12   1   64.85    3.14
  -5  12  -2  105.14    5.42
   5 -12   2   91.72    3.98
   5 -12   3    0.33    0.93
  -5  12  -3    0.12    1.34
  -5  12  -4   54.36    4.11
  -5  12  -5    8.30    1.93
  -5  12  -6    4.48    1.89
  -5  12  -7    5.44    1.99
  -5  12  -8   21.59    2.91
  -5  12  -9   13.61    2.59
  -5  12 -10  109.89    6.43
  -5  12 -11    0.27    1.82
  -5 -13  12   61.38    4.41
  -5 -13  11    4.79    1.71
  -5 -13  10   53.47    4.10
   5 -13  -9    3.05    1.26
  -5  13   9    4.18    1.18
  -5  13   8  116.17    5.06
  -5  13   7   11.10    1.77
  -5  13   6  233.11    7.62
  -5  13   5    1.02    1.38
  -5  13   4    2.70    1.27
  -5  13   3   67.13    4.16
  -5  13   2  107.65    5.29
   5 -13  -2   91.31    3.52
   5 -13  -1   24.85    1.94
  -5  13   1   25.15    2.69
  -5  13   0  329.86    9.87
   5 -13   0  314.18    7.41
   5 -13   1   17.83    1.78
  -5  13  -1   19.90    2.58
  -5  13  -2  110.34    5.72
   5 -13   2   96.24    4.23
  -5  13  -3    1.34    1.35
  -5  13  -4   48.47    4.15
  -5  13  -5    1.66    1.66
  -5  13  -6   22.59    2.87
  -5  13  -7   50.12    4.42
  -5  13  -8   75.17    5.31
  -5  13  -9    0.18    1.50
  -5  13 -10   17.81    2.89
  -5 -14  12    0.22    1.33
  -5 -14  11   13.92    2.35
  -5 -14  10    0.60    1.23
  -5  14   9  215.81    7.19
  -5  14   8   -0.82    1.13
  -5  14   7  112.38    5.31
  -5  14   6   26.90    2.76
  -5  14   5  255.74    8.40
  -5  14   4   33.73    3.12
  -5  14   3   73.98    4.52
   5 -14  -2   13.61    1.55
  -5  14   2   14.05    2.34
  -5  14   1  483.37   12.46
   5 -14  -1  456.88    9.57
   5 -14   0    0.55    1.03
  -5  14   0    0.87    1.27
  -5  14  -1  190.17    7.65
   5 -14   1  184.82    5.91
  -5  14  -2    2.92    1.85
  -5  14  -3  161.80    7.22
  -5  14  -4   -0.82    1.46
  -5  14  -5   74.56    5.08
  -5  14  -6    7.61    2.32
  -5  14  -7   29.04    3.43
  -5  14  -8   36.81    3.86
  -5  14  -9   64.79    5.18
  -5 -15  12    6.29    1.79
  -5 -15  11   -0.04    1.56
  -5  15   9    1.72    1.16
  -5  15   8   94.78    4.96
  -5  15   7    2.50    1.37
  -5  15   6  140.46    6.20
  -5  15   5   17.99    2.37
  -5  15   4  164.44    6.91
  -5  15   3    9.86    2.07
   5 -15  -2   24.52    2.16
  -5  15   2   27.87    3.00
   5 -15  -1    0.22    0.95
  -5  15   1    0.00    1.31
  -5  15   0  164.41    7.21
   5 -15   0  163.53    5.54
  -5  15  -1    1.23    1.47
  -5  15  -2  121.51    6.29
  -5  15  -3   65.93    4.85
  -5  15  -4   31.23    3.41
  -5  15  -5    5.07    1.82
  -5  15  -6    7.94    2.04
  -5  15  -7   11.07    2.41
  -5  15  -8   77.83    5.57
  -5 -16  11   35.23    3.72
  -5  16   9  186.53    7.17
  -5  16   8    5.57    1.88
  -5  16   7  100.83    5.33
  -5  16   6   17.79    2.42
  -5  16   5  135.94    6.44
  -5  16   4    1.82    1.54
  -5  16   3  145.30    6.84
  -5  16   2  125.32    6.31
  -5  16   1   38.56    3.71
  -5  16   0    1.28    1.83
  -5  16  -1   13.22    2.41
  -5  16  -2    2.53    1.43
  -5  16  -3   89.04    5.67
  -5  16  -4    2.19    1.84
  -5  16  -5   59.59    4.78
  -5  16  -6    4.42    1.85
  -5  16  -7   29.82    3.62
  -5  17   8   83.06    5.07
  -5  17   7    0.90    1.35
  -5  17   6   85.86    5.23
  -5  17   5    2.57    1.77
  -5  17   4   76.90    4.99
  -5  17   3   43.23    3.88
  -5  17   2   28.70    3.22
  -5  17   1    3.31    1.70
  -5  17   0   57.81    4.57
  -5  17  -1   64.72    4.87
  -5  17  -2  102.07    6.22
  -5  17  -3   28.89    3.52
  -5  17  -4   69.68    5.27
  -5  17  -5    7.21    2.14
  -5  17  -6   45.41    4.58
  -5  18   8    5.16    1.84
  -5  18   7   64.01    4.62
  -5  18   6    0.61    1.39
  -5  18   5  125.35    6.57
  -5  18   4    2.87    2.88
  -5  18   3  151.77    7.31
  -5  18   2   10.65    2.11
  -5  18   1  112.90    6.41
  -5  18   0   13.98    2.87
  -5  18  -1   89.61    5.84
  -5  18  -2    5.30    2.11
  -5  18  -3  185.72    8.60
  -5  18  -4   27.74    3.71
  -5  19   8    9.63    2.35
  -5  19   7    5.28    1.83
  -5  19   6   38.00    3.93
  -5  19   5    2.78    1.88
  -5  19   4   37.48    3.81
  -5  19   3    1.40    1.59
  -5  19   2    6.69    2.16
  -5  19   1    2.18    1.92
  -5  19   0   22.21    3.04
  -5  19  -1    3.45    1.80
  -5  19  -2   48.96    4.58
  -5  19  -3   14.89    3.02
  -5  20   8   55.12    4.61
  -5  20   7   13.76    2.68
  -5  20   6   16.19    3.10
  -5  20   5   26.52    3.52
  -5  20   4    2.58    1.52
  -5  20   3   22.26    3.08
  -5  20   2    2.84    1.77
  -5  20   1    9.83    2.45
  -5  20   0   -0.62    1.65
  -6   0  13   -1.17    1.10
  -6   0  12    2.70    1.32
  -6   0  11    4.28    1.59
  -6   0  10   28.80    2.69
  -6   0   9    0.36    0.92
  -6   0   9    0.97    1.06
  -6   0   9   -0.73    0.35
  -6   0   9   -0.16    0.35
  -6   0   8   -0.06    1.14
  -6   0   8    1.80    0.95
  -6   0   7   -1.32    1.31
  -6   0   7    0.73    0.69
  -6   0   6   26.64    2.47
  -6   0   6   23.34    1.41
  -6   0   5   -0.75    1.13
  -6   0   5    1.24    0.54
   6   0  -4   14.86    1.74
  -6   0   4   14.30    1.80
  -6   0   4   15.47    0.93
  -6   0   3   -0.14    1.01
   6   0  -3    0.13    0.89
  -6   0   3    0.32    0.44
   6   0  -2   33.88    2.49
  -6   0   2   32.43    2.44
  -6   0   1    0.99    0.95
   6   0  -1   -0.14    0.96
  -6   0   0   46.45    2.84
   6   0   0   45.33    2.75
   6   0   1    2.25    0.95
  -6   0  -1   -0.24    1.13
  -6   0  -1    3.04    1.01
   6   0   2   40.18    2.54
  -6   0  -2   38.36    2.47
  -6   0  -2   38.01    2.27
  -6   0  -3    0.87    0.93
  -6   0  -3    0.28    0.99
  -6   0  -4   10.78    1.44
  -6   0  -4    9.76    1.56
  -6   0  -5    1.03    0.80
  -6   0  -5    0.57    1.18
  -6   0  -6   80.22    4.26
  -6   0  -7    0.37    1.36
  -6   0  -8  361.88   10.46
  -6   0  -9    0.81    1.60
  -6   0 -10  132.31    6.86
  -6   0 -11    1.85    1.91
   6  -1 -14    0.14    1.37
  -6  -1  13   37.67    3.11
   6  -1 -13   37.04    3.11
  -6   1  12    1.99    1.52
  -6  -1  12    1.76    1.23
   6  -1 -12    1.21    1.19
  -6   1  11   71.16    4.17
  -6  -1  11   69.67    4.10
  -6  -1  10  176.10    6.51
  -6   1  10  188.26    6.71
  -6  -1  10  177.00    5.70
  -6  -1   9   14.58    1.69
  -6  -1   9   11.72    1.83
  -6   1   9   15.24    2.09
  -6   1   9   11.04    0.67
  -6   1   9   12.07    0.66
  -6  -1   9   11.70    0.72
  -6   1   8  187.88    6.54
  -6  -1   8  182.14    5.09
  -6  -1   8  184.27    4.12
  -6  -1   8  195.22    6.64
  -6  -1   7   15.15    1.96
  -6   1   7   12.07    1.78
  -6  -1   7   12.98    1.31
  -6  -1   6   79.19    4.06
  -6   1   6   83.62    4.15
  -6  -1   6   86.88    2.90
  -6  -1   5  205.73    6.54
  -6   1   5  207.83    6.60
  -6   1   5  210.49    3.66
  -6  -1   5  205.61    4.50
   6  -1  -4  430.87    9.87
   6   1  -4  437.60    9.95
  -6  -1   4  422.64    9.78
  -6   1   4  431.21    9.87
  -6  -1   4  411.78    6.93
  -6   1   4  418.10    5.56
   6   1  -3   10.89    1.63
  -6  -1   3   10.65    1.65
   6  -1  -3   12.49    1.77
  -6   1   3   12.47    1.62
   6  -1  -2   87.57    3.99
   6   1  -2   86.70    3.92
  -6  -1   2   87.45    3.99
  -6   1   2   81.64    3.86
   6  -1  -1  282.34    7.38
   6   1  -1  283.76    7.42
  -6  -1   1  267.60    7.29
  -6   1   1  273.58    7.37
  -6   1   1  275.40    4.76
   6  -1   0  117.70    4.53
   6   1   0  122.57    4.59
  -6  -1   0  113.91    4.44
  -6   1   0  113.36    3.05
  -6   1   0  108.85    4.38
   6  -1   1  444.40    9.50
  -6  -1  -1  425.18    9.32
  -6   1  -1  426.67    9.36
  -6   1  -1  423.74    7.76
  -6  -1  -2   12.35    1.60
  -6   1  -2   14.77    1.68
   6  -1   2   10.87    1.44
  -6   1  -2   12.44    1.36
   6  -1   3  283.69    7.04
  -6  -1  -3  282.19    7.02
  -6   1  -3  285.46    7.12
  -6  -1  -3  285.46    7.11
  -6   1  -3  281.84    6.86
   6  -1   4    5.16    0.99
  -6   1  -4    4.21    1.17
  -6  -1  -4    2.80    0.94
  -6  -1  -4    6.31    1.51
  -6   1  -4    5.88    1.37
  -6  -1  -5   36.39    2.79
  -6  -1  -5   37.00    2.33
  -6   1  -5   32.04    2.64
  -6  -1  -6    0.24    0.83
  -6  -1  -6    1.58    1.47
  -6   1  -6    0.54    1.19
  -6   1  -7  201.77    7.18
  -6  -1  -7  195.21    7.14
  -6   1  -8   11.32    2.21
  -6  -1  -8    8.49    2.15
  -6   1  -9   77.92    4.89
  -6  -1  -9   76.26    4.91
  -6   1 -10    0.72    1.83
  -6  -1 -10   -1.79    1.98
  -6   1 -11   64.18    4.96
  -6  -1 -11   64.80    5.04
  -6  -2  13    0.64    1.15
   6  -2 -13    2.93    1.45
  -6  -2  12  103.91    5.04
   6  -2 -12  100.44    4.73
  -6  -2  11   29.61    2.65
  -6   2  11   41.52    3.28
   6  -2 -11   43.33    2.91
  -6   2  10   54.08    3.63
  -6  -2  10   54.99    3.64
  -6  -2  10   59.99    3.38
   6  -2 -10   55.55    3.11
  -6   2   9   53.58    3.56
  -6  -2   9   57.51    3.08
  -6  -2   9   49.81    3.39
  -6  -2   9   45.72    1.56
  -6   2   9   47.93    1.49
  -6  -2   8    5.47    1.16
  -6  -2   8    6.02    1.50
  -6   2   8    6.92    1.71
  -6  -2   8    3.68    0.71
  -6   2   8    5.27    0.84
  -6  -2   7    6.58    1.48
  -6   2   7    8.25    1.64
  -6  -2   7    8.60    1.21
  -6  -2   6   34.91    2.76
  -6   2   6   38.31    2.89
  -6  -2   6   36.53    2.04
  -6  -2   5   50.14    3.21
  -6   2   5   52.72    3.28
  -6  -2   5   51.68    2.26
   6  -2  -4   13.79    1.76
  -6  -2   4   16.68    1.97
  -6   2   4   16.92    1.97
  -6  -2   4   14.42    1.21
   6  -2  -3    3.96    1.01
  -6  -2   3    4.60    1.18
  -6   2   3    5.50    1.42
   6  -2  -2   71.56    3.63
  -6  -2   2   64.38    3.39
  -6   2   2   70.14    3.59
   6  -2  -1    9.39    1.39
  -6  -2   1    6.54    1.42
  -6   2   1    3.97    1.20
  -6   2   1    7.29    0.65
   6  -2   0  491.31   10.20
  -6  -2   0  467.23    9.99
  -6   2   0  461.67   10.01
  -6   2   0  465.04    7.44
   6  -2   1   11.03    1.56
  -6  -2  -1    9.97    1.40
  -6   2  -1    9.42    1.46
  -6   2  -1   12.13    1.25
   6  -2   2  114.67    4.34
  -6  -2  -2  107.73    4.20
  -6   2  -2  113.22    4.39
  -6   2  -2  107.73    3.62
  -6  -2  -3    0.27    0.80
  -6   2  -3    0.59    0.89
   6  -2   3    0.36    0.79
  -6   2  -3    0.58    0.91
   6  -2   4  159.24    5.03
  -6  -2  -4  154.12    5.49
  -6  -2  -4  158.47    5.01
  -6   2  -4  156.06    5.25
   6  -2   5   47.11    2.58
  -6  -2  -5   47.09    3.17
  -6  -2  -5   43.27    2.50
  -6   2  -5   42.88    2.94
  -6  -2  -6   33.65    2.94
  -6   2  -6   30.40    2.74
  -6  -2  -6   31.87    2.11
  -6  -2  -7    2.24    0.77
  -6  -2  -7   -0.39    1.52
  -6   2  -7    3.61    1.61
  -6   2  -8  204.03    7.65
  -6  -2  -8  208.36    7.87
  -6   2  -9   21.12    2.75
  -6  -2  -9   24.40    3.04
  -6   2 -10  148.02    7.06
  -6  -2 -10  147.23    7.23
  -6   2 -11    2.51    1.92
  -6  -2 -11    0.12    1.94
  -6  -3  13   24.75    2.59
   6  -3 -13   24.14    2.60
  -6  -3  12    6.72    1.48
   6  -3 -12   10.46    1.77
  -6  -3  11   12.97    2.02
   6  -3 -11   13.93    1.79
  -6  -3  10   22.41    2.36
  -6   3  10   26.51    2.66
   6  -3 -10   23.66    1.97
  -6  -3   9    7.80    1.58
  -6   3   9   11.08    1.93
   6  -3  -9    6.19    1.10
  -6  -3   9    7.82    1.35
  -6  -3   9    7.59    0.80
  -6   3   9    6.26    0.72
  -6   3   8  193.57    6.73
  -6  -3   8  195.06    6.72
  -6   3   8  198.12    4.56
  -6  -3   8  187.85    4.51
  -6  -3   8  195.37    5.69
  -6   3   7   34.33    2.80
  -6  -3   7   40.12    2.95
  -6   3   7   38.13    2.05
  -6  -3   7   37.40    1.98
  -6  -3   7   36.89    2.29
  -6  -3   6  115.94    4.94
  -6   3   6  117.60    5.01
  -6  -3   6  110.20    3.75
  -6   3   5    3.83    1.42
  -6  -3   5    1.17    0.97
  -6  -3   5    1.23    0.73
  -6   3   4    1.71    1.09
  -6  -3   4   -0.01    1.03
   6  -3  -3   16.73    1.93
  -6   3   3   21.34    2.18
  -6  -3   3   16.33    1.86
  -6   3   2   11.20    1.71
   6  -3  -2    8.79    1.44
  -6  -3   2   10.46    1.63
   6  -3  -1   32.15    2.41
  -6  -3   1   29.90    2.40
  -6   3   1   30.30    2.48
  -6   3   1   27.67    0.96
  -6  -3   0  134.80    4.90
   6  -3   0  139.72    4.98
  -6   3   0  134.14    4.98
  -6   3   0  132.10    3.10
  -6  -3  -1   12.95    1.65
  -6   3  -1   11.05    1.67
   6  -3   1   12.74    1.55
  -6   3  -1   11.58    1.10
   6  -3   2   12.45    1.52
  -6   3  -2   14.67    1.84
  -6  -3  -2   11.29    1.52
  -6   3  -2   13.44    1.38
  -6  -3  -3   23.92    1.98
   6  -3   3   23.87    2.04
  -6   3  -3   26.83    2.00
  -6  -3  -4    0.11    0.80
   6  -3   4    1.49    0.83
  -6   3  -4    1.25    1.12
  -6  -3  -5    6.21    1.15
   6  -3   5    4.08    0.95
  -6   3  -5    6.01    1.52
  -6  -3  -5    5.35    1.66
   6  -3   6  121.22    4.18
  -6  -3  -6  126.43    5.57
  -6  -3  -6  123.51    4.16
  -6   3  -6  127.23    5.36
  -6  -3  -7   52.99    2.59
  -6  -3  -7   50.84    3.76
  -6   3  -7   51.26    3.64
  -6  -3  -8   14.64    2.42
  -6   3  -8    9.97    2.04
  -6   3  -9   79.83    5.00
  -6  -3  -9   72.75    4.84
  -6   3 -10   12.29    2.45
  -6  -3 -10   13.43    2.72
  -6   3 -11   28.54    3.48
  -6  -3 -11   29.49    3.72
  -6  -4  13    2.89    1.84
  -6  -4  12   21.26    2.43
   6  -4 -12   24.84    2.36
  -6  -4  11  103.27    5.05
   6  -4 -11  110.43    4.47
  -6  -4  10    1.70    0.98
   6  -4 -10    0.35    0.89
  -6  -4   9  289.52    8.56
  -6   4   9  306.53    5.44
  -6  -4   9  277.57    5.55
  -6  -4   9  287.09    7.79
   6  -4  -9  297.98    6.62
  -6   4   8   67.27    4.00
  -6  -4   8   58.70    3.72
  -6  -4   8   60.63    2.50
  -6   4   8   62.57    2.49
  -6  -4   8   60.42    3.22
   6  -4  -8   59.94    2.39
  -6   4   7   27.05    2.60
  -6  -4   7   28.66    2.60
  -6   4   7   26.74    1.83
  -6  -4   7   28.53    1.82
  -6  -4   7   28.80    2.13
  -6   4   6   93.39    4.50
  -6  -4   6   79.63    4.13
  -6  -4   6   86.96    3.37
  -6  -4   6   82.15    3.39
  -6  -4   5   92.64    4.38
  -6   4   5   93.92    4.46
  -6  -4   5   94.68    3.49
  -6  -4   4   26.60    2.36
  -6   4   4   34.30    2.75
  -6  -4   3  422.01    9.88
   6  -4  -3  424.42    9.89
  -6   4   3  416.48    9.88
  -6  -4   2   20.48    2.05
  -6   4   2   19.98    2.16
   6  -4  -2   25.74    2.26
  -6  -4   1  248.43    7.11
   6  -4  -1  273.40    7.38
  -6   4   1  259.84    7.31
  -6  -4   0   54.36    3.17
   6  -4   0   57.99    3.25
  -6   4   0   55.83    3.24
  -6   4   0   53.10    1.86
   6  -4   1   49.54    2.95
  -6  -4  -1   48.17    2.91
  -6   4  -1   46.20    2.04
   6  -4   2   49.10    2.94
  -6  -4  -2   49.39    2.96
  -6   4  -2   50.04    2.41
   6  -4   3   18.32    1.82
  -6  -4  -3   16.36    1.77
  -6   4  -3   17.32    1.68
   6  -4   4   21.02    1.88
  -6  -4  -4   19.93    1.86
  -6   4  -4   21.80    2.09
   6  -4   5   50.45    2.82
  -6  -4  -5   50.75    2.79
  -6   4  -5   49.85    3.17
  -6  -4  -6   12.49    1.49
   6  -4   6   13.95    1.57
  -6   4  -6   13.10    1.90
  -6  -4  -6   13.00    2.31
  -6  -4  -7    0.43    0.70
  -6   4  -7   -0.09    1.24
  -6  -4  -7    1.85    1.48
  -6  -4  -8  105.59    5.69
  -6   4  -8   88.64    4.96
  -6  -4  -9    3.86    1.90
  -6   4  -9    1.28    1.71
  -6  -4 -10   10.86    2.32
  -6   4 -10   16.42    2.92
  -6   4 -11   14.64    2.96
  -6  -5  13   26.53    2.70
  -6  -5  12   22.26    2.52
   6  -5 -12   17.36    2.06
  -6  -5  11   12.54    1.89
   6  -5 -11   14.34    1.81
  -6  -5  10  103.07    5.00
   6  -5 -10  103.15    3.86
  -6  -5   9    5.96    1.59
   6  -5  -9    4.16    0.92
  -6   5   9    4.20    0.79
  -6  -5   9    4.74    0.84
  -6  -5   8  234.91    7.61
  -6  -5   8  239.60    5.70
  -6   5   8  254.37    5.73
  -6  -5   8  241.08    6.91
   6  -5  -8  241.77    5.16
  -6  -5   7    4.45    1.26
  -6  -5   7    2.18    1.17
  -6  -5   7    3.41    0.86
  -6   5   7    2.87    0.98
  -6  -5   6  217.48    7.10
  -6   5   6  225.46    5.96
  -6  -5   6  220.94    5.84
  -6  -5   6  214.02    6.03
  -6  -5   5   12.05    1.50
  -6  -5   5    8.01    1.56
  -6  -5   5   11.34    1.40
  -6  -5   4  308.96    8.43
  -6  -5   3    0.83    1.05
  -6  -5   2  153.86    5.57
  -6  -5   1  282.14    7.78
   6  -5  -1  305.47    8.06
  -6  -5   0  282.05    7.67
   6  -5   0  296.82    7.90
  -6  -5  -1   83.79    3.91
   6  -5   1   85.64    3.98
  -6   5  -1   84.49    2.85
  -6  -5  -2   27.88    2.25
   6  -5   2   26.07    2.17
  -6   5  -2   28.80    1.84
  -6  -5  -3  147.60    5.11
   6  -5   3  161.48    5.37
  -6   5  -3  153.62    4.78
   6  -5   4   32.07    2.43
  -6  -5  -4   33.08    2.35
  -6   5  -4   33.99    2.41
   6  -5   5   10.78    1.43
  -6  -5  -5    8.70    1.37
  -6   5  -5   10.66    1.70
   6  -5   6   18.97    1.81
  -6  -5  -6   16.65    1.68
  -6   5  -6   16.82    2.10
  -6  -5  -7  138.03    4.43
  -6  -5  -7  125.44    6.03
  -6   5  -7  142.58    6.01
  -6   5  -8    5.59    1.84
  -6  -5  -8    1.88    1.64
  -6   5  -9    7.56    2.21
  -6  -5  -9    3.64    2.01
  -6  -5 -10    1.37    1.63
  -6   5 -10    3.58    1.84
  -6   5 -11    5.58    2.07
  -6  -6  13   29.00    2.92
  -6  -6  12   11.49    2.26
  -6  -6  11   62.43    4.02
   6  -6 -11   74.07    3.58
  -6  -6  10    9.78    1.73
   6  -6 -10    8.78    1.27
  -6  -6   9  176.15    6.66
  -6   6   9  189.82    4.59
  -6  -6   9  164.57    4.55
   6  -6  -9  180.43    4.75
  -6  -6   8  197.27    6.99
  -6  -6   8  190.39    5.23
  -6   6   8  209.72    5.35
   6  -6  -8  197.35    4.52
  -6  -6   7    8.01    1.46
   6  -6  -7   11.40    0.87
  -6  -6   7   12.07    1.89
  -6  -6   7   12.28    1.44
  -6   6   7   13.84    1.54
  -6  -6   6  109.62    5.01
  -6   6   6  114.26    4.22
  -6  -6   6  111.42    4.15
  -6  -6   6  115.22    4.44
  -6  -6   5  122.80    5.28
  -6   6   5  138.49    4.83
  -6  -6   5  135.74    4.71
  -6  -6   5  130.92    4.63
  -6  -6   4    4.94    1.27
  -6  -6   3  169.53    6.04
  -6  -6   2   12.03    1.79
  -6  -6   1    1.40    1.18
  -6  -6   0  118.02    4.83
  -6  -6  -1   18.72    2.05
   6  -6   1   17.86    1.99
  -6  -6  -2   31.66    2.46
   6  -6   2   31.49    2.51
  -6   6  -2   28.14    1.93
   6  -6   3   26.12    2.23
  -6  -6  -3   23.96    2.14
  -6   6  -3   27.96    2.06
  -6  -6  -4   70.22    3.49
   6  -6   4   68.96    3.52
  -6   6  -4   70.38    3.46
   6  -6   5  101.08    4.21
  -6  -6  -5  100.49    4.09
  -6   6  -5  107.25    4.62
   6  -6   6  239.38    6.62
  -6  -6  -6  245.94    6.49
  -6   6  -6  246.37    7.63
  -6  -6  -7   77.35    3.33
  -6   6  -7   83.92    4.64
  -6   6  -8   -1.47    1.40
  -6  -6  -8    1.41    1.70
  -6   6  -9   -0.06    1.82
  -6  -6  -9    1.66    1.79
  -6   6 -10   -1.49    1.90
  -6  -6 -10    1.54    1.72
  -6   6 -11    1.66    1.90
  -6  -7  13   -0.88    1.27
  -6  -7  12   46.17    3.60
  -6  -7  11   10.20    1.65
  -6  -7  10  208.13    7.49
   6  -7 -10  219.66    5.87
  -6  -7   9   41.13    3.23
  -6   7   9   39.13    2.15
   6  -7  -9   44.57    2.28
  -6  -7   8   77.75    4.44
  -6  -7   8   83.66    3.49
  -6   7   8   88.46    3.49
   6  -7  -8   88.77    2.84
  -6  -7   7    6.01    1.54
   6  -7  -7    8.89    0.79
  -6   7   7    9.68    1.43
  -6  -7   7   11.13    1.43
  -6  -7   6  171.58    6.47
  -6   7   6  180.46    5.61
  -6  -7   6  176.86    5.52
  -6  -7   6  178.74    5.89
  -6  -7   5    2.17    1.22
  -6  -7   5    2.85    1.00
  -6   7   5    2.01    1.00
  -6   7   4  435.31    9.81
  -6  -7   4  436.93    9.73
  -6  -7   4  416.84   10.43
  -6  -7   3   27.45    2.28
  -6  -7   3   26.37    2.52
  -6  -7   2  450.20   10.61
  -6  -7   1    1.66    1.15
  -6  -7   0  163.15    5.85
  -6  -7  -1    1.81    1.07
  -6  -7  -2   12.03    1.68
  -6  -7  -3    6.00    1.34
  -6   7  -3    6.52    1.32
  -6  -7  -4   48.08    2.99
   6  -7   4   50.59    3.14
  -6   7  -4   56.19    3.11
  -6  -7  -5    0.66    0.90
   6  -7   5    1.29    0.91
  -6   7  -5    0.10    1.21
   6  -7   6  279.66    7.46
  -6  -7  -6  274.95    7.17
  -6   7  -6  283.12    8.35
  -6  -7  -7    1.15    0.85
  -6   7  -7   -0.56    1.27
  -6   7  -8    3.43    1.78
  -6  -7  -8    3.53    1.99
  -6   7  -9    2.80    1.66
  -6  -7  -9    1.58    1.75
  -6   7 -10    0.29    1.69
  -6  -7 -10    1.66    1.98
  -6  -8  13   49.50    3.93
  -6  -8  12    2.52    1.89
  -6  -8  11  126.87    5.89
  -6  -8  10   17.90    2.35
   6  -8 -10   17.67    1.73
  -6  -8   9  313.70    9.56
  -6   8   9  343.59    7.42
   6  -8  -9  341.42    7.04
  -6  -8   8    6.37    1.67
   6  -8  -8    5.81    0.92
  -6  -8   8    4.80    1.23
  -6   8   8    3.93    1.04
  -6  -8   7  398.31   10.69
  -6  -8   7  405.78    9.18
  -6   8   7  421.76    9.22
   6  -8  -7  415.37    6.68
   6  -8  -6    0.82    0.34
  -6  -8   6    1.90    1.26
  -6  -8   6    1.32    0.98
  -6   8   6    0.56    0.88
  -6  -8   5  564.45   12.99
  -6   8   5  616.42   12.23
  -6  -8   5  607.03   12.15
  -6  -8   4   44.52    3.26
  -6   8   4   48.77    3.16
  -6  -8   4   49.80    3.10
  -6  -8   3  542.79   12.40
  -6   8   3  591.45   12.33
  -6  -8   2    3.14    1.32
  -6   8   2    3.17    1.21
  -6  -8   1  304.66    8.57
  -6  -8   0   11.49    1.83
   6  -8   0   13.74    1.14
  -6  -8  -1   83.72    4.24
   6  -8   1   84.19    3.00
  -6  -8  -2   49.75    3.20
   6  -8   2   54.42    2.76
  -6  -8  -3  180.82    6.08
   6  -8   3  170.63    5.40
  -6  -8  -4   38.28    2.78
  -6   8  -4   38.84    2.73
  -6  -8  -5  131.34    4.98
  -6   8  -5  126.06    5.18
  -6  -8  -6   -0.34    0.93
  -6   8  -6    1.23    1.31
  -6  -8  -7    3.38    1.16
  -6   8  -7    2.56    1.44
  -6   8  -8    8.94    2.15
  -6   8  -9    0.08    1.77
  -6  -8  -9    3.90    1.91
  -6   8 -10    5.04    2.41
  -6   8 -10    4.47    1.88
  -6   8 -11    0.91    1.58
  -6  -9  13    6.86    1.92
  -6  -9  12   64.73    4.37
  -6  -9  11    6.36    1.67
  -6  -9  10  137.20    6.24
  -6  -9   9    7.76    1.84
   6  -9  -9    5.97    1.07
  -6   9   9    7.18    1.25
  -6  -9   8   44.32    3.47
  -6  -9   8   42.75    2.82
  -6   9   8   49.12    2.93
   6  -9  -8   46.98    2.14
  -6  -9   7    2.27    1.31
   6  -9  -7    1.06    0.54
  -6   9   7   -0.83    1.03
  -6  -9   7    2.45    1.07
  -6  -9   6  165.07    6.58
  -6  -9   6  171.28    5.82
  -6   9   6  168.12    5.79
   6  -9  -6  169.88    3.21
  -6  -9   5   13.95    2.09
  -6   9   5   14.61    1.86
  -6  -9   4   49.59    3.55
  -6   9   4   58.57    3.52
  -6  -9   3    6.03    1.49
  -6   9   3    5.43    1.46
  -6  -9   2  275.18    8.41
  -6   9   2  285.35    8.38
   6  -9  -2  275.72    4.31
   6  -9  -1    5.52    0.74
  -6   9   1    6.89    1.68
   6  -9   0  112.85    3.25
  -6   9   0  124.96    5.51
  -6  -9  -1    5.43    1.38
   6  -9   1    6.29    1.07
  -6  -9  -2    4.52    1.36
   6  -9   2    5.46    1.12
  -6  -9  -3    2.24    1.28
   6  -9   3    0.71    0.96
  -6  -9  -4    7.64    1.45
   6  -9   4    5.70    1.37
  -6  -9  -5    9.00    1.53
  -6   9  -5    9.68    1.73
  -6  -9  -6    5.50    1.40
  -6   9  -6    4.80    1.57
  -6  -9  -7    3.88    1.04
  -6   9  -7    4.28    1.56
  -6   9  -8   -1.07    1.46
  -6   9  -8    1.23    1.50
  -6  -9  -9   34.25    3.80
  -6   9  -9   31.54    3.41
  -6   9  -9   23.45    3.19
  -6   9 -10    5.80    2.32
  -6   9 -10   11.43    2.36
  -6   9 -11   -0.58    1.58
  -6 -10  13   35.28    3.39
  -6 -10  12   16.50    2.38
  -6 -10  11   71.36    4.57
  -6 -10  10    2.12    1.36
  -6 -10   9   26.57    3.01
  -6  10   9   27.66    2.16
  -6 -10   8   11.84    2.08
   6 -10  -8    9.57    1.11
  -6  10   8    8.44    1.51
  -6 -10   7    2.02    1.57
   6 -10  -7    0.67    0.60
  -6  10   7    1.14    1.04
  -6 -10   6   21.53    2.51
   6 -10  -6   20.58    1.12
  -6  10   6   23.00    2.32
   6 -10  -5   32.68    1.18
  -6 -10   5   32.49    3.01
  -6  10   5   33.50    2.72
  -6  10   4   80.74    4.23
   6 -10  -4   71.79    1.74
  -6  10   3   72.40    4.12
   6 -10  -3   66.63    1.75
   6 -10  -2    1.30    0.48
  -6  10   2    2.97    1.31
  -6  10   1  168.95    6.55
   6 -10  -1  163.90    3.85
   6 -10   0    1.75    0.77
  -6  10   0    1.85    1.25
   6 -10   1  190.42    5.06
  -6  10  -1  208.60    7.55
   6 -10   2   59.87    2.96
  -6  10  -2   63.35    4.23
   6 -10   3  136.40    5.03
  -6 -10  -3  143.38    5.73
  -6  10  -3  146.46    6.51
  -6 -10  -4   90.17    4.44
  -6  10  -4   88.65    5.23
  -6 -10  -5   22.24    2.33
  -6  10  -5   28.00    3.23
  -6 -10  -6   44.60    3.07
  -6  10  -6   45.42    4.00
  -6 -10  -7   51.16    3.13
  -6  10  -7   51.31    4.33
  -6  10  -7   56.79    4.00
  -6  10  -8    2.40    1.69
  -6  10  -8   -1.38    1.76
  -6  10  -9   12.46    2.47
  -6  10  -9    8.19    2.19
  -6  10 -10   14.90    2.63
  -6  10 -10   16.89    2.88
  -6 -11  13   28.72    3.11
  -6 -11  12   25.31    2.97
  -6 -11  11   30.28    3.14
  -6 -11  10   28.29    3.02
  -6 -11   9    8.98    1.92
  -6  11   9   12.06    1.65
  -6 -11   8   65.20    4.47
  -6  11   8   71.57    3.72
  -6 -11   7    0.59    1.22
   6 -11  -7    3.41    0.84
  -6  11   7    5.02    1.59
   6 -11  -6  128.16    3.22
  -6 -11   6  129.19    6.09
  -6  11   6  136.58    5.58
  -6  11   5   -0.33    1.06
  -6  11   4  126.85    5.52
   6 -11  -4  120.50    2.87
  -6  11   3   26.36    2.70
   6 -11  -3   24.77    1.29
  -6  11   2  303.75    9.06
   6 -11  -2  285.26    5.45
  -6  11   1  112.79    5.46
   6 -11  -1  107.20    3.23
  -6  11   0   79.20    4.71
   6 -11   0   78.78    2.98
  -6  11  -1  227.73    8.13
   6 -11   1  219.79    5.74
  -6  11  -2  160.22    6.89
   6 -11   2  147.37    4.92
   6 -11   3    7.79    1.46
  -6  11  -3    8.69    1.89
  -6  11  -4    2.26    1.41
  -6 -11  -5   57.52    3.66
  -6  11  -5   62.38    4.60
  -6 -11  -6    3.75    1.39
  -6  11  -6    2.34    1.78
  -6 -11  -7  128.29    5.26
  -6  11  -7  136.13    7.09
  -6  11  -8   25.49    3.34
  -6  11  -9   22.38    3.12
  -6  11 -10    1.92    1.58
  -6 -12  12    5.11    1.64
  -6 -12  11   50.47    4.10
  -6 -12  10    2.10    1.79
  -6 -12   9   51.37    4.01
  -6  12   9   56.35    3.41
  -6 -12   8    9.35    2.02
  -6  12   8   10.34    1.73
  -6 -12   7   56.92    4.20
  -6  12   7   59.43    3.75
   6 -12  -6    4.90    0.86
  -6  12   6    5.12    1.40
  -6  12   5    0.61    1.23
   6 -12  -4    4.85    0.72
  -6  12   4    6.66    1.63
  -6  12   3   89.53    4.93
   6 -12  -3   91.42    2.79
   6 -12  -2   17.59    1.33
  -6  12   2   19.61    2.41
  -6  12   1  180.48    7.16
   6 -12  -1  168.26    4.48
   6 -12   0    0.39    0.90
  -6  12   0   -0.98    1.59
  -6  12  -1   46.83    3.82
   6 -12   1   41.33    2.54
   6 -12   2    0.29    0.95
  -6  12  -2    0.35    1.52
  -6  12  -3    7.14    1.91
  -6  12  -4   -0.59    1.47
  -6  12  -5   17.11    2.76
  -6 -12  -6    8.83    1.73
  -6  12  -6    9.27    2.34
  -6 -12  -7    3.50    1.27
  -6  12  -7    2.16    1.58
  -6  12  -8   39.67    4.12
  -6  12  -9    9.33    2.26
  -6 -13  12    3.59    1.32
  -6 -13  11   -1.48    1.32
  -6 -13  10    0.05    1.28
  -6 -13   9   -0.18    2.28
  -6  13   9   -2.97    1.36
  -6 -13   8   14.10    2.50
  -6  13   8   14.87    2.10
  -6  13   7   -1.87    1.49
  -6  13   6   23.11    2.51
  -6  13   5    4.87    1.67
  -6  13   4    6.86    1.78
  -6  13   3   59.81    4.17
  -6  13   2   73.82    4.56
   6 -13  -1    0.18    0.80
  -6  13   1    0.85    1.54
   6 -13   0    1.39    1.02
  -6  13   0   -0.36    1.51
   6 -13   1   27.52    2.15
  -6  13  -1   28.65    3.21
  -6  13  -2   38.04    3.62
  -6  13  -3    2.76    1.62
  -6  13  -4    3.29    1.42
  -6  13  -5   36.80    3.88
  -6 -13  -6    8.27    1.83
  -6  13  -6   12.92    2.58
  -6  13  -7   56.19    4.72
  -6  13  -8    4.55    2.02
  -6 -14  12   13.38    2.60
  -6 -14  11    1.17    2.02
  -6 -14  10    5.50    1.65
  -6 -14   9    0.70    1.39
  -6 -14   8    1.96    1.43
  -6  14   8    0.13    1.16
  -6  14   7   31.04    2.98
  -6  14   6   28.09    2.94
  -6  14   5   45.74    3.68
  -6  14   4    6.55    1.97
  -6  14   3   15.52    2.38
  -6  14   2  300.92    9.83
  -6  14   1   22.27    2.71
  -6  14   0   95.14    5.53
  -6  14  -1    6.60    1.82
  -6  14  -2   60.80    4.63
  -6  14  -3   31.98    3.64
  -6  14  -4  123.29    6.80
  -6  14  -5   -0.63    1.59
  -6  14  -6  154.78    7.89
  -6  14  -7   11.81    2.66
  -6 -15  11    6.36    2.29
  -6 -15  10   13.85    2.46
  -6 -15   9   20.94    2.86
  -6  15   8   12.20    2.18
  -6  15   7   -1.95    1.28
  -6  15   6   65.49    4.51
  -6  15   5    7.28    2.03
  -6  15   4    4.44    1.71
  -6  15   3   12.97    2.43
  -6  15   2  111.72    6.00
  -6  15   1   44.81    3.93
  -6  15   0    2.43    1.68
  -6  15  -1  121.05    6.46
  -6  15  -2    4.68    1.77
  -6  15  -3   81.19    5.44
  -6  15  -4   10.03    2.32
  -6  15  -5  122.10    6.94
  -6  15  -6    5.17    2.11
  -6 -16   9    7.15    1.84
  -6  16   8    7.93    2.02
  -6  16   7    2.72    2.11
  -6  16   6   -0.32    1.35
  -6  16   5   12.66    2.27
  -6  16   4    4.22    1.78
  -6  16   3   13.49    2.51
  -6  16   2    2.20    1.84
  -6  16   1   41.60    3.96
  -6  16   0   24.12    3.27
  -6  16  -1    8.14    2.17
  -6  16  -2   32.94    3.73
  -6  16  -3    9.14    2.43
  -6  16  -4   48.89    4.46
  -6  16  -5    1.33    1.81
  -6  17   8   38.79    3.65
  -6  17   7    4.78    2.00
  -6  17   6   30.49    3.43
  -6  17   5   -0.06    1.71
  -6  17   4   23.36    3.00
  -6  17   3   23.87    3.15
  -6  17   2   19.69    3.29
  -6  17   1    1.48    1.49
  -6  17   0    5.23    2.00
  -6  17  -1  135.27    7.20
  -6  17  -2   11.59    2.53
  -6  17  -3   31.54    3.68
  -6  17  -4   -0.47    2.07
  -6  18   8   -0.87    1.62
  -6  18   7   13.48    2.77
  -6  18   6   -0.24    1.50
  -6  18   5   22.19    3.03
  -6  18   4    0.64    1.73
  -6  18   3   24.76    3.18
  -6  18   2   21.97    3.19
  -6  18   1   17.93    3.08
  -6  18   0    4.28    1.73
  -6  18  -1    8.17    2.50
  -6  18  -2   49.70    4.65
  -6  19   7    7.37    1.80
  -6  19   6   18.80    2.88
  -6  19   5    6.28    1.94
  -6  19   4    8.73    2.50
  -6  19   3   13.01    2.53
  -6  19   2   15.73    2.94
  -6  19   1   30.22    3.59
  -6  19   0  142.74    7.79
  -6  20   7   42.76    4.12
  -6  20   6    6.04    1.94
  -6  20   5   29.42    3.72
  -6  20   4    0.51    1.60
  -7   0  13   80.50    4.95
  -7   0  12   -1.98    1.49
  -7   0  11   98.27    5.24
  -7   0  10    1.03    1.34
  -7   0   9   90.66    4.88
  -7   0   8   -0.01    1.25
  -7   0   8    0.80    0.81
  -7   0   7  142.62    5.96
  -7   0   7  140.01    3.65
  -7   0   6   -0.39    1.14
  -7   0   6   -0.04    0.60
  -7   0   5  706.09   14.66
  -7   0   5  724.94    9.89
  -7   0   4    0.78    1.14
  -7   0   4    0.46    0.48
  -7   0   3  334.50    9.02
  -7   0   3  331.69    5.31
  -7   0   2    2.25    1.24
  -7   0   1  140.20    5.48
  -7   0   0    0.28    1.14
  -7   0   0    0.63    0.87
  -7   0  -1  251.15    7.36
  -7   0  -1  257.13    6.01
  -7   0  -2    0.60    1.02
  -7   0  -2   -0.17    0.94
  -7   0  -3  317.00    8.17
  -7   0  -3  319.89    7.76
  -7   0  -4    0.67    1.11
  -7   0  -4    0.23    1.12
  -7   0  -5    0.46    1.00
  -7   0  -5    0.13    1.17
  -7   0  -6    1.24    1.29
  -7   0  -7   12.61    2.11
  -7   0  -8   -1.22    1.56
  -7   0  -9   -1.03    1.65
  -7   0 -10    0.71    1.78
  -7   1  13   10.09    2.34
  -7  -1  13    5.63    1.77
  -7   1  12   67.24    4.51
  -7  -1  12   66.51    4.53
  -7   1  11   -0.23    1.43
  -7  -1  11    3.78    1.65
  -7   1  10  320.93    9.67
  -7  -1  10  331.42    9.83
  -7   1   9    2.25    1.32
  -7  -1   9    0.31    1.32
  -7  -1   9    2.81    1.09
  -7   1   9    0.47    0.58
  -7   1   8   85.89    4.69
  -7  -1   8   87.16    3.27
  -7  -1   8   89.62    4.76
  -7  -1   7   45.80    3.44
  -7   1   7   42.92    3.34
  -7  -1   7   42.96    2.10
  -7  -1   6    4.37    1.38
  -7   1   6    2.65    1.35
  -7  -1   6    3.28    0.76
  -7  -1   5   14.78    1.95
  -7   1   5   17.60    2.17
  -7  -1   5   16.10    1.20
  -7  -1   4   27.97    2.66
  -7   1   4   31.39    2.74
  -7  -1   4   28.24    1.44
  -7  -1   3    0.01    1.08
  -7   1   3    1.93    1.29
  -7  -1   2  245.63    7.47
  -7   1   2  247.16    7.54
  -7   1   2  248.87    3.99
  -7  -1   1  310.19    8.53
  -7   1   1  330.00    5.62
  -7   1   1  319.70    8.60
  -7  -1   0  149.03    5.59
  -7   1   0  138.28    5.38
  -7   1   0  141.64    3.71
  -7  -1  -1   97.97    4.44
  -7   1  -1   97.94    4.41
  -7   1  -1   94.81    3.31
  -7   1  -2    0.58    0.87
  -7  -1  -2    1.64    1.07
   7  -1   2    0.92    0.99
  -7   1  -2    2.09    1.29
  -7  -1  -2   -0.47    1.20
  -7  -1  -3   10.06    1.63
  -7   1  -3   11.32    1.56
   7  -1   3   10.70    1.65
  -7   1  -3   10.05    1.69
  -7  -1  -3    7.11    1.38
  -7  -1  -4   22.11    2.28
  -7   1  -4   19.59    2.07
  -7   1  -4   20.10    2.05
  -7  -1  -4   22.19    2.03
  -7  -1  -5    1.70    1.25
  -7   1  -5    1.91    1.21
  -7  -1  -5    2.56    1.04
  -7  -1  -6    1.57    1.32
  -7   1  -6    2.04    1.36
  -7  -1  -6    0.89    0.88
  -7   1  -7   16.79    2.45
  -7  -1  -7   10.46    2.09
  -7   1  -8    0.73    1.56
  -7  -1  -8    2.32    1.69
  -7   1  -9    2.45    1.77
  -7  -1  -9    4.47    1.92
  -7   1 -10   22.54    3.23
  -7  -1 -10   31.56    3.58
  -7  -2  13  126.94    6.10
  -7  -2  12    1.75    1.28
  -7   2  11  161.75    6.82
  -7  -2  11  162.68    6.80
  -7   2  10    0.68    1.34
  -7  -2  10    3.14    1.48
  -7   2   9  145.80    6.26
  -7  -2   9  144.64    4.81
  -7   2   9  138.61    3.70
  -7  -2   9  139.29    6.13
  -7  -2   8   -0.70    0.84
  -7  -2   8    1.78    1.16
  -7   2   8    1.74    1.41
  -7  -2   8   -0.64    0.72
  -7  -2   7   99.04    4.98
  -7   2   7  105.41    5.14
  -7  -2   7   97.83    3.48
  -7  -2   6    1.77    1.32
  -7   2   6   -0.68    1.14
  -7  -2   6    0.95    0.73
  -7  -2   5  417.03   10.49
  -7   2   5  415.43   10.54
  -7  -2   5  412.93    7.48
  -7  -2   4   21.48    2.29
  -7   2   4   21.36    2.35
  -7  -2   4   18.88    1.36
  -7  -2   3   53.90    3.44
  -7   2   3   59.31    3.63
  -7  -2   2   15.83    1.95
  -7   2   2   20.19    2.25
  -7  -2   1  120.87    5.04
  -7   2   1  130.74    5.29
  -7   2   1  128.45    2.74
  -7  -2   0   19.50    2.10
  -7   2   0   20.63    2.27
  -7   2   0   20.28    1.33
  -7  -2  -1   17.52    1.95
  -7   2  -1   19.67    2.13
  -7   2  -1   16.56    1.38
  -7  -2  -2   35.36    2.73
  -7   2  -2   33.61    2.64
  -7   2  -2   34.06    2.18
  -7  -2  -3    3.07    1.34
  -7   2  -3    3.62    1.42
   7  -2   3    1.76    1.03
  -7   2  -3   -0.12    1.04
  -7  -2  -3    3.73    1.42
   7  -2   4   31.18    2.41
  -7  -2  -4   29.07    2.39
  -7  -2  -4   29.27    2.64
  -7   2  -4   26.84    2.38
  -7  -2  -5   18.96    1.89
  -7  -2  -5   19.79    2.35
  -7   2  -5   21.08    2.28
  -7  -2  -6   53.10    3.01
  -7  -2  -6   53.25    3.72
  -7   2  -6   52.35    3.58
  -7  -2  -7    2.18    0.88
  -7  -2  -7    0.21    1.44
  -7   2  -7    2.45    1.47
  -7  -2  -8   38.95    3.63
  -7   2  -8   41.30    3.68
  -7   2  -9   46.86    4.10
  -7  -2  -9   41.03    3.92
  -7   2 -10    1.00    1.78
  -7  -2 -10    1.94    1.77
  -7  -3  13    1.29    1.29
  -7  -3  12   23.85    2.69
  -7  -3  11    6.18    1.61
  -7  -3  10   53.23    3.93
  -7   3  10   50.95    3.90
  -7  -3   9    9.56    1.89
  -7   3   9    7.60    1.82
  -7  -3   9    6.42    1.43
  -7   3   9    6.28    0.92
  -7   3   8   78.72    4.55
  -7  -3   8   82.19    4.61
  -7   3   8   83.19    3.26
  -7  -3   8   79.97    3.13
  -7  -3   8   79.20    3.45
  -7  -3   7    0.96    1.30
  -7   3   7    1.73    1.46
  -7  -3   7    0.53    0.92
  -7  -3   6    1.76    1.38
  -7   3   6    2.44    1.39
  -7  -3   6   -0.02    0.76
  -7  -3   5  114.92    5.25
  -7   3   5  120.57    5.42
  -7  -3   5  121.79    3.80
  -7  -3   4  265.56    8.10
  -7   3   4  277.24    8.25
  -7   3   3    5.76    1.59
  -7  -3   3    4.83    1.43
  -7  -3   2   72.26    3.95
  -7   3   2   82.73    4.30
  -7   3   1   31.38    2.64
  -7  -3   1   30.46    2.61
  -7   3   1   30.59    1.05
  -7  -3   0   52.81    3.35
  -7   3   0   53.99    3.48
  -7   3   0   53.78    1.99
  -7   3  -1    4.51    1.27
  -7  -3  -1    3.64    1.21
  -7   3  -1    4.83    0.84
  -7  -3  -2   17.40    2.00
  -7   3  -2   20.63    2.18
  -7   3  -2   19.53    1.70
  -7  -3  -3    9.30    1.59
  -7   3  -3   13.89    1.68
  -7  -3  -4   21.83    2.18
   7  -3   4   19.84    1.95
  -7   3  -4   21.58    2.14
  -7  -3  -4   22.82    2.44
  -7  -3  -5   17.32    1.89
   7  -3   5   24.02    2.17
  -7   3  -5   19.20    2.16
  -7  -3  -5   15.92    2.17
  -7  -3  -6   11.57    1.47
  -7  -3  -6   13.86    2.24
  -7   3  -6   14.11    2.11
  -7  -3  -7   43.89    3.66
  -7  -3  -7   38.36    2.47
  -7   3  -7   39.37    3.44
  -7  -3  -8   32.06    3.46
  -7   3  -8   26.10    3.08
  -7   3  -9   49.64    4.13
  -7  -3  -9   55.80    4.48
  -7   3 -10   -0.91    1.78
  -7  -3 -10   -1.27    1.89
  -7  -4  13    0.91    1.42
  -7  -4  12    8.48    1.69
  -7  -4  11   24.98    2.87
  -7  -4  10    1.44    1.35
  -7  -4   9   21.27    2.04
  -7  -4   9   17.21    2.31
  -7   4   9   21.85    1.59
  -7   4   8  178.08    6.96
  -7  -4   8  174.08    6.82
  -7   4   8  183.26    5.07
  -7  -4   8  164.37    4.88
  -7  -4   8  168.96    5.45
  -7   4   7   55.69    3.86
  -7  -4   7   55.08    3.74
  -7   4   7   63.43    3.11
  -7  -4   7   58.98    2.93
  -7  -4   7   59.04    3.02
  -7   4   6    4.58    1.58
  -7  -4   6    0.92    1.20
  -7  -4   6    0.83    0.96
  -7  -4   5  178.83    6.62
  -7   4   5  189.02    6.85
  -7  -4   5  187.78    5.15
  -7  -4   4   50.20    3.55
  -7   4   4   45.97    3.38
  -7   4   3   13.31    2.04
  -7  -4   3    8.17    1.54
  -7  -4   2  409.48   10.18
  -7   4   2  406.10   10.26
  -7  -4   1   89.12    4.38
  -7   4   1   93.84    4.59
  -7  -4   0  211.77    6.84
  -7   4   0  219.19    7.04
  -7   4   0  213.81    4.28
  -7  -4  -1   19.84    2.08
  -7   4  -1   22.83    1.54
  -7  -4  -2  179.29    6.14
  -7   4  -2  195.14    5.13
  -7  -4  -3    3.72    1.16
  -7   4  -3    6.02    1.22
  -7  -4  -4   26.81    2.35
  -7   4  -4   25.26    2.29
  -7  -4  -5    5.39    1.28
   7  -4   5    8.54    1.57
  -7   4  -5    6.08    1.53
  -7  -4  -5    5.23    1.80
  -7  -4  -6  129.16    4.76
  -7  -4  -6  133.64    5.99
  -7   4  -6  136.91    5.71
  -7  -4  -7    3.60    1.10
  -7   4  -7    0.25    1.40
  -7  -4  -7    4.38    1.89
  -7  -4  -8  109.66    6.20
  -7   4  -8  111.35    5.74
  -7  -4  -9    3.47    2.05
  -7   4  -9    3.13    1.80
  -7   4 -10    1.04    2.04
  -7  -4 -10    6.18    2.20
  -7  -5  13   -3.94    1.71
  -7  -5  12   61.42    4.30
  -7  -5  11   -0.48    1.32
  -7  -5  10   29.47    2.96
  -7  -5   9    3.44    1.51
  -7   5   9    2.79    0.89
  -7  -5   8  158.53    6.52
  -7   5   8  168.25    5.00
  -7  -5   8  154.83    4.85
  -7  -5   8  160.70    5.50
  -7  -5   7   88.69    4.75
  -7   5   7   95.57    3.92
  -7  -5   7   91.98    3.81
  -7  -5   7   87.89    3.88
  -7  -5   6  254.33    8.25
  -7  -5   6  262.80    7.02
  -7   5   6  271.65    7.13
  -7  -5   6  259.42    6.77
  -7  -5   5   89.85    4.72
  -7   5   5   89.54    4.75
  -7  -5   5   95.53    3.81
  -7  -5   4   28.04    2.62
  -7   5   4   28.22    2.86
  -7  -5   3  115.87    5.24
  -7   5   3  116.66    5.30
  -7  -5   2   76.11    4.17
  -7  -5   1   98.20    4.67
  -7  -5   0    1.85    1.02
  -7  -5  -1   93.66    4.42
  -7   5  -1   95.98    3.09
  -7  -5  -2    1.98    1.19
  -7   5  -2    6.91    1.05
  -7  -5  -3  164.05    5.79
  -7   5  -3  163.21    5.09
  -7  -5  -4    9.86    1.59
  -7   5  -4   12.44    1.78
  -7  -5  -5   78.85    3.88
  -7   5  -5   86.05    4.23
  -7  -5  -6    6.23    1.33
  -7   5  -6    6.30    1.57
  -7  -5  -6    4.84    1.76
  -7  -5  -7  173.64    7.34
  -7   5  -7  196.39    7.26
  -7   5  -8    7.14    2.06
  -7  -5  -8    8.92    2.31
  -7  -5  -9    1.13    1.79
  -7   5  -9    0.62    1.58
  -7   5 -10   19.46    3.06
  -7  -6  13    5.55    1.87
  -7  -6  12    7.18    1.90
  -7  -6  11    8.01    1.73
  -7  -6  10    3.57    1.21
  -7  -6   9   92.18    5.10
  -7   6   9  105.13    3.73
  -7  -6   8   15.72    2.35
  -7  -6   8   13.51    1.59
  -7   6   8   15.46    1.62
  -7  -6   7  113.43    5.50
  -7   6   7  122.16    4.56
  -7  -6   7  124.00    4.60
  -7  -6   7  115.86    4.69
  -7  -6   6    2.02    1.18
  -7  -6   6    3.62    1.49
  -7  -6   6    3.39    1.09
  -7   6   6    2.21    1.23
  -7  -6   5    1.99    1.07
  -7  -6   5    2.59    1.23
  -7  -6   5    0.87    0.97
  -7  -6   4    9.57    1.79
  -7  -6   3   46.12    3.36
  -7  -6   2   14.94    2.08
  -7  -6   1    0.77    1.03
  -7  -6   0   75.53    4.08
  -7  -6  -1   -0.71    1.18
  -7  -6  -2   49.72    3.30
  -7   6  -2   55.91    2.69
  -7  -6  -3   17.68    2.03
  -7   6  -3   17.46    1.75
  -7  -6  -4   43.52    3.03
  -7   6  -4   47.25    2.99
  -7  -6  -5    8.52    1.55
  -7   6  -5    6.75    1.61
  -7  -6  -6   56.19    3.24
  -7   6  -6   61.98    3.86
  -7   6  -7    0.70    1.42
  -7  -6  -7    3.95    2.20
  -7  -6  -8   95.33    5.79
  -7   6  -8   90.60    5.22
  -7   6  -9    2.08    1.70
  -7  -6  -9    3.11    1.92
  -7   6 -10   15.89    2.64
  -7  -7  13    6.34    1.81
  -7  -7  12   -1.85    1.59
  -7  -7  11   -4.31    1.89
  -7  -7  10   -0.32    1.22
  -7  -7   9   12.86    2.12
  -7   7   9   15.38    1.61
  -7  -7   8   19.03    2.51
  -7   7   8   21.54    1.95
  -7  -7   7   60.37    4.07
  -7   7   7   64.25    3.43
  -7  -7   7   59.07    3.28
  -7  -7   6    0.46    0.94
  -7  -7   6    2.88    1.46
  -7  -7   6    2.28    1.05
  -7   7   6    0.88    1.10
  -7  -7   5    1.13    1.35
  -7   7   5    0.52    1.03
  -7  -7   4   -0.33    1.30
  -7   7   4    0.90    1.02
  -7  -7   3   79.65    4.43
  -7  -7   2   24.49    2.52
  -7  -7   1   76.18    4.24
  -7  -7   0    5.01    1.37
  -7  -7  -1  143.33    5.75
  -7  -7  -2    7.80    1.69
  -7  -7  -3  197.33    6.67
  -7   7  -3  215.23    6.00
  -7  -7  -4   16.68    2.04
  -7   7  -4   20.52    2.19
  -7  -7  -5  343.55    8.90
  -7   7  -5  359.30    9.25
  -7  -7  -6   35.99    2.68
  -7   7  -6   45.16    3.39
  -7   7  -7  106.63    5.46
  -7   7  -8   25.31    3.02
  -7  -7  -8   22.48    3.18
  -7   7  -9   41.00    3.85
  -7  -7  -9   44.50    4.22
  -7   7 -10   -1.15    2.11
  -7  -8  13   -1.73    1.81
  -7  -8  12    1.15    1.41
  -7  -8  11    9.80    1.98
  -7  -8  10    0.68    1.49
  -7  -8   9    1.65    1.47
  -7   8   9    2.81    1.12
  -7  -8   8    1.57    1.48
  -7   8   8    4.31    1.27
  -7  -8   7   -0.41    1.27
  -7  -8   7    0.69    0.97
  -7   8   7    0.71    0.92
  -7  -8   6   77.08    4.60
  -7   8   6   83.04    4.14
  -7  -8   5   -0.59    1.20
  -7   8   5   -0.26    1.06
  -7  -8   4  235.29    8.11
  -7   8   4  244.82    7.69
  -7  -8   3    1.54    1.34
  -7   8   3    4.28    1.47
  -7  -8   2  201.24    7.23
  -7  -8   1    1.35    1.26
  -7  -8   0  219.64    7.47
  -7  -8  -1   10.19    2.58
  -7  -8  -2  353.86    9.52
  -7  -8  -3    3.72    1.45
  -7  -8  -4  293.40    8.41
  -7   8  -4  318.24    8.16
  -7  -8  -5    5.05    1.41
  -7   8  -5    8.12    1.70
  -7  -8  -6   42.60    2.97
  -7   8  -6   42.73    3.35
  -7   8  -7    1.53    1.40
  -7  -8  -8   54.17    4.62
  -7   8  -8   59.09    4.35
  -7   8  -9    0.87    1.79
  -7   8 -10   18.05    2.98
  -7  -9  13    1.13    1.52
  -7  -9  12    1.94    1.44
  -7  -9  11    4.86    1.82
  -7  -9  10    0.76    1.50
  -7  -9   9    7.06    1.94
  -7   9   9   10.89    1.66
  -7  -9   8   29.77    3.16
  -7   9   8   34.94    2.68
  -7  -9   7   18.06    2.55
  -7   9   7   12.36    1.87
  -7   9   6   65.41    3.82
  -7  -9   6   61.25    4.21
  -7   9   5   35.75    3.03
  -7  -9   5   27.00    2.88
  -7   9   4   72.02    4.18
  -7  -9   4   71.34    4.43
  -7   9   3   53.77    3.72
  -7  -9   3   53.31    3.90
  -7   9   2   61.62    4.00
  -7  -9   2   48.98    3.68
  -7   9   1   78.04    4.61
  -7  -9   1   65.89    4.16
  -7  -9   0    8.03    1.63
  -7  -9  -1    9.33    1.77
  -7  -9  -2   28.14    2.71
  -7  -9  -3   44.13    3.26
  -7  -9  -4  100.02    4.80
  -7  -9  -5   51.97    3.39
  -7  -9  -6   11.20    1.69
  -7   9  -6   11.39    2.02
  -7   9  -7   49.22    3.70
  -7   9  -8    3.83    1.83
  -7   9  -9   25.58    3.38
  -7   9  -9   21.13    3.22
  -7 -10  13   33.23    3.49
  -7 -10  12    1.32    1.41
  -7 -10  11   10.76    2.18
  -7 -10  10   -0.19    1.56
  -7 -10   9   18.26    2.59
  -7  10   9   20.84    2.15
  -7 -10   8    1.05    1.59
  -7  10   8    2.42    1.33
  -7 -10   7   12.34    2.31
  -7  10   7   10.91    1.82
  -7 -10   6    4.77    1.71
  -7  10   6    5.50    1.49
  -7 -10   5   83.47    4.94
  -7  10   5   85.34    4.57
  -7 -10   4   68.81    4.45
  -7  10   4   66.55    4.11
  -7 -10   3   14.73    2.36
  -7  10   3   13.31    2.16
  -7 -10   2   84.87    4.93
  -7  10   2   92.21    5.07
  -7 -10   1   -0.68    1.17
  -7  10   1    0.91    1.37
  -7 -10   0   72.01    4.39
  -7  10   0   74.32    4.69
  -7 -10  -1   79.59    4.51
  -7  10  -1   82.57    4.96
  -7 -10  -2   30.31    2.87
  -7  10  -2   35.14    3.58
  -7 -10  -3    1.52    1.19
  -7 -10  -4  126.12    5.55
  -7 -10  -5    2.22    1.20
  -7 -10  -6   53.56    3.51
  -7  10  -6   50.00    4.39
  -7  10  -7    4.37    1.95
  -7  10  -8   74.53    5.56
  -7  10  -8   62.92    4.59
  -7  10  -9    1.17    1.66
  -7 -11  13    2.24    1.66
  -7 -11  12   79.87    5.30
  -7 -11  11    3.82    1.66
  -7 -11  10   39.27    3.72
  -7 -11   9    1.02    1.67
  -7 -11   8   42.18    3.75
  -7  11   8   47.79    3.31
  -7 -11   7    4.61    1.65
  -7  11   7    5.25    1.55
  -7 -11   6   73.41    4.84
  -7  11   6   78.50    4.43
  -7 -11   5  116.56    5.96
  -7  11   5  118.50    5.51
  -7 -11   4  169.88    7.22
  -7  11   4  193.83    7.28
  -7 -11   3  140.65    6.46
  -7  11   3  145.89    6.38
  -7 -11   2    7.31    1.79
  -7  11   2    8.40    2.01
  -7 -11   1  109.20    5.61
  -7  11   1  122.29    6.04
  -7 -11   0    5.37    1.73
  -7  11   0    5.24    1.74
  -7 -11  -1  100.74    5.22
  -7  11  -1  108.73    5.90
  -7 -11  -2    9.11    1.97
  -7  11  -2   11.12    2.50
  -7 -11  -3   10.13    1.79
  -7  11  -3   13.68    2.53
  -7 -11  -4    1.44    1.16
  -7  11  -4    5.59    2.01
  -7 -11  -5   59.09    3.98
  -7  11  -5   67.74    5.13
  -7 -11  -6   10.59    1.69
  -7  11  -6   13.21    2.77
  -7  11  -7   13.90    3.50
  -7 -12  12   -2.28    1.62
  -7 -12  11   33.54    3.51
  -7 -12  10    1.83    1.59
  -7 -12   9    4.24    1.86
  -7 -12   8   -0.39    1.70
  -7  12   8   -0.82    1.20
  -7 -12   7   27.45    3.04
  -7  12   7   31.55    2.88
  -7 -12   6    1.07    1.30
  -7  12   6    7.37    1.85
  -7 -12   5   69.97    4.69
  -7  12   5   67.11    4.32
  -7 -12   4  240.13    8.85
  -7  12   4  264.55    8.79
  -7 -12   3   13.78    2.23
  -7  12   3   13.02    2.35
  -7 -12   2    6.38    1.79
  -7  12   2    7.73    2.02
  -7 -12   1    8.70    1.94
  -7  12   1   10.05    2.11
  -7 -12   0   91.07    5.22
  -7  12   0   98.45    5.69
  -7 -12  -1   31.22    3.15
  -7  12  -1   31.84    3.38
  -7 -12  -2   23.22    2.77
  -7  12  -2   24.02    3.11
  -7 -12  -3   24.16    2.70
  -7  12  -3   25.79    3.25
  -7 -12  -4   14.78    2.25
  -7  12  -4   14.08    2.87
  -7 -12  -5    0.76    1.60
  -7  12  -5    0.22    1.57
  -7 -12  -6    6.19    1.41
  -7  12  -6    2.00    1.58
  -7  12  -7    6.31    2.32
  -7 -13  11    0.48    1.52
  -7 -13  10   19.26    2.89
  -7 -13   9    8.69    2.17
  -7 -13   8   38.95    3.92
  -7  13   8   35.74    3.12
  -7 -13   7    0.76    1.41
  -7  13   7    1.32    1.20
  -7 -13   6   26.65    3.30
  -7  13   6   36.13    3.26
  -7 -13   5    0.83    1.44
  -7  13   5    2.03    1.65
  -7 -13   4   27.80    3.20
  -7  13   4   28.39    3.06
  -7  13   3   -0.80    1.42
  -7  13   2   33.54    3.40
  -7  13   1   12.33    2.37
  -7  13   0   50.46    4.26
  -7  13  -1    3.09    1.60
  -7 -13  -2   90.22    5.33
  -7  13  -2  106.76    6.27
  -7 -13  -3    3.69    1.43
  -7  13  -3    0.45    1.58
  -7 -13  -4   19.74    2.66
  -7  13  -4   25.45    3.42
  -7 -13  -5   12.63    2.18
  -7  13  -5   21.07    3.31
  -7 -13  -6    1.37    1.46
  -7  13  -6    6.94    2.12
  -7 -14  10    6.37    1.94
  -7 -14   9  117.64    6.68
  -7 -14   8   -0.56    1.42
  -7  14   8    2.70    1.41
  -7 -14   7  141.72    7.19
  -7  14   7  148.62    6.55
  -7 -14   6    3.08    1.84
  -7  14   6   -1.15    1.36
  -7  14   5  103.02    5.64
  -7  14   4    1.06    1.34
  -7  14   3   89.11    5.40
  -7  14   2    3.28    1.91
  -7  14   1    1.45    1.57
  -7  14   0   12.76    2.46
  -7  14  -1    1.33    1.55
  -7  14  -2   19.60    3.12
  -7  14  -3    8.02    2.37
  -7 -14  -4   18.52    2.72
  -7  14  -4   23.37    3.68
  -7 -14  -5   12.37    2.49
  -7  14  -5   14.03    2.87
  -7 -14  -6    6.30    1.68
  -7 -15   8  115.50    6.72
  -7  15   8  119.04    5.90
  -7 -15   7   19.35    2.82
  -7  15   7   19.44    2.65
  -7 -15   6  142.92    7.28
  -7  15   6  148.75    6.83
  -7  15   5   22.63    2.95
  -7  15   4  107.87    6.07
  -7  15   3   -0.27    1.42
  -7  15   2   11.17    2.47
  -7  15   1    5.53    1.80
  -7  15   0   17.87    2.88
  -7  15  -1   25.33    3.19
  -7  15  -2   16.58    2.87
  -7  15  -3    0.77    1.61
  -7  15  -4    9.31    2.52
  -7 -15  -5   10.69    2.32
  -7  16   8    5.05    1.74
  -7 -16   7   87.18    6.02
  -7  16   7   99.79    5.67
  -7  16   6    6.13    1.85
  -7  16   5   55.13    4.41
  -7  16   4    0.21    1.49
  -7  16   3  117.74    6.55
  -7  16   2   21.59    3.07
  -7  16   1    3.56    1.93
  -7  16   0   15.13    2.73
  -7  16  -1   35.71    4.06
  -7  16  -2   18.60    3.21
  -7  16  -3   35.48    4.05
  -7 -16  -5   29.73    3.32
  -7  17   7    3.09    1.82
  -7  17   6   33.35    3.56
  -7  17   5    8.70    2.01
  -7  17   4   72.22    5.18
  -7  17   3   23.37    3.34
  -7  17   2   81.32    5.66
  -7  17   1   50.51    4.67
  -7  17   0   11.54    2.75
  -7  17  -1   25.50    3.61
  -7  18   7  105.42    6.22
  -7  18   6    2.92    1.74
  -7  18   5   29.06    3.59
  -7  18   4   32.68    3.76
  -7  18   3   44.50    4.38
  -7  18   2   21.00    3.37
  -7  18   1   83.09    5.97
  -7  19   7    0.31    2.00
  -7  19   6   19.11    3.04
  -7  19   5   11.39    2.56
  -8   0  13   -0.05    1.53
  -8   0  12   13.10    2.58
  -8   0  11    5.04    2.36
  -8   0  10   -0.50    1.55
  -8   0   9    2.87    1.57
  -8   0   8   -0.32    1.45
  -8   0   7   -4.48    1.96
  -8   0   6   71.12    4.42
  -8   0   5   -2.52    1.59
  -8   0   5   -0.63    0.32
  -8   0   4   85.79    4.74
  -8   0   4   84.81    1.75
  -8   0   3    1.80    1.40
  -8   0   3    3.64    0.56
  -8   0   2  214.40    7.41
  -8   0   2  214.36    4.26
  -8   0   1   -0.03    1.33
  -8   0   1   -0.11    0.68
  -8   0   0   98.21    3.34
  -8   0   0   97.36    4.84
  -8   0  -1    0.00    1.31
  -8   0  -1    1.06    0.97
  -8   0  -2  206.15    7.00
  -8   0  -2  219.42    6.08
  -8   0  -3    0.67    1.08
  -8   0  -3    2.27    1.29
  -8   0  -4  147.36    5.76
  -8   0  -4  146.10    5.54
  -8   0  -5   -0.94    1.26
  -8   0  -5   -0.88    1.47
  -8   0  -6   98.32    5.13
  -8   0  -7   -0.17    1.57
  -8   0  -8   33.92    3.49
  -8   0  -9    1.45    1.81
  -8   1  13    4.63    2.26
  -8  -1  13   -0.19    1.56
  -8   1  12   39.26    3.77
  -8  -1  12   50.34    4.17
  -8   1  11    0.25    1.87
  -8  -1  11    3.51    2.38
  -8  -1  10   19.10    2.77
  -8   1  10   19.74    2.80
  -8   1   9   13.00    2.38
  -8  -1   9    9.16    2.00
  -8   1   8   10.25    1.98
  -8  -1   8   10.95    2.11
  -8   1   7   61.51    4.20
  -8  -1   7   61.64    4.18
  -8  -1   6   16.80    2.28
  -8   1   6   12.91    2.17
  -8  -1   6   13.37    1.06
  -8  -1   5    2.55    1.54
  -8   1   5    0.71    1.36
  -8  -1   5    1.64    0.61
  -8  -1   4   72.07    4.40
  -8   1   4   71.64    4.35
  -8  -1   4   77.19    2.30
  -8  -1   3  609.87   13.71
  -8   1   3  582.74   13.46
  -8  -1   2  105.15    5.18
  -8   1   2  104.61    5.14
  -8   1   2  108.22    2.23
  -8   1   1   91.92    4.80
  -8  -1   1   88.45    4.65
  -8   1   1   93.82    2.64
  -8   1   0   18.99    2.31
  -8  -1   0   13.11    1.98
  -8   1   0   18.67    1.42
  -8  -1  -1  153.40    6.06
  -8  -1  -1  165.89    5.05
  -8   1  -1  165.23    6.30
  -8   1  -1  171.24    4.73
  -8   1  -2    3.69    1.46
  -8  -1  -2    1.54    1.16
  -8  -1  -2    3.71    1.15
  -8   1  -2    4.45    1.21
  -8   1  -3  144.56    5.80
  -8  -1  -3  150.89    5.88
  -8  -1  -3  151.93    5.43
  -8   1  -3  152.00    5.21
  -8   1  -4    5.26    1.53
  -8  -1  -4    3.07    1.19
  -8  -1  -4    2.85    1.41
  -8   1  -4    4.03    1.45
  -8  -1  -5  107.12    4.81
  -8   1  -5  107.53    4.97
  -8  -1  -5  105.58    5.02
  -8  -1  -6    2.05    1.11
  -8   1  -6   -2.46    1.45
  -8  -1  -6   -0.45    1.54
  -8   1  -7   11.54    2.28
  -8  -1  -7   12.61    2.58
  -8   1  -8    2.00    1.85
  -8  -1  -8    0.43    1.61
  -8   1  -9   31.41    3.72
  -8  -1  -9   24.91    3.38
  -8  -2  13    5.13    2.00
  -8   2  12   42.62    4.03
  -8  -2  12   40.64    3.93
  -8   2  11    3.38    2.25
  -8  -2  11    1.27    2.31
  -8   2  10   36.42    3.57
  -8  -2  10   34.51    3.38
  -8   2   9   47.68    3.87
  -8  -2   9   53.20    4.10
  -8  -2   8   64.25    4.36
  -8   2   8   72.39    4.64
  -8  -2   7   51.48    3.91
  -8   2   7   52.59    3.98
  -8  -2   6  137.45    6.21
  -8   2   6  142.00    6.31
  -8  -2   6  142.04    3.90
  -8  -2   5   -0.12    1.35
  -8   2   5   -0.99    1.28
  -8  -2   5    1.20    0.74
  -8  -2   4  477.74   11.95
  -8   2   4  469.38   11.93
  -8  -2   4  472.50    8.17
  -8  -2   3   20.74    2.38
  -8   2   3   28.37    2.88
  -8  -2   2  120.03    5.47
  -8   2   2  128.33    5.67
  -8  -2   1    0.26    1.13
  -8   2   1    2.30    1.28
  -8   2   1    0.61    0.48
  -8  -2   0   72.11    4.17
  -8   2   0   69.67    4.16
  -8   2   0   67.25    2.45
  -8  -2  -1   72.70    4.19
  -8   2  -1   79.32    4.38
  -8   2  -1   77.38    2.98
  -8   2  -2  106.13    5.02
  -8  -2  -2   99.20    4.78
  -8  -2  -2   99.76    4.29
  -8   2  -2  100.79    3.82
  -8   2  -3    2.58    1.39
  -8  -2  -3    0.38    1.38
  -8  -2  -3    5.60    1.33
  -8   2  -3    3.34    1.09
  -8  -2  -4   62.92    3.76
  -8  -2  -4   66.01    3.89
  -8   2  -4   73.96    3.81
  -8  -2  -5   11.44    1.73
  -8  -2  -5    8.49    1.85
  -8   2  -5   10.07    1.84
  -8  -2  -6   27.56    2.45
  -8  -2  -6   30.32    2.98
  -8   2  -6   23.15    2.67
  -8  -2  -7    0.69    1.66
  -8   2  -7    2.51    1.78
  -8   2  -8   11.55    2.46
  -8  -2  -8   11.11    2.54
  -8   2  -9    8.34    2.23
  -8  -2  -9    6.89    2.32
  -8  -3  13    4.99    1.94
  -8  -3  12    2.93    1.62
  -8  -3  11    1.20    2.13
  -8  -3  10   11.47    2.15
  -8   3  10    9.01    2.28
  -8  -3   9    0.52    1.48
  -8   3   9    0.77    1.78
  -8   3   8   44.55    3.55
  -8  -3   8   41.50    3.64
  -8  -3   7   91.68    5.17
  -8   3   7   92.10    5.13
  -8  -3   6  146.10    6.40
  -8   3   6  153.85    6.61
  -8  -3   6  151.82    4.40
  -8  -3   5   96.78    5.18
  -8   3   5   98.16    5.21
  -8  -3   5  100.98    3.43
  -8  -3   4  104.13    5.29
  -8   3   4  124.02    5.74
  -8  -3   4  112.18    3.61
  -8  -3   3   99.23    5.03
  -8   3   3  104.34    5.26
  -8  -3   2  152.28    6.27
  -8   3   2  153.98    6.32
  -8  -3   1  161.97    6.39
  -8   3   1  170.01    6.59
  -8  -3   0    3.45    1.40
  -8   3   0    4.04    1.65
  -8   3   0    3.11    0.77
  -8  -3  -1   76.83    4.25
  -8   3  -1   83.89    4.60
  -8   3  -1   83.05    2.99
  -8  -3  -2   49.05    3.37
  -8   3  -2   44.79    3.35
  -8   3  -2   50.19    2.59
  -8  -3  -3  123.25    5.35
  -8  -3  -3  123.46    5.23
  -8   3  -3  132.71    4.71
  -8  -3  -4   10.21    1.79
  -8   3  -4   14.54    1.90
  -8  -3  -4   12.48    2.02
  -8  -3  -5  111.48    4.89
  -8  -3  -5  113.06    5.46
  -8   3  -5  108.38    4.93
  -8  -3  -6    2.97    1.36
  -8  -3  -6    0.33    1.63
  -8   3  -6    1.42    1.44
  -8  -3  -7    1.77    1.58
  -8   3  -7    0.63    1.55
  -8  -3  -8    2.01    1.62
  -8   3  -8    1.14    1.64
  -8   3  -9   40.23    3.80
  -8  -3  -9   39.83    4.09
  -8  -4  13   42.88    4.02
  -8  -4  12   -2.40    1.98
  -8  -4  11   36.60    3.64
  -8  -4  10   -0.59    1.65
  -8  -4   9   60.81    4.42
  -8   4   9   64.71    4.51
  -8  -4   8   16.16    2.42
  -8   4   8   14.26    2.39
  -8   4   8   15.89    1.78
  -8  -4   7  100.97    5.46
  -8   4   7  102.67    5.53
  -8  -4   6   87.97    4.99
  -8   4   6   86.65    4.95
  -8  -4   6   89.36    3.55
  -8   4   5   11.92    2.16
  -8  -4   5    7.58    1.70
  -8  -4   5   11.70    1.46
  -8   4   4   -3.90    1.89
  -8  -4   4   -0.46    1.41
  -8   4   3    3.17    1.48
  -8  -4   3    3.20    1.47
  -8   4   2    8.10    1.80
  -8  -4   2    7.40    1.51
  -8   4   1   12.25    2.06
  -8  -4   1   10.79    1.90
  -8  -4   0   78.38    4.41
  -8   4   0   86.28    4.69
  -8   4   0   81.57    2.36
  -8  -4  -1   31.95    2.84
  -8   4  -1   34.76    1.91
  -8  -4  -2   90.46    4.63
  -8   4  -2  105.27    3.75
  -8  -4  -3   14.49    1.99
  -8   4  -3   16.13    1.73
  -8  -4  -4   51.68    3.53
  -8  -4  -4   51.64    3.67
  -8   4  -4   57.38    3.30
  -8  -4  -5   39.78    3.40
  -8  -4  -5   35.27    2.84
  -8   4  -5   41.74    3.12
  -8  -4  -6   86.57    4.22
  -8  -4  -6   86.39    5.13
  -8   4  -6   94.19    4.88
  -8  -4  -7   23.90    2.93
  -8   4  -7   26.30    2.87
  -8  -4  -8   64.15    4.81
  -8   4  -8   58.86    4.34
  -8  -4  -9   17.26    3.14
  -8   4  -9   20.00    2.99
  -8  -5  13   -0.95    1.90
  -8  -5  12   58.07    4.68
  -8  -5  11    3.92    1.61
  -8  -5  10   36.04    3.54
  -8  -5   9   17.96    2.80
  -8  -5   8   49.29    3.92
  -8   5   8   57.73    3.19
  -8  -5   7   31.33    3.13
  -8   5   7   39.70    2.83
  -8  -5   6  121.42    5.99
  -8   5   6  140.80    6.42
  -8  -5   6  124.60    4.54
  -8  -5   5   58.12    4.08
  -8   5   5   64.35    4.29
  -8  -5   5   59.74    3.06
  -8   5   4   14.58    2.34
  -8  -5   4   13.76    2.28
  -8  -5   3  100.68    5.21
  -8   5   3  108.36    5.44
  -8  -5   2    5.90    1.66
  -8  -5   1    6.82    1.69
  -8  -5   0    5.65    1.83
  -8  -5  -1   75.18    4.32
  -8   5  -1   74.98    2.79
  -8  -5  -2    4.41    1.28
  -8   5  -2    4.33    1.07
  -8  -5  -3   52.75    3.55
  -8   5  -3   53.55    2.95
  -8  -5  -4   49.29    3.33
  -8   5  -4   51.09    3.08
  -8  -5  -5   38.37    2.99
  -8  -5  -5   41.77    3.74
  -8   5  -5   38.92    2.99
  -8  -5  -6   72.26    3.89
  -8  -5  -6   71.92    4.72
  -8   5  -6   77.71    4.42
  -8   5  -7   -1.02    1.55
  -8  -5  -7   -1.34    1.63
  -8   5  -8    5.53    2.03
  -8  -5  -8    0.31    1.81
  -8   5  -9    1.76    1.58
  -8  -6  13   36.54    3.85
  -8  -6  12   -1.62    1.62
  -8  -6  11    7.00    2.23
  -8  -6  10    1.40    2.61
  -8  -6   9   17.65    2.64
  -8  -6   8   59.15    4.30
  -8   6   8   62.05    3.40
  -8  -6   7   99.06    5.48
  -8   6   7   96.30    4.45
  -8  -6   6   90.93    5.19
  -8   6   6   93.99    4.48
  -8  -6   6   93.25    4.13
  -8  -6   5  129.45    6.12
  -8  -6   5  125.11    4.72
  -8  -6   4    0.90    1.25
  -8  -6   3  125.02    5.88
  -8  -6   2    8.94    1.89
  -8  -6   1   79.58    4.58
  -8  -6   0    8.83    1.94
  -8  -6  -1   13.39    2.07
  -8  -6  -2   86.28    4.59
  -8   6  -2   92.57    3.48
  -8   6  -3    8.14    1.44
  -8  -6  -3    5.63    1.49
  -8   6  -4    0.08    1.11
  -8  -6  -4   -1.27    1.24
  -8   6  -5    8.41    1.69
  -8  -6  -5    6.81    1.62
  -8   6  -6    3.22    1.45
  -8  -6  -6    6.52    2.71
  -8  -6  -6    5.10    1.43
  -8   6  -7    6.30    1.81
  -8  -6  -7    7.03    2.18
  -8   6  -8   14.70    2.50
  -8  -6  -8   15.16    2.80
  -8   6  -9    9.93    2.39
  -8  -7  13   15.92    2.78
  -8  -7  12   27.51    3.20
  -8  -7  11    1.94    1.70
  -8  -7  10   53.82    4.35
  -8  -7   9    4.91    1.72
  -8  -7   8  179.47    7.64
  -8   7   8  192.11    6.20
  -8  -7   7    7.44    1.80
  -8   7   7    7.80    1.45
  -8  -7   6   24.18    2.90
  -8   7   6   27.96    2.61
  -8   7   5   40.41    3.20
  -8  -7   5   40.10    3.58
  -8  -7   4  119.40    5.86
  -8  -7   3   13.10    2.19
  -8  -7   2    5.00    1.46
  -8  -7   1    0.51    1.28
  -8  -7   0   -0.15    1.15
  -8  -7  -1   58.18    3.91
  -8  -7  -2    5.91    1.65
  -8  -7  -3    6.00    1.62
  -8   7  -3    7.24    1.50
  -8  -7  -4   21.21    2.36
  -8   7  -4   27.19    2.39
  -8  -7  -5   19.94    2.26
  -8   7  -5   24.32    2.46
  -8  -7  -6   17.88    2.10
  -8   7  -6   21.42    2.56
  -8   7  -7    9.17    2.19
  -8  -7  -7   10.92    2.45
  -8   7  -8   19.82    2.81
  -8  -7  -8   24.35    3.33
  -8   7  -9    4.36    1.89
  -8  -8  13   76.83    5.42
  -8  -8  12   -0.54    2.23
  -8  -8  11  120.33    6.46
  -8  -8  10    1.27    1.60
  -8  -8   9   72.70    4.97
  -8  -8   8   -1.82    1.52
  -8   8   8   -0.72    1.11
  -8  -8   7  118.62    6.20
  -8   8   7  137.78    5.60
  -8  -8   6   30.61    3.21
  -8   8   6   39.43    3.08
  -8  -8   5   40.63    3.53
  -8   8   5   47.03    3.52
  -8  -8   4   27.60    2.99
  -8   8   4   24.06    2.63
  -8  -8   3    0.07    1.35
  -8  -8   2   54.02    3.98
  -8  -8   1    1.98    1.44
  -8  -8   0   45.91    3.59
  -8  -8  -1    6.36    1.59
  -8  -8  -2    6.52    1.72
  -8  -8  -3    9.39    1.79
  -8   8  -4   12.20    1.81
  -8  -8  -4    8.57    1.83
  -8   8  -5    5.35    1.66
  -8  -8  -5    4.33    1.48
  -8   8  -6    4.05    1.49
  -8  -8  -6    6.55    1.46
  -8   8  -7    0.62    1.51
  -8  -8  -7    2.66    2.10
  -8   8  -8    9.97    2.25
  -8   8  -9    7.36    2.08
  -8  -9  12   11.49    2.27
  -8  -9  11   10.34    2.25
  -8  -9  10   47.02    4.15
  -8  -9   9    5.08    1.93
  -8  -9   8   63.65    4.74
  -8   9   8   69.17    3.87
  -8  -9   7   23.49    3.02
  -8   9   7   21.36    2.40
  -8  -9   6   20.39    2.71
  -8   9   6   24.15    2.52
  -8  -9   5    4.05    1.80
  -8   9   5    2.36    1.36
  -8  -9   4   84.50    5.10
  -8   9   4   87.78    4.93
  -8  -9   3   27.65    3.01
  -8   9   3   23.47    2.84
  -8  -9   2    5.49    1.68
  -8   9   2    8.42    1.94
  -8  -9   1    2.26    1.42
  -8  -9   0   57.71    4.01
  -8  -9  -1    3.76    1.62
  -8  -9  -2    3.04    1.56
  -8  -9  -3   17.59    2.30
  -8  -9  -4   -0.10    1.24
  -8  -9  -5   37.75    3.17
  -8   9  -6    8.81    1.98
  -8   9  -7    6.93    1.96
  -8   9  -8   -1.02    1.76
  -8 -10  12    4.98    2.08
  -8 -10  11   33.76    3.83
  -8 -10  10    8.61    2.19
  -8 -10   9   68.28    4.94
  -8 -10   8    3.92    1.84
  -8  10   8    4.26    1.50
  -8 -10   7   13.56    2.53
  -8  10   7   17.55    2.30
  -8 -10   6    7.22    2.16
  -8  10   6    6.88    1.72
  -8 -10   5   11.56    2.27
  -8  10   5   12.04    2.02
  -8 -10   4   22.17    2.73
  -8  10   4   31.23    3.04
  -8 -10   3   33.75    3.33
  -8  10   3   31.14    3.13
  -8 -10   2   68.05    4.59
  -8  10   2   61.75    4.40
  -8 -10   1   47.29    3.94
  -8  10   1   47.61    3.94
  -8 -10   0    0.44    1.39
  -8  10   0    3.05    1.79
  -8 -10  -1   44.28    3.65
  -8 -10  -2   19.63    2.64
  -8 -10  -3    0.71    1.32
  -8 -10  -4   45.25    3.57
  -8 -10  -5    0.30    1.18
  -8 -11  11    1.76    1.52
  -8 -11  10   31.85    3.49
  -8 -11   9   27.37    3.32
  -8 -11   8   17.51    2.80
  -8  11   8   12.90    2.02
  -8 -11   7   59.02    4.63
  -8  11   7   61.80    4.00
  -8 -11   6   22.85    3.08
  -8  11   6   20.65    2.51
  -8 -11   5   58.63    4.49
  -8  11   5   71.65    4.59
  -8 -11   4    4.78    1.73
  -8  11   4    9.19    1.83
  -8 -11   3   69.55    4.83
  -8  11   3   64.00    4.46
  -8 -11   2    5.77    1.83
  -8  11   2    3.14    1.50
  -8 -11   1   90.77    5.40
  -8  11   1   98.13    5.74
  -8 -11   0    4.65    1.61
  -8  11   0    5.20    2.15
  -8 -11  -1    3.49    1.41
  -8  11  -1    4.76    1.82
  -8 -11  -2    8.72    1.92
  -8  11  -2   13.78    2.80
  -8 -11  -3   28.99    3.06
  -8  11  -3   35.25    3.99
  -8 -11  -4   37.11    3.31
  -8  11  -4   38.24    4.07
  -8 -11  -5    1.67    1.32
  -8  11  -5    3.68    1.71
  -8 -12  10    2.20    1.84
  -8 -12   9   10.65    2.24
  -8 -12   8   13.57    2.58
  -8  12   8   14.78    2.32
  -8 -12   7    4.27    1.61
  -8  12   7    5.72    1.78
  -8 -12   6    2.92    1.77
  -8  12   6    2.69    1.44
  -8 -12   5    2.71    1.99
  -8  12   5    3.48    1.58
  -8 -12   4   76.24    5.16
  -8  12   4   81.25    5.10
  -8 -12   3   12.78    2.48
  -8  12   3   13.21    2.39
  -8 -12   2   82.49    5.26
  -8  12   2   79.43    5.23
  -8 -12   1    5.35    1.87
  -8  12   1    4.57    1.92
  -8 -12   0   26.57    3.05
  -8  12   0   32.69    3.57
  -8 -12  -1   13.68    2.35
  -8  12  -1   17.47    2.96
  -8 -12  -2   24.19    2.90
  -8  12  -2   29.97    3.68
  -8 -12  -3    4.84    1.68
  -8  12  -3    5.08    1.97
  -8 -12  -4   18.20    2.59
  -8  12  -4   15.73    2.74
  -8 -12  -5    3.60    1.63
  -8 -13   8   24.09    3.37
  -8  13   8   25.09    2.87
  -8 -13   7    8.88    2.24
  -8  13   7    5.89    1.66
  -8 -13   6    1.64    1.94
  -8  13   6   -1.36    1.28
  -8 -13   5   25.66    3.37
  -8  13   5   23.11    2.94
  -8 -13   4   33.48    3.55
  -8  13   4   32.61    3.43
  -8 -13   3   41.54    3.94
  -8  13   3   38.50    3.83
  -8 -13   2   17.26    2.71
  -8  13   2   17.26    2.70
  -8 -13   1   61.90    4.66
  -8  13   1   62.65    4.90
  -8 -13   0   40.31    3.83
  -8  13   0   40.75    4.07
  -8 -13  -1   57.56    4.56
  -8  13  -1   57.51    4.84
  -8 -13  -2    5.61    1.87
  -8  13  -2    9.02    2.50
  -8 -13  -3  129.90    6.49
  -8  13  -3  151.10    7.90
  -8 -13  -4   20.54    2.81
  -8 -13  -5   39.71    3.72
  -8 -14   7   -0.80    1.77
  -8  14   7    4.03    1.92
  -8 -14   6   77.97    5.48
  -8  14   6   70.09    4.80
  -8 -14   5   10.07    2.20
  -8  14   5   15.07    2.66
  -8 -14   4   60.23    4.91
  -8  14   4   62.01    4.70
  -8 -14   3   -1.66    1.81
  -8  14   3    2.46    1.54
  -8 -14   2   99.56    6.07
  -8  14   2  116.42    6.55
  -8 -14   1    2.89    1.79
  -8  14   1    4.83    2.29
  -8 -14   0   97.95    5.90
  -8  14   0  103.99    6.43
  -8 -14  -1    6.02    2.24
  -8  14  -1    5.26    2.33
  -8 -14  -2   22.03    2.95
  -8  14  -2   30.04    3.66
  -8 -14  -3   -1.09    1.66
  -8 -14  -4   48.51    4.07
  -8 -14  -5    1.60    1.75
  -8  15   7   20.48    2.81
  -8  15   6    3.00    1.89
  -8 -15   5   50.03    4.61
  -8  15   5   54.80    4.47
  -8 -15   4    0.82    1.58
  -8  15   4    3.21    1.77
  -8 -15   3   33.72    3.87
  -8  15   3   38.03    3.88
  -8 -15   2    3.98    1.82
  -8  15   2    4.58    1.99
  -8 -15   1   73.69    5.28
  -8  15   1   79.29    5.52
  -8 -15   0    5.65    2.17
  -8  15   0    6.28    2.42
  -8 -15  -1   28.78    3.34
  -8  15  -1   26.02    3.52
  -8 -15  -2   12.27    2.49
  -8 -15  -3   54.93    4.58
  -8 -15  -4    1.86    1.63
  -8 -15  -5   26.27    3.22
  -8  16   7   22.99    2.91
  -8  16   6   24.12    3.24
  -8  16   5    0.37    1.63
  -8  16   4    5.17    2.25
  -8  16   3   -0.38    1.59
  -8 -16   2   -0.16    1.62
  -8  16   2    2.53    2.02
  -8 -16   1   16.21    2.82
  -8  16   1    7.29    2.10
  -8 -16   0   74.44    5.38
  -8 -16  -1    2.01    1.62
  -8 -16  -2   55.92    4.66
  -8 -16  -3    6.24    2.12
  -8 -16  -4   83.41    5.59
  -8  17   7   13.29    2.35
  -8  17   6   -0.23    1.92
  -8  17   5   31.21    3.75
  -8  17   4   -0.23    1.90
  -8  17   3   75.16    5.56
  -8  18   6   46.84    4.58
  -9   0  13    3.46    2.07
  -9   0  12   -1.48    1.96
  -9   0  11   88.28    5.60
  -9   0  10   -1.03    1.56
  -9   0   9  104.76    6.00
  -9   0   8    0.81    1.51
  -9   0   7   84.73    5.23
  -9   0   6    1.71    1.53
  -9   0   5    1.24    3.85
  -9   0   4   -1.94    1.86
  -9   0   3   49.69    3.84
  -9   0   2    0.33    1.31
  -9   0   2    1.30    0.67
  -9   0   1   61.10    4.26
  -9   0   1   65.77    2.48
  -9   0   0    1.19    1.42
  -9   0   0    1.21    0.88
  -9   0  -1    3.31    1.40
  -9   0  -1    2.69    1.09
  -9   0  -2    1.03    1.33
  -9   0  -2    0.04    0.99
  -9   0  -3    5.49    1.71
  -9   0  -3    9.07    1.67
  -9   0  -4    1.22    1.37
  -9   0  -4    0.62    1.37
  -9   0  -5   21.50    2.47
  -9   0  -6   -2.47    1.72
  -9   0  -7   30.94    3.33
  -9   0  -8   -0.87    1.91
  -9   1  13   19.79    3.20
  -9  -1  13   16.00    2.79
  -9   1  12   38.18    3.99
  -9  -1  12   36.21    3.99
  -9   1  11   37.73    3.84
  -9  -1  11   29.39    3.48
  -9   1  10    3.89    1.89
  -9  -1  10    5.42    2.10
  -9   1   9   30.51    3.43
  -9  -1   9   30.12    3.46
  -9  -1   8  125.12    6.46
  -9   1   8  125.37    6.46
  -9   1   7    3.95    1.70
  -9  -1   7    4.90    1.77
  -9   1   6    5.59    1.93
  -9  -1   6    4.47    1.82
  -9   1   5    3.96    3.62
  -9  -1   5    4.36    3.44
  -9   1   4   53.53    4.10
  -9  -1   4   50.77    3.90
  -9   1   3    6.69    1.93
  -9  -1   3    5.46    1.63
  -9   1   2   21.00    2.67
  -9  -1   2   20.63    2.65
  -9  -1   1   48.33    3.67
  -9  -1   1   50.32    2.42
  -9   1   1   52.10    3.91
  -9   1   1   49.56    1.91
  -9   1   0    3.09    1.52
  -9  -1   0    0.87    1.35
  -9  -1   0    2.69    1.18
  -9   1   0    2.62    0.99
  -9   1  -1   11.07    1.93
  -9  -1  -1    6.77    1.60
  -9  -1  -1   16.04    1.75
  -9   1  -1   10.74    1.34
  -9   1  -2   -0.15    1.27
  -9  -1  -2   -0.43    1.27
  -9  -1  -2   -0.40    1.20
  -9   1  -2   -0.65    1.17
  -9   1  -3    8.73    1.83
  -9  -1  -3    7.80    1.67
  -9  -1  -3   10.30    1.84
  -9   1  -3    5.68    1.42
  -9  -1  -4   52.64    3.68
  -9   1  -4   53.30    3.79
  -9  -1  -4   52.00    3.49
  -9   1  -4   56.75    3.54
  -9  -1  -5   -1.43    1.41
  -9   1  -5   -0.89    1.36
  -9  -1  -5   -0.20    1.45
  -9   1  -6   29.40    3.08
  -9  -1  -6   32.15    3.14
  -9   1  -7   -1.21    1.87
  -9  -1  -7    0.84    1.64
  -9   1  -8   27.56    3.23
  -9  -1  -8   20.69    3.02
  -9   1  -9   -0.62    2.13
  -9  -2  13   12.25    2.89
  -9   2  12    1.37    1.81
  -9  -2  12    1.92    1.71
  -9   2  11   25.45    3.30
  -9  -2  11   23.57    3.00
  -9   2  10    1.43    1.74
  -9  -2  10    0.84    1.73
  -9   2   9   43.30    4.07
  -9  -2   9   29.88    3.47
  -9   2   8    4.08    1.76
  -9  -2   8   -0.49    1.74
  -9  -2   7    3.59    1.66
  -9   2   7    2.82    1.76
  -9  -2   6   25.53    3.06
  -9   2   6   30.77    3.29
  -9  -2   5   12.28    3.58
  -9   2   5   13.93    3.58
  -9  -2   4    5.37    1.84
  -9   2   4    3.85    1.72
  -9  -2   3   46.21    3.79
  -9   2   3   48.37    3.92
  -9  -2   2   30.40    3.24
  -9   2   2   32.60    3.28
  -9   2   1   36.27    3.38
  -9  -2   1   38.26    3.45
  -9   2   0   84.18    4.89
  -9  -2   0   86.80    4.93
  -9   2   0   90.02    2.85
  -9   2  -1    1.90    1.63
  -9  -2  -1    3.50    1.52
  -9   2  -1    1.11    0.87
  -9  -2  -1    1.11    1.34
  -9   2  -2   50.48    3.83
  -9  -2  -2   49.09    3.66
  -9  -2  -2   49.97    3.18
  -9   2  -2   53.13    2.88
  -9  -2  -3   11.59    1.85
  -9  -2  -3   10.37    1.81
  -9   2  -3   16.32    1.99
  -9  -2  -4   27.06    2.74
  -9  -2  -4   30.12    2.89
  -9   2  -4   36.02    2.76
  -9  -2  -5   29.99    2.86
  -9  -2  -5   30.65    3.16
  -9   2  -5   25.30    2.66
  -9   2  -6   -0.21    1.38
  -9  -2  -6    2.07    1.76
  -9  -2  -7   51.99    4.23
  -9   2  -7   54.41    4.22
  -9   2  -8    1.30    1.86
  -9  -2  -8   -0.19    1.81
  -9  -3  13    7.18    2.10
  -9  -3  12    1.28    1.66
  -9  -3  11   12.82    2.50
  -9   3  10   23.32    3.23
  -9  -3  10   23.63    2.95
  -9  -3   9    5.32    2.25
  -9   3   9    2.78    1.57
  -9  -3   8   61.02    4.65
  -9   3   8   62.35    4.72
  -9  -3   7    2.19    1.90
  -9   3   7    2.35    1.53
  -9  -3   6    1.89    1.56
  -9   3   6    2.90    1.61
  -9  -3   5   74.88    4.87
  -9   3   5   75.85    4.90
  -9  -3   4    2.97    1.55
  -9   3   4    2.75    1.59
  -9  -3   3   91.47    5.20
  -9   3   3   89.44    5.19
  -9  -3   2    4.81    1.73
  -9   3   2    6.59    1.94
  -9  -3   1   23.48    2.80
  -9   3   1   21.66    2.78
  -9  -3   0   39.38    3.41
  -9   3   0   41.61    3.55
  -9  -3  -1  189.68    7.31
  -9   3  -1  193.89    7.49
  -9   3  -1  195.60    4.91
  -9  -3  -2    4.63    1.64
  -9   3  -2    7.60    1.40
  -9  -3  -2   11.34    1.90
  -9  -3  -3   84.23    4.78
  -9  -3  -3   90.66    4.61
  -9   3  -3   88.24    3.93
  -9  -3  -4   76.47    4.43
  -9  -3  -4   76.48    4.38
  -9   3  -4   84.72    4.15
  -9  -3  -5   24.87    2.82
  -9   3  -5   37.53    3.09
  -9  -3  -5   28.90    2.81
  -9  -3  -6    5.39    1.94
  -9   3  -6    1.84    1.65
  -9  -3  -7    8.87    2.20
  -9   3  -7   17.55    2.70
  -9   3  -8    2.23    1.87
  -9  -3  -8   -1.07    1.88
  -9  -4  12   45.84    4.23
  -9  -4  11    9.62    2.07
  -9  -4  10   11.84    2.61
  -9  -4   9   21.01    2.92
  -9   4   9   20.50    2.89
  -9   4   8   86.97    5.44
  -9   4   8   77.86    4.05
  -9  -4   8   80.92    5.36
  -9  -4   7   59.13    4.54
  -9   4   7   55.68    4.48
  -9  -4   6  230.71    8.75
  -9   4   6  251.04    9.15
  -9  -4   5   13.90    2.37
  -9   4   5   16.67    2.50
  -9  -4   4   27.76    3.06
  -9   4   4   25.67    3.19
  -9  -4   3   33.89    3.35
  -9   4   3   36.12    3.46
  -9  -4   2   20.56    2.67
  -9   4   2   26.16    3.01
  -9  -4   1   14.03    2.21
  -9   4   1   15.59    2.35
  -9  -4   0   10.31    2.10
  -9  -4  -1   -0.06    1.44
  -9  -4  -2   61.28    4.19
  -9   4  -2   68.93    3.12
  -9  -4  -3   34.19    3.10
  -9  -4  -3   37.32    3.28
  -9   4  -3   34.31    2.49
  -9  -4  -4   18.08    2.32
  -9   4  -4   23.80    2.34
  -9  -4  -4   17.26    2.59
  -9  -4  -5   42.69    3.27
  -9  -4  -5   45.79    3.87
  -9   4  -5   51.47    3.58
  -9  -4  -6    5.64    2.08
  -9   4  -6    2.57    1.56
  -9  -4  -7   56.06    4.45
  -9   4  -7   52.87    4.14
  -9  -4  -8    0.20    1.68
  -9   4  -8    9.50    2.50
  -9  -5  12    8.37    2.12
  -9  -5  11   11.59    2.30
  -9  -5  10    7.77    2.08
  -9  -5   9   75.84    5.21
  -9  -5   8    0.78    1.48
  -9   5   8   -1.42    1.15
  -9   5   7  131.81    5.44
  -9  -5   7  122.67    6.38
  -9  -5   6    4.50    1.90
  -9  -5   5  126.66    6.35
  -9  -5   4    1.74    1.49
  -9  -5   3   26.57    3.06
  -9  -5   2    1.03    1.48
  -9  -5   1   16.91    2.49
  -9  -5   0   -1.55    1.52
  -9  -5  -1   31.07    3.04
  -9  -5  -2   19.88    2.48
  -9  -5  -3   67.59    4.27
  -9  -5  -4    8.61    1.99
  -9  -5  -4    7.16    2.09
  -9  -5  -5   12.09    1.97
  -9   5  -5   13.80    2.13
  -9  -5  -5   16.82    2.59
  -9  -5  -6    0.83    1.66
  -9  -5  -7    7.84    1.94
  -9  -6  12   16.45    3.15
  -9  -6  11    2.36    1.84
  -9  -6  10   -2.09    1.61
  -9  -6   9    1.79    1.74
  -9  -6   8   10.81    2.28
  -9   6   8   11.45    1.74
  -9  -6   7    2.03    1.58
  -9   6   7    8.69    1.81
  -9  -6   6  153.91    7.22
  -9  -6   5   25.88    3.06
  -9  -6   4  109.04    5.89
  -9  -6   3    0.98    1.29
  -9  -6   2  133.89    6.40
  -9  -6   1    0.89    1.46
  -9  -6   0  195.31    7.70
  -9  -6  -1   40.67    3.45
  -9  -6  -2  164.38    6.88
  -9  -6  -3   -1.70    1.47
  -9  -6  -4  150.48    6.42
  -9  -6  -5    0.33    1.21
  -9  -6  -5   -1.76    1.56
  -9  -6  -6   55.85    4.47
  -9  -6  -7    3.43    2.35
  -9  -7  11   46.72    4.26
  -9  -7  10   11.27    2.52
  -9  -7   9   28.52    3.45
  -9  -7   8   12.59    2.42
  -9   7   8   12.68    1.93
  -9   7   7  128.52    5.67
  -9  -7   7  124.72    6.54
  -9   7   6   70.12    4.33
  -9  -7   6   69.09    4.86
  -9  -7   5  123.74    6.46
  -9  -7   4    5.18    1.82
  -9  -7   3   20.98    2.83
  -9  -7   2   -0.37    1.65
  -9  -7   1   42.97    3.69
  -9  -7   0    6.72    1.81
  -9  -7  -1   64.19    4.39
  -9  -7  -2    1.56    1.45
  -9  -7  -3   96.11    5.22
  -9  -7  -4    0.98    1.31
  -9  -7  -5   37.66    3.26
  -9  -7  -6   -0.36    1.72
  -9  -7  -7    9.56    2.65
  -9  -8  10   20.17    3.08
  -9  -8   9   -0.37    1.48
  -9  -8   8   79.58    5.40
  -9   8   8   86.02    4.51
  -9  -8   7   -0.47    1.47
  -9   8   7    2.71    1.52
  -9  -8   6   42.33    3.92
  -9   8   6   49.12    3.71
  -9  -8   5   18.91    2.83
  -9   8   5   24.30    2.88
  -9   8   4  115.16    5.83
  -9  -8   4  106.92    6.02
  -9  -8   3   14.16    2.39
  -9  -8   2   57.76    4.33
  -9  -8   1    0.92    1.49
  -9  -8   0   67.40    4.60
  -9  -8  -1    6.96    2.07
  -9  -8  -2   35.32    3.43
  -9  -8  -3   25.94    2.96
  -9  -8  -4   19.04    2.44
  -9  -8  -5   -1.03    1.31
  -9  -8  -6   13.60    3.07
  -9  -9   9   33.30    3.80
  -9  -9   8    3.01    1.84
  -9  -9   7   30.31    3.48
  -9   9   7   34.60    3.13
  -9  -9   6   11.32    2.43
  -9   9   6    8.70    1.76
  -9  -9   5   89.28    5.69
  -9   9   5   95.16    5.36
  -9  -9   4   49.04    4.13
  -9   9   4   46.69    3.84
  -9  -9   3  110.74    6.15
  -9   9   3  108.15    5.85
  -9  -9   2   30.08    3.20
  -9  -9   1   76.73    4.96
  -9  -9   0    1.79    1.56
  -9  -9  -1   68.06    4.68
  -9  -9  -2    0.20    1.36
  -9  -9  -3   80.63    5.04
  -9  -9  -4    0.12    1.56
  -9  -9  -5   30.64    3.12
  -9 -10   9   15.19    2.77
  -9 -10   8    8.71    2.34
  -9 -10   7    0.14    1.43
  -9  10   7   -0.62    1.27
  -9 -10   6  108.52    6.34
  -9  10   6   98.75    5.51
  -9 -10   5   -1.23    1.85
  -9  10   5    2.93    1.80
  -9 -10   4   27.56    3.34
  -9  10   4   27.63    3.22
  -9 -10   3    2.46    1.66
  -9  10   3    0.73    1.40
  -9 -10   2  211.30    8.51
  -9  10   2  201.69    8.42
  -9 -10   1    4.50    1.86
  -9  10   1    2.26    1.58
  -9 -10   0  104.56    5.88
  -9 -10  -1   10.76    2.24
  -9 -10  -2   93.66    5.47
  -9 -10  -3    1.98    1.56
  -9 -10  -4   39.30    3.67
  -9 -11   7   72.85    5.34
  -9  11   7   85.30    5.04
  -9 -11   6    1.34    1.74
  -9  11   6   -1.41    1.96
  -9 -11   5   54.35    4.65
  -9  11   5   52.67    4.28
  -9 -11   4    2.82    1.81
  -9  11   4    0.15    1.53
  -9 -11   3  134.26    7.04
  -9  11   3  140.99    7.01
  -9 -11   2    1.31    1.52
  -9  11   2    3.07    2.12
  -9 -11   1   39.24    3.86
  -9  11   1   45.03    4.25
  -9 -11   0    6.61    2.00
  -9  11   0    4.02    1.81
  -9 -11  -1   41.48    3.82
  -9  11  -1   47.14    4.49
  -9 -11  -2    6.35    1.94
  -9  11  -2    5.79    2.26
  -9 -11  -3    1.41    1.45
  -9 -11  -4    1.44    1.51
  -9  12   7   19.28    2.82
  -9 -12   6   18.94    3.05
  -9  12   6   15.37    2.40
  -9 -12   5    4.32    1.94
  -9  12   5    6.46    2.04
  -9 -12   4   14.09    2.60
  -9  12   4    7.19    2.24
  -9 -12   3    6.88    2.05
  -9  12   3    9.79    2.45
  -9 -12   2  108.85    6.30
  -9  12   2  120.63    6.78
  -9 -12   1    0.35    1.42
  -9  12   1    0.27    1.54
  -9 -12   0    8.98    2.27
  -9  12   0   10.74    2.81
  -9 -12  -1   -0.20    1.63
  -9  12  -1    1.65    1.66
  -9 -12  -2   20.75    2.82
  -9  12  -2   22.61    3.40
  -9 -12  -3    1.47    1.68
  -9 -12  -4    2.29    1.81
  -9  13   7    2.69    1.53
  -9  13   6   36.85    3.73
  -9  13   5    1.67    1.54
  -9 -13   4    6.84    1.98
  -9  13   4    5.42    1.85
  -9 -13   3   10.44    2.74
  -9  13   3   12.68    2.67
  -9 -13   2   16.05    2.79
  -9  13   2   10.17    2.46
  -9 -13   1   17.92    3.25
  -9  13   1   15.88    2.88
  -9 -13   0    1.08    1.70
  -9  13   0    0.52    1.65
  -9 -13  -1   23.39    3.10
  -9 -13  -2   -0.98    1.45
  -9 -13  -3   20.68    2.82
  -9 -13  -4   16.41    2.65
  -9  14   7    3.93    2.13
  -9  14   6    8.60    2.42
  -9  14   5   -1.47    1.59
  -9  14   4    3.27    1.78
  -9  14   3    2.39    2.21
  -9 -14   2   10.91    1.98
  -9  14   2   14.60    2.98
  -9 -14   1    2.87    1.49
  -9  14   1    7.35    2.28
  -9 -14   0   11.33    2.35
  -9 -14  -1   43.19    4.16
  -9 -14  -2   28.27    3.57
  -9 -14  -3   12.07    2.32
  -9 -14  -4    1.99    1.92
  -9  15   6   13.61    2.56
  -9  15   5    2.85    1.80
  -9  15   4    3.20    2.18
  -9  15   3    0.54    1.60
  -9  16   6    0.97    1.75
  -9  16   5   59.62    4.89
 -10   0  10   83.49    5.75
 -10   0   9   -1.82    1.69
 -10   0   8  150.84    7.55
 -10   0   7    1.14    1.83
 -10   0   6   79.37    5.32
 -10   0   5    0.11    1.89
 -10   0   4   25.18    3.08
 -10   0   3    3.02    1.96
 -10   0   2  346.25   10.99
 -10   0   1    0.03    1.75
 -10   0   0  204.51    8.11
 -10   0  -1    0.83    1.45
 -10   0  -2   93.04    5.42
 -10   0  -3   -2.32    1.89
 -10   0  -4    8.38    1.99
 -10   1  10   20.25    3.15
 -10  -1  10   19.80    3.21
 -10   1   9   19.44    3.09
 -10  -1   9   18.21    2.86
 -10   1   8   -1.47    2.06
 -10  -1   8    0.80    1.60
 -10  -1   7   73.28    5.24
 -10   1   7   78.60    5.49
 -10   1   6    6.78    1.93
 -10  -1   6    2.94    1.70
 -10  -1   5  122.43    6.62
 -10   1   5  124.95    6.55
 -10   1   4   13.78    2.57
 -10  -1   4    8.31    1.96
 -10   1   3    7.59    2.02
 -10  -1   3    6.00    1.78
 -10   1   2   11.47    2.46
 -10  -1   2    6.38    1.81
 -10   1   1  175.87    7.63
 -10  -1   1  190.16    7.86
 -10   1   0    2.51    1.56
 -10  -1   0    2.39    1.42
 -10   1  -1   19.61    2.87
 -10  -1  -1   18.57    2.76
 -10   1  -2   -2.15    1.62
 -10  -1  -2    2.88    1.78
 -10   1  -3   29.71    3.24
 -10  -1  -3   33.27    3.29
 -10  -1  -4    3.60    1.70
 -10   2  10   66.81    5.27
 -10  -2  10   66.29    5.16
 -10   2   9   21.25    3.36
 -10  -2   9   23.97    3.22
 -10   2   8   37.02    3.96
 -10  -2   8   37.44    3.88
 -10   2   7    3.94    2.05
 -10  -2   7    0.09    1.78
 -10   2   6   91.42    5.77
 -10  -2   6   94.40    5.85
 -10   2   5    7.14    2.22
 -10  -2   5    0.79    1.62
 -10  -2   4   42.61    3.83
 -10   2   4   47.67    4.19
 -10   2   3    3.52    1.85
 -10  -2   3    1.25    1.57
 -10   2   2   34.36    3.50
 -10  -2   2   26.65    3.09
 -10   2   1   25.86    3.13
 -10  -2   1   26.06    2.98
 -10  -2   0   40.55    3.59
 -10   2   0   51.71    4.10
 -10   2  -1    2.82    1.89
 -10  -2  -1    0.53    1.44
 -10   2  -2   23.03    3.01
 -10  -2  -2   17.21    2.61
 -10  -2  -3   18.82    2.67
 -10  -2  -4    6.40    1.81
 -10  -2  -4    4.20    1.64
 -10  -2  -5    5.81    2.03
 -10   3  10   35.85    4.00
 -10  -3  10   33.82    3.74
 -10   3   9   52.11    4.57
 -10  -3   9   42.50    4.19
 -10   3   8   26.24    3.32
 -10  -3   8   25.74    3.21
 -10   3   7   65.71    4.95
 -10  -3   7   62.52    4.82
 -10  -3   6   10.57    2.61
 -10   3   6   10.88    2.46
 -10  -3   5  121.29    6.56
 -10   3   5  122.77    6.64
 -10  -3   4    8.39    2.19
 -10   3   4    5.21    1.88
 -10  -3   3   41.46    3.88
 -10   3   3   43.61    4.03
 -10  -3   2   -1.75    1.56
 -10   3   2   -2.29    1.86
 -10   3   1  199.43    8.16
 -10  -3   1  201.68    8.22
 -10   3   0   43.86    3.92
 -10  -3   0   40.68    3.81
 -10  -3  -1   88.12    5.29
 -10  -3  -1   88.71    4.13
 -10  -3  -2   21.63    2.82
 -10  -3  -2   24.29    2.46
 -10  -3  -3    6.81    1.93
 -10  -3  -3    9.86    1.89
 -10  -3  -4   10.13    2.00
 -10  -3  -4   15.05    2.44
 -10  -3  -5   21.47    2.88
 -10  -3  -6   28.18    3.14
 -10  -4   9   12.89    2.68
 -10  -4   8   27.79    3.49
 -10   4   8   31.53    3.66
 -10  -4   7    2.34    2.01
 -10   4   7    3.54    1.66
 -10  -4   6  179.76    8.16
 -10   4   6  174.81    8.09
 -10  -4   5    8.50    1.89
 -10   4   5   10.86    2.82
 -10  -4   4  142.64    7.05
 -10   4   4  149.57    7.26
 -10  -4   3    9.80    2.13
 -10   4   3   10.30    2.48
 -10  -4   2   15.53    2.56
 -10   4   2   22.26    3.36
 -10  -4   1    0.78    1.56
 -10  -4   0    0.20    1.44
 -10  -4  -1   51.84    4.15
 -10  -4  -2    8.26    2.04
 -10  -4  -2   13.89    2.15
 -10  -4  -3    1.75    1.42
 -10  -4  -3    2.52    1.46
 -10  -4  -4   53.59    4.05
 -10  -4  -4   54.80    3.92
 -10  -4  -5    8.57    2.16
 -10  -4  -6    1.83    1.97
 -10  -5   9   20.20    3.09
 -10  -5   8    1.74    1.66
 -10  -5   7   14.52    2.86
 -10  -5   6    0.70    1.71
 -10  -5   5   11.97    2.38
 -10  -5   4    3.16    1.69
 -10  -5   3   15.67    2.58
 -10  -5   2    0.59    1.72
 -10  -5   1   13.30    2.28
 -10  -5   0   -0.39    1.46
 -10  -5  -1   15.70    2.51
 -10  -5  -2   98.01    5.64
 -10  -5  -3   14.72    2.41
 -10  -5  -3   14.98    2.24
 -10  -5  -4    7.51    2.03
 -10  -5  -4    6.87    1.97
 -10  -5  -5    0.30    1.63
 -10  -5  -6    9.13    2.28
 -10  -6   8    1.60    1.74
 -10  -6   7    2.68    1.46
 -10   6   7    4.65    1.68
 -10  -6   6   22.63    3.10
 -10  -6   5   18.40    2.82
 -10  -6   4    0.86    1.62
 -10  -6   3   18.95    2.97
 -10  -6   2   35.51    3.75
 -10  -6   1   29.10    3.23
 -10  -6   0   18.77    2.83
 -10  -6  -1   12.50    2.46
 -10  -6  -2   35.13    3.57
 -10  -6  -3   98.94    5.58
 -10  -6  -4   -0.39    1.40
 -10  -6  -4    0.40    1.70
 -10  -6  -5   71.51    4.96
 -10  -6  -6   -4.13    2.24
 -10  -7   8    3.09    2.00
 -10  -7   7   -0.92    1.48
 -10   7   7    2.25    1.46
 -10  -7   6    5.06    2.08
 -10   7   6    3.58    1.80
 -10  -7   5    8.72    2.09
 -10  -7   4   27.26    3.30
 -10  -7   3   13.49    2.60
 -10  -7   2    4.77    1.75
 -10  -7   1    2.15    1.56
 -10  -7   0   56.32    4.43
 -10  -7  -1    0.67    1.43
 -10  -7  -2   44.25    3.90
 -10  -7  -3   30.55    3.35
 -10  -7  -4   42.62    3.77
 -10  -7  -5    5.70    2.21
 -10  -7  -6   17.48    2.98
 -10  -8   7    4.52    2.01
 -10   8   7    6.40    1.92
 -10  -8   6    2.86    1.79
 -10   8   6    1.13    1.55
 -10  -8   5   36.64    3.81
 -10   8   5   27.47    3.13
 -10  -8   4    5.86    2.13
 -10  -8   3    2.98    1.86
 -10  -8   2    2.98    1.74
 -10  -8   1   15.06    2.66
 -10  -8   0    5.65    2.02
 -10  -8  -1    5.29    2.03
 -10  -8  -2    3.25    1.73
 -10  -8  -3   11.74    2.16
 -10  -8  -4    2.74    1.66
 -10  -8  -5    7.31    2.28
 -10   9   7    5.40    1.88
 -10  -9   6   -0.42    1.77
 -10   9   6    1.44    1.56
 -10  -9   5   20.70    3.04
 -10   9   5   12.64    2.58
 -10  -9   4   11.44    2.34
 -10   9   4    7.38    1.98
 -10  -9   3   44.49    4.18
 -10   9   3   43.01    3.98
 -10  -9   2    3.81    1.82
 -10  -9   1   32.67    3.60
 -10  -9   0   35.13    3.70
 -10  -9  -1   21.10    3.15
 -10  -9  -2   27.26    3.32
 -10  -9  -3    3.12    1.78
 -10  -9  -4   34.94    3.54
 -10  10   7   11.60    2.29
 -10  10   6   37.26    3.83
 -10  10   5   -2.11    1.59
 -10 -10   4    1.88    1.74
 -10  10   4   -0.25    1.63
 -10 -10   3    0.66    1.62
 -10  10   3    1.95    1.72
 -10 -10   2   25.90    3.34
 -10  10   2   24.92    3.42
 -10 -10   1    3.02    1.74
 -10  10   1    8.40    2.39
 -10 -10   0   23.95    3.18
 -10 -10  -1    4.91    1.92
 -10 -10  -2    6.85    2.03
 -10 -10  -3    9.28    2.10
 -10 -10  -4    6.20    1.91
 -10  11   6    3.96    1.73
 -10  11   5    5.45    2.21
 -10  11   4   10.51    2.43
 -10  11   3   -1.13    1.59
 -10 -11   2    4.22    1.85
 -10  11   2    8.82    2.18
 -10 -11   1   32.10    3.71
 -10  11   1   33.80    4.11
 -10 -11   0    4.76    2.07
 -10 -11  -1    7.82    2.13
 -10 -11  -2    8.10    2.27
 -10 -11  -3   -1.17    1.51
 -10  12   6   11.37    2.43
 -10  12   5   11.01    2.59
 -10  12   4   53.79    4.74
 -10  12   3    5.86    2.02
 -10  12   2   66.62    5.37
 -10 -12  -1    2.76    1.69
 -10 -12  -2   20.77    2.84
 -10 -12  -3   -1.18    1.80
 -10  13   6   20.22    3.04
 -10  13   5   87.62    5.84
 -10  13   4    0.65    1.78
 -10  13   3   75.96    5.62
 -10  14   6    2.54    2.25
 -10  14   5   12.42    2.77
 -11   0   6    2.98    1.78
 -11   0   5    8.69    2.52
 -11   0   4    2.14    1.73
 -11   0   3   51.14    4.51
 -11   0   2   -0.80    2.06
 -11   0   1   36.88    4.07
 -11   0   0   -0.83    1.67
 -11   0  -1  156.34    7.49
 -11   0  -2    0.83    1.76
 -11   0  -3   26.62    3.19
 -11   1   6    1.49    2.18
 -11  -1   6    0.62    1.77
 -11   1   5    6.90    2.21
 -11  -1   5    0.64    1.83
 -11  -1   4   82.53    5.66
 -11   1   4   89.69    5.95
 -11   1   3    9.71    2.42
 -11  -1   3    3.91    2.12
 -11  -1   2   90.96    5.86
 -11   1   2   87.58    5.79
 -11   1   1    0.50    2.15
 -11  -1   1   -0.88    2.10
 -11   1   0   26.40    3.43
 -11  -1   0   29.39    3.51
 -11   1  -1    1.20    2.04
 -11  -1  -1   -0.74    1.67
 -11   1  -2    3.76    1.83
 -11  -1  -2    2.02    1.76
 -11  -1  -3   10.81    2.36
 -11   2   6    5.17    2.06
 -11  -2   6    3.59    2.05
 -11   2   5    1.55    1.79
 -11  -2   5    0.58    1.68
 -11   2   4   32.62    3.67
 -11  -2   4   31.12    3.66
 -11   2   3   15.06    2.81
 -11  -2   3   16.26    2.64
 -11   2   2   10.50    2.25
 -11  -2   2   20.90    3.19
 -11   2   1    0.72    2.20
 -11  -2   1   -2.63    2.17
 -11   2   0   -0.06    1.76
 -11  -2   0    2.44    1.69
 -11   2  -1   30.08    3.53
 -11  -2  -1   22.48    3.23
 -11  -2  -2    2.51    1.72
 -11  -2  -3    5.72    1.97
 -11   3   5    9.23    2.50
 -11  -3   5    6.93    1.88
 -11   3   4   19.17    3.17
 -11  -3   4    9.76    2.15
 -11   3   3   48.20    4.51
 -11  -3   3   44.48    4.11
 -11   3   2   10.96    2.51
 -11  -3   2    8.56    2.29
 -11   3   1   14.41    2.81
 -11  -3   1   14.73    2.77
 -11  -3   0   72.16    5.25
 -11  -3  -1   17.65    2.74
 -11  -3  -2    9.68    2.37
 -11  -3  -3    5.99    2.08
 -11  -4   5    6.90    2.36
 -11   4   5   10.26    2.59
 -11  -4   4   57.32    4.82
 -11   4   4   64.06    5.06
 -11  -4   3   24.30    3.61
 -11  -4   2    3.04    1.68
 -11  -4   1    4.53    1.66
 -11  -4   0   -2.06    1.80
 -11  -4  -1   40.35    3.99
 -11  -4  -2   11.49    2.48
 -11  -4  -3   25.85    3.35
 -11  -5   4    2.45    2.00
 -11  -5   3   28.65    3.69
 -11  -5   2   16.60    2.98
 -11  -5   1   41.58    4.14
 -11  -5   0    8.74    2.17
 -11  -5  -1    2.34    1.63
 -11  -5  -2   -2.92    1.96
 -11  -5  -3   15.04    2.68
 -11  -6   3   -0.11    1.77
 -11  -6   2   76.08    5.45
 -11  -6   1    2.99    1.89
 -11  -6   0   21.75    3.21
 -11  -6  -1   15.69    2.79
 -11  -6  -2    3.80    1.98
 -11  -6  -3    1.64    1.92
 -11   7   6    1.69    1.65
 -11  -7   2   14.33    2.57
 -11  -7   1   14.53    2.78
 -11  -7   0    3.60    1.84
 -11  -7  -1   -0.08    1.77
 -11  -7  -2    1.01    1.96
 -11  -7  -3    4.88    2.06
 -11   8   6    7.01    2.09
 -11   8   5    5.56    2.08
 -11  -8  -1   -0.82    1.87
 -11  -8  -2   38.21    3.91
 -11   9   6    9.53    2.31
 -11   9   5   34.96    3.76
 -11   9   4    1.03    1.75
 -11   9   3   37.19    4.01
 -11  10   6   53.54    4.60
 -11  10   5   17.10    3.00
 -11  10   4   69.75    5.37
 -11  11   5    2.54    2.17
   0   0   0    0.00    0.00


TITL pvl449a_auto in P2(1)/n
REM P2(1)/n (#14 in standard setting)
CELL 0.71073   9.037399  17.969122  11.798295  90.0000 101.1050  90.0000
ZERR    3.00   0.000408   0.000772   0.000477   0.0000   0.0041   0.0000
LATT  1
SYMM -x+1/2, y+1/2,-z+1/2
SFAC C H N O S Zn
UNIT 60.00 60.00 24.00 24.00 3.00 3.00
REM  CrysAlisPro recorded range (K): Min=150.0; max=150.0; aver:150.0
TEMP -123
TREF
HKLF 4
END
_computing_structure_solution     'SHELXT 2018/2 (Sheldrick, 2018)'
;
_shelx_hkl_checksum   67382

