 
data_pvl1016_auto_a
 
_audit_creation_method            'SHELXL-2018/3'
_shelx_SHELXL_version_number      '2018/3'
_chemical_name_systematic         ?
_chemical_name_common             ?
_chemical_melting_point           ?
_chemical_formula_moiety          ?
_chemical_formula_sum
 'C2.89 H0.06 N1.78 O0.56 S0.11 Se0.22 Zn0.11' 
_chemical_formula_weight          96.92

loop_
 _atom_type_symbol
 _atom_type_description
 _atom_type_scat_dispersion_real
 _atom_type_scat_dispersion_imag
 _atom_type_scat_source
 'C'  'C'   0.0033   0.0016
 'International Tables Vol C Tables 4.2.6.8 and 6.1.1.4'
 'N'  'N'   0.0061   0.0033
 'International Tables Vol C Tables 4.2.6.8 and 6.1.1.4'
 'O'  'O'   0.0106   0.0060
 'International Tables Vol C Tables 4.2.6.8 and 6.1.1.4'
 'Zn'  'Zn'   0.2839   1.4301
 'International Tables Vol C Tables 4.2.6.8 and 6.1.1.4'
 'Se'  'Se'  -0.0929   2.2259
 'International Tables Vol C Tables 4.2.6.8 and 6.1.1.4'
 'S'  'S'   0.1246   0.1234
 'International Tables Vol C Tables 4.2.6.8 and 6.1.1.4'
 'H'  'H'   0.0000   0.0000
 'International Tables Vol C Tables 4.2.6.8 and 6.1.1.4'
 
_space_group_crystal_system       triclinic
_space_group_IT_number            2
_space_group_name_H-M_alt         'P -1'
_space_group_name_Hall            '-P 1'
 
_shelx_space_group_comment
;
The symmetry employed for this shelxl refinement is uniquely defined
by the following loop, which should always be used as a source of
symmetry information in preference to the above space-group names.
They are only intended as comments.
;
 
loop_
 _space_group_symop_operation_xyz
 'x, y, z'
 '-x, -y, -z'
 
_cell_length_a                    5.87830(10)
_cell_length_b                    10.0610(3)
_cell_length_c                    26.0692(10)
_cell_angle_alpha                 96.417(3)
_cell_angle_beta                  91.531(2)
_cell_angle_gamma                 90.907(2)
_cell_volume                      1531.29(8)
_cell_formula_units_Z             18
_cell_measurement_temperature     291(2)
_cell_measurement_reflns_used     ?
_cell_measurement_theta_min       ?
_cell_measurement_theta_max       ?
 
_exptl_crystal_description        ?
_exptl_crystal_colour             ?
_exptl_crystal_density_meas       ?
_exptl_crystal_density_method     ?
_exptl_crystal_density_diffrn     1.892          
_exptl_crystal_F_000              845
_exptl_transmission_factor_min    ?
_exptl_transmission_factor_max    ?
_exptl_crystal_size_max           ?
_exptl_crystal_size_mid           ?
_exptl_crystal_size_min           ?
_exptl_absorpt_coefficient_mu     3.316
_shelx_estimated_absorpt_T_min    ?
_shelx_estimated_absorpt_T_max    ?
_exptl_absorpt_correction_type    ?
_exptl_absorpt_correction_T_min   ?
_exptl_absorpt_correction_T_max   ?
_exptl_absorpt_process_details    ?
_exptl_absorpt_special_details    ?
_diffrn_ambient_temperature       291(2)
_diffrn_radiation_wavelength      0.71073
_diffrn_radiation_type            MoK\a
_diffrn_source                    ?
_diffrn_measurement_device_type   ?
_diffrn_measurement_method        ?
_diffrn_detector_area_resol_mean  ?
_diffrn_reflns_number             13384
_diffrn_reflns_av_unetI/netI      0.0450
_diffrn_reflns_av_R_equivalents   0.0246
_diffrn_reflns_limit_h_min        -7
_diffrn_reflns_limit_h_max        7
_diffrn_reflns_limit_k_min        -13
_diffrn_reflns_limit_k_max        13
_diffrn_reflns_limit_l_min        -22
_diffrn_reflns_limit_l_max        32
_diffrn_reflns_theta_min          2.037
_diffrn_reflns_theta_max          29.121
_diffrn_reflns_theta_full         25.242
_diffrn_measured_fraction_theta_max   0.818
_diffrn_measured_fraction_theta_full  0.999
_diffrn_reflns_Laue_measured_fraction_max    0.818
_diffrn_reflns_Laue_measured_fraction_full   0.999
_diffrn_reflns_point_group_measured_fraction_max   0.818
_diffrn_reflns_point_group_measured_fraction_full  0.999
_reflns_number_total              6720
_reflns_number_gt                 5366
_reflns_threshold_expression      'I > 2\s(I)'
_reflns_Friedel_coverage          0.000
_reflns_Friedel_fraction_max      .
_reflns_Friedel_fraction_full     .
 
_reflns_special_details
;
 Reflections were merged by SHELXL according to the crystal
 class for the calculation of statistics and refinement.
 
 _reflns_Friedel_fraction is defined as the number of unique
 Friedel pairs measured divided by the number that would be
 possible theoretically, ignoring centric projections and
 systematic absences.
;
 
_computing_data_collection        ?
_computing_cell_refinement        ?
_computing_data_reduction         ?
_computing_structure_solution     'SHELXT 2018/2 (Sheldrick, 2018)'
_computing_structure_refinement 'SHELXL-2018/3 (Sheldrick, 2018)'
_computing_molecular_graphics     ?
_computing_publication_material   ?
_refine_special_details           ?
_refine_ls_structure_factor_coef  Fsqd
_refine_ls_matrix_type            full
_refine_ls_weighting_scheme       calc
_refine_ls_weighting_details
'w=1/[\s^2^(Fo^2^)+(0.1022P)^2^+11.4363P] where P=(Fo^2^+2Fc^2^)/3'
_atom_sites_solution_primary      ?
_atom_sites_solution_secondary    ?
_atom_sites_solution_hydrogens    geom
_refine_ls_hydrogen_treatment     mixed
_refine_ls_extinction_method      none
_refine_ls_extinction_coef        .
_refine_ls_number_reflns          6720
_refine_ls_number_parameters      462
_refine_ls_number_restraints      1
_refine_ls_R_factor_all           0.0945
_refine_ls_R_factor_gt            0.0764
_refine_ls_wR_factor_ref          0.2187
_refine_ls_wR_factor_gt           0.2062
_refine_ls_goodness_of_fit_ref    1.053
_refine_ls_restrained_S_all       1.078
_refine_ls_shift/su_max           7.731
_refine_ls_shift/su_mean          0.021
 
loop_
 _atom_site_label
 _atom_site_type_symbol
 _atom_site_fract_x
 _atom_site_fract_y
 _atom_site_fract_z
 _atom_site_U_iso_or_equiv
 _atom_site_adp_type
 _atom_site_occupancy
 _atom_site_site_symmetry_order  
 _atom_site_calc_flag
 _atom_site_refinement_flags_posn
 _atom_site_refinement_flags_adp
 _atom_site_refinement_flags_occupancy
 _atom_site_disorder_assembly
 _atom_site_disorder_group
N5 N 0.4499(17) 0.8434(10) -0.0934(3) 0.071(2) Uani 1 1 d . . . . .
N8 N 0.743(3) 0.9849(12) -0.0946(4) 0.163(9) Uani 1 1 d D . . . .
C26 C 0.5984(8) 0.9399(5) -0.1154(2) 0.0064(9) Uani 1 1 d D . . . .
H26 H 0.565329 0.961976 -0.148500 0.008 Uiso 1 1 calc R U . . .
Se2 Se 0.9100(2) 0.82352(13) 0.11594(4) 0.0705(4) Uani 1 1 d . . . . .
Se3 Se 1.13776(16) 0.01674(9) 0.38220(3) 0.0505(3) Uani 1 1 d . . . . .
Zn2 Zn 0.32712(12) 0.38204(7) 0.24732(3) 0.0242(2) Uani 1 1 d . . . . .
S2 S 0.2795(3) 0.87857(16) 0.24814(7) 0.0303(4) Uani 1 1 d . . . . .
O1 O -0.0105(12) 0.5440(6) 0.2768(3) 0.068(2) Uani 1 1 d . . . . .
O2 O 0.6681(8) 0.3903(5) 0.2290(3) 0.0398(14) Uani 1 1 d . . . . .
H2A H 0.699(10) 0.350(11) 0.230(5) 0.060 Uiso 1 1 calc R U . . .
O3 O 0.3454(11) 0.5971(6) 0.2605(3) 0.0556(17) Uani 1 1 d . . . . .
O4 O 0.3707(10) 1.1597(5) 0.2366(2) 0.0438(13) Uani 1 1 d . . . . .
O5 O 0.0286(10) 1.2347(5) 0.2487(3) 0.0510(15) Uani 1 1 d . . . . .
N1 N 0.8295(15) 0.8544(8) 0.0517(3) 0.0545(19) Uani 1 1 d . . . . .
N2 N 0.5756(14) 0.8463(9) -0.0465(3) 0.059(2) Uani 1 1 d . . . . .
N3 N 0.1155(14) 0.4404(9) 0.0913(3) 0.065(3) Uani 1 1 d . . . . .
N4 N 0.6927(14) 0.7037(9) 0.1208(3) 0.059(2) Uani 1 1 d . . . . .
N6 N 1.2033(11) 0.0745(6) 0.4487(2) 0.0392(15) Uani 1 1 d . . . . .
N7 N 1.4874(13) 0.1532(9) 0.5996(3) 0.0544(19) Uani 1 1 d . . . . .
N10 N 0.2436(12) 0.4124(7) 0.1701(3) 0.0430(15) Uani 1 1 d . . . . .
N12 N 1.2171(12) 0.2264(7) 0.5517(2) 0.0421(16) Uani 1 1 d . . . . .
N13 N 1.2430(15) 0.3188(8) 0.5942(3) 0.060(2) Uani 1 1 d . . . . .
N14 N 0.9059(12) 0.1259(7) 0.3779(2) 0.0439(16) Uani 1 1 d . . . . .
N15 N 0.5635(11) 0.3291(6) 0.3981(2) 0.0380(14) Uani 1 1 d . . . . .
N16 N 0.3948(10) 0.3676(6) 0.3263(2) 0.0331(13) Uani 1 1 d . . . . .
N17 N 0.3675(12) 0.3930(8) 0.4123(3) 0.0460(17) Uani 1 1 d . . . . .
N18 N 0.2991(14) 0.5182(9) 0.1025(3) 0.061(2) Uani 1 1 d . . . . .
C2 C 1.4029(16) 0.2704(9) 0.6205(3) 0.050(2) Uani 1 1 d . . . . .
H2 H 1.457156 0.313263 0.652004 0.060 Uiso 1 1 calc R U . . .
C3 C 1.3650(15) 0.1280(10) 0.5568(3) 0.053(2) Uani 1 1 d . . . . .
H3 H 1.378571 0.052261 0.533236 0.064 Uiso 1 1 calc R U . . .
C4 C 1.0522(14) 0.2430(8) 0.5130(3) 0.0396(18) Uani 1 1 d . . . . .
C5 C 1.0565(12) 0.1678(7) 0.4628(3) 0.0339(15) Uani 1 1 d . . . . .
C6 C 0.8889(13) 0.1963(7) 0.4234(3) 0.0332(15) Uani 1 1 d . . . . .
C7 C 0.7216(14) 0.2965(8) 0.4360(3) 0.0410(18) Uani 1 1 d . . . . .
C8 C 0.7235(19) 0.3604(12) 0.4842(4) 0.075(4) Uani 1 1 d . . . . .
H8 H 0.614753 0.424683 0.492624 0.090 Uiso 1 1 calc R U . . .
C9 C 0.8862(19) 0.3327(11) 0.5225(3) 0.070(3) Uani 1 1 d . . . . .
H9 H 0.878072 0.378042 0.555486 0.084 Uiso 1 1 calc R U . . .
C10 C 0.5762(13) 0.3162(8) 0.3463(3) 0.0383(17) Uani 1 1 d . . . . .
H10 H 0.695039 0.276926 0.327667 0.046 Uiso 1 1 calc R U . . .
C11 C 0.2762(13) 0.4134(8) 0.3677(3) 0.0393(17) Uani 1 1 d . . . . .
H11 H 0.138534 0.456725 0.364840 0.047 Uiso 1 1 calc R U . . .
C12 C 0.3757(18) 0.5033(10) 0.1496(4) 0.057(2) Uani 1 1 d . . . . .
H12 H 0.501234 0.548340 0.166180 0.068 Uiso 1 1 calc R U . . .
C13 C 0.0893(18) 0.3773(12) 0.1327(4) 0.066(3) Uani 1 1 d . . . . .
H13 H -0.026203 0.314463 0.135402 0.079 Uiso 1 1 calc R U . . .
C14 C 0.1387(15) 0.6251(7) 0.2660(3) 0.044(2) Uani 1 1 d . . . . .
C15 C 0.0754(11) 0.7650(6) 0.2602(3) 0.0289(14) Uani 1 1 d . . . . .
C16 C -0.1343(12) 0.8208(7) 0.2631(3) 0.0362(16) Uani 1 1 d . . . . .
H16 H -0.266810 0.773170 0.268484 0.043 Uiso 1 1 calc R U . . .
C17 C -0.1291(11) 0.9561(7) 0.2571(3) 0.0332(15) Uani 1 1 d . . . . .
H17 H -0.257053 1.009413 0.259048 0.040 Uiso 1 1 calc R U . . .
C18 C 0.0812(11) 1.0021(6) 0.2483(3) 0.0260(13) Uani 1 1 d . . . . .
C19 C 0.3749(18) 0.6032(12) 0.0665(4) 0.065(3) Uani 1 1 d . . . . .
C20 C 0.5729(16) 0.6908(9) 0.0781(3) 0.050(2) Uani 1 1 d . . . . .
C21 C 0.6489(15) 0.7759(8) 0.0397(3) 0.0449(19) Uani 1 1 d . . . . .
C22 C 0.337(3) 0.6812(17) -0.0174(5) 0.114(6) Uani 1 1 d . . . . .
H22 H 0.257511 0.676159 -0.048967 0.137 Uiso 1 1 calc R U . . .
C23 C 0.273(2) 0.6025(17) 0.0199(5) 0.110(6) Uani 1 1 d . . . . .
H23 H 0.149361 0.544306 0.012187 0.132 Uiso 1 1 calc R U . . .
C24 C 0.1638(13) 1.1402(7) 0.2441(3) 0.0354(16) Uani 1 1 d . . . . .
C27 C 0.5216(16) 0.7680(10) -0.0070(4) 0.061(3) Uani 1 1 d . . . . .
C28 C 0.737(2) 0.9312(14) -0.0508(4) 0.084(4) Uani 1 1 d . . . . .
H28 H 0.845084 0.953658 -0.024355 0.101 Uiso 1 1 calc R U . . .
 
loop_
 _atom_site_aniso_label
 _atom_site_aniso_U_11
 _atom_site_aniso_U_22
 _atom_site_aniso_U_33
 _atom_site_aniso_U_23
 _atom_site_aniso_U_13
 _atom_site_aniso_U_12
N5 0.084(6) 0.080(6) 0.047(5) 0.007(4) 0.000(4) -0.003(5)
N8 0.31(2) 0.107(10) 0.102(10) 0.091(9) 0.137(13) 0.100(13)
C26 0.011(2) 0.008(2) 0.000(2) 0.0023(17) -0.0015(16) -0.0044(17)
Se2 0.0774(7) 0.0866(8) 0.0489(6) 0.0241(5) -0.0223(5) -0.0347(6)
Se3 0.0617(6) 0.0599(6) 0.0268(4) -0.0099(3) -0.0131(3) 0.0326(4)
Zn2 0.0249(4) 0.0202(4) 0.0277(4) 0.0049(3) -0.0065(3) 0.0005(3)
S2 0.0211(7) 0.0241(8) 0.0454(10) 0.0027(7) -0.0008(7) 0.0038(6)
O1 0.080(5) 0.029(3) 0.096(6) 0.026(3) -0.040(4) -0.023(3)
O2 0.029(3) 0.031(3) 0.059(4) 0.006(3) -0.005(2) 0.001(2)
O3 0.067(4) 0.032(3) 0.066(4) 0.001(3) -0.017(3) 0.027(3)
O4 0.055(3) 0.032(3) 0.045(3) 0.003(2) 0.005(3) -0.016(2)
O5 0.057(4) 0.026(3) 0.069(4) 0.007(3) -0.012(3) 0.010(2)
N1 0.079(5) 0.060(5) 0.026(4) 0.017(3) -0.008(3) 0.002(4)
N2 0.063(5) 0.069(5) 0.043(4) 0.002(4) -0.020(4) 0.004(4)
N3 0.062(5) 0.088(6) 0.049(5) 0.037(4) -0.025(4) -0.043(4)
N4 0.054(5) 0.068(5) 0.055(5) 0.009(4) -0.014(4) -0.019(4)
N6 0.050(4) 0.041(4) 0.025(3) -0.002(3) -0.007(3) 0.017(3)
N7 0.052(4) 0.077(5) 0.033(4) 0.002(4) -0.011(3) 0.017(4)
N10 0.046(4) 0.047(4) 0.038(4) 0.014(3) -0.006(3) -0.001(3)
N12 0.053(4) 0.050(4) 0.021(3) -0.005(3) -0.009(3) 0.015(3)
N13 0.078(6) 0.059(5) 0.039(4) -0.009(3) -0.025(4) 0.024(4)
N14 0.053(4) 0.045(4) 0.031(3) -0.007(3) -0.012(3) 0.021(3)
N15 0.043(4) 0.041(3) 0.029(3) 0.000(3) -0.005(3) 0.020(3)
N16 0.038(3) 0.029(3) 0.031(3) 0.002(2) -0.010(2) 0.009(2)
N17 0.041(4) 0.063(5) 0.034(4) 0.006(3) -0.001(3) 0.021(3)
N18 0.056(5) 0.074(6) 0.053(5) 0.019(4) -0.015(4) -0.025(4)
C2 0.060(5) 0.059(5) 0.030(4) -0.003(4) -0.017(4) 0.003(4)
C3 0.056(5) 0.075(6) 0.028(4) -0.003(4) -0.016(4) 0.029(4)
C4 0.047(4) 0.047(4) 0.024(4) 0.002(3) -0.008(3) 0.019(3)
C5 0.038(4) 0.039(4) 0.025(3) 0.004(3) -0.002(3) 0.011(3)
C6 0.042(4) 0.035(4) 0.022(3) 0.000(3) -0.006(3) 0.011(3)
C7 0.046(4) 0.052(5) 0.025(4) 0.002(3) -0.010(3) 0.020(3)
C8 0.081(7) 0.095(8) 0.041(5) -0.025(5) -0.021(5) 0.062(6)
C9 0.087(7) 0.087(7) 0.032(5) -0.020(5) -0.019(5) 0.055(6)
C10 0.044(4) 0.045(4) 0.026(4) 0.004(3) -0.005(3) 0.018(3)
C11 0.036(4) 0.046(4) 0.035(4) 0.002(3) -0.004(3) 0.012(3)
C12 0.071(6) 0.062(6) 0.039(5) 0.021(4) -0.009(4) -0.008(5)
C13 0.062(6) 0.080(7) 0.054(6) 0.009(5) -0.009(5) -0.012(5)
C14 0.061(5) 0.026(4) 0.043(5) -0.002(3) -0.027(4) 0.006(3)
C15 0.032(3) 0.018(3) 0.036(4) 0.003(3) -0.012(3) -0.001(2)
C16 0.029(4) 0.030(4) 0.049(5) 0.007(3) -0.006(3) -0.002(3)
C17 0.025(3) 0.030(3) 0.044(4) 0.005(3) -0.005(3) 0.007(3)
C18 0.027(3) 0.023(3) 0.028(3) 0.005(2) -0.003(2) 0.003(2)
C19 0.066(6) 0.085(7) 0.046(5) 0.022(5) -0.019(4) -0.030(5)
C20 0.055(5) 0.056(5) 0.038(5) 0.013(4) -0.004(4) -0.012(4)
C21 0.055(5) 0.044(4) 0.039(4) 0.015(4) 0.013(4) 0.001(4)
C22 0.127(12) 0.162(15) 0.060(8) 0.065(9) -0.049(8) -0.067(11)
C23 0.094(9) 0.167(15) 0.074(8) 0.061(9) -0.044(7) -0.073(10)
C24 0.050(4) 0.027(3) 0.029(4) 0.003(3) -0.007(3) 0.004(3)
C27 0.047(5) 0.061(6) 0.077(7) 0.017(5) -0.009(5) -0.019(4)
C28 0.098(9) 0.104(10) 0.055(7) 0.035(6) -0.021(6) -0.045(8)
 
_geom_special_details
;
 All esds (except the esd in the dihedral angle between two l.s. planes)
 are estimated using the full covariance matrix.  The cell esds are taken
 into account individually in the estimation of esds in distances, angles
 and torsion angles; correlations between esds in cell parameters are only
 used when they are defined by crystal symmetry.  An approximate (isotropic)
 treatment of cell esds is used for estimating esds involving l.s. planes.
;
 
loop_
 _geom_bond_atom_site_label_1
 _geom_bond_atom_site_label_2
 _geom_bond_distance
 _geom_bond_site_symmetry_2
 _geom_bond_publ_flag
N5 N2 1.409(11) . ?
N5 C26 1.470(11) . ?
N8 C26 1.061(16) . ?
N8 C28 1.318(14) . ?
C26 C28 1.865(12) . ?
Se2 N4 1.759(8) . ?
Se2 N1 1.789(7) . ?
Se3 N14 1.773(6) . ?
Se3 N6 1.794(6) . ?
Zn2 O2 2.075(5) . ?
Zn2 N16 2.107(6) . ?
Zn2 N10 2.116(7) . ?
Zn2 O3 2.153(6) . ?
Zn2 O4 2.243(5) 1_545 ?
Zn2 O5 2.283(6) 1_545 ?
Zn2 C24 2.593(7) 1_545 ?
S2 C15 1.704(7) . ?
S2 C18 1.717(6) . ?
O1 C14 1.247(11) . ?
O3 C14 1.260(11) . ?
O4 C24 1.253(10) . ?
O5 C24 1.246(9) . ?
N1 C21 1.323(12) . ?
N2 C28 1.283(14) . ?
N2 C27 1.403(13) . ?
N3 C13 1.323(13) . ?
N3 N18 1.330(10) . ?
N4 C20 1.293(11) . ?
N6 C5 1.314(9) . ?
N7 C3 1.309(10) . ?
N7 C2 1.350(12) . ?
N10 C13 1.327(12) . ?
N10 C12 1.354(11) . ?
N12 C3 1.344(10) . ?
N12 N13 1.369(9) . ?
N12 C4 1.406(9) . ?
N13 C2 1.283(11) . ?
N14 C6 1.319(9) . ?
N15 C10 1.346(9) . ?
N15 N17 1.367(9) . ?
N15 C7 1.407(9) . ?
N16 C10 1.314(9) . ?
N16 C11 1.344(10) . ?
N17 C11 1.307(10) . ?
N18 C12 1.321(12) . ?
N18 C19 1.415(12) . ?
C4 C9 1.348(11) . ?
C4 C5 1.437(10) . ?
C5 C6 1.459(9) . ?
C6 C7 1.437(10) . ?
C7 C8 1.345(11) . ?
C8 C9 1.417(12) . ?
C14 C15 1.485(9) . ?
C15 C16 1.363(10) . ?
C16 C17 1.388(10) . ?
C17 C18 1.347(10) . ?
C18 C24 1.482(9) . ?
C19 C23 1.338(14) . ?
C19 C20 1.453(13) . ?
C20 C21 1.462(11) . ?
C21 C27 1.407(13) . ?
C22 C23 1.378(16) . ?
C22 C27 1.384(15) . ?
 
loop_
 _geom_angle_atom_site_label_1
 _geom_angle_atom_site_label_2
 _geom_angle_atom_site_label_3
 _geom_angle
 _geom_angle_site_symmetry_1
 _geom_angle_site_symmetry_3
 _geom_angle_publ_flag
N2 N5 C26 95.2(7) . . ?
C26 N8 C28 102.6(11) . . ?
N8 C26 N5 121.6(8) . . ?
N8 C26 C28 43.6(6) . . ?
N5 C26 C28 78.0(5) . . ?
N4 Se2 N1 94.9(4) . . ?
N14 Se3 N6 93.9(3) . . ?
O2 Zn2 N16 94.2(3) . . ?
O2 Zn2 N10 88.3(3) . . ?
N16 Zn2 N10 174.9(2) . . ?
O2 Zn2 O3 86.7(2) . . ?
N16 Zn2 O3 91.0(2) . . ?
N10 Zn2 O3 84.8(3) . . ?
O2 Zn2 O4 84.7(2) . 1_545 ?
N16 Zn2 O4 85.6(2) . 1_545 ?
N10 Zn2 O4 99.0(2) . 1_545 ?
O3 Zn2 O4 170.4(2) . 1_545 ?
O2 Zn2 O5 141.6(2) . 1_545 ?
N16 Zn2 O5 89.6(2) . 1_545 ?
N10 Zn2 O5 91.1(2) . 1_545 ?
O3 Zn2 O5 131.5(2) . 1_545 ?
O4 Zn2 O5 57.5(2) 1_545 1_545 ?
O2 Zn2 C24 113.5(2) . 1_545 ?
N16 Zn2 C24 85.6(2) . 1_545 ?
N10 Zn2 C24 97.5(2) . 1_545 ?
O3 Zn2 C24 159.7(3) . 1_545 ?
O4 Zn2 C24 28.9(2) 1_545 1_545 ?
O5 Zn2 C24 28.7(2) 1_545 1_545 ?
C15 S2 C18 91.0(3) . . ?
C14 O3 Zn2 101.4(5) . . ?
C24 O4 Zn2 91.3(4) . 1_565 ?
C24 O5 Zn2 89.6(5) . 1_565 ?
C21 N1 Se2 104.5(6) . . ?
C28 N2 C27 132.2(9) . . ?
C28 N2 N5 103.9(9) . . ?
C27 N2 N5 123.9(8) . . ?
C13 N3 N18 104.5(8) . . ?
C20 N4 Se2 108.4(7) . . ?
C5 N6 Se3 106.9(5) . . ?
C3 N7 C2 102.4(7) . . ?
C13 N10 C12 103.0(8) . . ?
C13 N10 Zn2 141.3(7) . . ?
C12 N10 Zn2 115.5(6) . . ?
C3 N12 N13 108.0(6) . . ?
C3 N12 C4 131.4(7) . . ?
N13 N12 C4 120.6(6) . . ?
C2 N13 N12 103.0(7) . . ?
C6 N14 Se3 107.6(5) . . ?
C10 N15 N17 109.5(6) . . ?
C10 N15 C7 130.2(6) . . ?
N17 N15 C7 120.2(6) . . ?
C10 N16 C11 103.6(6) . . ?
C10 N16 Zn2 126.5(5) . . ?
C11 N16 Zn2 129.8(5) . . ?
C11 N17 N15 102.1(6) . . ?
C12 N18 N3 109.3(8) . . ?
C12 N18 C19 130.9(8) . . ?
N3 N18 C19 119.7(8) . . ?
N13 C2 N7 115.8(8) . . ?
N7 C3 N12 110.8(8) . . ?
C9 C4 N12 119.7(7) . . ?
C9 C4 C5 118.6(7) . . ?
N12 C4 C5 121.7(6) . . ?
N6 C5 C4 125.2(6) . . ?
N6 C5 C6 116.0(6) . . ?
C4 C5 C6 118.8(6) . . ?
N14 C6 C7 125.0(6) . . ?
N14 C6 C5 115.6(6) . . ?
C7 C6 C5 119.4(6) . . ?
C8 C7 N15 121.0(7) . . ?
C8 C7 C6 118.6(7) . . ?
N15 C7 C6 120.4(6) . . ?
C7 C8 C9 122.0(8) . . ?
C4 C9 C8 122.5(8) . . ?
N16 C10 N15 109.5(6) . . ?
N17 C11 N16 115.4(7) . . ?
N18 C12 N10 109.6(8) . . ?
N3 C13 N10 113.6(9) . . ?
O1 C14 O3 124.1(7) . . ?
O1 C14 C15 119.4(8) . . ?
O3 C14 C15 116.5(7) . . ?
C16 C15 C14 128.6(7) . . ?
C16 C15 S2 111.6(5) . . ?
C14 C15 S2 119.9(6) . . ?
C15 C16 C17 112.8(6) . . ?
C18 C17 C16 112.8(6) . . ?
C17 C18 C24 130.1(6) . . ?
C17 C18 S2 111.8(5) . . ?
C24 C18 S2 117.8(5) . . ?
C23 C19 N18 121.5(9) . . ?
C23 C19 C20 117.6(9) . . ?
N18 C19 C20 120.8(8) . . ?
N4 C20 C19 126.1(8) . . ?
N4 C20 C21 114.5(8) . . ?
C19 C20 C21 119.4(8) . . ?
N1 C21 C27 125.3(7) . . ?
N1 C21 C20 117.7(8) . . ?
C27 C21 C20 116.9(8) . . ?
C23 C22 C27 118.5(11) . . ?
C19 C23 C22 125.2(11) . . ?
O5 C24 O4 121.2(7) . . ?
O5 C24 C18 119.9(7) . . ?
O4 C24 C18 118.8(6) . . ?
O5 C24 Zn2 61.7(4) . 1_565 ?
O4 C24 Zn2 59.9(4) . 1_565 ?
C18 C24 Zn2 173.5(5) . 1_565 ?
C22 C27 N2 115.6(9) . . ?
C22 C27 C21 122.2(9) . . ?
N2 C27 C21 122.2(8) . . ?
N2 C28 N8 116.6(12) . . ?
N2 C28 C26 82.8(7) . . ?
N8 C28 C26 33.7(8) . . ?
 
_refine_diff_density_max    3.029
_refine_diff_density_min   -1.780
_refine_diff_density_rms    0.157

_shelx_res_file
;
TITL pvl1016_auto_a.res in P-1
    pvl1016_auto_a.res
    created by SHELXL-2018/3 at 23:50:23 on 25-Oct-2022
REM Old TITL pvl1016_auto in P-1
REM SHELXT solution in P-1: R1 0.236, Rweak 0.033, Alpha 0.084
REM <I/s>   0.000 for    0 systematic absences,  Orientation as input
REM Formula found by SHELXT:  C35 N7 O6 Zn2 Se
CELL  0.71073   5.8783  10.0610  26.0692   96.417   91.531   90.907
ZERR   18.000   0.0001   0.0003   0.0010    0.003    0.002    0.002
LATT  1
SFAC C N O Zn Se S H
UNIT 52 32 10 2 4 2 1
ACTA
TEMP 18
L.S. 10
BOND
DFIX 1.42 N8 C26
LIST 6
FMAP 2
PLAN 20
WGHT    0.102200   11.436299
FVAR       0.36287
N5    2    0.449857    0.843401   -0.093369    11.00000    0.08386    0.08043 =
         0.04739    0.00653    0.00028   -0.00263
N8    2    0.742524    0.984943   -0.094604    11.00000    0.30706    0.10650 =
         0.10247    0.09051    0.13696    0.10021
C26   1    0.598425    0.939880   -0.115448    11.00000    0.01138    0.00832 =
        -0.00036    0.00232   -0.00146   -0.00444
AFIX  43
H26   7    0.565329    0.961976   -0.148500    11.00000   -1.20000
AFIX   0
SE2   5    0.910047    0.823525    0.115938    11.00000    0.07738    0.08660 =
         0.04887    0.02406   -0.02229   -0.03467
SE3   5    1.137762    0.016739    0.382204    11.00000    0.06168    0.05987 =
         0.02683   -0.00989   -0.01312    0.03264
ZN2   4    0.327121    0.382044    0.247316    11.00000    0.02491    0.02024 =
         0.02766    0.00493   -0.00651    0.00046
S2    6    0.279545    0.878567    0.248139    11.00000    0.02109    0.02411 =
         0.04540    0.00266   -0.00076    0.00379
O1    3   -0.010517    0.543970    0.276759    11.00000    0.07989    0.02858 =
         0.09579    0.02590   -0.04043   -0.02262
O2    3    0.668068    0.390298    0.229020    11.00000    0.02915    0.03142 =
         0.05870    0.00602   -0.00496    0.00087
AFIX 148
H2A   7    0.699074    0.350078    0.230022    11.00000   -1.50000
AFIX   0
O3    3    0.345392    0.597074    0.260535    11.00000    0.06731    0.03209 =
         0.06613    0.00130   -0.01721    0.02741
O4    3    0.370673    1.159706    0.236556    11.00000    0.05459    0.03151 =
         0.04487    0.00340    0.00537   -0.01607
O5    3    0.028591    1.234675    0.248692    11.00000    0.05733    0.02624 =
         0.06935    0.00662   -0.01238    0.00988
N1    2    0.829503    0.854405    0.051724    11.00000    0.07927    0.05997 =
         0.02640    0.01685   -0.00808    0.00162
N2    2    0.575578    0.846339   -0.046460    11.00000    0.06288    0.06897 =
         0.04319    0.00196   -0.01961    0.00424
N3    2    0.115511    0.440417    0.091341    11.00000    0.06180    0.08835 =
         0.04902    0.03728   -0.02498   -0.04322
N4    2    0.692744    0.703745    0.120796    11.00000    0.05443    0.06780 =
         0.05491    0.00896   -0.01361   -0.01900
N6    2    1.203270    0.074463    0.448660    11.00000    0.04989    0.04147 =
         0.02480   -0.00240   -0.00713    0.01699
N7    2    1.487419    0.153171    0.599592    11.00000    0.05205    0.07720 =
         0.03270    0.00168   -0.01142    0.01682
N10   2    0.243564    0.412373    0.170092    11.00000    0.04610    0.04654 =
         0.03792    0.01364   -0.00563   -0.00149
N12   2    1.217099    0.226387    0.551675    11.00000    0.05348    0.04990 =
         0.02079   -0.00467   -0.00949    0.01532
N13   2    1.242971    0.318813    0.594205    11.00000    0.07790    0.05947 =
         0.03918   -0.00911   -0.02510    0.02399
N14   2    0.905933    0.125916    0.377936    11.00000    0.05336    0.04504 =
         0.03071   -0.00669   -0.01228    0.02072
N15   2    0.563456    0.329102    0.398134    11.00000    0.04328    0.04114 =
         0.02882   -0.00025   -0.00506    0.01954
N16   2    0.394832    0.367589    0.326253    11.00000    0.03823    0.02931 =
         0.03109    0.00178   -0.00957    0.00888
N17   2    0.367522    0.392974    0.412343    11.00000    0.04116    0.06342 =
         0.03426    0.00630   -0.00106    0.02120
N18   2    0.299134    0.518229    0.102531    11.00000    0.05570    0.07369 =
         0.05347    0.01940   -0.01535   -0.02484
C2    1    1.402864    0.270360    0.620504    11.00000    0.05973    0.05896 =
         0.02955   -0.00268   -0.01698    0.00276
AFIX  43
H2    7    1.457156    0.313263    0.652004    11.00000   -1.20000
AFIX   0
C3    1    1.365017    0.127975    0.556836    11.00000    0.05581    0.07453 =
         0.02769   -0.00344   -0.01584    0.02904
AFIX  43
H3    7    1.378571    0.052261    0.533236    11.00000   -1.20000
AFIX   0
C4    1    1.052178    0.243044    0.512975    11.00000    0.04729    0.04701 =
         0.02416    0.00222   -0.00800    0.01899
C5    1    1.056514    0.167776    0.462811    11.00000    0.03801    0.03873 =
         0.02515    0.00380   -0.00232    0.01113
C6    1    0.888856    0.196280    0.423443    11.00000    0.04159    0.03537 =
         0.02184    0.00005   -0.00603    0.01110
C7    1    0.721622    0.296458    0.436002    11.00000    0.04562    0.05188 =
         0.02503    0.00169   -0.01009    0.02047
C8    1    0.723527    0.360351    0.484191    11.00000    0.08149    0.09539 =
         0.04131   -0.02472   -0.02133    0.06200
AFIX  43
H8    7    0.614753    0.424683    0.492624    11.00000   -1.20000
AFIX   0
C9    1    0.886177    0.332661    0.522510    11.00000    0.08696    0.08706 =
         0.03164   -0.02033   -0.01873    0.05478
AFIX  43
H9    7    0.878072    0.378042    0.555486    11.00000   -1.20000
AFIX   0
C10   1    0.576211    0.316179    0.346346    11.00000    0.04404    0.04501 =
         0.02589    0.00380   -0.00512    0.01789
AFIX  43
H10   7    0.695039    0.276926    0.327667    11.00000   -1.20000
AFIX   0
C11   1    0.276150    0.413436    0.367713    11.00000    0.03603    0.04583 =
         0.03544    0.00194   -0.00426    0.01166
AFIX  43
H11   7    0.138534    0.456725    0.364840    11.00000   -1.20000
AFIX   0
C12   1    0.375712    0.503286    0.149621    11.00000    0.07080    0.06242 =
         0.03939    0.02144   -0.00912   -0.00794
AFIX  43
H12   7    0.501234    0.548340    0.166180    11.00000   -1.20000
AFIX   0
C13   1    0.089304    0.377348    0.132735    11.00000    0.06247    0.07982 =
         0.05447    0.00926   -0.00929   -0.01230
AFIX  43
H13   7   -0.026203    0.314463    0.135402    11.00000   -1.20000
AFIX   0
C14   1    0.138748    0.625104    0.266031    11.00000    0.06063    0.02562 =
         0.04336   -0.00171   -0.02707    0.00618
C15   1    0.075362    0.765014    0.260225    11.00000    0.03174    0.01836 =
         0.03570    0.00293   -0.01170   -0.00146
C16   1   -0.134290    0.820766    0.263099    11.00000    0.02937    0.03047 =
         0.04880    0.00709   -0.00627   -0.00190
AFIX  43
H16   7   -0.266810    0.773170    0.268484    11.00000   -1.20000
AFIX   0
C17   1   -0.129064    0.956113    0.257138    11.00000    0.02527    0.03018 =
         0.04406    0.00452   -0.00477    0.00660
AFIX  43
H17   7   -0.257053    1.009413    0.259048    11.00000   -1.20000
AFIX   0
C18   1    0.081180    1.002097    0.248287    11.00000    0.02684    0.02295 =
         0.02849    0.00523   -0.00318    0.00316
C19   1    0.374884    0.603232    0.066478    11.00000    0.06627    0.08519 =
         0.04604    0.02208   -0.01886   -0.03036
C20   1    0.572947    0.690784    0.078139    11.00000    0.05515    0.05632 =
         0.03820    0.01282   -0.00419   -0.01164
C21   1    0.648880    0.775869    0.039725    11.00000    0.05514    0.04394 =
         0.03851    0.01489    0.01287    0.00118
C22   1    0.336854    0.681220   -0.017443    11.00000    0.12662    0.16230 =
         0.06017    0.06469   -0.04888   -0.06689
AFIX  43
H22   7    0.257511    0.676159   -0.048967    11.00000   -1.20000
AFIX   0
C23   1    0.273057    0.602531    0.019937    11.00000    0.09410    0.16665 =
         0.07403    0.06084   -0.04421   -0.07344
AFIX  43
H23   7    0.149361    0.544306    0.012187    11.00000   -1.20000
AFIX   0
C24   1    0.163801    1.140227    0.244059    11.00000    0.05043    0.02663 =
         0.02873    0.00276   -0.00747    0.00402
C27   1    0.521643    0.767958   -0.007029    11.00000    0.04743    0.06102 =
         0.07653    0.01727   -0.00934   -0.01906
C28   1    0.737219    0.931206   -0.050779    11.00000    0.09763    0.10364 =
         0.05494    0.03546   -0.02091   -0.04510
AFIX  43
H28   7    0.845084    0.953658   -0.024355    11.00000   -1.20000
AFIX   0
HKLF 4




REM  pvl1016_auto_a.res in P-1
REM wR2 = 0.2187, GooF = S = 1.053, Restrained GooF = 1.078 for all data
REM R1 = 0.0764 for 5366 Fo > 4sig(Fo) and 0.0945 for all 6720 data
REM 462 parameters refined using 1 restraints

END

WGHT      0.1022     11.4366

REM Highest difference peak  3.029,  deepest hole -1.780,  1-sigma level  0.157
Q1    1  -0.0097  0.3568  0.0988  11.00000  0.05    1.37
Q2    1   0.3487  0.7776 -0.0764  11.00000  0.05    1.21
Q3    1   0.1831  0.6913 -0.0606  11.00000  0.05    1.16
Q4    1   0.3652  0.8292 -0.1202  11.00000  0.05    1.09
Q5    1   1.0033  0.9006  0.0979  11.00000  0.05    1.07
Q6    1   0.0284  0.3137  0.1498  11.00000  0.05    1.00
Q7    1   0.7969  0.9511 -0.1034  11.00000  0.05    0.97
Q8    1   0.7156  1.0236 -0.0924  11.00000  0.05    0.95
Q9    1   0.3674  0.6749  0.0224  11.00000  0.05    0.90
Q10   1   0.2293  0.4769  0.1383  11.00000  0.05    0.80
Q11   1   0.7232  0.7561  0.0976  11.00000  0.05    0.79
Q12   1   0.1642  0.6531 -0.0156  11.00000  0.05    0.74
Q13   1   0.1170  0.6992  0.2583  11.00000  0.05    0.66
Q14   1   1.2149  0.0860  0.3914  11.00000  0.05    0.61
Q15   1   0.2680  0.3408  0.2313  11.00000  0.05    0.59
Q16   1   0.3678  0.3262  0.2504  11.00000  0.05    0.57
Q17   1   1.0763 -0.0094  0.4035  11.00000  0.05    0.56
Q18   1   0.9785  0.1852  0.3989  11.00000  0.05    0.55
Q19   1   1.0653 -0.0835  0.3664  11.00000  0.05    0.51
Q20   1   0.3355  0.5660  0.0197  11.00000  0.05    0.50
;
_shelx_res_checksum   18747

_shelx_hkl_file
;
   0   0  -3   15.83    1.14
   0   0   3   15.91    1.19
   0   0   4   24.43    1.72
   0   0  -4   27.41    1.72
   0   0   5   12.89    2.28
   0   0  -5   11.85    1.76
   0   0  -6 9999.00   44.02
   0   0   6 9978.77   44.42
   0   0   7   24.96    3.90
   0   0  -7   15.88    2.99
   0   0   8 8927.44   45.47
   0   0  -9   18.02    3.06
   0   0   9   22.20    3.84
   0   0 -10  782.00   13.76
   0   0  10  775.82   13.68
   0   0 -11    8.33    2.12
   0   0  11    4.97    2.01
   0   0  12   83.39    5.14
   0   0 -12   88.71    5.20
   0   0 -13    8.82    2.40
   0   0  13    9.44    2.94
   0   0 -14 3276.88   34.03
   0   0  14 3292.25   34.70
   0   0 -15   53.39    4.98
   0   0  15   55.59    5.61
   0   0  16 1452.70   24.64
   0   0 -16 1455.29   23.74
   0   0 -17    7.30    2.76
   0   0  17    9.03    3.28
   0   0  18   55.63    5.40
   0   0 -18   54.19    5.09
   0   0 -19    1.02    1.88
   0   0  19    1.77    2.19
   0   0  20   47.54    5.37
   0   0  21   41.59    5.25
   0   0  22  555.96   18.13
   0   0  23   22.61    4.54
   0   0  24  222.51   12.20
   0   0  25   10.06    3.20
   0   0  26    1.91    2.91
   0   0  27    0.91    3.15
   0   0  28    7.12    3.56
   0   0  29   25.84    5.68
   0   0  30  293.06   16.14
   0   0  31   11.76    4.86
   0  -1  31    4.58    3.59
   0  -1  30   65.38    7.98
   0  -1  29   10.44    4.61
   0  -1  28  149.88   11.15
   0  -1  27   47.90    6.63
   0  -1  26  373.14   16.60
   0  -1  25    9.94    3.97
   0  -1  24  172.30   10.78
   0  -1  23    7.38    3.26
   0  -1  22   22.25    3.97
   0  -1  21   39.95    5.19
   0  -1  20  288.57   12.23
   0  -1  19   97.27    7.06
   0   1 -19   84.85    6.53
   0  -1  18  461.14   14.17
   0   1 -18  524.11   15.11
   0   1 -17    2.43    2.04
   0  -1  17    1.33    2.10
   0  -1  16  258.05    9.97
   0   1 -16  269.09   10.19
   0  -1  15    5.50    2.29
   0   1 -15    9.81    2.48
   0  -1  14   36.03    3.97
   0   1 -14   39.58    3.97
   0  -1  13  308.22    9.93
   0   1 -13  314.38    9.91
   0   1 -12 2823.00   28.89
   0  -1  12 2834.29   28.91
   0   1 -11  391.68   10.26
   0  -1  11  383.21   10.08
   0   1 -10  231.57    7.46
   0  -1  10  226.91    7.51
   0  -1   9    7.67    1.94
   0   1  -9    7.37    1.74
   0  -1   8   30.07    2.80
   0   1  -8   26.73    2.49
   0  -1   7   21.99    2.22
   0   1  -7   21.55    2.22
   0  -1   6   93.33    3.91
   0   1  -6   89.85    3.80
   0  -1   6   85.86    3.36
   0   1  -5  189.38    5.02
   0  -1   5  197.59    5.04
   0  -1   5  196.83    4.71
   0  -1   4 1911.47   14.63
   0   1  -4 1891.06   13.47
   0  -1   4 1887.02   13.62
   0   1  -3   75.06    2.84
   0  -1   3   79.88    2.87
   0   1  -3   86.39    2.66
   0  -1   3   86.37    2.65
   0   1  -2   29.85    1.58
   0  -1   2   26.61    1.48
   0   1  -2   26.78    1.46
   0  -1   2   26.35    1.54
   0   1  -1   29.10    1.47
   0   1   0  119.43    2.88
   0  -1  -1  371.80    5.24
   0   1   1  376.14    5.14
   0  -1  -2 1534.93   11.85
   0   1   2 1558.21   11.61
   0  -1  -3  549.57    7.22
   0   1   3  543.09    7.38
   0  -1  -4  261.70    5.50
   0   1   4  255.89    5.70
   0   1   5   83.08    3.58
   0  -1  -5   75.06    3.43
   0  -1  -6 2271.73   19.79
   0   1   6 2248.40   19.72
   0  -1  -7  258.14    7.10
   0   1   7  235.28    6.77
   0  -1  -8  565.29   10.86
   0   1   8  554.20   10.85
   0   1   9   43.02    3.48
   0  -1  -9   42.88    3.19
   0   1  10   13.78    2.61
   0  -1 -10   12.17    2.09
   0   1  11  709.75   14.23
   0  -1 -11  701.14   13.90
   0   1  12  539.87   12.99
   0  -1 -12  555.94   12.90
   0   1  13    9.65    2.86
   0  -1 -13    3.96    1.81
   0  -1 -14 1658.32   24.27
   0   1  14 1616.85   24.22
   0  -1 -15   95.63    6.25
   0   1  15  102.58    6.75
   0   1  16  414.49   13.18
   0  -1 -16  425.03   13.05
   0   1  17  236.58   10.40
   0  -1 -17  251.11   10.41
   0  -1 -18  345.00   12.52
   0   1  18  331.70   12.55
   0   1  19  113.60    7.75
   0   1  20   58.82    5.87
   0   1  21   53.06    5.67
   0   1  22  476.11   16.84
   0   1  23   20.57    4.22
   0   1  24    1.60    2.74
   0   1  25  118.93   10.25
   0   1  26   83.11    8.24
   0   1  27   25.46    5.22
   0   1  28    7.16    4.21
   0   1  29    6.32    4.44
   0   1  30   79.76    9.01
   0   1  31    7.15    4.24
   0  -2  31   76.97    8.99
   0  -2  30   27.95    5.90
   0  -2  29    1.11    3.43
   0  -2  28    7.52    3.61
   0  -2  27   22.80    5.14
   0  -2  26   14.67    4.15
   0  -2  25  416.87   16.88
   0  -2  24  135.01    9.53
   0  -2  24  139.84    8.35
   0  -2  23   38.65    5.42
   0  -2  23   38.89    4.68
   0  -2  22    6.47    3.20
   0  -2  22    7.69    2.73
   0  -2  21    3.97    2.59
   0  -2  21    2.77    1.80
   0  -2  20    7.08    2.59
   0  -2  20    6.58    2.36
   0  -2  19  134.86    8.00
   0   2 -19  138.23    8.19
   0  -2  19  136.85    7.30
   0   2 -18   48.08    5.00
   0  -2  18   42.53    4.68
   0  -2  18   44.65    4.42
   0  -2  17  804.05   18.33
   0   2 -17  845.88   18.79
   0  -2  17  818.85   16.75
   0   2 -16  205.35    9.01
   0  -2  16  206.30    9.08
   0  -2  16  209.85    8.36
   0   2 -15  115.81    6.70
   0  -2  15  106.38    6.57
   0  -2  15  116.21    6.13
   0   2 -14   32.73    3.89
   0  -2  14   29.20    3.69
   0  -2  14   26.15    3.26
   0  -2  13   16.43    2.78
   0  -2  13   20.29    2.70
   0   2 -13   14.54    2.66
   0  -2  12   35.02    3.53
   0  -2  12   35.02    3.17
   0   2 -12   34.92    3.51
   0   2 -11 1176.67   17.89
   0  -2  11 1138.53   17.42
   0  -2  11 1162.42   16.34
   0  -2  10  431.28   10.43
   0   2 -10  419.58   10.38
   0  -2  10  418.86    9.47
   0  -2   9 1728.83   20.16
   0   2  -9 1765.75   20.25
   0  -2   9 1735.48   18.59
   0  -2   8  294.83    7.96
   0   2  -8  304.98    8.03
   0  -2   8  296.12    7.32
   0   2  -7  154.04    5.45
   0  -2   7  144.58    5.50
   0   2  -7  146.30    5.14
   0  -2   7  151.00    5.10
   0  -2   6   24.71    2.54
   0   2  -6   22.91    2.33
   0  -2   6   22.12    2.17
   0   2  -6   21.96    2.27
   0  -2   5   42.77    2.87
   0  -2   5   42.87    2.94
   0   2  -5   40.53    2.69
   0  -2   5   42.47    2.76
   0   2  -5   40.28    2.77
   0  -2   4  130.97    4.45
   0  -2   4  125.17    4.27
   0   2  -4  125.55    4.23
   0  -2   3  733.84   10.05
   0   2  -3  716.70    9.88
   0   2  -2  762.18   10.04
   0  -2   1 1387.84   13.71
   0   2   0   80.18    3.40
   0  -2   0   79.29    3.37
   0  -2  -1  922.92   11.34
   0   2   1  946.00   11.50
   0  -2  -2  252.93    6.04
   0   2   2  252.85    5.97
   0   2   3   87.00    2.17
   0  -2  -3   77.93    3.53
   0   2   3   84.26    3.69
   0   2   3   92.11    2.26
   0  -2  -4  786.37   11.44
   0   2   4  811.15   11.49
   0  -2  -4  789.00   11.16
   0   2   5  203.91    6.05
   0  -2  -5  202.87    5.92
   0   2   6   90.58    4.41
   0   2   6   91.09    4.60
   0  -2  -6   87.62    4.26
   0   2   7 1005.32   15.20
   0  -2  -7  992.82   14.50
   0  -2  -8   35.87    3.07
   0   2   8   42.08    3.69
   0   2   9   64.13    4.29
   0  -2  -9   65.87    4.25
   0  -2 -10  744.41   14.46
   0   2  10  723.09   14.50
   0  -2 -11   39.00    3.77
   0   2  11   41.18    4.04
   0   2  12  124.47    6.78
   0  -2 -12  121.29    6.45
   0   2  13 1692.77   24.78
   0  -2 -13 1665.31   23.98
   0   2  14  138.85    7.72
   0  -2 -14  136.45    7.34
   0   2  15  440.31   13.53
   0  -2 -15  448.72   13.21
   0   2  16   36.10    4.52
   0  -2 -16   34.91    4.09
   0  -2 -17   52.81    5.08
   0   2  17   51.85    5.49
   0  -2 -18  167.86    9.01
   0   2  18  165.41    9.31
   0   2  19   56.22    5.72
   0   2  20   11.73    3.85
   0   2  21  647.04   19.46
   0   2  22   71.07    7.09
   0   2  23   24.03    4.82
   0   2  24   17.73    4.32
   0   2  25    8.97    3.83
   0   2  26   52.40    6.83
   0   2  27  199.85   12.82
   0   2  28    7.92    3.94
   0   2  29  118.47   10.82
   0   2  30   16.02    5.05
   0  -3  31    2.64    3.42
   0  -3  30    4.80    3.78
   0  -3  29  139.54   10.94
   0  -3  28    4.17    3.53
   0  -3  27    6.69    3.92
   0  -3  26   30.69    4.88
   0  -3  25    1.18    2.92
   0  -3  24   18.41    4.27
   0  -3  24   17.96    3.58
   0  -3  23    5.23    2.93
   0  -3  23    7.89    2.41
   0  -3  22   55.99    5.96
   0  -3  22   56.26    5.31
   0  -3  21   79.83    6.75
   0  -3  21   89.17    6.46
   0  -3  20   90.95    7.08
   0  -3  20   91.13    6.37
   0  -3  19   56.26    5.67
   0  -3  19   62.46    5.33
   0  -3  18   66.58    5.71
   0   3 -18   82.60    6.35
   0  -3  18   77.58    5.73
   0  -3  17  270.05   10.87
   0   3 -17  267.26   10.84
   0  -3  17  274.41    9.96
   0  -3  16   16.97    2.98
   0   3 -16   16.35    2.76
   0  -3  16   18.53    2.88
   0   3 -15  184.98    8.46
   0  -3  15  172.00    8.07
   0  -3  15  178.17    7.60
   0   3 -14   39.57    4.20
   0  -3  14   35.48    3.97
   0  -3  14   38.52    3.72
   0   3 -13  708.91   15.60
   0  -3  13  669.39   15.02
   0  -3  13  676.59   14.09
   0  -3  12    3.68    1.86
   0  -3  12    4.54    1.81
   0   3 -12    4.87    1.90
   0   3 -11  113.94    5.80
   0  -3  11  113.52    5.92
   0  -3  11  116.66    5.59
   0  -3  10   43.72    3.51
   0   3 -10   39.98    3.36
   0   3 -10   43.72    3.69
   0  -3  10   38.23    3.41
   0  -3   9   74.10    4.62
   0  -3   9   72.29    4.32
   0   3  -9   77.26    4.79
   0   3  -9   74.74    4.39
   0  -3   8    3.76    1.74
   0   3  -8    6.52    1.81
   0  -3   8    6.58    1.60
   0   3  -8    4.54    1.75
   0  -3   8    5.59    1.82
   0  -3   7  952.41   15.11
   0  -3   7  924.45   14.29
   0   3  -7  923.78   13.93
   0  -3   6  116.69    5.18
   0  -3   6  104.95    4.76
   0   3  -6  111.81    4.93
   0  -3   5  346.75    8.65
   0   3  -5  339.92    8.65
   0  -3   5  334.47    8.30
   0   3  -5  323.77    8.01
   0  -3   4  163.75    5.86
   0   3  -4  155.35    5.65
   0   3  -3 2037.02   20.30
   0  -3   2    5.64    1.57
   0   3  -2   -0.07    1.64
   0   3  -1   17.74    2.27
   0  -3   1   19.49    2.39
   0  -3   0  129.86    5.25
   0   3   0  124.80    5.09
   0  -3  -1 3224.36   14.99
   0   3   1 3323.96   27.18
   0  -3  -1 3281.79   26.85
   0  -3  -1 3179.34   14.82
   0  -3  -2   52.73    3.53
   0   3   2   59.30    3.91
   0   3   3   23.70    1.25
   0  -3  -3   26.05    2.57
   0   3   3   28.07    2.75
   0   3   3   27.03    1.31
   0   3   4   15.76    2.37
   0  -3  -4   13.75    2.12
   0   3   4   15.66    1.19
   0   3   4   17.28    1.28
   0  -3  -5  983.50   15.38
   0   3   5 1030.30   15.74
   0   3   5 1002.72    9.51
   0  -3  -5  969.97   15.03
   0   3   5 1011.16    9.52
   0  -3  -6    3.27    1.77
   0   3   6    5.66    1.82
   0  -3  -7    3.96    1.63
   0   3   7    8.41    2.10
   0   3   8  684.78   13.77
   0  -3  -8  670.76   13.51
   0   3   9 1130.52   18.37
   0  -3  -9 1092.25   17.78
   0  -3 -10   17.17    2.69
   0   3  10   16.23    2.59
   0   3  11  112.40    6.11
   0   3  11  111.26    6.38
   0  -3 -11  110.23    6.11
   0   3  12  243.29    9.42
   0   3  12  249.35    9.84
   0  -3 -12  248.82    9.41
   0  -3 -13  229.73    9.50
   0   3  13  222.97    9.51
   0   3  14  151.96    8.21
   0  -3 -14  152.86    7.47
   0  -3 -15  513.79   14.81
   0   3  15  498.90   15.06
   0  -3 -16  197.70    9.42
   0   3  16  200.46   10.02
   0   3  17  282.17   12.25
   0   3  18    9.59    3.63
   0   3  19   66.78    6.41
   0   3  20    0.02    2.30
   0   3  21   84.65    7.83
   0   3  22  136.22    9.70
   0   3  23  132.10    9.86
   0   3  24   42.20    6.14
   0   3  25  180.53   12.22
   0   3  26    0.88    3.01
   0   3  27   43.33    6.69
   0   3  28   11.72    5.07
   0   3  29   19.20    5.13
   0  -4  31    8.04    3.88
   0  -4  30    5.57    3.98
   0  -4  29   52.84    7.00
   0  -4  28    2.04    3.45
   0  -4  27   72.90    7.85
   0  -4  26   88.96    8.40
   0  -4  25  303.31   14.45
   0  -4  24   97.14    8.20
   0  -4  23   26.29    4.52
   0  -4  23   28.28    4.41
   0  -4  22    6.59    3.27
   0  -4  22    0.82    2.08
   0  -4  21  277.40   12.52
   0  -4  21  287.82   11.95
   0  -4  20   12.30    3.57
   0  -4  20    9.52    2.63
   0  -4  19  480.76   15.63
   0  -4  19  495.41   14.73
   0  -4  18  197.60    9.82
   0  -4  18  212.55    9.47
   0  -4  17  951.66   20.66
   0   4 -17  997.23   21.36
   0  -4  17  991.80   19.84
   0  -4  16   43.17    4.83
   0   4 -16   47.68    5.00
   0  -4  16   47.66    4.53
   0  -4  15  306.01   11.21
   0   4 -15  338.06   11.87
   0  -4  15  322.69   10.72
   0  -4  14    5.67    2.30
   0   4 -14    8.95    2.54
   0  -4  14    8.96    2.28
   0  -4  13   30.35    3.76
   0   4 -13   26.23    3.26
   0  -4  13   26.98    3.43
   0  -4  13   29.76    3.52
   0  -4  12   59.18    4.84
   0  -4  12   59.19    4.69
   0   4 -12   65.70    5.02
   0   4 -12   56.58    4.34
   0  -4  11 1600.53   23.71
   0  -4  11 1581.26   22.72
   0   4 -11 1578.93   22.00
   0  -4  10 1177.08   19.86
   0  -4  10 1144.39   18.78
   0   4 -10 1142.04   18.39
   0  -4   9   52.80    4.31
   0  -4   9   50.49    3.99
   0   4  -9   49.43    4.03
   0  -4   8    1.75    1.69
   0   4  -8    2.76    1.56
   0  -4   8    0.33    1.50
   0  -4   7   19.65    2.74
   0  -4   7   18.09    2.61
   0   4  -7   18.16    2.55
   0  -4   6   89.69    5.19
   0   4  -6   79.04    4.95
   0  -4   6   85.43    4.83
   0   4  -6   81.70    4.77
   0  -4   5   29.95    3.11
   0   4  -5   27.08    3.00
   0  -4   4  444.08   10.99
   0   4  -4  408.04   10.41
   0   4  -3  796.33   14.66
   0  -4   3  845.74   15.05
   0   4  -2  661.37   13.18
   0  -4   2  717.98   13.88
   0   4  -1    9.17    1.95
   0  -4   1   11.77    2.00
   0  -4   0  866.58   15.48
   0   4   0  821.92   14.99
   0  -4  -1  282.48    4.46
   0   4   1  282.77    8.86
   0  -4  -1  297.43    9.08
   0  -4  -1  272.02    4.33
   0  -4  -2  421.16    4.94
   0   4   2  420.65   10.96
   0  -4  -2  424.08   10.86
   0  -4  -2  408.71    4.91
   0  -4  -3  141.91    6.40
   0   4   3  140.26    6.40
   0   4   4 1553.38   21.12
   0  -4  -4 1563.47   21.23
   0   4   4 1540.78   10.63
   0   4   5  186.36    3.85
   0  -4  -5  196.00    7.72
   0   4   5  209.43    8.04
   0   4   5  196.27    3.88
   0  -4  -6 1080.53   18.50
   0   4   6 1062.22   18.07
   0   4   6 1032.39   10.30
   0  -4  -6 1044.32   17.82
   0   4   6 1059.88   10.33
   0   4   7   66.48    4.80
   0   4   7   68.14    2.93
   0  -4  -7   60.23    4.44
   0   4   7   68.13    2.90
   0   4   8  119.59    6.50
   0   4   8  121.11    4.24
   0  -4  -8  118.27    6.35
   0   4   8  121.30    4.27
   0   4   9  355.87   11.41
   0  -4  -9  322.70   10.43
   0   4  10  394.04   12.00
   0  -4 -10  378.34   11.71
   0  -4 -11   10.53    2.72
   0   4  11    6.44    1.94
   0   4  12 1140.47   21.39
   0  -4 -12 1127.19   21.06
   0   4  13  292.26   11.27
   0  -4 -13  297.69   11.26
   0   4  14  328.08   12.22
   0  -4 -14  315.10   11.83
   0   4  15  214.01   10.11
   0  -4 -15  202.78    9.81
   0   4  16   80.12    6.73
   0   4  17   88.13    7.21
   0   4  18  260.25   12.36
   0   4  19  132.75    9.22
   0   4  20  169.32   10.46
   0   4  21    9.11    3.21
   0   4  22    7.91    3.65
   0   4  23   57.13    6.87
   0   4  24    0.81    3.12
   0   4  25   26.01    5.43
   0   4  26  233.81   14.34
   0   4  27   32.28    6.58
   0   4  28   27.53    5.96
   0   4  29    8.28    4.77
   0  -5  30   12.13    4.68
   0  -5  29   17.26    4.63
   0  -5  28   69.05    7.72
   0  -5  27   20.01    4.93
   0  -5  26    8.15    3.80
   0  -5  25   48.84    6.11
   0  -5  24   68.42    7.12
   0  -5  23   39.19    5.71
   0  -5  22  135.60    9.19
   0  -5  21   18.70    3.97
   0  -5  21   13.87    3.51
   0  -5  20   21.40    4.09
   0  -5  20   21.52    3.61
   0  -5  19  213.18   10.78
   0  -5  18    3.34    2.46
   0  -5  17    9.43    3.09
   0  -5  16  155.21    8.56
   0  -5  15  160.72    8.78
   0  -5  15  145.57    8.02
   0  -5  14  530.46   15.60
   0  -5  14  485.53   14.17
   0   5 -14  505.44   13.92
   0  -5  13   43.95    4.51
   0  -5  13   46.59    4.71
   0   5 -13   40.95    4.17
   0  -5  12  115.89    7.16
   0  -5  12  113.00    6.68
   0   5 -12  112.94    6.50
   0  -5  11  248.76   10.11
   0  -5  11  230.99    9.17
   0   5 -11  233.70    9.14
   0  -5  10   15.37    2.89
   0   5 -10   13.75    2.63
   0  -5  10   11.17    2.35
   0  -5   9  116.93    6.76
   0  -5   9  107.74    6.03
   0   5  -9  105.69    6.16
   0  -5   8  846.04   17.63
   0   5  -8  792.75   16.37
   0  -5   8  817.33   16.42
   0  -5   7  126.13    6.84
   0   5  -7  110.60    6.56
   0  -5   7  117.45    6.27
   0   5  -7  114.02    6.37
   0  -5   6  615.67   14.70
   0   5  -6  549.57   13.76
   0   5  -6  561.02   13.56
   0   5  -5  111.58    6.37
   0  -5   5  122.07    6.64
   0  -5   4   72.46    4.98
   0   5  -4   65.53    4.81
   0  -5   3  674.33   15.05
   0   5  -3  622.30   14.49
   0   5  -2  128.40    6.62
   0  -5   2  139.29    6.99
   0  -5   1   16.45    2.49
   0   5  -1   12.76    2.24
   0  -5   0 1493.52   22.50
   0   5   0 1451.12   22.36
   0  -5   0 1480.01   13.20
   0  -5  -1   11.68    1.28
   0  -5  -1   11.99    2.79
   0   5   1   18.27    3.77
   0  -5  -1   12.54    1.35
   0  -5  -2  528.96    5.96
   0   5   2  535.64   13.65
   0  -5  -2  553.52   13.84
   0  -5  -2  526.87    5.99
   0  -5  -3  368.22   11.43
   0   5   3  359.82   11.51
   0  -5  -4   64.18    4.99
   0   5   4   63.45    5.03
   0   5   5  346.23   11.31
   0  -5  -5  332.77   10.98
   0  -5  -6  284.20   10.31
   0   5   6  283.01   10.30
   0   5   6  275.24    4.83
   0   5   7   15.17    1.42
   0   5   7   20.96    3.36
   0  -5  -7   20.60    3.17
   0   5   7   15.37    1.39
   0  -5  -7   18.23    3.06
   0   5   8  514.33   14.36
   0   5   8  517.92    8.12
   0  -5  -8  498.95   13.96
   0   5   8  510.87    8.00
   0   5   9    1.81    1.04
   0  -5  -9    0.71    1.86
   0   5   9    8.59    2.86
   0   5   9    1.37    1.09
   0   5  10    9.78    1.51
   0   5  10   12.18    2.85
   0   5  10   12.07    1.80
   0  -5 -10   11.53    2.59
   0   5  11  116.75    7.39
   0   5  11  113.50    4.79
   0  -5 -11  112.75    7.01
   0   5  11  115.11    4.88
   0   5  12   12.48    2.12
   0  -5 -12   12.33    2.95
   0   5  12    8.81    2.52
   0   5  12   12.01    2.05
   0   5  13  143.27    8.62
   0  -5 -13  132.79    7.88
   0   5  14  225.67   11.00
   0   5  15   22.74    3.90
   0   5  16  165.56    9.72
   0   5  17    2.09    2.36
   0   5  18    1.11    2.46
   0   5  19   49.07    5.91
   0   5  20   67.70    6.92
   0   5  21    6.40    3.12
   0   5  22   30.63    5.42
   0   5  23    2.99    3.29
   0   5  24   48.31    6.35
   0   5  25    1.39    3.20
   0   5  26   19.22    5.05
   0   5  27   42.94    6.86
   0   5  28    3.87    3.93
   0  -6  29   13.48    4.50
   0  -6  28   20.91    5.03
   0  -6  27   32.24    5.70
   0  -6  26  122.24    9.99
   0  -6  25   70.59    7.59
   0  -6  24   23.51    5.09
   0  -6  23  106.87    8.66
   0  -6  22    5.72    3.40
   0  -6  21   89.98    7.62
   0  -6  20   93.89    7.87
   0  -6  19   20.13    3.85
   0  -6  18  114.98    8.19
   0  -6  17  135.34    8.71
   0   6 -16   27.25    3.98
   0  -6  16   21.71    3.67
   0  -6  15  124.52    7.95
   0   6 -15  123.11    7.63
   0  -6  14    6.19    2.75
   0   6 -14    9.03    2.71
   0  -6  13  192.09    9.81
   0  -6  13  189.96    9.33
   0   6 -13  187.46    9.06
   0  -6  12  520.24   16.05
   0  -6  12  488.01   14.55
   0   6 -12  491.10   14.44
   0  -6  11  185.70    9.50
   0  -6  11  178.74    8.84
   0   6 -11  172.63    8.69
   0  -6  10  264.05   11.04
   0  -6  10  247.91   10.12
   0   6 -10  254.47   10.44
   0  -6   9  161.19    8.62
   0   6  -9  157.36    8.23
   0  -6   9  155.07    8.10
   0  -6   8  101.36    6.84
   0   6  -8   92.74    6.71
   0  -6   8   90.55    6.07
   0   6  -8   93.79    6.51
   0   6  -7  536.92   15.07
   0  -6   7  612.68   16.21
   0   6  -7  562.85   15.28
   0  -6   6    9.31    3.12
   0   6  -6    6.27    3.00
   0  -6   5  109.22    6.81
   0   6  -5   90.83    6.27
   0   6  -4  798.11   18.03
   0  -6   4  877.11   19.11
   0   6  -3   58.97    5.67
   0  -6   3   66.61    5.88
   0  -6   2    4.61    1.62
   0   6  -2    0.91    2.02
   0   6  -1  482.61   13.96
   0  -6   1  550.56   14.91
   0   6   0  214.01    9.40
   0  -6   0  229.77    9.64
   0  -6   0  231.08    5.32
   0  -6  -1  647.39    7.80
   0   6   1  630.39   16.09
   0  -6  -1  690.41   16.97
   0  -6  -1  658.22    7.74
   0  -6  -2  164.76    3.33
   0  -6  -2  196.07    9.40
   0   6   2  184.28    9.15
   0  -6  -3   85.67    6.11
   0   6   3   81.77    6.06
   0   6   4  330.16   12.12
   0  -6  -4  343.86   12.34
   0  -6  -5   78.01    6.10
   0   6   5   75.75    6.24
   0  -6  -6   97.41    6.78
   0   6   6  100.74    6.95
   0  -6  -7  291.59   11.65
   0   6   7  286.71   11.57
   0  -6  -8   95.09    6.86
   0   6   8   90.69    6.68
   0  -6  -8   82.37    6.35
   0   6   8   85.18    2.88
   0   6   9  174.65    9.27
   0   6   9  156.77    4.31
   0  -6  -9  178.70    9.34
   0   6   9  160.06    4.33
   0   6  10   94.66    7.08
   0   6  10   84.73    3.51
   0  -6 -10   93.46    6.98
   0   6  10   87.40    3.51
   0   6  11    3.09    1.31
   0  -6 -11    2.08    2.16
   0   6  11    3.02    1.47
   0   6  11    0.60    2.15
   0   6  12    0.26    2.12
   0   6  12    3.74    1.58
   0   6  12    1.81    1.38
   0   6  13   64.53    3.92
   0   6  13   62.90    6.22
   0   6  13   62.01    3.85
   0   6  14  172.30    6.70
   0   6  14  165.94    9.92
   0   6  14  166.44    6.55
   0   6  15  221.02    7.96
   0   6  15  228.13   11.88
   0   6  15  220.39    7.84
   0   6  16    2.26    2.03
   0   6  16    1.53    2.76
   0   6  16    2.43    1.86
   0   6  17   99.46    5.91
   0   6  17   99.11    8.26
   0   6  17   95.21    5.78
   0   6  18   24.15    3.68
   0   6  18   22.42    4.64
   0   6  18   19.08    3.21
   0   6  19    8.97    3.84
   0   6  19    4.19    2.57
   0   6  19    5.07    2.51
   0   6  20    3.82    3.48
   0   6  20    6.25    2.74
   0   6  21    3.57    3.45
   0   6  21    5.25    2.97
   0   6  22  157.98   11.75
   0   6  22  142.22    8.44
   0   6  23  118.56   10.21
   0   6  24    1.97    3.01
   0   6  25   46.62    7.19
   0   6  26   31.50    6.19
   0  -7  28   63.86    8.06
   0  -7  27    2.63    2.88
   0  -7  26    4.34    3.43
   0  -7  25   35.41    6.00
   0  -7  24  108.48    9.18
   0  -7  23   69.30    7.44
   0  -7  22   -2.67    3.15
   0  -7  21    7.61    3.35
   0  -7  20  115.93    8.69
   0  -7  19    0.59    2.61
   0  -7  18   27.20    4.44
   0   7 -17   42.46    5.03
   0  -7  17   46.86    5.51
   0  -7  16  123.59    8.45
   0   7 -16  130.82    8.67
   0   7 -15   14.94    3.51
   0  -7  15   12.40    3.21
   0   7 -14   35.37    4.74
   0  -7  14   33.26    4.46
   0  -7  13    2.13    2.35
   0   7 -13    5.07    2.28
   0  -7  12   63.25    5.91
   0   7 -12   62.86    5.86
   0  -7  11   69.84    5.99
   0   7 -11   67.22    6.02
   0   7 -10   42.91    5.01
   0  -7  10   34.00    4.43
   0  -7   9  208.11   10.43
   0  -7   9  190.81    9.42
   0   7  -9  193.97    9.85
   0   7  -8   43.83    5.41
   0  -7   8   53.69    5.69
   0   7  -8   45.66    5.18
   0  -7   7   17.58    3.54
   0   7  -7   13.32    3.19
   0   7  -7   17.57    3.63
   0  -7   6   35.27    4.45
   0   7  -6   31.60    4.43
   0  -7   5   22.37    3.57
   0   7  -5   21.40    3.45
   0   7  -4  129.81    7.83
   0  -7   4  162.99    9.34
   0  -7   3  319.10   12.46
   0   7  -3  270.22   11.53
   0  -7   2  147.28    8.61
   0   7  -2  125.75    7.99
   0   7  -1  156.44    8.79
   0  -7   1  163.67    8.72
   0  -7   1  168.65    5.07
   0  -7   0   36.52    4.49
   0   7   0   34.08    4.44
   0  -7   0   35.63    2.24
   0  -7   0   36.28    2.17
   0   7   1   26.60    3.94
   0  -7  -1   28.58    3.88
   0  -7  -1   28.68    1.61
   0  -7  -1   32.01    1.70
   0   7   2  147.68    8.77
   0  -7  -2  161.63    9.08
   0  -7  -3   18.81    3.81
   0   7   3   17.18    3.54
   0   7   4  101.22    7.40
   0  -7  -4  119.82    8.08
   0   7   5  151.97    9.02
   0  -7  -5  168.77    9.45
   0   7   6  147.99    9.25
   0  -7  -6  148.29    8.96
   0   7   7  207.19   10.80
   0   7   8   13.82    3.77
   0   7   9   40.01    4.98
   0   7  10  178.15   10.34
   0   7  11    8.71    3.15
   0   7  11    5.71    1.24
   0   7  12   35.56    4.99
   0   7  12   32.64    2.35
   0   7  13  185.08    5.62
   0   7  13  213.87   11.70
   0   7  13  165.87    5.26
   0   7  14   55.62    6.53
   0   7  14   46.29    3.26
   0   7  14   45.17    3.14
   0   7  15   12.71    3.65
   0   7  15   14.85    2.52
   0   7  15   10.18    2.11
   0   7  16    5.70    2.05
   0   7  16    3.69    2.50
   0   7  16    8.48    2.15
   0   7  17    0.05    3.13
   0   7  17    2.91    2.00
   0   7  18  113.33    9.38
   0   7  18   98.97    5.77
   0   7  19   35.61    3.81
   0   7  19   33.46    5.62
   0   7  20    2.04    2.92
   0   7  21   30.99    5.61
   0   7  22   17.26    5.07
   0   7  23   -3.23    3.47
   0   7  24   10.99    5.27
   0  -8  27   30.41    6.24
   0  -8  26   82.74    9.29
   0  -8  25   -0.32    2.77
   0  -8  24   57.47    7.34
   0  -8  23   10.42    4.01
   0  -8  22   -0.72    3.32
   0  -8  21  109.06    9.16
   0  -8  20   14.84    4.33
   0  -8  19   43.55    6.07
   0  -8  18  237.07   12.57
   0   8 -18  246.33   12.42
   0  -8  17   64.57    7.10
   0   8 -17   76.38    7.22
   0  -8  16   88.69    7.84
   0   8 -16   97.07    7.83
   0  -8  15   43.67    5.64
   0   8 -15   50.97    5.87
   0   8 -14    2.85    2.66
   0  -8  14    2.97    2.44
   0  -8  13  276.78   12.70
   0   8 -13  267.50   12.59
   0  -8  12  169.21   10.08
   0   8 -12  156.47    9.85
   0  -8  11   36.05    4.95
   0   8 -11   34.38    5.14
   0  -8  10  452.94   15.80
   0   8 -10  459.09   16.53
   0   8  -9   23.65    5.38
   0   8  -9   18.46    4.71
   0  -8   9   18.05    4.69
   0   8  -8  217.51   11.49
   0   8  -8  232.78   11.73
   0   8  -7  120.94    8.63
   0   8  -7  139.38    9.39
   0   8  -6   40.98    5.33
   0   8  -5  199.18   10.78
   0   8  -4  223.24   11.25
   0   8  -3    2.22    2.46
   0   8  -2  528.66   17.18
   0  -8   2  586.04   10.45
   0  -8   1   19.36    2.15
   0   8  -1   21.05    4.91
   0  -8   1   23.44    2.28
   0  -8   0  231.73    5.11
   0   8   0  229.68   11.44
   0  -8   0  235.40    5.02
   0   8   1  213.04   11.08
   0   8   2  134.57    8.68
   0   8   3   50.28    5.78
   0   8   4  460.21   16.49
   0   8   5   33.76    5.41
   0   8   6  347.27   14.69
   0   8   7    9.45    3.56
   0   8   8  305.18   14.40
   0   8   9  162.37   10.63
   0   8  10   61.42    6.87
   0   8  11    0.84    2.91
   0   8  12  191.92   11.84
   0   8  13   80.75    8.14
   0   8  14  388.18   16.87
   0   8  15    8.62    4.08
   0   8  16  168.69   11.62
   0   8  17   73.89    8.04
   0   8  18   12.92    4.47
   0   8  19    8.42    3.93
   0   8  20  101.78   10.07
   0   8  21   75.47    8.73
   0   8  22  121.93   11.18
   0  -9  25   12.03    4.47
   0  -9  24    9.64    4.24
   0  -9  23   10.35    4.17
   0  -9  22   45.90    6.61
   0  -9  21   21.43    4.93
   0  -9  20    2.82    2.84
   0   9 -19   -0.70    2.77
   0  -9  19   -0.45    2.75
   0  -9  18    3.03    3.13
   0   9 -18    7.44    3.31
   0  -9  17   32.95    5.50
   0   9 -17   25.30    5.12
   0  -9  16   22.31    4.86
   0   9 -16   18.98    4.43
   0  -9  15   30.90    5.07
   0   9 -15   30.68    5.05
   0  -9  14   80.78    7.57
   0   9 -14   83.80    7.74
   0  -9  13   75.48    7.46
   0   9 -13   71.89    7.42
   0  -9  12   31.20    5.18
   0   9 -12   32.00    5.44
   0  -9  11   93.42    8.06
   0   9 -11   90.97    8.25
   0  -9  10   37.82    5.67
   0   9 -10   50.70    6.39
   0   9  -9   18.72    4.61
   0  -9   9   22.61    4.16
   0   9  -9   25.67    4.81
   0   9  -8   69.07    7.51
   0   9  -8   69.50    7.31
   0   9  -7  108.23    8.86
   0   9  -7  127.73    9.54
   0   9  -6   84.94    7.82
   0   9  -5   16.52    4.25
   0   9  -4    2.37    2.55
   0  -9   4    1.35    1.62
   0   9  -3   51.31    6.00
   0  -9   3   55.57    3.60
   0  -9   2   51.08    3.01
   0   9  -2   46.62    5.93
   0  -9   2   46.84    2.95
   0  -9   1    4.74    1.24
   0  -9   1    5.34    1.24
   0   9  -1    2.24    2.50
   0  -9   0   50.65    1.97
   0   9   0   59.19    6.59
   0  -9   0   50.02    1.95
   0   9   1  138.52    9.74
   0   9   2   45.47    5.93
   0   9   3   36.38    5.08
   0   9   4   24.22    4.53
   0   9   5   65.13    7.03
   0   9   6    9.16    3.82
   0   9   7   42.14    5.87
   0   9   8    9.82    3.60
   0   9   9  131.83   10.18
   0   9  10   44.48    6.72
   0   9  11    0.38    3.15
   0   9  12    3.12    3.41
   0   9  13    6.20    3.69
   0   9  14   -2.12    3.72
   0   9  15   40.49    6.31
   0   9  16   13.83    4.44
   0   9  17   58.32    7.53
   0   9  18   11.95    5.11
   0   9  19   10.59    4.38
   0   9  20   -1.43    3.18
   0 -10  23   11.18    5.07
   0 -10  22   20.64    4.94
   0 -10  21    9.70    4.36
   0 -10  20   19.91    5.24
   0  10 -20   14.81    4.27
   0 -10  19   97.59    9.51
   0  10 -19  112.08    9.87
   0  10 -18   47.49    7.42
   0 -10  18   42.51    6.79
   0 -10  17   51.46    6.92
   0  10 -17   56.96    7.15
   0 -10  16   32.88    5.88
   0  10 -16   24.72    5.20
   0 -10  15    9.63    3.81
   0  10 -15    7.23    3.71
   0 -10  14    5.83    3.18
   0  10 -14    0.97    3.32
   0  10 -13   13.24    3.82
   0 -10  13   18.07    4.24
   0  10 -12   59.19    7.40
   0 -10  12   41.33    5.74
   0 -10  11  200.37   12.12
   0  10 -11  206.70   12.95
   0  10 -10   99.36    9.25
   0 -10  10   90.30    8.37
   0  10  -9   65.93    8.03
   0 -10   9   52.19    6.20
   0  10  -9   69.14    7.81
   0  10  -8   36.36    6.09
   0  10  -8   37.75    6.03
   0  10  -7   -2.36    2.81
   0  10  -7    2.43    2.68
   0  10  -6    3.59    3.13
   0  10  -5  122.57    9.70
   0  10  -4    5.51    3.29
   0 -10   3  153.85    5.39
   0  10  -3  141.11   10.24
   0 -10   2   28.48    2.19
   0  10  -2   19.38    4.47
   0  10  -1   37.28    5.63
   0  10   0   15.80    4.53
   0  10   1   11.38    3.72
   0  10   2    1.53    2.94
   0  10   3  114.42    9.70
   0  10   4   10.76    3.98
   0  10   5  365.46   16.85
   0  10   6   70.73    8.30
   0  10   7   -2.99    3.07
   0  10   8    3.01    3.11
   0  10   9   18.83    5.05
   0  10  10   14.87    4.93
   0  10  11  137.82   11.38
   0  10  12    4.28    3.84
   0  10  13   94.15    9.80
   0  10  14    5.13    3.92
   0  10  15   12.80    4.96
   0  10  16   -4.41    4.20
   0  10  17   12.83    4.69
   0  11 -21   10.77    4.67
   0  11 -20   32.24    6.36
   0 -11  20   22.36    5.33
   0 -11  19    4.09    3.89
   0  11 -19    8.29    4.37
   0 -11  18    4.77    3.70
   0  11 -18    5.66    4.20
   0  11 -17   17.17    4.99
   0 -11  17   17.92    5.01
   0  11 -16    1.65    3.11
   0 -11  16    3.92    3.63
   0  11 -15   12.80    4.35
   0 -11  15   10.08    4.36
   0  11 -14    0.77    3.71
   0 -11  14   -4.66    3.95
   0 -11  13    3.96    3.31
   0  11 -13   -0.78    3.26
   0 -11  12   42.82    6.57
   0  11 -12   42.07    6.84
   0 -11  11    2.68    3.24
   0  11 -11    1.00    3.14
   0 -11  10   11.79    3.84
   0  11 -10   14.21    4.40
   0  11  -9   18.75    5.24
   0 -11   9   26.01    4.97
   0  11  -9   22.26    5.35
   0  11  -8   11.32    4.25
   0  11  -8   10.36    4.60
   0  11  -7   10.17    4.08
   0  11  -7   12.48    4.27
   0  11  -6    7.92    4.09
   0  11  -6   16.49    4.87
   0  11  -5    0.80    2.96
   0  11  -4   16.47    4.65
   0  11  -3   -3.20    3.57
   0  11  -2   19.35    4.72
   0  11  -1    2.00    3.02
   0  11   0    0.63    2.88
   0  11   1   23.43    5.21
   0  11   2    4.46    3.45
   0  11   3   -0.33    3.11
   0  11   4    1.99    2.93
   0  11   5    4.44    3.21
   0  11   6   14.70    5.07
   0  11   7   28.70    6.22
   0  11   8    3.06    4.10
   0  11   9    8.28    4.34
   0  11  10    6.26    3.97
   0  11  11    3.85    3.88
   0  11  12    4.63    4.08
   0  11  13    7.04    4.28
   0 -12  16    1.87    3.51
   0 -12  15   14.90    4.89
   0 -12  14   10.01    4.53
   0 -12  13    6.30    3.90
   0  12 -13    9.86    4.75
   0 -12  12   39.96    6.68
   0  12 -12   50.97    7.83
   0  12 -11   20.30    5.41
   0 -12  11   18.08    5.36
   0 -12  10   -2.80    3.19
   0  12 -10    4.27    3.43
   0  12  -9   41.24    7.28
   0 -12   9   36.19    6.07
   0  12  -8   -0.81    3.30
   0 -12   8    5.21    3.75
   0  12  -8    8.86    4.79
   0  12  -7    7.14    4.42
   0  12  -7   13.60    4.90
   0  12  -6   49.74    8.02
   0  12  -6   71.73    8.87
   0  12  -5    8.97    4.71
   0  12  -5   23.76    6.00
   0  12  -4   41.37    7.23
   0  12  -3   17.92    5.23
   0  12  -2   17.45    5.52
   0  12  -1    9.78    4.41
   0  12   0    8.66    3.84
   0  12   1    4.68    4.98
   0  12   2  115.57   11.08
   0  12   3   46.41    8.23
   0  12   4   60.63    8.77
   0  12   5   26.03    6.28
   0  12   6   12.41    5.07
  -1  12   9   32.73    6.47
  -1  12   8    2.89    3.57
  -1  12   7   34.03    6.40
  -1  12   6    4.95    3.53
  -1  12   5   22.31    5.56
  -1  12   4    2.91    3.42
  -1  12   3   36.22    6.44
  -1  12   2   -1.10    3.23
  -1  12   1   43.05    6.98
  -1  12   0    3.51    3.83
  -1  12  -1   17.28    4.98
  -1  12  -1   31.81    6.52
  -1  12  -2    0.08    3.00
  -1  12  -2   11.18    4.75
  -1  12  -3   20.02    4.97
  -1  12  -3   28.01    6.21
  -1  12  -4   -3.42    3.37
  -1  12  -4   11.50    4.84
  -1  12  -5   10.33    3.66
  -1  12  -5   26.58    6.10
  -1  12  -6   13.32    5.05
  -1  12  -6   28.91    6.62
  -1  12  -7   92.09    9.96
  -1  12  -7  117.12   11.28
  -1  12  -8   14.10    5.49
  -1  12  -9   61.82    8.82
   1 -12   9   48.43    7.67
   1 -12  10   13.55    5.45
   1 -12  11   11.46    5.05
   1 -12  12   13.09    5.10
  -1  11  14   -1.59    3.70
  -1  11  13    3.36    3.46
  -1  11  12    7.09    3.98
  -1  11  11   12.76    4.60
  -1  11  10   17.08    5.14
  -1  11   9   12.68    4.46
  -1  11   8   12.47    4.83
  -1  11   7    6.91    3.85
  -1  11   6   -2.82    3.07
  -1  11   5   39.11    6.28
  -1  11   4   16.85    4.63
  -1  11   3    2.17    3.21
  -1  11   2    4.72    3.34
  -1  11   1    0.06    2.87
  -1  11   0   29.98    5.41
  -1  11  -1    4.84    3.46
  -1  11  -2   13.26    4.75
  -1  11  -2   12.56    4.63
  -1  11  -3   35.13    5.88
  -1  11  -3   47.24    7.38
  -1  11  -4    4.94    3.82
  -1  11  -4   18.99    5.30
  -1  11  -5    7.65    3.46
  -1  11  -5    5.99    3.72
  -1  11  -6    5.80    3.24
  -1  11  -6   16.56    4.88
  -1  11  -7    2.84    2.90
  -1  11  -7    9.10    4.64
  -1  11  -8   48.38    7.25
   1 -11   9    9.01    4.24
  -1  11  -9    4.77    3.94
  -1  11 -10    7.81    4.79
   1 -11  10    0.64    3.21
  -1  11 -11   34.78    6.34
   1 -11  11   42.94    6.63
  -1  11 -12    6.20    4.24
   1 -11  12    2.45    3.40
  -1  11 -13    3.42    3.92
   1 -11  13    5.72    3.63
  -1  11 -14   19.87    5.58
   1 -11  14   27.27    5.76
   1 -11  15    3.71    3.48
  -1  11 -15    8.45    4.05
   1 -11  16    3.05    3.91
  -1  11 -16    4.43    3.59
  -1  11 -17    8.41    4.58
   1 -11  17    4.25    3.92
  -1  11 -18    5.71    4.21
  -1  10  18   63.28    8.55
  -1  10  17   24.78    5.98
  -1  10  16    1.95    3.36
  -1  10  15   -7.95    4.14
  -1  10  14   12.98    4.42
  -1  10  13   17.29    4.91
  -1  10  12  123.94   10.62
  -1  10  11   -0.08    3.06
  -1  10  10   37.92    6.00
  -1  10   9   30.37    5.67
  -1  10   8   20.54    4.87
  -1  10   7    5.23    3.19
  -1  10   6   56.87    6.80
  -1  10   5   30.82    5.36
  -1  10   4  255.63   13.55
  -1  10   3   21.79    5.08
  -1  10   2   92.80    8.34
   1 -10  -1   59.16    3.69
  -1  10   1   54.10    6.52
   1 -10   0   65.57    4.04
  -1  10   0   52.83    6.31
   1 -10   1    8.64    2.53
  -1  10  -1    7.69    3.61
   1 -10   2  231.31    8.27
  -1  10  -2  210.54   12.20
   1 -10   3   12.87    2.98
  -1  10  -3   13.11    4.33
  -1  10  -3   21.31    5.44
   1 -10   4  212.38    8.89
  -1  10  -4  177.23   11.37
  -1  10  -4  205.94   12.91
  -1  10  -5   49.33    6.32
  -1  10  -5   59.52    7.47
  -1  10  -6   52.52    6.54
  -1  10  -6   64.57    7.74
   1 -10   6   62.26    5.53
  -1  10  -7   38.97    6.16
  -1  10  -7   43.42    6.51
   1 -10   7   46.71    5.25
  -1  10  -8  135.14   10.80
  -1  10  -9   31.08    6.54
   1 -10  10  342.81   15.98
  -1  10 -10  351.36   16.92
  -1  10 -11   15.01    4.79
   1 -10  11   12.55    4.59
   1 -10  12   86.35    8.12
  -1  10 -12   97.41    9.42
   1 -10  13    6.12    3.59
  -1  10 -13    6.40    4.30
  -1  10 -14   45.86    6.76
   1 -10  14   37.69    6.54
  -1  10 -15   63.16    7.68
   1 -10  15   46.42    6.78
   1 -10  16  101.81    9.37
  -1  10 -16  117.84   10.35
  -1  10 -17   36.59    6.66
   1 -10  17   27.82    5.85
   1 -10  18  101.80    9.87
  -1  10 -18  100.55    9.55
   1 -10  19   42.82    7.24
   1 -10  20   51.18    7.88
   1 -10  21   15.54    5.32
  -1   9  21   46.81    7.62
  -1   9  20   -0.77    3.38
  -1   9  19    5.53    4.18
  -1   9  18   -0.16    3.16
  -1   9  17   11.47    4.43
  -1   9  16   62.62    7.67
  -1   9  15   -0.34    2.91
  -1   9  14   67.77    7.66
  -1   9  13   43.45    6.47
  -1   9  12    0.47    3.01
  -1   9  11    4.89    3.60
  -1   9  10   14.83    4.27
  -1   9   9   50.37    6.54
  -1   9   8   70.57    7.28
  -1   9   7    7.44    3.67
  -1   9   6  110.15    8.64
  -1   9   5   41.45    5.52
  -1   9   4   36.44    5.24
  -1   9   3    9.47    3.38
  -1   9   2   33.41    5.01
   1  -9  -2   27.37    2.64
   1  -9  -2   26.11    2.54
   1  -9  -1  111.35    5.11
  -1   9   1   93.72    7.79
   1  -9  -1  106.14    4.96
   1  -9   0  188.10    7.00
  -1   9   0  166.81   10.10
   1  -9   0  180.18    6.84
   1  -9   1   11.04    2.22
   1  -9   1    7.98    1.99
  -1   9  -1    1.03    2.72
   1  -9   2  117.72    6.05
  -1   9  -2   88.31    7.33
   1  -9   2  114.64    5.98
   1  -9   3   56.27    4.54
  -1   9  -3   45.44    5.60
   1  -9   3   51.78    4.26
  -1   9  -3   57.19    6.72
  -1   9  -4    1.02    2.32
  -1   9  -4   10.23    3.83
   1  -9   4    5.73    2.32
  -1   9  -5   46.63    5.75
   1  -9   5   51.09    4.69
  -1   9  -5   51.67    6.41
  -1   9  -6   63.23    6.62
  -1   9  -6   78.41    7.78
   1  -9   6   72.02    5.71
  -1   9  -7   74.80    7.31
  -1   9  -7   80.23    7.86
  -1   9  -8   88.30    8.24
  -1   9  -9    1.70    2.78
   1  -9  10   15.68    3.76
  -1   9 -10   20.77    4.52
   1  -9  11   14.00    4.02
  -1   9 -11   13.23    3.77
  -1   9 -12   25.43    5.05
   1  -9  12   24.56    4.82
   1  -9  13   99.12    8.70
  -1   9 -13  103.55    8.84
   1  -9  14    6.44    3.52
  -1   9 -14   11.97    3.72
   1  -9  15   71.44    7.61
  -1   9 -15   78.27    8.03
  -1   9 -16   33.56    5.64
   1  -9  16   21.89    4.77
  -1   9 -17   29.49    5.33
   1  -9  17   34.24    5.84
   1  -9  18    6.31    3.88
   1  -9  19   35.95    6.02
   1  -9  20    6.89    3.98
   1  -9  21  212.52   13.39
   1  -9  22   14.06    4.67
   1  -9  23   14.63    4.87
   1  -9  24    2.48    3.13
  -1   8  24    4.99    4.18
  -1   8  23   15.61    5.08
  -1   8  22   22.03    5.56
  -1   8  21   99.29    9.74
  -1   8  20   23.43    5.47
  -1   8  19   63.04    7.49
  -1   8  18   20.82    4.85
  -1   8  17   18.84    4.59
  -1   8  16    4.57    3.19
  -1   8  16    2.50    2.34
  -1   8  15  109.80    9.03
  -1   8  15   93.93    5.51
  -1   8  14   44.19    6.06
  -1   8  14   44.25    3.93
  -1   8  13  295.94   14.35
  -1   8  13  255.24    8.29
  -1   8  12   20.15    4.45
  -1   8  12   12.31    2.17
  -1   8  11  154.90   10.22
  -1   8  10  163.40   10.42
  -1   8   9    0.72    2.50
  -1   8   8  201.77   11.22
  -1   8   7  725.09   20.47
  -1   8   6   12.91    3.60
  -1   8   5  393.30   14.72
  -1   8   4   61.16    6.04
   1  -8  -3   71.75    3.83
  -1   8   3   77.41    6.55
   1  -8  -3   73.87    3.96
   1  -8  -2   29.42    2.66
   1  -8  -2   26.50    4.18
  -1   8   2   31.00    4.55
   1  -8  -2   28.66    2.65
   1  -8  -1  227.86    7.33
  -1   8   1  215.17   10.64
   1  -8  -1  231.60   11.38
   1  -8  -1  218.65    7.12
   1  -8   0  106.50    5.31
  -1   8   0   90.45    7.23
   1  -8   0  111.03    7.89
   1  -8   0  118.50    5.48
   1  -8   1  625.27   13.24
  -1   8  -1  549.10   16.92
   1  -8   1  612.68   17.95
   1  -8   1  622.12   12.90
   1  -8   2   64.49    4.66
   1  -8   2   49.75    5.25
  -1   8  -2   42.00    4.85
   1  -8   2   65.16    4.64
  -1   8  -3  307.33   12.75
   1  -8   3  360.27   13.95
   1  -8   3  351.74   10.66
  -1   8  -4  144.52    8.93
   1  -8   4  154.29    7.41
  -1   8  -4  158.38    9.91
  -1   8  -5   40.95    4.84
  -1   8  -5   56.06    6.15
  -1   8  -6    8.84    3.12
  -1   8  -6   13.93    4.23
  -1   8  -7  203.05   11.00
  -1   8  -7  218.17   11.83
  -1   8  -8  218.57   11.99
  -1   8  -9  620.87   19.34
   1  -8   9  579.96   18.41
  -1   8 -10   69.05    6.95
   1  -8  10   62.18    6.80
   1  -8  11  269.97   12.94
  -1   8 -11  279.33   13.04
   1  -8  12   19.46    4.40
  -1   8 -12   30.49    4.95
   1  -8  13   94.45    7.89
  -1   8 -13  100.56    8.18
  -1   8 -14   21.75    4.40
   1  -8  14   16.14    4.09
   1  -8  15  158.61   10.36
  -1   8 -15  165.87   10.54
   1  -8  16  155.12   10.59
  -1   8 -16  160.87   10.47
   1  -8  17  178.85   11.45
   1  -8  18    6.52    3.54
   1  -8  19   91.43    8.59
   1  -8  20    5.97    3.36
   1  -8  21   23.62    4.91
   1  -8  22   57.88    7.39
   1  -8  23  189.42   12.75
   1  -8  24   49.08    7.29
   1  -8  25   64.27    8.16
   1  -8  26    4.96    3.88
  -1   7  25   52.74    7.77
  -1   7  24   19.07    5.31
  -1   7  23   -1.91    3.73
  -1   7  22   31.34    5.78
  -1   7  21    3.88    3.14
  -1   7  21    9.81    3.13
  -1   7  20   36.45    5.51
  -1   7  20   36.78    4.57
  -1   7  19    9.22    3.49
  -1   7  19   12.09    2.88
  -1   7  18   61.26    6.82
  -1   7  18   59.04    5.19
  -1   7  17   47.16    5.89
  -1   7  17   48.13    4.64
  -1   7  16    6.33    3.11
  -1   7  16    9.72    2.95
  -1   7  16    6.82    2.41
  -1   7  15   -0.19    2.50
  -1   7  15    4.43    2.28
  -1   7  15    3.12    2.28
  -1   7  14   52.60    4.34
  -1   7  14   68.37    6.85
  -1   7  14   49.15    4.10
  -1   7  13   28.76    4.50
  -1   7  13   28.58    3.42
  -1   7  13   29.30    3.24
  -1   7  12   80.87    4.97
  -1   7  12   96.42    7.72
  -1   7  12   86.13    5.12
  -1   7  11   52.56    5.60
  -1   7  11   45.76    3.74
  -1   7  10   27.52    4.18
  -1   7  10   23.41    2.79
  -1   7   9   22.06    4.15
  -1   7   9   18.17    2.52
  -1   7   8  225.26   10.83
   1  -7  -8  213.38   10.79
  -1   7   7   60.47    5.99
   1  -7  -7   55.74    5.60
   1  -7  -6   -0.73    1.82
  -1   7   6   -0.61    2.23
  -1   7   5    2.92    2.73
   1  -7  -5    1.74    2.17
   1  -7  -4   99.24    4.52
   1  -7  -4   96.27    7.16
  -1   7   4  101.58    7.09
   1  -7  -4   94.14    4.56
   1  -7  -3   74.55    4.07
  -1   7   3   63.79    5.55
   1  -7  -3   70.32    6.15
   1  -7  -3   66.90    3.90
   1  -7  -2   -1.17    2.05
  -1   7   2   -2.03    2.64
   1  -7  -2   -1.03    1.27
   1  -7  -2    1.02    1.15
   1  -7  -1   21.02    2.36
   1  -7  -1   17.38    3.43
  -1   7   1   21.11    3.61
   1  -7  -1   20.83    2.35
   1  -7   0  108.63    5.23
   1  -7   0  113.99    7.41
  -1   7   0  103.84    6.93
   1  -7   0  106.80    5.07
   1  -7   1    1.09    1.37
   1  -7   1    1.11    1.70
   1  -7   1    2.36    1.51
  -1   7  -1   -2.21    1.93
   1  -7   2   18.47    3.51
  -1   7  -2   16.16    2.99
   1  -7   2   20.14    2.80
   1  -7   3   11.56    2.83
  -1   7  -3   14.55    3.54
   1  -7   3   15.06    2.70
   1  -7   4  249.94   10.92
  -1   7  -4  239.95   10.55
  -1   7  -4  239.01   11.24
   1  -7   5   21.49    3.62
  -1   7  -5   19.72    3.36
  -1   7  -5   21.66    3.99
   1  -7   6   10.58    2.79
  -1   7  -6   11.30    2.51
  -1   7  -6   15.85    3.64
   1  -7   7    7.14    2.81
  -1   7  -7    8.82    2.96
  -1   7  -7    5.04    2.47
   1  -7   8  146.42    8.60
  -1   7  -8  146.37    8.84
   1  -7   9   53.36    5.43
  -1   7  -9   50.35    5.58
   1  -7   9   48.79    5.33
   1  -7  10  140.84    8.62
   1  -7  10  129.90    8.44
  -1   7 -10  139.16    8.64
   1  -7  11   66.56    6.30
  -1   7 -11   68.19    6.25
   1  -7  12  335.07   13.64
  -1   7 -12  345.73   13.57
   1  -7  13   24.82    4.43
  -1   7 -13   28.49    4.48
   1  -7  14   24.06    4.48
  -1   7 -14   23.36    4.21
   1  -7  15   28.46    4.89
  -1   7 -15   19.49    3.72
   1  -7  16   62.45    6.48
   1  -7  17    5.26    3.41
   1  -7  18   68.33    6.76
   1  -7  19    7.22    3.22
   1  -7  20   89.84    8.30
   1  -7  21    2.70    3.02
   1  -7  22    1.32    2.67
   1  -7  23    1.32    2.97
   1  -7  24   10.31    4.16
   1  -7  25    6.78    3.66
   1  -7  26   96.73    9.42
   1  -7  27   -3.54    3.87
  -1   6  27    2.87    3.20
  -1   6  26    3.07    3.60
  -1   6  26    4.49    3.39
  -1   6  25   19.12    5.30
  -1   6  25   16.07    3.86
  -1   6  24  112.19   10.00
  -1   6  24   92.31    7.72
  -1   6  23   53.24    7.23
  -1   6  23   39.63    5.25
  -1   6  22  122.82    9.95
  -1   6  22  110.74    7.85
  -1   6  21   75.40    8.16
  -1   6  21   73.24    6.47
  -1   6  20   11.03    3.86
  -1   6  20   19.33    4.30
  -1   6  20   16.99    3.56
  -1   6  19    9.50    3.02
  -1   6  19    9.21    3.60
  -1   6  19   13.13    3.07
  -1   6  18    9.83    3.16
  -1   6  18   13.28    3.83
  -1   6  18   13.87    3.19
  -1   6  17    5.30    3.28
  -1   6  17    5.01    2.48
  -1   6  17    1.48    2.14
  -1   6  16  522.16   14.13
  -1   6  16  550.07   18.19
  -1   6  16  526.25   14.23
  -1   6  15   71.47    5.40
  -1   6  15   68.56    6.66
  -1   6  15   73.13    5.48
  -1   6  14  173.71    7.68
  -1   6  14  171.50    9.72
  -1   6  14  168.19    7.47
  -1   6  13  117.34    6.29
  -1   6  13  121.74    8.12
  -1   6  13  117.96    6.32
  -1   6  12   94.34    5.53
  -1   6  12   98.10    7.27
  -1   6  12   89.51    5.19
  -1   6  11   35.94    3.37
  -1   6  11   43.37    5.13
  -1   6  11   44.16    3.60
  -1   6  10   67.36    4.39
  -1   6  10   78.59    6.37
  -1   6  10   67.94    4.30
  -1   6   9   37.31    3.20
  -1   6   9   42.12    4.70
   1  -6  -9   41.99    4.86
  -1   6   9   42.35    3.49
  -1   6   8  426.62   13.68
  -1   6   8  422.49    9.96
  -1   6   7   38.60    4.44
   1  -6  -7   37.07    4.39
  -1   6   7   35.15    3.00
  -1   6   6  176.13    8.65
   1  -6  -6  173.08    8.69
  -1   6   6  176.74    6.33
   1  -6  -5   29.21    3.89
  -1   6   5   28.43    3.86
   1  -6  -4   19.18    2.07
  -1   6   4   16.84    2.60
   1  -6  -4   20.61    3.29
   1  -6  -4   19.63    2.16
  -1   6   3    1.31    1.76
   1  -6  -3    2.22    1.77
   1  -6  -3    3.86    1.36
   1  -6  -3    0.95    1.23
   1  -6  -2  205.61    6.62
  -1   6   2  185.84    8.43
   1  -6  -2  194.19    8.83
   1  -6  -2  188.85    6.29
  -1   6   1    6.38    2.75
   1  -6  -1    7.20    2.25
   1  -6  -1    0.37    1.96
   1  -6  -1    4.07    1.94
   1  -6   0 1159.34   16.80
   1  -6   0 1159.91   20.98
  -1   6   0 1115.59   20.48
   1  -6   0 1166.86   16.56
  -1   6  -1   48.29    4.35
   1  -6   1   54.02    4.57
   1  -6   1   55.75    3.90
  -1   6  -2   86.40    5.80
   1  -6   2   91.80    6.04
   1  -6   2   93.12    5.18
   1  -6   3   48.73    4.54
  -1   6  -3   46.90    4.27
  -1   6  -3   50.53    4.92
   1  -6   4    1.80    1.84
  -1   6  -4   -0.69    2.01
  -1   6  -4    1.71    1.93
   1  -6   5   20.40    3.41
  -1   6  -5   21.51    3.48
  -1   6  -5   20.90    3.82
   1  -6   6  423.36   12.91
  -1   6  -6  408.96   12.68
  -1   6  -6  415.56   13.44
   1  -6   7  115.27    7.30
  -1   6  -7  109.01    7.51
   1  -6   8 1753.43   26.86
  -1   6  -8 1631.46   26.79
   1  -6   9    5.97    2.56
  -1   6  -9    5.32    2.51
   1  -6   9    5.54    2.53
   1  -6  10   87.41    6.27
  -1   6 -10   82.94    6.27
   1  -6  10   82.73    6.28
   1  -6  11    6.18    2.70
  -1   6 -11    0.93    1.88
   1  -6  11    5.72    2.55
   1  -6  12   15.75    3.33
   1  -6  12   16.03    3.32
  -1   6 -12   11.92    3.08
   1  -6  13   24.79    4.15
  -1   6 -13   26.83    4.54
   1  -6  13   23.58    4.52
   1  -6  14 1278.70   25.68
  -1   6 -14 1301.42   25.41
   1  -6  15    3.19    2.71
   1  -6  16  516.01   16.78
   1  -6  17    3.25    2.74
   1  -6  18   20.67    4.12
   1  -6  19   23.46    4.50
   1  -6  20   72.33    7.22
   1  -6  21   11.16    4.28
   1  -6  22  588.18   20.20
   1  -6  23   17.63    4.93
   1  -6  24  212.73   12.59
   1  -6  25    2.84    3.71
   1  -6  26   27.88    5.34
   1  -6  27    2.25    3.43
   1  -6  28   53.99    7.45
   1  -6  29    5.54    3.72
  -1   5  30   17.48    5.03
  -1   5  29    9.35    4.29
  -1   5  28   31.91    6.43
  -1   5  28   25.64    5.16
  -1   5  27    8.68    4.19
  -1   5  27    5.25    3.92
  -1   5  26   46.30    6.78
  -1   5  26   39.99    5.72
  -1   5  25   22.61    4.99
  -1   5  25   26.44    5.13
  -1   5  24    6.30    3.72
  -1   5  24   10.88    3.90
  -1   5  23   -2.14    3.35
  -1   5  23    8.36    3.48
  -1   5  22   40.82    5.94
  -1   5  22   33.89    4.91
  -1   5  21   11.56    3.74
  -1   5  21   20.51    3.99
  -1   5  20   77.54    6.52
  -1   5  20   80.37    7.43
  -1   5  20   84.25    6.77
  -1   5  19    6.22    2.95
  -1   5  19    6.32    2.90
  -1   5  19    5.41    2.92
  -1   5  18  109.73    7.20
  -1   5  18  101.10    8.01
  -1   5  18   97.78    6.85
  -1   5  17   30.14    3.94
  -1   5  17   30.22    4.79
  -1   5  17   29.92    3.97
  -1   5  16  139.83    7.55
  -1   5  16  131.50    8.39
  -1   5  16  143.11    7.60
  -1   5  15    5.65    2.65
  -1   5  15    0.55    2.16
  -1   5  15    2.63    1.90
  -1   5  14    5.41    2.49
  -1   5  14    6.65    3.07
  -1   5  14    4.09    2.16
  -1   5  13   53.00    4.46
  -1   5  13   52.69    5.64
  -1   5  13   51.57    4.41
  -1   5  12  387.96   13.19
  -1   5  12  383.31   10.88
   1  -5 -12  369.82   13.34
  -1   5  12  386.40   10.77
  -1   5  11   88.20    6.23
  -1   5  11   97.64    5.33
   1  -5 -11   89.11    6.47
  -1   5  11   90.05    5.17
  -1   5  10    4.53    1.97
  -1   5  10    3.53    1.72
  -1   5  10    3.33    1.87
   1  -5 -10    5.91    2.21
  -1   5   9   59.31    5.05
  -1   5   9   55.96    3.91
   1  -5  -9   51.46    4.84
  -1   5   9   51.34    3.59
  -1   5   8  510.98   13.66
  -1   5   8  488.88   10.61
   1  -5  -8  513.85   14.84
  -1   5   8  502.51   10.56
  -1   5   7   84.65    4.49
  -1   5   7   85.49    5.61
  -1   5   7   88.66    4.55
  -1   5   6   86.92    4.48
   1  -5  -6   90.83    5.89
  -1   5   6   91.37    5.89
  -1   5   6   88.33    4.51
   1  -5  -5    5.96    1.49
  -1   5   5   14.96    3.17
   1  -5  -5    8.83    2.50
  -1   5   5   10.09    2.22
   1  -5  -4 1030.76   14.32
   1  -5  -4 1002.38   18.32
  -1   5   4 1052.97   18.87
  -1   5   4 1017.16   14.88
   1  -5  -4 1030.57   14.50
  -1   5   3    1.07    1.80
   1  -5  -3    4.62    1.45
   1  -5  -3    1.46    1.48
   1  -5  -3    2.93    1.25
  -1   5   2   21.17    2.87
   1  -5  -2   25.52    2.46
   1  -5  -2   23.40    3.02
   1  -5  -2   26.56    2.48
  -1   5   1   23.42    3.02
   1  -5  -1   22.20    2.75
   1  -5  -1   26.17    2.54
   1  -5  -1   27.51    2.58
   1  -5   0  462.73   10.17
  -1   5   0  456.50   11.85
   1  -5   0  467.08   12.10
   1  -5   0  448.10    9.91
   1  -5   1  388.13   11.07
  -1   5  -1  372.29   10.60
   1  -5   1  376.18    9.43
   1  -5   2 1178.53   19.20
  -1   5  -2 1132.70   18.58
   1  -5   2 1172.18   17.44
   1  -5   3    4.47    1.84
  -1   5  -3    6.30    1.72
  -1   5  -3   10.21    2.73
  -1   5  -4  470.75   11.86
   1  -5   4  496.31   12.46
  -1   5  -4  484.79   13.05
   1  -5   5    6.26    1.88
  -1   5  -5    1.38    1.59
  -1   5  -5    4.49    2.01
   1  -5   6   28.17    3.33
  -1   5  -6   29.38    3.62
   1  -5   7   43.44    4.05
  -1   5  -7   38.51    3.99
   1  -5   8   11.02    2.36
  -1   5  -8    4.20    1.94
   1  -5   8    6.80    1.95
   1  -5   9  112.59    6.55
   1  -5   9  106.83    6.72
  -1   5  -9  110.16    6.84
   1  -5  10  899.83   18.03
   1  -5  10  873.26   18.81
  -1   5 -10  886.07   18.64
   1  -5  11  386.00   12.09
   1  -5  11  376.44   12.65
  -1   5 -11  390.57   12.74
   1  -5  12  362.68   12.00
   1  -5  12  343.12   12.21
  -1   5 -12  354.39   12.14
   1  -5  12  362.80   12.44
   1  -5  13   11.42    2.81
   1  -5  13    6.51    2.45
   1  -5  13    6.70    2.53
   1  -5  14   72.77    5.70
   1  -5  14   64.69    5.75
   1  -5  14   68.44    5.86
   1  -5  15   25.71    3.85
   1  -5  15   26.76    4.05
   1  -5  15   28.29    4.33
   1  -5  16   91.96    7.22
   1  -5  16  104.04    7.38
   1  -5  17  461.37   15.66
   1  -5  17  511.27   16.55
   1  -5  18  137.30    8.91
   1  -5  19    3.61    2.50
   1  -5  20   49.75    5.66
   1  -5  21    5.54    2.84
   1  -5  22   52.22    6.11
   1  -5  23   50.69    6.27
   1  -5  24   26.90    5.02
   1  -5  25  108.89    9.41
   1  -5  26  113.19    9.53
   1  -5  27   33.88    6.00
   1  -5  28   -2.46    3.19
   1  -5  29    6.51    4.19
  -1   4  30   61.01    8.25
  -1   4  29   -5.14    3.41
  -1   4  28    2.30    3.07
  -1   4  27    9.43    4.10
  -1   4  26    6.26    3.88
  -1   4  25  223.80   13.46
  -1   4  24  183.52   11.96
  -1   4  23   27.54    5.06
  -1   4  22   45.34    6.08
  -1   4  21    7.46    3.39
  -1   4  20    5.45    2.95
  -1   4  19   55.53    5.97
  -1   4  18   35.35    5.11
  -1   4  17  614.12   17.72
  -1   4  16  251.09   10.23
  -1   4  16  228.14   10.50
  -1   4  15  252.65    9.79
  -1   4  15  249.49   10.63
  -1   4  15  259.98    9.96
  -1   4  14  105.10    6.87
  -1   4  14  110.63    6.33
   1  -4 -14   94.10    6.62
  -1   4  14  107.20    6.29
  -1   4  13    3.84    2.10
   1  -4 -13    6.31    2.65
  -1   4  13    2.07    1.62
  -1   4  13    3.58    1.95
  -1   4  12    4.38    2.00
  -1   4  12    7.39    2.28
  -1   4  12    6.26    1.99
   1  -4 -12    4.55    2.08
  -1   4  11  419.47   12.34
  -1   4  11  419.40   11.00
   1  -4 -11  396.92   12.58
  -1   4  11  424.39   10.91
  -1   4  10   83.36    5.63
  -1   4  10   80.17    4.72
   1  -4 -10   79.79    5.66
  -1   4  10   82.66    4.81
  -1   4   9 1038.37   18.63
  -1   4   9 1001.73   15.70
   1  -4  -9  967.43   18.99
  -1   4   9 1017.51   15.75
  -1   4   8  234.42    8.59
  -1   4   8  235.25    7.29
   1  -4  -8  238.55    9.17
  -1   4   8  244.11    7.31
  -1   4   7   38.38    2.99
  -1   4   7   41.26    3.67
  -1   4   7   41.80    3.12
  -1   4   6  207.94    6.47
  -1   4   6  217.79    7.77
  -1   4   6  212.13    6.41
  -1   4   5  221.55    6.65
   1  -4  -5  245.96    6.88
  -1   4   5  224.38    7.62
   1  -4  -5  223.89    7.86
   1  -4  -5  241.79    6.97
  -1   4   5  229.74    6.51
  -1   4   4    5.84    1.93
   1  -4  -4    6.85    1.92
   1  -4  -4    5.38    1.41
  -1   4   4    3.34    1.42
   1  -4  -4    3.41    1.35
   1  -4  -3 1673.87   17.66
  -1   4   3 1723.33   21.28
   1  -4  -3 1700.96   21.02
   1  -4  -3 1716.57   18.02
  -1   4   3 1701.61   18.35
   1  -4  -2  820.43   12.26
  -1   4   2  815.81   14.11
   1  -4  -2  826.29   14.29
   1  -4  -2  819.47   12.19
   1  -4  -1 2072.63   20.27
   1  -4  -1 2062.87   22.58
  -1   4   1 2076.61   22.50
   1  -4  -1 2069.19   20.09
  -1   4   0  541.16   11.24
   1  -4   0  560.24   11.66
   1  -4   0  572.33   10.83
   1  -4   1   43.62    3.39
  -1   4  -1   40.73    3.24
   1  -4   1   38.08    3.07
   1  -4   2   14.79    2.10
  -1   4  -2   15.20    2.23
  -1   4  -2   16.90    2.81
  -1   4  -3  369.37    9.16
   1  -4   3  383.31    9.51
  -1   4  -3  380.30   10.31
   1  -4   4  178.71    6.69
  -1   4  -4  172.88    6.54
  -1   4  -4  176.12    7.33
   1  -4   5 1988.16   22.50
  -1   4  -5 1956.89   24.18
   1  -4   6 1669.59   20.85
  -1   4  -6 1622.29   22.21
   1  -4   7  566.48   12.28
  -1   4  -7  541.07   13.01
   1  -4   7  552.05   13.07
   1  -4   8  187.96    7.29
  -1   4  -8  183.04    7.64
   1  -4   8  170.12    7.43
   1  -4   8  186.59    7.89
   1  -4   9   56.20    4.23
   1  -4   9   49.25    4.23
   1  -4   9   55.37    4.49
  -1   4  -9   55.56    4.55
   1  -4  10   88.21    5.49
   1  -4  10   82.36    5.59
  -1   4 -10   82.96    5.65
   1  -4  10   85.72    5.73
   1  -4  11  861.65   17.71
   1  -4  11  917.40   18.36
   1  -4  12  316.03   11.13
   1  -4  12  347.01   11.75
   1  -4  13  495.38   14.10
   1  -4  13  524.53   14.51
   1  -4  14  208.96    9.41
   1  -4  14  230.16    9.95
   1  -4  15  209.14    9.75
  -1   4 -15  237.54   10.46
   1  -4  15  234.11   10.28
   1  -4  16    5.08    2.18
   1  -4  16    7.19    2.48
  -1   4 -16    8.34    2.59
   1  -4  17   12.81    3.19
   1  -4  17   15.96    3.28
   1  -4  18   50.81    5.37
   1  -4  18   54.99    5.51
   1  -4  19  143.13    8.93
   1  -4  19  148.58    9.03
   1  -4  20   35.19    4.82
   1  -4  21  156.53    9.84
   1  -4  22   20.52    4.46
   1  -4  23   69.20    7.03
   1  -4  24   60.56    6.77
   1  -4  25   12.41    4.01
   1  -4  26   15.92    4.70
   1  -4  27   31.52    5.49
   1  -4  28    3.15    3.50
   1  -4  29  104.95    9.71
   1  -4  30    5.85    3.93
  -1   3  29  125.40   11.16
  -1   3  28   11.59    4.38
  -1   3  27   -0.22    3.03
  -1   3  26    1.41    3.73
  -1   3  25   11.89    4.40
  -1   3  24   12.65    3.97
  -1   3  23   86.65    8.16
  -1   3  22   17.99    4.47
  -1   3  21  219.26   11.92
  -1   3  20    5.88    3.32
  -1   3  19    9.71    3.24
  -1   3  18   31.18    4.90
  -1   3  17   89.26    7.06
   1  -3 -16   26.05    4.04
   1  -3 -15  838.07   19.40
   1  -3 -14   23.11    3.46
   1  -3 -13  390.18   12.37
   1  -3 -12    3.68    1.94
  -1   3  11   27.94    3.35
   1  -3 -11   22.96    3.28
  -1   3  11   21.80    2.92
  -1   3  11   25.76    3.09
  -1   3  10   34.59    3.39
  -1   3  10   24.84    3.12
  -1   3  10   30.63    3.11
   1  -3 -10   26.64    3.30
  -1   3   9   72.85    4.54
  -1   3   9   84.23    4.63
   1  -3  -9   82.54    5.08
  -1   3   9   85.07    4.69
  -1   3   8    9.26    1.84
  -1   3   8   10.41    2.10
  -1   3   8    9.46    1.75
   1  -3  -8    9.89    2.05
  -1   3   7  561.31   11.47
  -1   3   7  580.39   11.01
   1  -3  -7  561.03   12.63
  -1   3   7  581.47   10.91
  -1   3   6    8.70    1.64
  -1   3   6    8.23    1.88
  -1   3   6    9.50    1.83
  -1   3   5  893.04   12.66
  -1   3   5  862.50   13.20
  -1   3   5  886.81   12.57
  -1   3   4    7.36    1.69
   1  -3  -4    2.59    1.28
  -1   3   4    3.43    1.19
   1  -3  -4    8.36    1.68
  -1   3   4    8.04    1.63
   1  -3  -4    4.63    1.41
  -1   3   3   53.32    3.13
   1  -3  -3   49.04    3.02
   1  -3  -3   56.62    3.29
  -1   3   3   48.78    3.10
   1  -3  -3   53.36    3.16
  -1   3   3   55.30    3.22
  -1   3   2    7.91    1.74
   1  -3  -2    8.03    1.57
   1  -3  -2    5.60    1.41
   1  -3  -2    6.10    1.45
  -1   3   2    6.73    1.74
   1  -3  -1  154.43    5.24
   1  -3  -1  155.41    5.06
  -1   3   1  155.92    5.23
   1  -3  -1  157.70    5.27
  -1   3   1  155.62    5.31
   1  -3   0   15.70    1.85
  -1   3   0   19.33    2.16
   1  -3   0   18.74    2.28
   1  -3   1 1389.22   15.38
  -1   3  -1 1389.96   15.16
  -1   3  -1 1393.93   17.22
   1  -3   1 1383.23   16.69
   1  -3   2   46.19    2.88
  -1   3  -2   44.26    2.85
  -1   3  -2   42.53    3.32
  -1   3  -3   23.94    2.42
   1  -3   3   23.63    2.15
  -1   3  -3   24.94    2.89
   1  -3   4  368.48    8.18
   1  -3   4  357.73    9.20
  -1   3  -4  361.04    9.16
   1  -3   5  467.20    9.48
   1  -3   5  469.39   10.83
  -1   3  -5  478.77   10.86
   1  -3   6    3.56    1.30
  -1   3  -6    3.12    1.73
   1  -3   6    3.29    1.75
   1  -3   6    4.55    1.86
   1  -3   7  263.46    8.33
   1  -3   7  278.05    8.82
  -1   3  -7  283.82    8.91
   1  -3   8  118.72    5.92
   1  -3   8  127.83    6.12
   1  -3   9  999.46   17.07
   1  -3   9 1033.87   17.44
   1  -3  10   78.47    5.06
   1  -3  10   85.43    5.25
  -1   3 -10   83.05    5.25
   1  -3  11   11.83    2.45
  -1   3 -11    7.19    2.09
   1  -3  11   10.19    2.29
   1  -3  12    8.16    2.35
  -1   3 -12    9.02    2.43
   1  -3  12    9.93    2.38
   1  -3  13  436.53   12.86
   1  -3  13  448.48   12.81
  -1   3 -13  449.83   13.01
   1  -3  14   -0.90    1.98
  -1   3 -14    3.70    2.23
   1  -3  14    1.22    2.05
  -1   3 -15  313.18   11.50
   1  -3  15  301.98   11.28
   1  -3  15  308.51   11.21
  -1   3 -16  100.48    6.81
   1  -3  16   94.51    6.53
   1  -3  16  102.19    6.67
  -1   3 -17  321.80   12.17
   1  -3  17  295.82   11.73
   1  -3  17  328.35   12.07
   1  -3  18    0.50    2.14
   1  -3  18    3.13    2.17
   1  -3  19   41.07    4.91
   1  -3  19   47.81    4.95
   1  -3  20   49.63    5.67
   1  -3  20   50.53    5.35
   1  -3  21  303.76   13.43
   1  -3  22   22.22    4.43
   1  -3  23  461.56   17.19
   1  -3  24   35.93    5.34
   1  -3  25   48.50    7.55
   1  -3  26   53.20    6.46
   1  -3  27   78.59    8.14
   1  -3  28    6.50    3.45
   1  -3  29    2.74    3.49
   1  -3  30    9.73    4.22
   1  -3  31  100.43   10.27
  -1   2  30    4.11    3.73
  -1   2  29   25.21    5.78
  -1   2  28   54.83    7.29
  -1   2  27  113.98   10.00
  -1   2  26   64.10    7.58
  -1   2  25   92.89    8.33
  -1   2  24   54.53    6.47
  -1   2  23   14.86    4.05
  -1   2  22    4.58    3.04
  -1   2  21   67.20    6.56
  -1   2  20   44.48    5.40
  -1   2  19  163.83    9.60
  -1   2  18  308.83   12.60
  -1   2  17  414.24   14.18
   1  -2 -17  420.98   13.91
   1  -2 -16   74.59    5.82
  -1   2  16   77.14    6.11
  -1   2  15  188.69    9.15
   1  -2 -15  207.32    9.29
   1  -2 -14   68.36    5.46
  -1   2  14   73.22    5.69
   1  -2 -13    5.48    2.15
  -1   2  13    2.90    1.93
  -1   2  12  259.22    9.54
   1  -2 -12  255.68    9.39
  -1   2  11 1123.19   19.14
   1  -2 -11 1091.35   18.57
  -1   2  10  181.85    7.55
   1  -2 -10  171.54    7.13
   1  -2  -9  179.49    7.00
  -1   2   8  150.39    5.90
   1  -2  -8  145.11    6.09
  -1   2   8  150.19    5.99
  -1   2   7 1109.68   15.24
   1  -2  -7 1054.32   15.73
  -1   2   7 1106.60   15.24
  -1   2   6   25.31    2.39
   1  -2  -6   24.72    2.46
  -1   2   6   26.75    2.39
  -1   2   6   23.83    2.35
  -1   2   5    8.05    1.76
  -1   2   5    7.23    1.60
  -1   2   5    9.07    1.81
   1  -2  -4  332.55    7.41
  -1   2   4  331.73    7.26
  -1   2   4  325.26    6.47
   1  -2  -4  325.93    7.40
  -1   2   4  336.46    7.35
  -1   2   3 8925.17   41.75
   1  -2  -3 8896.83   42.56
   1  -2  -3 9162.42   38.30
  -1   2   3 8896.83   37.85
   1  -2  -3 8938.38   42.29
  -1   2   3 8899.89   41.68
   1  -2  -2 6765.72   35.58
  -1   2   2 6820.13   35.09
  -1   2   2 6999.74   31.64
   1  -2  -2 7209.06   31.80
  -1   2   2 6843.88   34.76
   1  -2  -2 6809.81   35.54
   1  -2  -1  708.29   10.43
  -1   2   1  740.80    8.69
   1  -2  -1  721.26    8.59
  -1   2   1  738.46   10.56
   1  -2  -1  714.68   10.36
   1  -2   0  527.16    7.38
  -1   2   0  540.71    7.11
   1  -2   0  514.17    9.17
  -1   2   0  532.26    9.29
  -1   2   0  549.81    9.01
  -1   2  -1  946.28    9.58
   1  -2   1  918.11   12.73
   1  -2   2  211.67    4.72
  -1   2  -2  203.50    5.84
   1  -2   2  204.15    6.01
   1  -2   3 1551.89   13.85
  -1   2  -3 1523.89   16.76
   1  -2   3 1540.38   16.88
  -1   2  -4  751.76   12.22
   1  -2   4  728.05   11.84
   1  -2   5 1226.09   15.80
   1  -2   5 1211.03   15.35
   1  -2   6  389.00    8.97
   1  -2   6  386.11    9.11
   1  -2   7  238.34    7.32
  -1   2  -7  243.05    7.32
   1  -2   7  228.67    7.27
   1  -2   8    8.27    1.89
   1  -2   8    6.00    1.78
  -1   2  -8    9.38    2.06
  -1   2  -9  139.32    5.99
   1  -2   9  135.73    5.93
   1  -2   9  138.81    6.15
  -1   2 -10   80.50    4.88
   1  -2  10   81.70    4.98
   1  -2  10   76.38    4.76
   1  -2  11  265.63    8.96
  -1   2 -11  277.79    9.25
   1  -2  11  262.84    8.87
   1  -2  12 2942.56   31.25
  -1   2 -12 2988.34   31.61
   1  -2  12 2948.03   31.10
  -1   2 -13  590.92   14.33
   1  -2  13  588.16   14.16
  -1   2 -14   50.16    4.50
   1  -2  14   50.73    4.51
   1  -2  15  572.32   15.10
  -1   2 -15  578.16   14.97
   1  -2  16    2.96    2.10
  -1   2 -16    1.56    2.03
  -1   2 -17   86.98    6.37
   1  -2  17   83.97    6.45
   1  -2  18 1084.87   22.72
  -1   2 -18 1142.18   23.17
   1  -2  19  564.19   16.78
   1  -2  20  244.73   11.51
   1  -2  21    3.01    2.45
   1  -2  22   39.42    5.22
   1  -2  23  225.74   11.96
   1  -2  24  125.88    9.41
   1  -2  25   14.03    3.67
   1  -2  26  176.67   11.38
   1  -2  27  205.72   12.95
   1  -2  28  178.95   12.38
   1  -2  29    8.74    4.07
   1  -2  30    3.30    3.31
   1  -2  31   58.52    8.09
  -1   1  31   26.93    6.23
  -1   1  30   96.94    9.66
  -1   1  29   77.78    8.60
  -1   1  28    1.54    3.03
  -1   1  27   62.81    7.52
  -1   1  26    9.97    3.86
  -1   1  25   24.41    5.05
  -1   1  24  175.79   10.93
  -1   1  23   86.33    7.68
  -1   1  22  116.81    8.50
  -1   1  21   80.72    6.87
  -1   1  20    5.92    2.74
  -1   1  19  146.17    8.64
   1  -1 -18   36.77    4.32
  -1   1  18   36.10    4.51
   1  -1 -17   47.38    4.90
  -1   1  17   48.72    4.94
  -1   1  16  322.70   11.86
   1  -1 -16  339.81   11.84
   1  -1 -15  170.42    8.10
  -1   1  15  164.67    8.31
   1  -1 -14 1049.78   19.14
  -1   1  14 1025.23   19.37
  -1   1  13  135.15    6.99
   1  -1 -13  130.93    6.64
  -1   1  12  178.02    7.66
   1  -1 -12  184.46    7.43
  -1   1  11  318.33    9.56
   1  -1 -11  328.29    9.81
   1  -1 -10   52.69    3.99
  -1   1  10   48.86    3.84
   1  -1  -9   38.73    3.43
  -1   1   9   40.73    3.51
   1  -1  -8  297.89    8.10
  -1   1   8  300.25    8.34
  -1   1   7  411.62    9.24
   1  -1  -7  400.44    8.86
  -1   1   6  506.52    9.93
  -1   1   6  490.21    9.45
   1  -1  -6  484.36    9.26
  -1   1   5  210.27    6.01
   1  -1  -5  198.88    5.60
  -1   1   5  205.24    6.02
  -1   1   4  355.42    7.46
   1  -1  -4  340.44    6.87
  -1   1   4  347.42    7.43
   1  -1  -3  148.92    4.65
  -1   1   3  157.87    4.75
  -1   1   3  155.02    4.80
   1  -1  -3  152.11    4.76
   1  -1  -2  284.00    6.23
  -1   1   2  294.92    6.28
  -1   1   2  298.45    4.82
   1  -1  -2  295.67    6.44
  -1   1   2  294.26    6.27
   1  -1  -1   21.96    1.97
  -1   1   1   18.72    1.77
  -1   1   1   19.20    1.87
   1  -1  -1   19.60    1.91
   1  -1  -1   26.20    1.90
  -1   1   1   21.58    1.57
   1  -1   0 5158.41   28.87
   1  -1   0 5100.86   28.86
  -1   1   0 5189.58   28.85
   1  -1   1  462.58    8.16
   1  -1   1  464.14    7.09
   1  -1   2   69.77    3.04
   1  -1   3   34.13    2.33
   1  -1   4  860.35   11.34
  -1   1  -4  913.74   11.12
   1  -1   5  155.98    5.13
  -1   1  -5  169.48    5.08
  -1   1  -6 1186.91   14.56
  -1   1  -7   52.62    3.32
   1  -1   7   54.41    3.46
   1  -1   8 2027.82   20.93
  -1   1  -8 2005.34   20.99
  -1   1  -9   67.24    4.02
   1  -1   9   67.40    4.06
   1  -1  10  650.04   12.86
  -1   1 -10  648.18   12.84
  -1   1 -11 1347.08   19.39
   1  -1  11 1354.74   19.74
   1  -1  12   13.95    2.75
  -1   1 -12   12.94    2.56
  -1   1 -13   73.79    5.05
   1  -1  13   75.41    5.25
  -1   1 -14  829.05   16.91
   1  -1  14  809.67   16.97
  -1   1 -15   78.74    5.52
   1  -1  15   72.82    5.29
   1  -1  16 1128.88   21.54
  -1   1 -16 1162.34   21.43
   1  -1  17  152.88    8.30
  -1   1 -17  162.62    8.35
   1  -1  18   37.85    4.63
  -1   1 -18   34.39    4.33
   1  -1  19  341.05   13.08
   1  -1  20   97.23    7.49
   1  -1  21   42.65    5.24
   1  -1  22  155.99    9.78
   1  -1  23   38.10    5.35
   1  -1  24  286.61   13.91
   1  -1  25   32.22    5.20
   1  -1  26   13.44    4.00
   1  -1  27  109.38    9.47
   1  -1  28    7.14    4.26
   1  -1  29    2.22    3.50
   1  -1  30  159.67   12.35
   1  -1  31    9.85    5.18
  -1   0  31   -0.38    3.73
  -1   0  30   -2.08    3.36
  -1   0  29   53.27    7.10
  -1   0  28  165.97   11.54
  -1   0  27   39.94    5.92
  -1   0  26   74.04    7.50
  -1   0  25    1.66    2.50
  -1   0  24   36.82    5.02
  -1   0  23  104.93    8.04
  -1   0  22   48.54    5.53
  -1   0  21  123.78    8.27
  -1   0  20  374.33   13.68
  -1   0  19   22.70    3.86
   1   0 -19   18.43    3.42
  -1   0  18   12.59    2.77
   1   0 -18   11.03    2.68
   1   0 -17   54.78    5.09
  -1   0  17   46.64    4.76
   1   0 -16  246.94    9.75
  -1   0  16  238.67    9.76
   1   0 -15  523.54   13.64
  -1   0  15  497.60   13.37
   1   0 -14  227.50    8.69
  -1   0  14  229.01    8.84
  -1   0  13  468.81   12.02
   1   0 -13  460.42   11.90
   1   0 -12 1155.54   18.17
  -1   0  12 1136.00   17.96
   1   0 -11   23.69    2.96
  -1   0  11   28.57    3.29
  -1   0  10  186.67    6.75
   1   0 -10  179.64    6.56
  -1   0   9  388.47    9.07
   1   0  -9  365.87    8.89
   1   0  -8  534.24   10.14
  -1   0   8  536.77   10.36
  -1   0   7  777.39   11.58
   1   0  -7  769.73   11.23
  -1   0   6  192.04    5.47
   1   0  -6  192.08    5.46
   1   0  -5    6.41    1.39
  -1   0   5    3.65    1.18
  -1   0   4   13.55    2.17
  -1   0   4   11.13    1.90
   1   0  -4   13.40    1.46
  -1   0   4   10.93    1.36
  -1   0   3 2391.49   19.01
   1   0  -3 2425.93   18.97
   1   0  -3 2460.47   14.84
  -1   0   3 2454.71   14.76
  -1   0   3 2438.97   19.43
   1   0  -2   68.88    2.98
  -1   0   2   70.73    3.10
   1   0  -2   74.74    2.15
   1   0  -2   66.97    3.02
  -1   0   2   70.00    3.23
   1   0  -1  830.97    9.75
  -1   0   1  839.11    9.88
  -1   0   1  843.68    9.90
   1   0  -1  845.66    9.95
   1   0   0   54.37    2.52
  -1   0   0   55.78    2.67
   1   0   0   53.48    2.51
  -1   0   0   54.16    2.63
   1   0   1 4446.33   17.92
  -1   0  -1 4392.27   25.39
   1   0   1 4353.35   25.03
  -1   0  -2   16.22    1.16
   1   0   2   16.58    1.21
   1   0   3  298.47    5.05
  -1   0  -3  307.97    5.08
  -1   0  -4  174.18    4.30
   1   0   4  185.89    4.40
   1   0   5 1288.51   13.25
  -1   0  -6  632.79    9.82
   1   0   7 1703.85   17.75
  -1   0  -7 1731.18   17.51
   1   0   8  448.23    9.56
  -1   0  -8  456.36    9.45
   1   0   9 1852.59   20.63
  -1   0  -9 1842.68   20.24
   1   0  10  807.56   14.18
  -1   0 -10  822.32   14.17
   1   0  11 1392.07   19.54
  -1   0 -11 1397.83   19.35
   1   0  12  266.70    9.08
  -1   0 -12  277.63    9.06
  -1   0 -13  976.39   17.58
   1   0  13  954.80   17.55
  -1   0 -14  709.68   15.53
   1   0  14  702.89   15.80
   1   0  15  572.20   14.60
  -1   0 -15  584.81   14.65
  -1   0 -16   25.59    3.69
   1   0  16   32.19    4.13
   1   0  17  497.83   14.73
  -1   0 -17  496.88   14.48
   1   0  18  285.76   11.80
  -1   0 -18  296.39   11.65
   1   0  19  464.08   15.39
   1   0  20   18.26    4.09
   1   0  21   34.77    5.10
   1   0  22  461.23   16.78
   1   0  23  247.37   12.67
   1   0  24   13.46    3.84
   1   0  25  249.54   13.41
   1   0  26   93.82    8.64
   1   0  27   35.71    5.94
   1   0  28   60.47    7.26
   1   0  29   15.67    4.32
   1   0  30   74.23    8.95
   1   0  31   70.20    8.47
  -1  -1  31    6.59    3.82
  -1  -1  30    9.66    4.48
  -1  -1  29    0.24    3.04
  -1  -1  28   39.91    6.05
  -1  -1  27   10.67    3.85
  -1  -1  26    6.27    3.02
  -1  -1  26    5.89    2.47
  -1  -1  25  235.38   12.52
  -1  -1  25  228.00    9.39
  -1  -1  24   56.69    6.48
  -1  -1  24   48.75    4.47
  -1  -1  23    3.63    2.90
  -1  -1  23    3.62    1.65
  -1  -1  22   21.32    3.92
  -1  -1  22   18.25    2.77
  -1  -1  21   15.49    3.68
  -1  -1  21    8.04    2.24
  -1  -1  20  498.73   15.68
  -1  -1  20  462.05   11.47
   1   1 -19   41.15    4.65
  -1  -1  19   44.50    5.04
  -1  -1  18   56.19    5.38
   1   1 -18   55.84    5.15
  -1  -1  17  322.65   11.71
   1   1 -17  315.80   11.30
  -1  -1  16  394.80   12.41
   1   1 -16  376.66   11.79
   1   1 -15   14.27    2.70
  -1  -1  15   12.75    2.99
  -1  -1  15   13.04    1.97
  -1  -1  14  742.44   15.45
   1   1 -14  768.84   15.56
  -1  -1  14  731.99   11.53
   1   1 -13   45.91    3.84
  -1  -1  13   42.88    3.80
  -1  -1  13   43.54    2.85
   1   1 -12  136.04    6.10
  -1  -1  12  139.79    6.21
  -1  -1  12  138.39    4.64
   1   1 -11  218.32    7.28
  -1  -1  11  214.48    7.19
  -1  -1  11  218.23    5.28
   1   1 -10  225.79    7.11
  -1  -1  10  230.06    7.16
  -1  -1  10  218.11    4.90
   1   1  -9  572.04   10.59
  -1  -1   9  564.94   10.52
  -1  -1   9  566.70    7.25
   1   1  -8  290.29    7.10
  -1  -1   8  280.19    6.97
  -1  -1   8  273.70    4.58
  -1  -1   7   40.21    2.71
   1   1  -7   40.52    2.63
   1   1  -6 1438.61   13.65
  -1  -1   6 1414.04   13.48
   1   1  -6 1375.34    9.24
   1   1  -5  354.41    6.11
  -1  -1   5  346.53    5.94
   1   1  -5  338.46    4.12
  -1  -1   4  164.64    4.44
  -1  -1   4  161.45    3.71
   1   1  -4  168.28    3.73
  -1  -1   3 1186.78   11.45
   1   1  -3 1171.45   11.08
  -1  -1   3 1181.01   13.21
  -1  -1   3 1182.95    8.58
  -1  -1   2 1773.75   15.10
  -1  -1   2 1762.48   13.80
  -1  -1   2 1771.94   15.33
  -1  -1   1 2575.02   17.35
   1   1  -1 2615.61   17.32
  -1  -1   1 2514.88   17.33
   1   1  -1 2561.29   16.90
  -1  -1   1 2553.16   17.47
   1   1  -1 2563.67   17.46
   1   1   0    9.03    1.35
  -1  -1   0    7.90    1.19
  -1  -1   0    8.27    1.27
   1   1   0    9.13    1.17
   1   1   0    9.41    1.22
  -1  -1   0    9.30    1.29
   1   1   1   17.26    1.49
  -1  -1  -1   16.75    1.56
   1   1   1   16.42    1.57
   1   1   1   15.13    1.41
  -1  -1  -1   16.50    1.60
   1   1   2  795.49    9.83
  -1  -1  -2  776.13    9.69
  -1  -1  -2  805.73    7.01
   1   1   2  814.46    7.12
   1   1   2  785.64    9.12
   1   1   3    5.16    1.24
  -1  -1  -3    4.97    0.94
   1   1   3    6.27    1.13
  -1  -1  -4  778.93    9.04
   1   1   4  777.87    9.39
  -1  -1  -5  985.25   11.27
   1   1   5  974.01   11.67
  -1  -1  -6  894.63   11.65
   1   1   6  905.69   12.23
   1   1   7  326.92    8.00
  -1  -1  -7  315.43    7.46
  -1  -1  -8   68.10    3.85
   1   1   8   75.83    4.43
  -1  -1  -9   15.04    2.25
   1   1   9   15.54    2.60
   1   1  10  485.70   11.41
  -1  -1 -10  459.78   10.69
  -1  -1 -11   78.79    4.84
   1   1  11   79.01    5.16
   1   1  12  822.69   16.23
  -1  -1 -12  830.78   15.81
   1   1  13 1151.01   20.02
  -1  -1 -13 1169.12   19.58
  -1  -1 -14  474.66   13.01
   1   1  14  475.78   13.26
  -1  -1 -15   16.77    3.11
   1   1  15   16.74    3.42
  -1  -1 -16  116.02    6.96
   1   1  16  115.31    7.10
   1   1  17   89.36    6.47
  -1  -1 -17   92.82    6.39
   1   1  18   15.72    3.42
  -1  -1 -18   18.74    3.23
   1   1  19   10.04    2.85
   1   1  20   74.03    6.69
   1   1  21  197.61   10.87
   1   1  22  320.96   13.95
   1   1  23   36.81    5.42
   1   1  24  178.88   10.97
   1   1  25   50.46    6.37
   1   1  26   64.86    7.61
   1   1  27   60.58    7.32
   1   1  28  113.27    9.74
   1   1  29    5.81    3.59
   1   1  30    5.67    3.84
  -1  -2  32  103.95   10.26
  -1  -2  31   14.81    5.12
  -1  -2  30   13.70    4.64
  -1  -2  29  114.16    9.93
  -1  -2  28    6.35    3.48
  -1  -2  27   91.20    8.50
  -1  -2  26  148.88   10.32
  -1  -2  26  145.21    7.97
  -1  -2  25    6.60    3.27
  -1  -2  25    3.79    1.97
  -1  -2  24  302.92   14.06
  -1  -2  24  288.36   10.41
  -1  -2  23   18.03    4.23
  -1  -2  23   14.26    2.84
  -1  -2  22   21.01    4.25
  -1  -2  22   23.41    3.17
  -1  -2  21  442.89   15.16
  -1  -2  21  463.42   12.19
  -1  -2  20   23.52    3.90
  -1  -2  20   19.86    2.77
   1   2 -19   99.22    6.95
  -1  -2  19   97.62    6.90
  -1  -2  19   98.77    5.39
   1   2 -18  708.65   17.37
  -1  -2  18  674.63   16.92
  -1  -2  18  697.21   13.64
   1   2 -17  142.30    7.66
  -1  -2  17  142.11    7.72
  -1  -2  17  140.04    6.02
   1   2 -16  228.01    9.21
  -1  -2  16  217.50    8.98
  -1  -2  16  223.36    7.17
   1   2 -15  245.23    9.23
  -1  -2  15  238.19    9.01
  -1  -2  15  248.27    7.29
   1   2 -14  113.09    6.23
  -1  -2  14  101.88    5.88
  -1  -2  14  100.32    4.51
  -1  -2  13 1290.68   19.49
   1   2 -13 1328.40   19.84
  -1  -2  13 1278.86   15.45
  -1  -2  12  398.60   10.34
   1   2 -12  412.95   10.60
  -1  -2  12  381.98    7.95
  -1  -2  11  113.32    5.41
   1   2 -11  118.59    5.56
  -1  -2  11  111.02    4.11
  -1  -2  10  109.44    5.06
   1   2 -10  112.57    5.21
   1   2  -9  169.54    5.94
  -1  -2   9  175.43    5.97
   1   2  -9  157.47    4.65
  -1  -2   8  421.01    9.96
  -1  -2   8  393.35    8.49
   1   2  -8  407.14    8.66
   1   2  -8  382.96    6.94
  -1  -2   7  716.54   12.26
  -1  -2   7  704.55   10.63
   1   2  -7  717.52   10.81
   1   2  -7  683.24    9.09
  -1  -2   6   95.89    4.41
   1   2  -6  104.10    3.94
  -1  -2   6   92.93    3.80
  -1  -2   5 2016.04   19.58
   1   2  -5 2030.37   19.74
   1   2  -5 2038.81   15.97
   1   2  -4 1275.79   14.98
  -1  -2   4 1301.50   15.16
  -1  -2   4 1307.78   11.75
   1   2  -3 4243.42   28.25
  -1  -2   3 4245.53   28.29
  -1  -2   3 4287.19   21.07
  -1  -2   2 6770.76   32.54
  -1  -2   2 6752.17   37.02
  -1  -2   1  663.07    8.22
  -1  -2   1  645.02   10.59
   1   2  -1  623.89   10.37
  -1  -2   1  648.40    8.15
  -1  -2   0   40.95    1.93
   1   2   0   38.73    2.76
   1   2   0   43.87    1.99
  -1  -2   0   40.48    2.74
  -1  -2   0   44.45    2.07
   1   2   0   44.11    2.08
   1   2   1 3602.95   18.33
  -1  -2  -1 3585.72   25.79
   1   2   1 3556.83   26.24
  -1  -2  -1 3569.74   18.94
   1   2   1 3553.69   18.22
   1   2   2  667.00   11.04
  -1  -2  -2  651.60   10.77
   1   2   2  627.23    6.99
  -1  -2  -2  659.76    8.06
   1   2   2  638.01    7.08
  -1  -2  -3   16.75    2.14
   1   2   3   18.50    2.30
  -1  -2  -3   16.53    1.69
   1   2   3   15.01    1.51
  -1  -2  -4  104.37    4.58
   1   2   4  109.77    4.84
   1   2   4   99.82    3.81
  -1  -2  -4  108.04    3.82
   1   2   5  629.90   11.52
  -1  -2  -5  610.30    9.82
   1   2   5  618.10   10.16
   1   2   6  760.50   13.13
  -1  -2  -6  747.98   11.77
   1   2   6  734.76   11.77
   1   2   7   41.14    3.38
   1   2   7   38.92    3.22
  -1  -2  -7   36.49    2.99
   1   2   8    3.93    1.70
   1   2   8    3.55    1.92
  -1  -2  -8    0.22    1.25
  -1  -2  -9 1068.83   16.26
   1   2   9 1111.07   16.90
   1   2  10  157.26    6.74
  -1  -2 -10  152.42    6.37
  -1  -2 -11    5.55    1.87
   1   2  11    6.93    2.41
  -1  -2 -12  921.58   16.95
   1   2  12  905.13   17.09
  -1  -2 -13  283.66    9.88
   1   2  13  290.96   10.15
  -1  -2 -14  529.96   13.91
   1   2  14  511.55   13.94
  -1  -2 -15  156.75    7.84
   1   2  15  156.24    8.18
  -1  -2 -16   22.78    3.60
   1   2  16   20.25    3.48
  -1  -2 -17  188.03    9.23
   1   2  17  184.51    9.35
  -1  -2 -18  139.39    8.34
   1   2  18  140.79    8.49
   1   2  19  177.56    9.83
   1   2  20  303.70   13.07
   1   2  21   64.48    6.38
   1   2  22   61.93    6.64
   1   2  23   72.39    7.15
   1   2  24  137.07   10.01
   1   2  25   58.47    6.91
   1   2  26   29.47    5.70
   1   2  27   97.48    9.20
   1   2  28  208.83   13.46
   1   2  29   18.28    4.92
   1   2  30   30.68    6.27
  -1  -3  32    1.63    3.57
  -1  -3  31   11.17    4.56
  -1  -3  30   37.80    6.48
  -1  -3  29   33.33    5.91
  -1  -3  28   50.22    6.95
  -1  -3  27   39.01    6.00
  -1  -3  26    7.91    3.80
  -1  -3  26    4.85    2.40
  -1  -3  25   58.16    6.44
  -1  -3  25   57.56    5.40
  -1  -3  24    9.98    3.57
  -1  -3  24    7.56    2.39
  -1  -3  23   -0.12    2.74
  -1  -3  23    3.14    2.21
  -1  -3  22   68.21    6.56
  -1  -3  22   68.65    5.19
  -1  -3  21  136.41    8.58
  -1  -3  21  136.35    6.95
  -1  -3  20    6.70    2.82
  -1  -3  20    3.92    1.97
  -1  -3  19  123.95    7.57
   1   3 -19  132.86    8.03
  -1  -3  19  129.93    6.40
  -1  -3  18   56.00    5.26
   1   3 -18   64.56    5.59
  -1  -3  18   61.53    4.37
  -1  -3  17  232.59    9.72
   1   3 -17  260.01   10.41
  -1  -3  17  237.15    8.09
  -1  -3  16    7.11    2.34
   1   3 -16    9.56    2.51
  -1  -3  16    9.56    2.09
   1   3 -15  231.27    9.14
  -1  -3  15  222.41    8.94
   1   3 -14  215.74    8.57
  -1  -3  14  205.86    8.38
  -1  -3  13   87.21    5.42
   1   3 -13   88.07    5.34
  -1  -3  12    4.66    1.98
  -1  -3  12    4.50    1.67
   1   3 -12    7.36    1.96
  -1  -3  11  295.17    9.95
  -1  -3  11  284.61    8.62
   1   3 -11  290.59    8.79
   1   3 -11  278.67    7.49
  -1  -3  10   54.38    4.29
   1   3 -10   57.65    3.87
  -1  -3  10   58.25    3.94
   1   3 -10   57.52    3.39
  -1  -3   9  219.76    8.18
  -1  -3   9  219.49    7.00
   1   3  -9  217.93    6.91
   1   3  -9  206.10    6.21
  -1  -3   8    8.67    2.25
   1   3  -8    5.19    1.62
   1   3  -8    7.01    1.71
  -1  -3   8   10.47    2.03
  -1  -3   7  169.88    6.73
  -1  -3   7  159.58    5.65
  -1  -3   6  144.83    6.19
   1   3  -6  134.95    6.05
  -1  -3   6  139.91    5.04
  -1  -3   5    0.58    1.22
   1   3  -5    1.43    1.55
  -1  -3   5    1.94    1.17
  -1  -3   4  175.05    6.46
   1   3  -4  160.48    6.15
  -1  -3   4  180.44    5.15
   1   3  -3 1047.42   15.81
  -1  -3   3 1077.20   15.99
  -1  -3   2    3.00    1.50
   1   3  -2    4.46    1.93
   1   3  -1    7.45    2.07
  -1  -3   1    6.84    1.12
  -1  -3   1    6.93    1.61
  -1  -3   1    7.68    1.35
  -1  -3   0  845.59    8.22
  -1  -3   0  840.88   14.09
   1   3   0  840.10   14.47
  -1  -3   0  828.78    8.30
   1   3   1   43.38    3.55
  -1  -3  -1   43.34    3.27
  -1  -3  -1   38.74    1.63
   1   3   2  275.06    3.79
  -1  -3  -2  271.81    8.20
   1   3   2  272.52    8.32
   1   3   3  571.52   12.01
  -1  -3  -3  554.45   11.64
   1   3   3  504.81    5.31
  -1  -3  -3  535.42    9.42
   1   3   3  515.42    5.36
  -1  -3  -4   59.64    3.96
   1   3   4   59.53    4.16
  -1  -3  -4   58.20    3.29
   1   3   4   56.18    2.06
  -1  -3  -5  710.23   13.81
   1   3   5  737.72   14.25
  -1  -3  -5  688.92   11.67
   1   3   6  119.23    6.06
  -1  -3  -6  109.24    4.90
  -1  -3  -7    7.77    1.81
   1   3   7    5.71    1.84
  -1  -3  -8   10.73    2.24
   1   3   8   11.02    2.37
   1   3   9  547.24   13.39
   1   3   9  535.49   12.46
  -1  -3  -9  531.26   12.23
   1   3  10  606.24   14.54
   1   3  10  618.02   13.87
  -1  -3 -10  628.05   13.99
   1   3  11  334.83   11.18
  -1  -3 -11  349.44   10.66
   1   3  11  341.04   10.83
   1   3  12  143.98    7.69
   1   3  12  134.17    7.18
  -1  -3 -12  135.48    6.90
   1   3  13  427.55   13.33
   1   3  13  428.51   12.90
  -1  -3 -13  423.34   12.33
   1   3  14   14.73    3.29
  -1  -3 -14   13.29    2.86
   1   3  14   13.89    3.15
  -1  -3 -15  352.71   12.04
   1   3  15  354.10   12.54
   1   3  16  366.98   13.16
  -1  -3 -16  357.36   12.58
  -1  -3 -17  254.52   11.00
   1   3  17  266.43   11.65
   1   3  18  118.07    8.18
   1   3  19  234.61   11.43
   1   3  20    5.46    2.78
   1   3  21   14.52    3.89
   1   3  22   44.55    6.01
   1   3  23  196.12   11.71
   1   3  24  168.19   11.36
   1   3  25   22.89    4.99
   1   3  26   28.81    5.33
   1   3  27   40.98    6.27
   1   3  28   -3.60    4.17
   1   3  29    4.00    3.59
  -1  -4  31   12.77    4.82
  -1  -4  30   11.88    4.44
  -1  -4  29   -4.21    3.54
  -1  -4  28   32.08    5.57
  -1  -4  27  120.32    9.74
  -1  -4  26  103.85    8.65
  -1  -4  25   39.08    5.66
  -1  -4  24   55.57    6.34
  -1  -4  23    8.00    2.84
  -1  -4  22   30.66    4.49
  -1  -4  21    8.04    2.88
  -1  -4  20   44.38    5.09
  -1  -4  19  326.69   12.58
  -1  -4  18  185.07    9.19
   1   4 -18  185.49    9.28
  -1  -4  17  156.74    9.19
   1   4 -17  148.82    8.03
  -1  -4  17  141.28    8.03
  -1  -4  16  105.07    7.24
   1   4 -16   94.74    6.33
  -1  -4  16   93.52    6.23
  -1  -4  15   41.08    5.02
  -1  -4  15   27.21    3.59
   1   4 -15   36.93    4.01
  -1  -4  14  122.52    7.41
  -1  -4  14  116.76    6.46
   1   4 -14  124.77    6.76
   1   4 -14  122.89    5.90
  -1  -4  13  395.96   12.73
  -1  -4  13  392.32   11.35
   1   4 -13  392.87   10.42
   1   4 -13  398.53   11.56
  -1  -4  12  366.29   12.03
  -1  -4  12  334.33   10.20
   1   4 -12  339.16    9.48
   1   4 -12  364.13   10.61
  -1  -4  11 1165.15   20.86
  -1  -4  11 1098.92   17.90
   1   4 -11 1138.90   18.15
   1   4 -11 1097.36   16.83
  -1  -4  10  497.65   13.42
  -1  -4  10  470.68   11.26
   1   4 -10  476.08   10.93
  -1  -4   9  322.28   10.71
  -1  -4   9  302.32    8.78
   1   4  -9  297.97    8.50
  -1  -4   8  133.02    6.73
  -1  -4   8  123.03    5.44
   1   4  -7  236.71    8.91
  -1  -4   7  269.05    9.47
  -1  -4   7  256.19    7.74
  -1  -4   6  346.38   10.53
   1   4  -6  323.30   10.12
  -1  -4   6  322.93    8.10
   1   4  -5  666.91   14.32
  -1  -4   5  700.02   14.62
  -1  -4   5  680.70   11.63
  -1  -4   4  907.44   16.64
   1   4  -4  866.10   16.50
   1   4  -3 1161.37   18.79
  -1  -4   3 1204.64   19.24
   1   4  -2  149.09    6.98
  -1  -4   2  157.56    7.02
  -1  -4   1  411.89    6.43
   1   4  -1  399.16   11.16
  -1  -4   1  428.12   11.48
  -1  -4   0  991.69    8.54
   1   4   0 1005.42   17.78
  -1  -4   0 1012.25   17.44
  -1  -4   0  988.41    8.46
   1   4   1    5.94    2.34
  -1  -4  -1    2.79    1.62
  -1  -4  -2  791.14   15.74
   1   4   2  790.60   15.96
   1   4   3  890.85   17.25
  -1  -4  -3  929.18   17.40
  -1  -4  -4  194.15    8.01
   1   4   4  186.36    7.87
  -1  -4  -4  177.43    6.64
  -1  -4  -5 1310.79   20.93
   1   4   5 1353.91   21.42
  -1  -4  -5 1283.43   18.22
   1   4   6  421.63   12.08
  -1  -4  -6  410.37   11.81
  -1  -4  -6  399.43   10.28
  -1  -4  -7    7.86    2.19
   1   4   7   10.16    2.63
   1   4   8  208.47    8.86
  -1  -4  -8  189.73    7.54
   1   4   9   95.67    6.31
  -1  -4  -9   86.93    5.33
  -1  -4 -10   28.83    3.48
   1   4  10   28.69    3.76
   1   4  11 1676.01   26.49
  -1  -4 -11 1642.68   24.52
   1   4  12  194.21    9.39
  -1  -4 -12  182.57    8.65
   1   4  13  508.20   15.28
  -1  -4 -13  520.71   14.77
   1   4  14  339.49   12.79
  -1  -4 -14  348.18   12.29
  -1  -4 -15   13.59    3.15
   1   4  15   13.96    3.43
   1   4  15   13.32    3.39
   1   4  16   39.68    4.84
   1   4  16   38.39    5.10
   1   4  17  164.43    9.75
   1   4  17  162.72    9.57
   1   4  18   28.29    5.17
   1   4  18   21.11    4.40
   1   4  19  790.10   22.62
   1   4  19  713.38   20.65
   1   4  20   74.91    7.85
   1   4  20   63.41    7.06
   1   4  21   70.82    7.49
   1   4  21   61.72    6.82
   1   4  22   77.84    7.93
   1   4  22   61.89    6.86
   1   4  23    4.69    3.55
   1   4  23    6.38    3.86
   1   4  24    9.77    4.36
   1   4  24    7.08    3.61
   1   4  25  159.46   12.20
   1   4  25  144.66   11.05
   1   4  26    4.38    4.10
   1   4  26    1.08    4.01
   1   4  27  253.92   16.02
   1   4  27  228.33   14.53
   1   4  28   10.67    4.71
   1   4  28   10.71    4.96
  -1  -5  31  110.97   10.40
  -1  -5  30    8.29    4.01
  -1  -5  29   17.66    5.30
  -1  -5  28   10.93    3.93
  -1  -5  27    0.05    3.10
  -1  -5  26   91.34    8.29
  -1  -5  25   78.52    7.51
  -1  -5  24   18.70    4.20
  -1  -5  23  109.17    8.38
  -1  -5  22   18.79    4.00
  -1  -5  21    1.42    2.22
  -1  -5  20   79.70    6.72
  -1  -5  19    3.96    2.55
  -1  -5  18    9.01    2.76
  -1  -5  17  215.64    9.70
   1   5 -17  247.32   10.61
  -1  -5  16   57.04    5.52
   1   5 -16   62.75    5.25
   1   5 -16   63.18    4.87
  -1  -5  15  130.90    8.32
  -1  -5  15  126.72    7.26
   1   5 -15  131.04    6.85
  -1  -5  14   19.14    3.66
  -1  -5  14   15.70    2.90
   1   5 -14   16.84    2.67
  -1  -5  13   25.59    3.84
  -1  -5  13   17.44    2.88
   1   5 -13   21.86    3.01
  -1  -5  12  110.22    7.61
  -1  -5  12  102.78    5.99
   1   5 -12  100.43    5.76
  -1  -5  11   96.39    6.72
  -1  -5  11   88.69    5.48
   1   5 -11   89.59    5.53
  -1  -5  10   26.10    3.95
  -1  -5  10   21.31    2.78
   1   5 -10   24.06    3.11
  -1  -5   9  405.30   13.01
  -1  -5   9  379.57   10.70
   1   5  -9  361.15   10.78
  -1  -5   8  181.01    8.71
   1   5  -8  144.72    7.98
  -1  -5   8  165.84    6.98
  -1  -5   7  179.20    8.47
   1   5  -7  150.57    7.84
  -1  -5   7  170.30    6.91
  -1  -5   6  226.02    9.36
   1   5  -6  196.53    8.76
  -1  -5   6  221.71    7.61
   1   5  -5   63.59    5.39
  -1  -5   5   66.31    5.37
  -1  -5   4   92.20    6.12
   1   5  -4   81.82    5.88
  -1  -5   3    1.86    1.77
   1   5  -3    1.76    1.68
   1   5  -2  219.63    9.01
  -1  -5   2  271.46   10.07
  -1  -5   1 1053.96   19.80
   1   5  -1  976.52   19.35
  -1  -5   0  101.06    2.46
   1   5   0  121.52    7.58
  -1  -5   0  116.01    6.94
  -1  -5   0  101.71    2.53
   1   5   1  421.38   12.82
  -1  -5  -1  430.32   12.61
   1   5   2   51.85    4.94
  -1  -5  -2   50.72    4.89
   1   5   3  139.67    7.74
  -1  -5  -3  148.08    7.74
  -1  -5  -4  323.24   11.34
   1   5   4  300.88   11.40
   1   5   5   70.06    5.59
  -1  -5  -5   68.48    5.35
  -1  -5  -5   68.48    4.93
  -1  -5  -6  767.60   17.62
   1   5   6  759.97   17.70
  -1  -5  -6  735.78   15.71
   1   5   7  813.65   18.87
  -1  -5  -7  811.00   18.50
  -1  -5  -7  760.60   16.25
  -1  -5  -8   30.73    3.71
   1   5   8   34.82    4.59
  -1  -5  -9   12.43    2.89
   1   5   9   13.58    2.88
   1   5  10   66.75    5.71
  -1  -5 -10   60.72    4.95
  -1  -5 -11   14.87    3.20
   1   5  11   11.77    3.06
  -1  -5 -12   22.23    3.55
   1   5  12   24.00    3.87
   1   5  13  303.56   12.73
  -1  -5 -13  278.29   11.42
   1   5  14  196.76   10.52
  -1  -5 -14  176.80    9.39
   1   5  15  354.16   14.30
   1   5  16    3.99    2.60
   1   5  17    7.32    3.03
   1   5  18   54.74    6.20
   1   5  19    6.78    3.05
   1   5  20   52.70    6.18
   1   5  21   32.30    5.38
   1   5  22  110.49    9.35
   1   5  23   92.01    8.87
   1   5  24   16.05    4.40
   1   5  25   -7.33    4.01
   1   5  26    4.42    3.38
   1   5  27    6.26    4.30
  -1  -6  30   -0.77    3.27
  -1  -6  29   52.26    6.97
  -1  -6  28  122.39   10.23
  -1  -6  27   18.14    4.71
  -1  -6  26   85.17    8.24
  -1  -6  25   31.21    5.31
  -1  -6  24   38.85    5.54
  -1  -6  23   25.09    4.66
  -1  -6  22   64.22    6.55
  -1  -6  21  186.94   10.65
  -1  -6  20  719.22   19.80
  -1  -6  19   39.19    4.99
  -1  -6  18   16.64    3.60
  -1  -6  17    5.01    2.49
   1   6 -17    4.55    2.33
  -1  -6  16   13.59    3.09
   1   6 -16   10.49    2.84
  -1  -6  15  253.23   10.57
   1   6 -15  257.20   10.23
  -1  -6  14  385.71   12.60
   1   6 -14  394.61   12.53
  -1  -6  13  308.39   11.21
   1   6 -13  311.91   11.17
  -1  -6  12  834.59   20.83
  -1  -6  12  760.83   17.11
   1   6 -12  776.90   17.54
  -1  -6  11   77.34    6.67
  -1  -6  11   73.52    5.52
   1   6 -11   75.82    5.80
  -1  -6  10   13.01    3.03
  -1  -6  10    9.62    2.31
   1   6 -10    9.71    2.57
  -1  -6   9   39.35    4.65
   1   6  -9   31.00    4.36
  -1  -6   9   36.22    3.74
  -1  -6   8    0.31    1.80
   1   6  -8    1.83    1.84
  -1  -6   8    2.18    1.60
   1   6  -7  274.31   11.42
  -1  -6   7  316.99   12.20
  -1  -6   7  301.30    9.93
   1   6  -6  489.96   15.16
  -1  -6   6  536.49   15.64
  -1  -6   5  144.12    8.24
   1   6  -5  122.62    7.93
  -1  -6   4  266.42   11.05
   1   6  -4  220.95   10.21
   1   6  -3    1.00    1.84
  -1  -6   3    2.80    2.32
   1   6  -2    1.17    1.99
  -1  -6   2    1.56    1.85
   1   6  -1  104.55    7.06
  -1  -6   1  120.18    7.20
  -1  -6   0  142.65    7.93
   1   6   0  131.77    7.87
  -1  -6  -1  430.76   13.81
   1   6   1  406.14   13.78
  -1  -6  -2  716.71   17.95
   1   6   2  678.30   17.80
  -1  -6  -3   57.26    5.69
   1   6   3   55.07    5.85
  -1  -6  -4  118.53    7.42
   1   6   4  110.06    7.43
   1   6   5   28.84    4.23
  -1  -6  -5   32.16    4.31
  -1  -6  -6   14.79    2.76
   1   6   6   15.38    3.24
  -1  -6  -6   19.69    3.31
   1   6   7   63.01    5.73
  -1  -6  -7   73.14    6.24
  -1  -6  -7   66.54    5.40
  -1  -6  -8   81.20    6.47
   1   6   8   78.32    6.62
  -1  -6  -8   75.06    5.75
  -1  -6  -9   29.97    3.93
   1   6   9   31.05    4.55
   1   6  10  560.39   17.44
  -1  -6 -10  532.47   15.66
   1   6  11  103.52    7.94
   1   6  11   87.09    2.91
  -1  -6 -11   88.11    6.76
   1   6  11   79.49    2.83
  -1  -6 -12   37.61    4.74
   1   6  12   39.92    5.18
   1   6  13   41.17    5.29
   1   6  14    3.27    2.67
   1   6  15    3.31    2.64
   1   6  16  104.00    8.37
   1   6  17  107.80    8.97
   1   6  18  245.91   13.31
   1   6  19    1.76    3.16
   1   6  20    0.19    2.94
   1   6  21    2.32    3.71
   1   6  22   12.88    4.26
   1   6  23    3.39    3.53
   1   6  24  175.62   13.10
   1   6  25   16.27    5.43
  -1  -7  29   16.55    4.85
  -1  -7  28    1.10    3.10
  -1  -7  27   18.72    4.52
  -1  -7  26   54.83    7.01
  -1  -7  25   40.23    6.11
  -1  -7  24  105.50    8.86
  -1  -7  23   11.62    3.97
  -1  -7  22    5.30    3.26
  -1  -7  21    4.31    2.87
  -1  -7  20    5.70    2.85
  -1  -7  19   72.72    6.65
  -1  -7  18  105.61    7.84
   1   7 -18  100.66    7.44
  -1  -7  17   23.82    3.93
   1   7 -17   26.42    4.05
  -1  -7  16   46.60    5.10
   1   7 -16   55.26    5.53
   1   7 -15    7.27    2.83
  -1  -7  15    4.91    2.58
  -1  -7  14  103.50    7.12
   1   7 -14  107.86    7.32
  -1  -7  13  130.10    7.89
   1   7 -13  138.05    8.31
   1   7 -12    5.99    2.37
  -1  -7  12    8.64    2.65
   1   7 -11   44.17    4.85
  -1  -7  11   37.84    4.32
  -1  -7  10  257.51   10.26
   1   7 -10  260.16   11.26
   1   7  -9    2.76    2.98
  -1  -7   9    5.04    2.71
   1   7  -8    0.28    2.10
  -1  -7   8    0.21    2.04
  -1  -7   7    9.29    2.92
   1   7  -7    4.39    2.53
  -1  -7   7    6.27    2.55
  -1  -7   6  452.84   15.49
   1   7  -6  393.75   14.70
   1   7  -5   60.47    6.30
  -1  -7   5   86.54    7.16
  -1  -7   4   20.42    3.59
   1   7  -4    8.17    2.63
  -1  -7   3   10.40    2.67
   1   7  -3    2.11    2.26
   1   7  -2  210.05   10.76
  -1  -7   2  241.13   11.03
  -1  -7   1   23.08    1.44
   1   7  -1   29.18    4.88
  -1  -7   1   33.30    4.43
  -1  -7   1   27.02    1.44
  -1  -7   0   -3.48    2.40
   1   7   0   -0.64    2.05
   1   7   1    4.26    2.01
  -1  -7  -1    2.51    2.20
  -1  -7  -2  160.78    9.19
   1   7   2  145.04    9.13
   1   7   3   28.16    4.70
   1   7   4   89.32    7.35
   1   7   5    1.77    2.79
   1   7   6  126.21    8.94
  -1  -7  -6  117.04    7.66
  -1  -7  -7    3.46    2.38
   1   7   7    5.76    3.39
  -1  -7  -8    6.46    2.53
   1   7   8    6.34    2.96
  -1  -7  -9    0.17    2.03
   1   7   9   -4.55    3.33
   1   7  10   39.76    5.40
   1   7  11    1.96    2.54
   1   7  12  194.50   11.23
   1   7  13    2.27    3.31
   1   7  14  144.70    3.74
   1   7  14  190.39   11.66
   1   7  14  130.68    3.53
   1   7  15   15.45    1.79
   1   7  15   20.01    4.33
   1   7  16    1.92    1.42
   1   7  16    4.46    3.23
   1   7  17    8.23    3.23
   1   7  18    3.99    3.76
   1   7  19   -1.97    2.86
   1   7  20  104.32    9.85
   1   7  21   28.92    5.69
   1   7  22   60.87    7.95
   1   7  23   -0.93    4.23
  -1  -8  28   40.79    6.98
  -1  -8  27   19.32    5.01
  -1  -8  26    8.64    4.17
  -1  -8  25    2.99    3.23
  -1  -8  24   17.28    4.45
  -1  -8  23   11.24    3.76
  -1  -8  22   60.42    6.70
  -1  -8  21   34.94    5.29
  -1  -8  20   19.27    4.19
   1   8 -20   20.80    4.23
  -1  -8  19   43.70    5.65
   1   8 -19   47.91    5.90
  -1  -8  18   10.45    3.75
   1   8 -18    6.59    2.82
   1   8 -17    7.16    3.06
  -1  -8  17    9.54    3.09
   1   8 -16    2.98    2.59
  -1  -8  16    5.73    2.89
  -1  -8  15   22.35    4.10
   1   8 -15   24.05    4.26
  -1  -8  14  103.12    7.59
   1   8 -14  119.05    8.48
  -1  -8  13  181.15    9.80
   1   8 -13  190.64   10.61
  -1  -8  12   61.76    5.93
   1   8 -12   59.03    6.16
  -1  -8  11   34.22    4.49
   1   8 -11   33.39    4.71
   1   8 -10    6.20    3.00
   1   8 -10   11.07    3.13
  -1  -8  10   10.32    2.94
   1   8  -9   32.32    5.06
  -1  -8   9   32.98    4.15
   1   8  -8   34.36    5.22
  -1  -8   8   50.05    5.13
   1   8  -7  333.16   14.51
   1   8  -6  137.66    9.82
   1   8  -5   93.39    7.90
   1   8  -4    5.54    2.77
   1   8  -3   20.92    3.82
   1   8  -2   -4.01    2.63
   1   8  -1  174.27   10.38
   1   8   0  243.12   12.31
   1   8   1  436.67   16.44
   1   8   2  311.26   14.07
   1   8   3  123.39    9.19
   1   8   4    6.73    3.32
   1   8   5   23.18    4.56
   1   8   6   30.76    4.97
   1   8   7  269.70   13.71
   1   8   8  229.28   12.94
   1   8   9  183.56   11.76
   1   8  10  103.37    9.12
   1   8  11   36.33    5.47
   1   8  12    0.32    2.85
   1   8  13   91.66    8.60
   1   8  14   55.62    7.17
   1   8  15  150.57   11.10
   1   8  16  145.20   11.18
   1   8  17  140.28   11.20
   1   8  18   12.00    4.48
   1   8  19    6.06    4.75
   1   8  20    3.00    3.76
   1   8  21   43.05    7.06
  -1  -9  26    2.04    3.57
  -1  -9  25   21.04    5.13
  -1  -9  24   14.45    4.21
  -1  -9  23   12.07    4.06
  -1  -9  22   -2.04    3.09
  -1  -9  21    0.94    3.10
  -1  -9  20    4.56    3.13
   1   9 -20   11.05    3.72
   1   9 -19   61.31    6.82
  -1  -9  19   57.28    6.64
  -1  -9  18    1.59    2.77
   1   9 -18   11.01    3.70
   1   9 -17   20.78    4.73
  -1  -9  17   13.12    3.77
   1   9 -16    7.50    3.70
  -1  -9  16    6.14    3.30
  -1  -9  15   17.66    4.17
   1   9 -15   23.01    4.33
  -1  -9  14    1.47    2.62
   1   9 -14    8.94    3.50
  -1  -9  13   12.86    3.53
   1   9 -13    8.09    3.22
   1   9 -12   32.92    5.19
  -1  -9  12   29.76    4.59
  -1  -9  11  193.16   10.56
   1   9 -11  184.45   11.13
   1   9 -10    6.90    3.81
  -1  -9  10   10.41    3.61
   1   9 -10    7.04    3.33
   1   9  -9   16.25    4.32
  -1  -9   9   14.26    3.13
   1   9  -8    4.36    3.13
  -1  -9   8   -0.81    2.50
   1   9  -7   31.83    5.25
   1   9  -6   11.42    4.12
   1   9  -5  167.27   11.03
   1   9  -4    4.70    3.12
   1   9  -3   36.13    5.40
   1   9  -2   41.29    5.63
   1   9  -1    1.71    2.47
   1   9   0   21.96    4.39
   1   9   1    6.91    2.84
   1   9   2   19.78    4.52
   1   9   3   97.64    8.76
   1   9   4   16.61    4.09
   1   9   5  112.80    9.58
   1   9   6   49.36    6.89
   1   9   7   11.48    3.93
   1   9   8   15.12    4.19
   1   9   9   -1.25    3.23
   1   9  10    4.75    3.85
   1   9  11  103.00    9.54
   1   9  12   18.92    5.20
   1   9  13   19.22    4.55
   1   9  14   15.89    4.36
   1   9  15   -0.21    3.63
   1   9  16   -1.11    3.58
   1   9  17    3.48    3.98
   1   9  18    8.18    4.12
  -1 -10  24   -0.49    3.36
  -1 -10  23   76.83    8.71
  -1 -10  22   23.90    5.64
  -1 -10  21   11.05    3.91
   1  10 -21   30.45    5.61
   1  10 -20   12.79    4.54
  -1 -10  20   10.20    4.05
  -1 -10  19    5.27    3.24
   1  10 -19   17.41    4.66
  -1 -10  18   11.67    4.06
   1  10 -18   13.18    4.19
  -1 -10  17   95.63    8.58
   1  10 -17  103.69    9.23
  -1 -10  16   39.92    6.07
   1  10 -16   35.66    5.59
  -1 -10  15   97.05    8.52
   1  10 -15   92.52    8.70
  -1 -10  14   47.69    6.12
   1  10 -14   59.51    7.21
   1  10 -13   26.15    5.40
  -1 -10  13   19.16    4.13
  -1 -10  12   13.54    4.25
   1  10 -12   14.56    4.18
   1  10 -11   63.62    7.34
  -1 -10  11   52.63    6.14
   1  10 -10   21.37    5.33
  -1 -10  10   20.96    4.37
   1  10 -10   25.69    4.93
   1  10  -9  181.28   12.75
   1  10  -9  215.13   12.78
  -1 -10   9  214.95   11.51
   1  10  -8   69.01    8.31
  -1 -10   8   82.20    7.62
   1  10  -7  103.53    9.67
   1  10  -6   19.05    4.95
   1  10  -5   14.87    4.33
   1  10  -4   15.33    3.90
   1  10  -3   24.32    5.06
   1  10  -2   12.41    3.69
   1  10  -1  178.91   12.11
   1  10   0   39.39    6.31
   1  10   1  111.89    9.92
   1  10   2   42.02    6.70
   1  10   3   10.53    3.76
   1  10   4    3.20    3.19
   1  10   5   18.79    4.80
   1  10   6   59.76    7.79
   1  10   7  141.46   11.34
   1  10   8   21.89    5.97
   1  10   9   11.57    4.50
   1  10  10    0.98    3.84
   1  10  11    3.64    3.82
   1  10  12   26.10    6.19
   1  10  13   23.44    6.22
   1  10  14   70.17    9.33
   1  10  15   86.77   10.28
  -1 -11  22    0.67    3.60
   1  11 -22    7.82    4.28
  -1 -11  21   22.78    5.38
   1  11 -21   25.66    5.72
  -1 -11  20   20.62    5.33
   1  11 -20   23.92    5.73
  -1 -11  19   23.40    5.03
   1  11 -19   13.87    4.75
   1  11 -18   21.09    5.17
  -1 -11  18   24.54    5.33
   1  11 -17    1.35    3.74
  -1 -11  17    5.19    3.97
  -1 -11  16   12.70    4.30
   1  11 -16    6.54    4.17
   1  11 -15   11.75    4.39
  -1 -11  15    4.61    3.55
  -1 -11  14    3.41    3.17
   1  11 -14    0.42    3.25
  -1 -11  13   49.76    6.56
   1  11 -13   60.34    7.76
   1  11 -12   53.73    7.44
  -1 -11  12   48.22    6.52
   1  11 -11   34.50    5.70
  -1 -11  11   22.31    4.89
   1  11 -10    3.07    4.35
  -1 -11  10   10.25    3.77
   1  11 -10   15.59    4.63
   1  11  -9    6.58    3.85
  -1 -11   9    5.04    2.95
   1  11  -9    9.59    4.56
   1  11  -8   -1.18    3.19
  -1 -11   8    2.93    3.04
   1  11  -7   13.42    4.60
   1  11  -6    2.37    3.22
   1  11  -5   24.20    5.39
   1  11  -4    9.06    3.99
   1  11  -3   16.23    4.89
   1  11  -2    3.34    3.58
   1  11  -1    0.70    3.29
   1  11   0   10.64    4.56
   1  11   1   11.67    4.48
   1  11   2   33.74    6.60
   1  11   3   66.19    8.59
   1  11   4   20.11    5.62
   1  11   5    0.23    3.69
   1  11   6    0.48    3.29
   1  11   7    6.11    4.55
   1  11   8   14.84    5.75
   1  11   9   13.94    4.91
   1  11  10   14.41    4.86
  -1 -12  18   37.17    6.74
  -1 -12  17    5.72    4.10
   1  12 -16   44.01    7.44
  -1 -12  16   49.04    6.85
   1  12 -15    1.94    3.47
  -1 -12  15    4.85    3.74
  -1 -12  14   16.81    4.67
   1  12 -14   20.80    5.61
  -1 -12  13   14.56    4.48
   1  12 -13   20.32    5.00
   1  12 -12   15.38    5.21
  -1 -12  12   10.58    4.16
  -1 -12  11   -1.24    3.02
   1  12 -11    0.56    3.43
   1  12 -10   72.17    8.84
  -1 -12  10   74.55    7.95
   1  12  -9  -10.26    4.46
   1  12  -9    4.97    3.93
  -1 -12   9    6.45    4.48
   1  12  -8   17.28    5.82
  -1 -12   8   21.18    4.95
   1  12  -8   33.77    6.62
   1  12  -7   17.75    5.47
  -1 -12   7   13.59    4.38
   1  12  -6    2.18    3.20
   1  12  -5   11.04    5.02
   1  12  -4    6.42    4.08
   1  12  -3    6.13    3.75
   1  12  -2   28.58    6.54
   1  12  -1    4.39    4.21
   1  12   0   23.44    5.77
   1  12   1   12.73    5.07
   1  12   2   -3.09    3.61
  -1 -13  12    0.75    3.32
  -1 -13  11   12.66    4.61
  -1 -13  10    4.98    3.69
  -1 -13   9    7.45    3.98
  -1 -13   8   -2.65    3.73
  -1 -13   7    4.48    3.64
  -1 -13   6    3.25    3.22
  -2  13   2    2.74    3.82
  -2  13   1    0.05    3.44
  -2  13   0   30.19    6.38
  -2  13  -1    4.53    4.02
  -2  13  -2    6.65    4.03
  -2  13  -3   -2.72    3.84
  -2  12  11    2.27    4.06
  -2  12  10   24.41    5.60
  -2  12   9    3.98    4.01
  -2  12   8   72.59    8.67
  -2  12   7   17.83    4.91
  -2  12   6   22.49    5.36
  -2  12   5    6.28    3.23
  -2  12   4    9.06    4.14
  -2  12   3    1.61    3.39
  -2  12   2   67.82    8.03
  -2  12   1   19.95    5.36
  -2  12   0   88.07    9.26
  -2  12  -1   10.47    4.24
  -2  12  -2   -0.57    3.19
  -2  12  -3   -0.73    3.21
  -2  12  -4   14.12    4.19
  -2  11  16   -0.10    3.69
  -2  11  15   13.18    4.72
  -2  11  14   13.26    4.96
  -2  11  13    0.82    3.50
  -2  11  12   34.86    6.33
  -2  11  11   14.53    4.63
  -2  11  10   -2.90    3.48
  -2  11   9    1.79    3.22
  -2  11   8    4.47    3.47
  -2  11   7   23.73    5.09
  -2  11   6   13.49    4.21
  -2  11   5   10.10    4.38
  -2  11   4   42.99    6.18
  -2  11   4   52.40    8.07
  -2  11   3    3.33    3.12
  -2  11   3   14.82    4.86
  -2  11   2    0.34    3.09
  -2  11   2    7.28    4.96
  -2  11   1   -4.18    3.66
  -2  11   1    1.21    3.65
  -2  11   0    1.91    2.94
  -2  11   0    1.57    3.51
  -2  11  -1    2.57    2.71
  -2  11  -1    8.96    4.91
  -2  11  -2    5.36    2.87
  -2  11  -2    2.84    3.19
  -2  11  -3   -1.04    2.79
  -2  11  -3    3.24    3.72
  -2  11  -4   15.31    4.54
  -2  11  -4   24.60    5.84
   2 -11   5   -1.77    2.37
  -2  11  -5    5.12    3.62
   2 -11   6    4.42    2.86
  -2  11  -6    1.83    3.30
   2 -11   7    2.54    2.63
  -2  11  -7    4.61    3.45
  -2  11  -8    9.52    4.18
  -2  11  -9   17.28    4.96
   2 -11   9   18.12    5.38
  -2  11 -10   53.27    7.74
   2 -11  10   57.07    7.48
  -2  11 -11    0.46    3.20
   2 -11  11    1.85    3.99
  -2  11 -12   34.31    6.60
   2 -11  12   19.32    5.20
  -2  11 -13   11.68    5.40
   2 -11  13    9.12    4.01
  -2  11 -14   12.07    4.91
   2 -11  14    3.90    3.22
  -2  10  19   39.14    7.11
  -2  10  18   11.83    4.83
  -2  10  17   38.24    6.90
  -2  10  16   36.32    6.52
  -2  10  15    7.04    4.08
  -2  10  14   16.25    4.77
  -2  10  13    6.76    3.74
  -2  10  12    0.02    2.93
  -2  10  11   81.01    8.12
  -2  10  10   23.44    4.97
  -2  10   9   69.20    7.28
  -2  10   8   26.14    4.96
  -2  10   7    7.93    3.43
  -2  10   6    2.56    2.98
  -2  10   5   50.07    6.11
  -2  10   4    8.77    3.50
   2 -10  -3  198.91    8.61
  -2  10   3  184.69   11.12
  -2  10   3  204.55   13.35
   2 -10  -2   29.93    3.83
  -2  10   2   32.00    5.00
  -2  10   2   44.88    7.21
   2 -10  -1  116.19    6.74
  -2  10   1   99.29    8.05
  -2  10   1  121.83   10.28
   2 -10   0   14.81    3.00
  -2  10   0   15.97    3.71
  -2  10   0   19.50    5.07
   2 -10   1   27.31    4.01
  -2  10  -1   11.57    3.20
  -2  10  -1   25.26    5.42
   2 -10   2   26.21    3.68
  -2  10  -2   18.76    4.03
  -2  10  -2   19.53    4.70
   2 -10   3   31.20    4.24
  -2  10  -3   14.74    3.45
  -2  10  -3   18.62    4.81
   2 -10   4   17.14    4.10
  -2  10  -4   15.19    4.76
  -2  10  -4   21.91    6.09
   2 -10   5  301.62   12.57
  -2  10  -5  274.51   14.06
  -2  10  -5  297.62   15.88
  -2  10  -6   61.06    7.95
  -2  10  -7  159.41   11.71
  -2  10  -8   40.73    6.45
  -2  10  -9   23.77    5.33
  -2  10 -10   13.71    5.07
   2 -10  10    7.99    4.38
  -2  10 -11  191.15   13.16
   2 -10  11  170.90   12.05
   2 -10  12   30.27    6.18
  -2  10 -12   43.89    7.21
   2 -10  13  163.20   11.76
  -2  10 -13  187.64   13.04
  -2  10 -14   23.71    5.72
   2 -10  14   31.18    6.49
  -2  10 -15   27.59    5.57
   2 -10  15   28.45    5.86
  -2  10 -16   16.70    4.93
   2 -10  16    8.96    4.20
   2 -10  17   18.76    4.95
   2 -10  18    7.51    4.77
   2 -10  19  137.70   12.00
  -2   9  22   15.48    5.14
  -2   9  21   77.03    9.00
  -2   9  20   17.32    5.33
  -2   9  19   -4.18    4.01
  -2   9  18    4.56    4.01
  -2   9  17    2.73    3.67
  -2   9  16   10.74    3.94
  -2   9  15   63.02    7.48
  -2   9  14   15.45    4.51
  -2   9  13  131.51   10.06
  -2   9  12   20.90    4.94
  -2   9  11    6.40    3.30
  -2   9  10    0.89    2.45
  -2   9   9    3.58    2.69
  -2   9   8   67.74    6.88
  -2   9   7  229.49   11.72
  -2   9   6   -2.13    2.64
  -2   9   5   74.25    6.81
   2  -9  -4   -0.85    1.86
  -2   9   4    4.18    3.02
   2  -9  -4    1.11    1.89
   2  -9  -3    1.32    2.09
  -2   9   3   -0.18    2.25
   2  -9  -3   -0.28    1.80
   2  -9  -2   19.91    3.27
  -2   9   2   11.72    3.40
   2  -9  -2   19.00    3.09
  -2   9   2   21.99    5.01
   2  -9  -1   86.97    5.90
  -2   9   1   81.02    6.99
  -2   9   1   87.21    8.30
   2  -9  -1   80.71    5.67
   2  -9   0   20.98    3.69
  -2   9   0   15.78    4.05
   2  -9   0   17.37    3.16
  -2   9   0   19.77    4.95
   2  -9   1  253.35   10.22
  -2   9  -1  219.16   11.27
  -2   9  -1  228.97   13.02
   2  -9   1  233.09    9.79
   2  -9   2    4.97    2.14
   2  -9   2    4.19    1.82
  -2   9  -2    0.24    2.33
  -2   9  -2    5.37    3.22
   2  -9   3   16.63    3.37
   2  -9   3   20.80    3.39
  -2   9  -3    9.30    3.22
  -2   9  -3   18.28    4.53
   2  -9   4    6.28    2.72
  -2   9  -4    0.50    2.54
   2  -9   4   11.24    3.04
  -2   9  -4    7.82    4.05
  -2   9  -5    6.42    2.95
   2  -9   5    7.58    2.96
  -2   9  -5    1.83    3.05
   2  -9   6   31.77    4.59
  -2   9  -6   28.14    5.34
   2  -9   7  127.28    8.48
  -2   9  -7  132.63   10.05
  -2   9  -8   16.15    5.13
  -2   9  -9  247.08   14.29
   2  -9  10   -0.05    2.84
  -2   9 -10    4.53    4.60
   2  -9  11    0.73    2.80
  -2   9 -11    3.08    2.71
  -2   9 -12   19.43    4.59
   2  -9  12   21.08    4.98
  -2   9 -13   18.67    4.48
   2  -9  13   21.65    4.92
  -2   9 -14   32.88    5.78
   2  -9  14   37.96    6.17
   2  -9  15   28.58    5.39
  -2   9 -15   25.62    4.94
   2  -9  16   15.01    4.80
   2  -9  17   40.47    6.48
   2  -9  18    7.92    4.17
   2  -9  19    5.71    4.01
   2  -9  20    2.48    3.58
   2  -9  21    2.66    3.89
   2  -9  22    1.63    3.95
  -2   8  24   -3.64    3.90
  -2   8  23   -8.21    4.52
  -2   8  22    7.22    4.33
  -2   8  21   -0.71    3.03
  -2   8  20   68.57    7.93
  -2   8  19  130.42   10.39
  -2   8  18   17.92    4.62
  -2   8  17   81.66    8.16
  -2   8  17   70.56    6.04
  -2   8  16    0.45    2.72
  -2   8  16    2.85    2.31
  -2   8  15   11.19    3.97
  -2   8  15    8.75    2.75
  -2   8  14   49.98    6.35
  -2   8  14   38.42    4.39
  -2   8  13    6.81    3.54
  -2   8  13    8.23    2.59
  -2   8  12   62.36    6.66
  -2   8  12   56.59    5.26
  -2   8  11  133.82    9.20
  -2   8  11  122.14    7.52
  -2   8  10   35.29    4.99
  -2   8   9   55.28    5.84
  -2   8   8    1.78    2.59
  -2   8   7   75.17    6.57
  -2   8   6  121.36    7.98
   2  -8  -6  122.30    8.48
   2  -8  -5    7.64    3.05
   2  -8  -5    3.76    1.81
  -2   8   5    5.71    2.41
   2  -8  -5    7.97    2.18
   2  -8  -4  194.92    8.53
   2  -8  -4  179.51   10.16
  -2   8   4  183.47    9.67
   2  -8  -4  180.43    8.12
   2  -8  -3  168.80    7.95
  -2   8   3  159.01    8.92
   2  -8  -3  152.31    9.36
   2  -8  -3  163.48    7.77
   2  -8  -2   28.81    3.43
   2  -8  -2   24.37    3.92
  -2   8   2   27.03    3.99
   2  -8  -2   22.99    3.20
  -2   8   2   32.47    5.03
   2  -8  -1    0.15    2.01
   2  -8  -1    4.27    2.27
  -2   8   1   -3.06    2.60
   2  -8  -1    3.42    1.69
  -2   8   1    2.74    2.84
   2  -8   0    2.15    2.23
   2  -8   0    6.83    2.34
  -2   8   0    3.76    2.26
   2  -8   0    7.57    2.40
  -2   8   0    5.95    3.09
   2  -8   1   76.17    5.86
   2  -8   1   70.44    6.18
  -2   8  -1   72.41    6.30
  -2   8  -1   82.45    7.71
   2  -8   1   79.76    5.71
   2  -8   2  142.48    7.97
   2  -8   2  142.14    8.63
  -2   8  -2  128.27    8.03
   2  -8   2  144.16    7.86
  -2   8  -2  150.16    9.81
   2  -8   3   20.07    3.52
   2  -8   3   16.63    3.26
  -2   8  -3   19.50    3.47
   2  -8   3   22.30    3.62
  -2   8  -3   29.61    5.14
   2  -8   4   42.85    5.17
  -2   8  -4   38.32    4.79
  -2   8  -4   48.67    6.14
   2  -8   4   42.94    4.72
   2  -8   5  106.28    7.80
  -2   8  -5  104.53    8.40
   2  -8   5  103.01    7.17
   2  -8   6   25.87    4.21
  -2   8  -6   32.51    5.23
   2  -8   6   28.36    4.63
   2  -8   7  136.77    8.91
  -2   8  -7  136.39    9.44
  -2   8  -8   72.47    6.97
  -2   8  -9   42.77    5.65
   2  -8   9   36.94    5.13
  -2   8 -10   46.20    5.89
   2  -8  10   44.62    5.45
  -2   8 -11   69.96    7.10
   2  -8  11   56.83    6.77
   2  -8  12  192.94   11.46
  -2   8 -12  213.96   12.03
  -2   8 -13   24.82    5.03
   2  -8  13   16.95    4.25
   2  -8  14   13.76    4.16
  -2   8 -14   15.63    4.43
   2  -8  15  112.19    9.16
   2  -8  16    2.93    3.08
   2  -8  17   16.07    4.62
   2  -8  18   94.94    9.04
   2  -8  19   40.27    6.23
   2  -8  20  138.96   10.76
   2  -8  21   -3.96    3.06
   2  -8  22   39.47    6.38
   2  -8  23   78.71    8.83
   2  -8  24   16.77    5.43
  -2   7  26    2.63    3.50
  -2   7  25   13.97    4.78
  -2   7  24   41.66    6.81
  -2   7  23   54.78    7.29
  -2   7  22    1.49    3.00
  -2   7  22    4.58    3.52
  -2   7  21   17.21    4.42
  -2   7  21   21.44    4.14
  -2   7  20    2.47    3.69
  -2   7  20    4.80    2.92
  -2   7  19   15.16    4.36
  -2   7  19    9.89    3.42
  -2   7  18    6.97    3.58
  -2   7  18    8.15    3.00
  -2   7  17    4.92    3.14
  -2   7  17    8.71    3.19
  -2   7  16   95.99    7.30
  -2   7  16  104.82    8.41
  -2   7  16   91.75    6.92
  -2   7  15   63.02    5.81
  -2   7  15   69.46    6.70
  -2   7  15   60.13    5.44
  -2   7  14    6.28    3.04
  -2   7  14    7.15    2.89
  -2   7  14    8.49    2.87
  -2   7  13    7.67    2.79
  -2   7  13    7.71    2.61
  -2   7  13   10.84    3.00
  -2   7  12    6.64    2.54
  -2   7  12    3.11    2.36
  -2   7  12   10.17    2.82
  -2   7  11   48.47    5.26
  -2   7  11   41.84    4.65
  -2   7  10   17.14    3.64
  -2   7  10   12.46    2.69
  -2   7   9    9.37    2.77
  -2   7   9    6.36    2.41
  -2   7   8  105.46    7.18
  -2   7   8  101.53    6.51
  -2   7   7  114.19    7.15
   2  -7  -6   59.87    4.78
  -2   7   6   55.08    5.14
   2  -7  -6   45.74    5.22
   2  -7  -6   57.67    4.77
   2  -7  -5    2.07    1.86
   2  -7  -5   -0.63    1.89
  -2   7   5   -1.40    1.92
   2  -7  -5    1.06    1.54
  -2   7   4   28.89    3.73
   2  -7  -4   30.98    3.56
   2  -7  -4   24.93    3.64
   2  -7  -4   29.49    3.49
   2  -7  -3  122.06    6.57
   2  -7  -3  108.94    7.20
  -2   7   3  123.13    7.21
   2  -7  -3  123.31    6.65
   2  -7  -2   52.18    4.34
   2  -7  -2   48.49    4.92
  -2   7   2   46.48    4.45
  -2   7   2   61.05    5.92
   2  -7  -2   52.57    4.28
   2  -7  -1    6.80    2.72
   2  -7  -1    2.45    2.05
  -2   7   1   -4.24    2.25
   2  -7  -1    1.99    2.00
  -2   7   1    2.24    2.30
   2  -7   0  282.87   10.43
  -2   7   0  276.81   10.62
   2  -7   0  278.66   11.03
  -2   7   0  290.63   12.57
   2  -7   0  286.21   10.31
   2  -7   1  246.67    9.94
  -2   7  -1  244.54    9.96
   2  -7   1  241.06   10.15
   2  -7   1  247.61    9.64
  -2   7  -1  247.07   11.59
   2  -7   2    7.35    2.32
   2  -7   2    5.34    1.73
  -2   7  -2    8.34    2.47
   2  -7   2   10.61    2.81
  -2   7  -2   14.05    3.80
   2  -7   3    1.30    1.95
  -2   7  -3   -0.89    1.79
   2  -7   3   -1.48    1.91
  -2   7  -3    1.82    2.32
   2  -7   4   27.25    3.93
  -2   7  -4   24.04    3.90
   2  -7   4   24.93    3.75
  -2   7  -4   24.98    4.18
   2  -7   5   59.29    5.44
   2  -7   5   54.30    5.50
  -2   7  -5   59.51    5.93
   2  -7   6   81.40    6.42
   2  -7   6   73.23    6.32
  -2   7  -6   78.30    6.80
   2  -7   7  156.96    8.60
  -2   7  -7  148.80    9.21
   2  -7   8  183.06    9.34
  -2   7  -8  167.94    9.67
   2  -7   9   23.38    3.76
  -2   7  -9   23.69    4.08
   2  -7   9   20.94    4.38
   2  -7  10    8.86    2.81
   2  -7  10    1.10    2.46
  -2   7 -10    5.03    3.00
   2  -7  11    0.73    1.87
  -2   7 -11    0.77    2.34
   2  -7  11    3.02    2.78
  -2   7 -12   37.76    5.11
   2  -7  12   35.42    4.98
   2  -7  13    9.93    4.43
   2  -7  14  432.20   16.48
   2  -7  15  105.05    8.26
   2  -7  16    3.39    3.02
   2  -7  17   49.55    6.60
   2  -7  18   18.14    6.86
   2  -7  19   74.92    7.71
   2  -7  20   64.27    7.36
   2  -7  21   10.93    4.07
   2  -7  22  105.58    9.37
   2  -7  23   30.83    5.82
   2  -7  24   29.01    5.39
   2  -7  25   -0.92    3.39
   2  -7  26    1.28    3.39
  -2   6  28   78.64    9.50
  -2   6  27    3.46    4.24
  -2   6  27    7.76    4.18
  -2   6  26   11.11    4.63
  -2   6  26    6.62    3.74
  -2   6  25   -0.15    3.13
  -2   6  25    0.54    3.29
  -2   6  24   10.15    4.24
  -2   6  24    7.28    3.65
  -2   6  23   39.41    6.19
  -2   6  23   47.43    6.20
  -2   6  22   22.07    5.13
  -2   6  22   30.54    5.09
  -2   6  21   49.82    6.34
  -2   6  21   48.00    5.84
  -2   6  20  136.15   10.02
  -2   6  20  118.56    8.47
  -2   6  19   21.66    4.77
  -2   6  19   13.02    3.51
  -2   6  18   52.84    5.95
  -2   6  18   51.96    5.59
  -2   6  17   12.71    3.56
  -2   6  17    8.34    3.15
  -2   6  17    7.10    2.79
  -2   6  16    8.57    3.55
  -2   6  16    4.47    2.60
  -2   6  16    6.63    2.75
  -2   6  15  103.04    7.06
  -2   6  15  106.98    7.74
  -2   6  15   92.25    6.72
  -2   6  14   43.12    4.97
  -2   6  14   45.00    5.24
  -2   6  14   36.37    4.47
  -2   6  13  418.77   13.51
  -2   6  13  432.57   14.51
  -2   6  13  399.33   13.22
  -2   6  12  656.84   16.56
  -2   6  12  715.48   18.21
  -2   6  12  662.48   16.26
  -2   6  11   77.32    5.84
  -2   6  11   74.87    5.78
  -2   6  11   77.04    5.63
  -2   6  10   53.24    4.86
  -2   6  10   50.39    4.85
  -2   6  10   52.28    4.65
  -2   6   9   82.14    5.71
  -2   6   9   90.21    6.30
  -2   6   9   81.58    5.59
  -2   6   8    4.23    2.04
  -2   6   8    6.26    2.41
  -2   6   7  473.41   13.53
  -2   6   7  460.37   12.88
   2  -6  -6  267.71    9.58
  -2   6   6  273.04   10.08
   2  -6  -6  247.30    9.91
   2  -6  -6  269.57    9.77
  -2   6   6  259.83    9.76
   2  -6  -5  105.93    5.99
  -2   6   5  109.70    6.38
   2  -6  -5  100.34    6.15
   2  -6  -5  108.09    6.03
  -2   6   5  105.42    6.38
   2  -6  -4  477.04   12.66
   2  -6  -4  436.03   12.63
  -2   6   4  475.23   12.84
   2  -6  -4  472.18   12.60
   2  -6  -3    4.44    1.58
   2  -6  -3    6.43    2.22
  -2   6   3    4.89    1.78
   2  -6  -3    5.80    1.77
  -2   6   2   24.94    3.05
   2  -6  -2   33.37    3.63
   2  -6  -2   23.41    3.19
   2  -6  -2   26.99    3.33
  -2   6   2   32.79    4.36
   2  -6  -1  113.11    6.48
  -2   6   1  110.62    6.03
   2  -6  -1   97.87    6.00
  -2   6   1  115.64    7.26
   2  -6  -1  111.45    6.27
   2  -6   0    8.37    1.98
   2  -6   0   22.30    3.38
   2  -6   0   18.96    3.13
  -2   6   0   17.06    2.73
  -2   6   0   21.46    4.01
   2  -6   1  471.35   13.39
  -2   6  -1  484.69   12.62
   2  -6   1  477.49   13.17
   2  -6   1  487.30   13.47
  -2   6  -1  494.44   14.85
   2  -6   2  574.21   15.22
   2  -6   2  604.23   14.95
  -2   6  -2  582.45   13.83
   2  -6   2  575.64   15.03
  -2   6  -2  604.50   16.42
   2  -6   3   -3.09    2.12
  -2   6  -3   -1.61    1.88
   2  -6   3   -1.16    1.85
  -2   6  -3    7.61    2.91
   2  -6   4  197.30    8.52
   2  -6   4  199.06    9.14
  -2   6  -4  197.10    9.45
   2  -6   5    6.04    1.85
   2  -6   5    5.90    2.77
  -2   6  -5    6.60    2.49
   2  -6   6  101.87    6.40
  -2   6  -6   95.64    6.83
   2  -6   7  268.04   10.23
  -2   6  -7  249.97   10.84
   2  -6   8    2.85    2.05
  -2   6  -8   12.61    3.50
   2  -6   9  424.00   13.15
  -2   6  -9  429.46   14.70
   2  -6   9  391.99   14.15
   2  -6  10  332.84   11.91
   2  -6  10  304.91   12.69
  -2   6 -10  316.81   12.72
   2  -6  11   78.97    5.93
   2  -6  11   77.72    6.52
  -2   6 -11   80.43    6.54
   2  -6  12   81.52    6.18
   2  -6  12   77.17    6.80
   2  -6  13   44.32    4.74
   2  -6  13   43.39    5.29
   2  -6  14   22.61    4.28
   2  -6  15  166.32   10.01
   2  -6  16    1.99    2.64
   2  -6  17  229.10   11.93
   2  -6  18  164.42   10.25
   2  -6  19   10.20    3.38
   2  -6  20   -0.93    2.76
   2  -6  21  209.91   12.31
   2  -6  22   14.08    4.85
   2  -6  23  148.54   10.95
   2  -6  24   27.97    5.54
   2  -6  25   62.76    7.66
   2  -6  26   58.15    7.53
   2  -6  27   34.57    6.61
  -2   5  30    1.77    3.64
  -2   5  29    2.25    3.72
  -2   5  29    3.80    3.88
  -2   5  28   16.02    4.86
  -2   5  28   11.03    3.64
  -2   5  27   17.68    4.72
  -2   5  27   19.95    4.97
  -2   5  26   28.19    5.57
  -2   5  26   21.55    5.03
  -2   5  25   21.29    4.93
  -2   5  25   17.22    4.72
  -2   5  24   92.82    8.66
  -2   5  24   87.55    8.24
  -2   5  23    3.98    2.87
  -2   5  23    2.91    2.97
  -2   5  22   -6.81    3.61
  -2   5  22    2.82    3.25
  -2   5  21   -3.94    3.20
  -2   5  21    5.29    2.82
  -2   5  20   25.12    4.62
  -2   5  20   32.41    4.96
  -2   5  19   51.38    5.90
  -2   5  19   39.29    5.27
  -2   5  18  116.98    8.27
  -2   5  18  111.03    7.88
  -2   5  17  196.40   10.27
  -2   5  17  197.70   10.28
  -2   5  17  183.32    9.67
  -2   5  16  220.66   10.50
  -2   5  16  230.25   10.92
  -2   5  16  207.74   10.06
  -2   5  15   16.40    3.48
  -2   5  15    8.33    2.85
  -2   5  15   12.54    3.55
  -2   5  14   54.21    5.24
  -2   5  14   51.93    4.77
  -2   5  14   54.85    5.28
  -2   5  13   11.22    2.92
  -2   5  13   15.80    3.08
  -2   5  13   11.53    2.96
  -2   5  12   13.06    2.87
  -2   5  12   12.44    2.75
  -2   5  12   16.92    3.10
  -2   5  11  235.34    9.66
  -2   5  11  244.53    9.62
  -2   5  11  233.93    9.50
  -2   5  10  453.54   12.82
  -2   5  10  417.67   12.53
   2  -5 -10  405.47   14.01
  -2   5  10  414.51   12.30
  -2   5   9    4.24    1.81
  -2   5   9    7.02    1.90
  -2   5   9    8.28    2.38
   2  -5  -9    9.61    2.67
  -2   5   8   71.15    5.20
  -2   5   8   71.05    4.88
  -2   5   8   71.34    5.11
  -2   5   7   15.99    2.57
   2  -5  -7   15.34    2.85
  -2   5   7   10.76    2.34
  -2   5   7   10.91    2.61
   2  -5  -6  128.43    6.56
  -2   5   6  137.32    6.53
   2  -5  -6  134.88    6.82
  -2   5   6  131.10    6.74
   2  -5  -5  110.06    6.13
  -2   5   5  104.82    5.61
   2  -5  -5   97.03    5.66
   2  -5  -5  105.82    5.86
  -2   5   5   96.55    5.61
   2  -5  -4   65.32    4.74
   2  -5  -4   50.89    4.00
  -2   5   4   63.40    4.31
  -2   5   4   60.31    4.68
   2  -5  -4   63.18    4.55
   2  -5  -3  199.91    7.97
   2  -5  -3  199.54    7.74
  -2   5   3  198.90    7.39
   2  -5  -3  203.85    8.14
  -2   5   3  205.08    8.31
   2  -5  -2  131.11    6.63
   2  -5  -2  113.20    5.74
  -2   5   2  121.98    5.69
  -2   5   2  135.45    7.19
   2  -5  -2  128.05    6.54
   2  -5  -1  256.72    9.29
  -2   5   1  257.30    8.20
   2  -5  -1  254.97    8.48
  -2   5   1  273.14   10.07
   2  -5  -1  262.61    9.34
   2  -5   0   46.08    3.99
   2  -5   0   42.38    3.46
  -2   5   0   48.09    3.45
   2  -5   0   47.85    4.12
  -2   5   0   53.76    4.60
   2  -5   1   60.12    4.69
   2  -5   1   61.37    4.23
  -2   5  -1   60.38    3.86
   2  -5   1   64.62    4.83
  -2   5  -1   72.38    5.39
  -2   5  -2  170.48    6.57
   2  -5   2  171.81    7.00
  -2   5  -2  183.62    8.38
   2  -5   2  175.32    8.06
   2  -5   3   75.47    4.74
  -2   5  -3   79.84    5.79
   2  -5   3   69.39    5.27
   2  -5   4   35.75    3.39
   2  -5   4   35.41    4.10
  -2   5  -4   40.18    4.33
   2  -5   5  422.64   11.30
  -2   5  -5  387.39   12.48
   2  -5   6  720.30   14.84
  -2   5  -6  700.46   16.74
   2  -5   7   37.67    3.66
  -2   5  -7   38.97    4.55
   2  -5   8  152.92    7.09
   2  -5   8  145.94    7.98
   2  -5   8  150.15    8.18
  -2   5  -8  149.78    8.14
   2  -5   9   12.27    2.85
  -2   5  -9   10.04    2.65
   2  -5   9    6.33    2.24
   2  -5   9    8.73    2.78
   2  -5  10  392.43   11.77
   2  -5  10  379.93   13.03
   2  -5  10  404.66   13.65
   2  -5  11  256.27    9.85
   2  -5  11  247.12   10.93
   2  -5  11  263.76   11.31
   2  -5  12  242.56    9.69
   2  -5  12  226.51   10.52
   2  -5  12  250.98   11.27
   2  -5  13  447.88   13.60
   2  -5  13  412.31   14.25
   2  -5  14  186.40    9.16
   2  -5  14  179.08    9.61
   2  -5  15   13.07    3.13
   2  -5  15   13.66    3.56
   2  -5  16   27.88    4.28
   2  -5  17    7.50    3.14
   2  -5  18  192.03   10.97
   2  -5  19   43.68    5.65
   2  -5  20  175.61   11.01
   2  -5  21  295.62   14.32
   2  -5  22   21.12    4.40
   2  -5  23   11.18    4.10
   2  -5  24  161.16   11.43
   2  -5  25    0.69    3.05
   2  -5  26    0.32    3.24
   2  -5  27   45.52    7.07
   2  -5  28   37.18    6.51
  -2   4  31   11.99    5.09
  -2   4  30    8.16    4.44
  -2   4  30    2.68    4.20
  -2   4  29   89.41    9.53
  -2   4  29   95.58    9.55
  -2   4  28    9.78    4.10
  -2   4  28   13.79    4.93
  -2   4  27    4.75    3.58
  -2   4  27    2.45    3.84
  -2   4  26   44.21    6.26
  -2   4  26   37.47    5.95
  -2   4  25    5.65    3.19
  -2   4  25    2.68    3.62
  -2   4  24  126.03    9.84
  -2   4  24  129.88   10.04
  -2   4  23  153.01   10.48
  -2   4  23  148.40   10.30
  -2   4  22   20.44    4.44
  -2   4  22   13.73    4.12
  -2   4  21  123.73    9.01
  -2   4  21  128.43    9.27
  -2   4  20    2.69    2.72
  -2   4  20    2.69    2.93
  -2   4  19    7.40    2.78
  -2   4  19    3.22    2.84
  -2   4  18  438.24   14.80
  -2   4  18  441.16   15.40
  -2   4  17   43.91    5.07
  -2   4  17   43.26    5.34
  -2   4  17   43.68    5.31
  -2   4  16  320.88   12.71
  -2   4  16  313.65   11.76
  -2   4  16  317.14   12.51
  -2   4  15  865.86   20.24
  -2   4  15  857.15   19.02
  -2   4  15  843.29   19.66
  -2   4  14   55.03    5.53
  -2   4  14   49.15    4.78
  -2   4  14   50.32    5.12
  -2   4  13  141.84    7.33
  -2   4  13  144.83    7.87
   2  -4 -13  131.49    7.89
  -2   4  13  142.36    7.76
  -2   4  12  193.87    8.23
  -2   4  12  196.27    8.99
   2  -4 -12  185.88    9.19
  -2   4  12  192.77    8.80
  -2   4  11   93.46    5.73
  -2   4  11   92.27    6.00
   2  -4 -11   96.53    6.48
  -2   4  11   91.48    6.01
  -2   4  10 1041.18   17.96
  -2   4  10 1023.04   19.21
   2  -4 -10  984.12   20.23
  -2   4  10  994.88   18.83
  -2   4   9   11.61    2.66
  -2   4   9    7.60    1.78
  -2   4   9   12.23    2.72
   2  -4  -9    6.77    2.00
  -2   4   8  277.83    9.57
  -2   4   8  270.35    8.53
  -2   4   8  275.19    9.51
  -2   4   7  389.38   11.14
   2  -4  -7  385.57   11.35
  -2   4   7  385.36    9.93
  -2   4   7  377.34   10.91
   2  -4  -6  129.09    6.53
  -2   4   6  130.28    6.51
  -2   4   6  131.01    5.71
  -2   4   6  132.36    6.65
   2  -4  -6  121.21    6.28
  -2   4   5 1959.45   24.79
   2  -4  -5 1951.80   24.92
  -2   4   5 1942.20   21.40
  -2   4   5 1961.16   24.46
   2  -4  -5 1971.47   25.19
   2  -4  -4 1782.91   23.65
   2  -4  -4 1755.13   19.70
  -2   4   4 1745.06   19.88
   2  -4  -4 1786.63   23.60
  -2   4   4 1813.36   23.47
   2  -4  -3  174.20    7.28
  -2   4   3  187.23    6.18
   2  -4  -3  176.24    6.01
  -2   4   3  201.94    7.87
   2  -4  -3  184.77    7.45
  -2   4   3  183.19    7.42
   2  -4  -2 1706.23   23.03
  -2   4   2 1711.07   18.85
   2  -4  -2 1721.03   19.02
  -2   4   2 1729.61   22.43
   2  -4  -2 1722.49   23.07
  -2   4   2 1779.08   23.74
   2  -4  -1    7.88    2.14
   2  -4  -1    8.76    1.56
   2  -4  -1    7.77    1.94
  -2   4   1    7.79    1.51
  -2   4   1   15.31    2.47
   2  -4   0  158.48    7.22
  -2   4   0  168.21    5.63
   2  -4   0  171.35    6.06
   2  -4   0  165.36    7.30
  -2   4   0  170.15    7.34
   2  -4   1 1630.91   23.49
   2  -4   1 1634.86   18.88
  -2   4  -1 1656.06   17.69
   2  -4   1 1609.76   23.21
  -2   4  -1 1637.54   22.49
   2  -4   2   48.57    3.30
   2  -4   2   44.39    3.92
  -2   4  -2   48.87    4.22
   2  -4   3  160.50    5.89
  -2   4  -3  150.22    7.02
   2  -4   3  146.68    7.25
   2  -4   4  952.63   14.53
   2  -4   4  966.82   17.99
  -2   4  -4  952.50   17.62
   2  -4   4  942.11   18.59
   2  -4   5  136.05    5.71
   2  -4   5  133.57    7.05
  -2   4  -5  142.93    7.25
   2  -4   6 1288.88   17.92
   2  -4   6 1273.93   21.49
  -2   4  -6 1265.09   21.20
   2  -4   7  151.27    6.35
   2  -4   7  144.62    7.37
  -2   4  -7  152.43    7.70
   2  -4   7  150.77    7.71
   2  -4   8  138.56    6.18
   2  -4   8  133.08    7.20
   2  -4   8  144.60    7.61
   2  -4   9 1232.59   19.17
   2  -4   9 1192.59   21.42
   2  -4   9 1252.82   22.42
   2  -4  10  236.28    9.74
   2  -4  10  247.90   10.18
   2  -4  11    2.54    2.00
   2  -4  11    1.82    2.02
   2  -4  12 1073.77   21.48
   2  -4  12 1132.40   22.35
   2  -4  13   50.61    4.94
   2  -4  13   50.34    5.18
   2  -4  14  302.55   11.90
   2  -4  14  312.97   12.37
   2  -4  15  489.89   15.39
   2  -4  15  519.88   16.22
   2  -4  16   12.03    3.08
   2  -4  17  295.74   12.60
   2  -4  18   35.95    5.03
   2  -4  19   31.87    5.01
   2  -4  20  392.24   15.41
   2  -4  21   15.11    3.89
   2  -4  22  276.43   13.74
   2  -4  23  230.46   12.83
   2  -4  24   12.23    4.15
   2  -4  25  112.49    9.85
   2  -4  26   86.04    8.83
   2  -4  27   72.29    8.20
   2  -4  28  105.96    9.98
   2  -4  29    3.55    3.88
  -2   3  31    3.03    4.76
  -2   3  30   14.26    5.34
  -2   3  29   14.22    5.61
  -2   3  28   19.79    5.87
  -2   3  27   51.29    7.19
  -2   3  26    4.11    4.03
  -2   3  25   77.77    8.39
  -2   3  24    7.15    4.16
  -2   3  23    8.28    4.08
  -2   3  22   34.88    5.46
  -2   3  21   10.77    3.66
  -2   3  20   72.64    7.30
  -2   3  19  177.55   10.37
  -2   3  18    4.17    2.70
  -2   3  17  131.12    8.31
  -2   3  17  130.06    8.39
  -2   3  16    9.23    3.11
  -2   3  16    9.54    3.20
  -2   3  15  109.95    7.53
   2  -3 -15  102.59    7.10
  -2   3  15  107.85    7.39
  -2   3  14  292.74   11.44
   2  -3 -14  286.69   11.16
  -2   3  14  287.58   11.28
  -2   3  13    1.04    1.94
  -2   3  13    4.52    2.30
   2  -3 -13    1.07    1.83
  -2   3  12  130.06    6.37
  -2   3  12  130.74    7.26
   2  -3 -12  126.88    7.10
  -2   3  12  132.82    7.42
  -2   3  11  455.53   11.50
  -2   3  11  454.74   13.06
   2  -3 -11  450.24   13.06
  -2   3  11  458.59   13.06
  -2   3  10  167.24    6.81
  -2   3  10  177.16    7.92
   2  -3 -10  173.73    7.94
  -2   3  10  169.96    7.85
  -2   3   9   16.87    2.80
   2  -3  -9   16.82    2.84
  -2   3   9   15.94    2.75
  -2   3   9   14.91    2.19
  -2   3   8   11.74    2.60
  -2   3   8   14.08    2.91
  -2   3   8    8.90    1.68
   2  -3  -8    9.66    2.15
   2  -3  -7  602.36   14.00
  -2   3   7  606.99   13.64
  -2   3   7  587.63   11.03
  -2   3   7  585.61   13.31
  -2   3   6  431.67   11.22
   2  -3  -6  418.09   11.29
  -2   3   6  415.37    8.53
  -2   3   6  430.58   11.19
   2  -3  -6  424.87   11.56
   2  -3  -5   10.36    1.94
  -2   3   5   18.26    2.56
  -2   3   5   16.40    1.90
  -2   3   5   15.62    2.37
   2  -3  -5   15.35    2.44
  -2   3   4  128.48    6.06
   2  -3  -4  129.38    6.18
  -2   3   4  128.28    4.45
  -2   3   4  130.73    5.33
  -2   3   4  130.90    6.13
   2  -3  -4  129.81    6.24
   2  -3  -3  957.15   16.60
  -2   3   3  963.52   16.77
   2  -3  -3  955.36   11.44
  -2   3   3  959.71   11.75
  -2   3   3  993.26   16.69
   2  -3  -3  962.65   16.74
  -2   3   3  999.81   14.82
   2  -3  -2  188.61    7.37
  -2   3   2  200.78    5.08
   2  -3  -2  180.59    4.87
  -2   3   2  192.96    7.45
   2  -3  -2  189.77    7.42
  -2   3   2  202.48    6.80
   2  -3  -1 1520.38   21.19
  -2   3   1 1598.49   14.01
   2  -3  -1 1501.86   14.43
   2  -3  -1 1550.50   21.35
  -2   3   1 1583.30   21.67
  -2   3   1 1617.75   19.38
   2  -3   0  383.57   10.66
   2  -3   0  384.38    7.34
  -2   3   0  414.14    6.91
   2  -3   0  391.94   10.68
  -2   3   0  419.00   10.01
   2  -3   1  622.56   13.87
   2  -3   1  637.57    9.50
   2  -3   1  633.84   13.90
   2  -3   1  649.84   12.94
  -2   3  -1  657.24   12.84
   2  -3   2  110.99    4.03
   2  -3   2  111.97    5.62
  -2   3  -2  113.01    5.56
   2  -3   2  110.06    5.98
   2  -3   3  379.06    7.78
   2  -3   3  351.34   10.83
  -2   3  -3  380.67   10.42
   2  -3   3  365.15   10.25
   2  -3   4   89.46    3.91
  -2   3  -4   86.81    5.10
   2  -3   4   84.47    5.38
   2  -3   4   85.51    5.05
   2  -3   5  152.73    5.28
   2  -3   5  151.24    6.76
   2  -3   6   26.49    2.97
   2  -3   6   30.60    3.38
   2  -3   7  115.62    6.20
   2  -3   7  121.65    6.56
   2  -3   8  338.71   10.43
   2  -3   8  354.67   11.00
   2  -3   9  761.08   16.02
   2  -3   9  772.33   16.71
   2  -3  10   45.63    4.20
   2  -3  10   51.20    4.56
   2  -3  11  285.04   10.31
   2  -3  11  292.78   10.79
   2  -3  12    9.80    2.47
   2  -3  12    5.27    2.27
   2  -3  13  368.87   12.11
  -2   3 -13  402.25   12.78
   2  -3  13  393.34   13.23
  -2   3 -14   36.18    4.17
   2  -3  14   32.44    4.37
   2  -3  14   30.68    3.92
   2  -3  15  340.86   12.44
   2  -3  15  381.79   13.79
  -2   3 -15  368.27   13.05
   2  -3  16   18.79    3.55
   2  -3  16   15.81    3.61
  -2   3 -16   13.22    2.86
   2  -3  17   22.79    3.80
   2  -3  18    8.47    2.78
   2  -3  19  335.84   13.62
   2  -3  20   13.01    3.87
   2  -3  21   16.87    4.18
   2  -3  22   13.97    3.70
   2  -3  23  204.69   11.68
   2  -3  24   54.59    6.47
   2  -3  25   17.55    4.01
   2  -3  26   11.62    4.05
   2  -3  27  190.39   12.55
   2  -3  28   -2.71    3.59
   2  -3  29   16.17    5.19
   2  -3  30    6.36    4.23
  -2   2  30   43.43    7.26
  -2   2  29    0.18    3.32
  -2   2  28    2.89    3.66
  -2   2  27   64.65    7.67
  -2   2  26   57.97    7.32
  -2   2  25    6.97    3.45
  -2   2  24  122.05    9.42
  -2   2  23   18.60    4.15
  -2   2  22   31.04    5.11
  -2   2  21    9.87    3.40
  -2   2  20   -0.76    2.97
  -2   2  19  294.26   12.81
  -2   2  18   97.49    7.34
  -2   2  17   63.31    6.40
   2  -2 -17   56.21    5.51
  -2   2  16  425.16   14.84
   2  -2 -16  414.97   13.84
  -2   2  16  427.88   14.84
  -2   2  15   10.14    3.52
  -2   2  15    7.82    2.80
   2  -2 -15    3.03    1.77
  -2   2  14  100.98    7.00
   2  -2 -14  103.31    6.59
  -2   2  14   96.69    6.89
  -2   2  13  281.03   11.07
   2  -2 -13  265.32   10.04
  -2   2  13  257.50   10.52
  -2   2  12    2.19    1.92
  -2   2  12    6.50    2.15
   2  -2 -12    7.38    2.22
  -2   2  11  739.26   16.71
   2  -2 -11  724.23   15.43
  -2   2  11  739.12   16.84
  -2   2  10  148.34    7.43
   2  -2 -10  150.76    6.90
  -2   2  10  141.03    7.18
  -2   2   9  122.03    6.45
   2  -2  -9  114.56    5.79
  -2   2   9  117.52    6.35
  -2   2   8  145.33    6.92
   2  -2  -8  143.87    6.46
  -2   2   8  150.00    7.09
  -2   2   7    3.05    1.70
  -2   2   7    3.43    1.14
  -2   2   7    0.38    1.51
   2  -2  -7    2.07    1.59
  -2   2   6   35.41    3.55
  -2   2   6   26.75    2.17
   2  -2  -6   34.84    3.63
  -2   2   6   35.92    3.64
   2  -2  -6   35.92    3.67
   2  -2  -6   39.57    3.50
  -2   2   6   32.32    2.24
   2  -2  -5 1541.41   21.09
  -2   2   5 1563.42   20.90
  -2   2   5 1519.32   13.62
   2  -2  -5 1554.03   21.53
  -2   2   5 1562.29   20.70
   2  -2  -4   39.70    3.70
  -2   2   4   42.40    3.57
  -2   2   4   41.96    3.62
  -2   2   4   43.34    2.03
   2  -2  -4   47.14    4.06
  -2   2   4   43.82    2.82
   2  -2  -3  938.29   15.93
  -2   2   3  937.19   15.58
  -2   2   3  946.57    8.51
  -2   2   3  928.44   15.36
  -2   2   3  953.55   12.29
   2  -2  -3  948.20   16.10
   2  -2  -2 1174.13   17.85
  -2   2   2 1190.56   17.79
  -2   2   2 1205.51    8.52
  -2   2   2 1217.35   17.78
   2  -2  -2 1188.44   17.93
  -2   2   2 1185.09   14.57
   2  -2  -1  316.22    9.19
   2  -2  -1  301.02    4.17
   2  -2  -1  336.95    8.12
   2  -2  -1  316.30    9.16
  -2   2   1  324.83    7.88
  -2   2   1  322.99    9.12
   2  -2   0    4.44    1.73
   2  -2   0    4.85    0.85
   2  -2   0    6.46    1.82
  -2   2   0    6.41    1.80
  -2   2   0    5.09    1.97
   2  -2   0    5.82    1.38
   2  -2   1   31.93    3.29
   2  -2   1   35.01    1.74
   2  -2   1   30.01    3.14
   2  -2   1   41.36    3.40
   2  -2   2   11.98    1.30
   2  -2   2   10.84    2.22
   2  -2   2    9.27    2.18
   2  -2   3 1843.17   23.73
   2  -2   3 1842.98   21.03
   2  -2   4  327.68   10.10
   2  -2   4  335.26    9.12
   2  -2   5  347.78    8.94
   2  -2   5  352.35    9.73
   2  -2   6  439.12   10.32
   2  -2   6  449.16   11.30
   2  -2   7  540.23   11.96
   2  -2   7  532.21   12.63
   2  -2   8   10.42    2.25
   2  -2   8   11.84    2.28
   2  -2   9  549.85   12.69
   2  -2  10  235.80    8.60
  -2   2 -10  238.11    8.84
   2  -2  11 1478.41   22.27
  -2   2 -11 1462.02   22.64
   2  -2  12   68.52    5.08
  -2   2 -12   72.11    5.32
   2  -2  13   35.83    4.11
  -2   2 -13   32.52    3.84
  -2   2 -14  219.49    9.41
   2  -2  14  209.34    9.25
   2  -2  15  162.79    8.34
  -2   2 -15  170.54    8.60
   2  -2  16   23.20    3.73
  -2   2 -16   37.19    4.74
   2  -2  17  347.21   13.01
  -2   2 -17  366.83   13.12
   2  -2  18   16.04    3.47
   2  -2  19  410.60   14.75
   2  -2  20   31.88    4.76
   2  -2  21    8.57    3.42
   2  -2  22   69.41    6.61
   2  -2  23   39.52    5.59
   2  -2  24   40.82    5.86
   2  -2  25  244.27   13.15
   2  -2  26    6.68    3.66
   2  -2  27  140.96   10.63
   2  -2  28   46.13    6.77
   2  -2  29    3.58    3.95
   2  -2  30   23.60    5.77
  -2   1  30   12.83    4.30
  -2   1  29    3.76    3.71
  -2   1  28   55.13    7.24
  -2   1  27    0.67    3.07
  -2   1  26    3.61    3.61
  -2   1  25   10.00    3.67
  -2   1  24    9.57    3.63
  -2   1  23   91.79    7.80
  -2   1  22   18.18    4.16
  -2   1  21    7.00    2.86
  -2   1  20  114.22    7.85
  -2   1  19   22.64    3.88
   2  -1 -18    5.03    2.42
  -2   1  18    5.02    2.54
  -2   1  17  352.79   12.63
   2  -1 -17  354.80   12.37
  -2   1  16   32.33    4.13
   2  -1 -16   29.50    3.68
  -2   1  15  150.00    7.82
   2  -1 -15  146.44    7.55
  -2   1  14  160.57    7.80
   2  -1 -14  164.98    7.76
  -2   1  13    8.98    3.08
   2  -1 -13    1.12    1.69
  -2   1  13    2.15    1.77
  -2   1  12  254.80   10.32
  -2   1  12  242.36    8.88
   2  -1 -12  251.52    9.23
  -2   1  12  254.25   10.38
  -2   1  11    1.75    2.29
   2  -1 -11    3.05    1.68
  -2   1  11    2.03    1.92
  -2   1  11    6.40    2.36
  -2   1  10   41.29    4.08
  -2   1  10   40.22    4.00
   2  -1 -10   44.52    3.67
  -2   1   9  337.60   10.79
   2  -1  -9  339.09    9.28
  -2   1   9  339.88   10.85
  -2   1   8  420.05   11.57
   2  -1  -8  406.28    9.66
  -2   1   8  399.22   11.20
  -2   1   8  379.17    5.24
  -2   1   7  104.38    5.70
   2  -1  -7  104.60    4.79
  -2   1   7  103.48    5.68
  -2   1   7   95.05    2.64
  -2   1   6  348.89    9.92
   2  -1  -6  344.81   10.05
   2  -1  -6  361.19    8.42
  -2   1   6  346.38    5.47
  -2   1   6  358.57   10.10
  -2   1   5  108.54    5.53
   2  -1  -5   97.21    5.31
   2  -1  -5  105.02    4.38
  -2   1   5   97.81    3.18
  -2   1   5  103.00    5.49
   2  -1  -5   95.10    5.32
  -2   1   4  633.90   12.84
   2  -1  -4  615.18   12.73
   2  -1  -4  624.12   12.89
  -2   1   4  625.96   12.65
   2  -1  -3  469.07   10.94
  -2   1   3  486.65   11.03
  -2   1   3  492.34   11.04
   2  -1  -3  480.00   11.12
   2  -1  -3  502.44    7.75
  -2   1   2  609.41   12.17
   2  -1  -2  602.29   12.14
  -2   1   2  609.28   12.01
   2  -1  -2  597.84   12.23
   2  -1  -2  609.69    8.79
  -2   1   1  856.07   14.51
   2  -1  -1  818.50   14.33
  -2   1   1  835.83   14.30
   2  -1  -1  832.36   14.46
   2  -1  -1  838.37   11.10
   2  -1   0  207.48    7.35
   2  -1   0  218.26    7.46
   2  -1   0  219.36    5.99
  -2   1   0  215.15    7.35
   2  -1   1    2.91    1.81
   2  -1   1    2.96    1.47
   2  -1   1    0.49    1.09
  -2   1  -1    4.69    1.94
   2  -1   2 1253.39   18.26
   2  -1   3  197.36    5.81
   2  -1   3  217.96    7.70
   2  -1   4    2.58    1.40
   2  -1   4    3.97    1.87
   2  -1   5  142.76    5.25
   2  -1   6  177.42    6.01
   2  -1   7  282.10    7.93
  -2   1  -7  292.57    8.16
   2  -1   8  153.81    6.13
  -2   1  -8  157.56    6.24
  -2   1  -9   56.45    4.13
   2  -1   9   53.44    3.88
  -2   1 -10 1119.64   17.92
   2  -1  10 1088.93   17.45
   2  -1  11   25.56    2.87
  -2   1 -11   24.71    3.00
   2  -1  12   81.41    5.30
  -2   1 -12   80.06    5.26
  -2   1 -13  262.14    9.65
   2  -1  13  261.78    9.71
  -2   1 -14  562.05   14.32
   2  -1  14  555.65   14.42
  -2   1 -15  189.71    8.67
   2  -1  15  185.01    8.79
   2  -1  16   60.99    5.13
  -2   1 -16   66.85    5.43
   2  -1  17   13.26    2.94
  -2   1 -17   14.09    3.28
   2  -1  18  233.73   10.73
  -2   1 -18  233.60   10.72
   2  -1  19   27.58    4.05
   2  -1  20   94.94    7.48
   2  -1  21  500.53   16.81
   2  -1  22  187.75   10.88
   2  -1  23   87.73    7.76
   2  -1  24   22.87    4.62
   2  -1  25    3.50    3.02
   2  -1  26   37.44    5.91
   2  -1  27   23.63    5.60
   2  -1  28   85.95    8.99
   2  -1  29  132.94   11.21
   2  -1  30   21.91    5.40
  -2   0  31    2.20    3.67
  -2   0  30   12.20    4.61
  -2   0  29   81.28    8.72
  -2   0  28   45.80    6.63
  -2   0  27   40.76    5.94
  -2   0  26   36.78    5.69
  -2   0  25   15.22    4.01
  -2   0  24   64.59    6.63
  -2   0  24   73.89    4.49
  -2   0  23   25.39    4.57
  -2   0  23   17.36    2.36
  -2   0  22    0.95    2.36
  -2   0  22    2.88    1.36
  -2   0  21  141.19    8.84
  -2   0  21  130.40    5.20
  -2   0  20  477.16   15.44
  -2   0  19   86.72    6.63
   2   0 -19   88.32    6.67
   2   0 -18    5.73    2.28
  -2   0  18    2.16    2.03
   2   0 -17   38.41    4.23
  -2   0  17   39.80    4.53
   2   0 -16   75.32    5.63
  -2   0  16   81.13    5.98
   2   0 -15  469.51   12.97
  -2   0  15  472.62   13.17
   2   0 -14  806.54   16.30
  -2   0  14  813.52   16.57
  -2   0  13  329.13   10.17
   2   0 -13  327.95   10.00
  -2   0  13  294.81    4.14
  -2   0  12  320.18    9.55
   2   0 -12  305.07    9.23
  -2   0  11  341.99    9.56
   2   0 -11  334.89    9.31
  -2   0  10   32.08    4.05
  -2   0  10   31.09    4.03
   2   0 -10   24.75    2.66
  -2   0  10   32.50    3.11
  -2   0   9   80.79    5.58
  -2   0   9   83.64    4.38
   2   0  -9   82.36    4.40
  -2   0   9   83.38    5.74
  -2   0   8    2.33    2.01
  -2   0   8    1.33    1.82
   2   0  -8    1.99    1.26
  -2   0   8    1.79    1.33
  -2   0   7  305.73    9.67
   2   0  -7  317.09    7.45
  -2   0   7  315.58    7.63
  -2   0   7  304.03    9.78
  -2   0   6 1408.37   20.15
   2   0  -6 1436.55   14.99
  -2   0   6 1392.16   20.01
  -2   0   5  846.06    9.09
  -2   0   5  839.69   15.02
   2   0  -5  812.70   14.74
   2   0  -5  845.83   10.55
   2   0  -5  829.60   15.12
   2   0  -5  835.69    6.77
  -2   0   5  859.94   15.17
  -2   0   4 1137.22    9.75
  -2   0   4 1121.20   16.85
   2   0  -4 1085.27   16.72
   2   0  -4 1148.09   11.57
  -2   0   4 1127.87   16.81
   2   0  -4 1124.18   17.15
   2   0  -4 1108.09    9.18
  -2   0   3  575.14    6.49
   2   0  -3  568.19   11.70
  -2   0   3  585.20   11.92
   2   0  -3  602.10    7.78
   2   0  -3  581.42   11.94
  -2   0   3  594.26   11.93
   2   0  -2  477.98   10.52
  -2   0   2  488.48   10.67
   2   0  -2  479.89    5.10
  -2   0   2  463.62    5.47
  -2   0   2  483.82   10.53
   2   0  -2  488.23   10.80
  -2   0   1  169.10    6.25
   2   0  -1  168.56    6.19
   2   0  -1  162.36    3.15
  -2   0   1  153.64    3.11
  -2   0   1  171.34    6.25
   2   0  -1  166.16    6.26
   2   0   0  398.98    9.50
   2   0   0  374.57    5.54
   2   0   0  400.87    9.59
  -2   0   0  400.63    9.58
   2   0   1  405.38    9.66
   2   0   1  403.51    6.20
   2   0   1  415.94    9.75
   2   0   1  403.71    6.20
  -2   0  -1  423.83    9.98
   2   0   2 1782.13   20.95
   2   0   2 1770.72   14.37
   2   0   2 1801.05   21.03
   2   0   3  334.21    6.30
   2   0   3  337.24    9.09
   2   0   4   88.87    3.56
  -2   0  -4   93.57    3.52
   2   0   4   88.86    4.85
   2   0   5    3.99    1.33
  -2   0  -5    3.66    1.24
   2   0   6   73.50    3.64
  -2   0  -6   79.67    3.77
   2   0   7  107.27    4.68
  -2   0  -7  110.92    4.66
   2   0   8    5.10    1.60
  -2   0  -8    5.33    1.60
  -2   0  -9   34.07    3.05
   2   0   9   32.00    3.08
   2   0  10 2946.26   28.55
  -2   0 -10 3009.45   28.37
   2   0  11  408.54   10.89
  -2   0 -11  420.38   11.01
   2   0  12    2.21    1.48
  -2   0 -12    5.49    1.94
   2   0  13   21.69    3.18
  -2   0 -13   22.14    3.02
  -2   0 -14  229.03    9.08
   2   0  14  228.59    9.15
   2   0  15   -0.51    1.85
  -2   0 -15    2.49    2.06
  -2   0 -16 1307.11   22.94
   2   0  16 1283.83   23.17
  -2   0 -17  113.93    7.23
   2   0  17  112.49    7.48
   2   0  18  271.53   11.32
  -2   0 -18  285.19   11.52
   2   0  19   25.67    4.18
   2   0  20  142.39    8.91
   2   0  21   21.75    4.19
   2   0  22   21.95    4.05
   2   0  23    1.08    2.70
   2   0  24  464.06   17.83
   2   0  25   35.77    5.92
   2   0  26  132.53   10.12
   2   0  27   13.72    4.48
   2   0  28   89.77    9.10
   2   0  29   -0.83    3.29
   2   0  30   11.25    4.45
  -2  -1  31   33.00    6.15
  -2  -1  30    7.05    3.86
  -2  -1  29   13.35    4.16
  -2  -1  28   19.13    4.55
  -2  -1  27    6.32    3.53
  -2  -1  26   38.39    5.88
  -2  -1  25   53.08    6.28
  -2  -1  24  142.40    9.44
  -2  -1  24  149.79    6.20
  -2  -1  23   38.50    5.13
  -2  -1  23   44.34    3.44
  -2  -1  22   56.78    5.90
  -2  -1  22   66.60    3.95
  -2  -1  21   47.23    5.20
  -2  -1  21   47.80    3.15
  -2  -1  20   66.59    5.80
  -2  -1  20   72.93    3.63
  -2  -1  19   42.98    4.74
   2   1 -19   38.09    4.42
  -2  -1  19   40.06    2.64
  -2  -1  18  249.52   10.42
   2   1 -18  252.08   10.26
  -2  -1  18  243.21    5.86
  -2  -1  17   24.14    3.51
   2   1 -17   24.52    3.44
  -2  -1  17   23.66    1.82
   2   1 -16  472.59   13.23
  -2  -1  16  473.58   13.21
   2   1 -15  275.00    9.74
  -2  -1  15  269.52    9.63
  -2  -1  14   76.51    5.03
   2   1 -14   80.99    5.19
  -2  -1  13   62.33    4.46
   2   1 -13   62.59    4.34
  -2  -1  12   20.63    2.57
   2   1 -12   23.12    2.87
   2   1 -11  192.51    6.87
  -2  -1  11  195.25    6.89
   2   1 -10  365.01    8.97
  -2  -1  10  365.12    8.94
  -2  -1   9   37.56    4.35
   2   1  -9   34.59    2.79
  -2  -1   9   35.51    2.90
  -2  -1   8  359.09    8.41
  -2  -1   8  359.58   11.03
   2   1  -8  357.55    7.75
  -2  -1   8  357.86    7.81
  -2  -1   8  365.74   11.15
  -2  -1   7   29.65    3.52
  -2  -1   7   34.65    2.57
  -2  -1   7   35.21    3.65
  -2  -1   7   35.42    2.42
   2   1  -7   35.63    2.47
  -2  -1   6  196.53    5.56
  -2  -1   6  196.38    7.59
   2   1  -6  209.60    5.06
  -2  -1   6  207.58    5.04
  -2  -1   6  193.69    7.66
  -2  -1   5  478.71    8.32
  -2  -1   5  491.60   11.54
   2   1  -5  512.25    7.03
  -2  -1   5  506.28    7.03
  -2  -1   5  483.88   11.53
   2   1  -4   33.19    2.38
  -2  -1   4   31.65    2.30
  -2  -1   4   34.17    3.42
   2   1  -4   34.45    1.73
  -2  -1   4   31.02    3.07
   2   1  -4   39.03    3.61
  -2  -1   3   19.57    2.67
   2   1  -3   20.88    1.86
   2   1  -3   20.08    2.40
  -2  -1   3   19.27    2.40
   2   1  -3   19.48    2.32
  -2  -1   3   17.54    1.83
   2   1  -3   24.14    1.31
  -2  -1   2 1592.65   19.00
   2   1  -2 1560.20   18.73
  -2  -1   2 1552.86   15.00
   2   1  -2 1605.63   14.64
   2   1  -2 1594.71   19.02
  -2  -1   2 1575.54   18.97
  -2  -1   1   10.33    1.91
   2   1  -1   11.18    1.71
   2   1  -1    6.00    1.19
  -2  -1   1    7.64    1.20
  -2  -1   1   10.63    2.06
   2   1  -1   10.15    1.64
  -2  -1   0   51.99    3.52
   2   1   0   53.12    3.53
   2   1   0   52.21    2.94
  -2  -1   0   50.18    2.76
  -2  -1   0   52.49    3.60
   2   1   0   62.35    3.86
   2   1   1  219.70    6.73
  -2  -1  -1  210.48    5.51
   2   1   1  216.59    5.71
  -2  -1  -1  221.94    6.98
   2   1   1  221.47    6.81
   2   1   2  584.40    9.78
   2   1   2  577.56   11.00
  -2  -1  -2  590.73    6.17
   2   1   2  593.97    6.31
   2   1   2  586.67   11.07
  -2  -1  -2  593.02   11.57
   2   1   3    2.30    1.40
   2   1   3    2.36    1.29
   2   1   3    9.71    1.47
  -2  -1  -3    5.24    0.95
   2   1   4  314.05    7.77
  -2  -1  -4  303.92    5.95
   2   1   4  319.58    6.05
   2   1   4  318.83    8.50
   2   1   5  145.75    5.52
  -2  -1  -5  135.70    4.33
   2   1   5  147.85    4.61
   2   1   5  145.09    5.93
   2   1   6  525.28   10.76
   2   1   6  528.95    9.33
  -2  -1  -6  526.75    9.19
   2   1   7   15.32    2.07
  -2  -1  -7   14.16    1.88
   2   1   8   83.48    4.35
  -2  -1  -8   82.89    4.15
   2   1   9   86.03    4.72
  -2  -1  -9   88.81    4.67
   2   1  10   35.27    3.26
  -2  -1 -10   37.33    3.22
   2   1  11    2.09    1.81
  -2  -1 -11    0.66    1.45
   2   1  12  706.37   15.20
  -2  -1 -12  708.47   14.74
   2   1  13    6.06    2.51
  -2  -1 -13    5.25    2.07
   2   1  14  564.21   14.95
  -2  -1 -14  553.08   14.01
   2   1  15   16.22    3.20
  -2  -1 -15   16.53    2.85
   2   1  16  309.02   11.68
  -2  -1 -16  296.44   11.05
   2   1  17   -0.08    1.89
  -2  -1 -17    2.95    2.13
   2   1  18   66.76    5.87
  -2  -1 -18   68.34    5.83
   2   1  19  157.65    9.18
   2   1  20  138.50    8.88
   2   1  21    3.90    2.62
   2   1  22  126.19    9.06
   2   1  23   16.54    4.39
   2   1  24   11.53    3.56
   2   1  25    5.64    3.48
   2   1  26    6.44    3.06
   2   1  27    5.89    3.63
   2   1  28  196.80   12.72
   2   1  29    2.06    3.43
   2   1  30    7.61    4.57
  -2  -2  32    7.27    4.54
  -2  -2  31    0.99    3.58
  -2  -2  30   60.81    7.54
  -2  -2  29   18.55    5.20
  -2  -2  28  108.84    9.25
  -2  -2  27    8.00    3.65
  -2  -2  26   13.99    3.97
  -2  -2  25   17.65    4.04
  -2  -2  24   44.37    5.84
  -2  -2  23   28.66    4.71
  -2  -2  22  307.70   13.02
  -2  -2  21   19.32    3.94
  -2  -2  20  207.38   10.00
  -2  -2  19    5.35    2.60
   2   2 -19    4.47    2.49
  -2  -2  18    7.73    2.56
   2   2 -18    5.87    2.41
   2   2 -17   41.70    4.25
  -2  -2  17   43.93    4.53
  -2  -2  16  410.45   12.31
   2   2 -16  409.29   12.23
  -2  -2  15  347.09   11.08
   2   2 -15  341.75   10.84
  -2  -2  14 1678.67   23.26
   2   2 -14 1688.19   23.03
   2   2 -13   30.34    3.32
  -2  -2  13   32.85    3.75
  -2  -2  12  363.15   10.79
  -2  -2  12  356.56    9.64
   2   2 -12  355.83    9.61
  -2  -2  11   93.61    5.30
  -2  -2  11   97.89    4.89
   2   2 -11   98.59    4.93
  -2  -2  10   53.75    4.09
   2   2 -10   55.13    3.51
  -2  -2  10   51.57    3.44
   2   2 -10   43.31    2.08
  -2  -2   9  102.63    5.28
   2   2  -9  101.17    4.36
  -2  -2   9  104.30    4.43
   2   2  -9   98.29    3.01
  -2  -2   8 1314.10   17.92
   2   2  -8 1307.36   14.64
  -2  -2   8 1312.06   14.44
  -2  -2   7   95.27    4.75
  -2  -2   7   95.06    5.65
   2   2  -7   99.06    3.78
  -2  -2   7  105.84    3.98
  -2  -2   7   92.16    5.82
  -2  -2   6  917.27   13.99
  -2  -2   6  920.29   16.49
   2   2  -6  923.33   10.21
  -2  -2   6  950.28   10.26
  -2  -2   6  886.19   16.45
  -2  -2   5  726.19   12.36
   2   2  -5  701.92   11.93
  -2  -2   5  721.22   14.10
   2   2  -5  695.59    8.20
  -2  -2   5  737.78    8.03
  -2  -2   5  711.08   14.23
   2   2  -4  126.07    5.21
  -2  -2   4  132.94    5.28
  -2  -2   4  136.35    6.06
  -2  -2   4  136.40    3.00
  -2  -2   4  135.27    6.20
  -2  -2   3   69.05    4.06
   2   2  -3   63.85    3.63
  -2  -2   3   70.83    3.99
  -2  -2   3   68.72    4.24
  -2  -2   2    9.36    1.67
   2   2  -2   10.35    1.69
   2   2  -2   11.01    1.79
  -2  -2   2   13.65    2.08
  -2  -2   2   10.99    1.90
   2   2  -2   10.61    1.69
   2   2  -1  279.44    7.52
  -2  -2   1  269.04    7.37
   2   2  -1  271.53    7.70
  -2  -2   1  275.97    7.42
   2   2  -1  276.06    7.64
  -2  -2   1  264.58    7.39
  -2  -2   0 1436.39   17.05
   2   2   0 1456.77   17.04
  -2  -2   0 1450.05   17.26
   2   2   0 1462.15   18.22
  -2  -2   0 1420.89   16.96
   2   2   0 1460.96   17.07
  -2  -2  -1  603.75   11.19
   2   2   1  599.53   11.67
   2   2   1  605.46   10.76
  -2  -2  -1  624.29    5.51
  -2  -2  -1  586.14   10.80
   2   2   1  599.71   10.69
   2   2   2  574.77   11.28
  -2  -2  -2  558.59   10.77
   2   2   2  559.84   10.34
  -2  -2  -2  572.48    6.52
   2   2   2  571.35   10.49
  -2  -2  -2  579.36   10.90
  -2  -2  -3  168.50    6.04
   2   2   3  175.22    6.36
   2   2   3  165.87    5.61
   2   2   3  163.77    4.02
  -2  -2  -3  160.89    4.09
   2   2   3  167.27    5.62
   2   2   4   46.11    3.53
  -2  -2  -4   43.68    2.55
   2   2   4   46.52    2.59
   2   2   4   48.66    3.30
   2   2   5   21.02    2.91
  -2  -2  -5   16.88    1.88
   2   2   5   17.24    1.94
   2   2   5   21.11    2.45
   2   2   6   29.71    3.11
  -2  -2  -6   24.36    2.32
   2   2   6   25.68    2.46
   2   2   6   29.60    2.96
   2   2   7  381.84   10.32
   2   2   7  354.52    8.41
  -2  -2  -7  359.04    8.32
   2   2   8  717.23   14.62
  -2  -2  -8  689.25   12.27
   2   2   8  669.86   12.32
   2   2   9  477.53   12.35
   2   2   9  441.61   10.64
  -2  -2  -9  447.03   10.43
   2   2  10  343.47   10.75
   2   2  10  313.77    9.48
  -2  -2 -10  321.97    9.35
   2   2  11    6.44    2.26
   2   2  11    6.01    1.92
  -2  -2 -11    7.75    2.26
   2   2  12    9.03    2.16
  -2  -2 -12   11.77    2.38
  -2  -2 -13    6.00    2.17
   2   2  13    8.12    2.40
  -2  -2 -14   96.18    6.10
   2   2  14   96.61    6.40
   2   2  15  323.98   11.64
  -2  -2 -15  316.45   11.22
   2   2  16  172.93    8.96
  -2  -2 -16  168.39    8.48
   2   2  17  233.00   10.65
  -2  -2 -17  242.88   10.39
   2   2  18  136.14    8.47
   2   2  19  139.09    8.78
   2   2  20   29.20    4.46
   2   2  21   20.57    4.17
   2   2  22   33.41    5.19
   2   2  23  264.10   13.30
   2   2  24  237.97   13.17
   2   2  25   44.49    6.20
   2   2  26    3.85    3.29
   2   2  27   11.16    3.90
   2   2  28   26.79    6.01
   2   2  29   62.88    7.94
   2   2  30   49.67    7.50
  -2  -3  32    8.09    4.30
  -2  -3  31   28.28    5.97
  -2  -3  30   10.90    4.39
  -2  -3  29    9.95    4.16
  -2  -3  28   36.37    5.95
  -2  -3  27  126.34    9.83
  -2  -3  26   38.53    5.69
  -2  -3  25   36.95    5.57
  -2  -3  24   14.12    3.72
  -2  -3  23   87.00    7.41
  -2  -3  22    9.80    3.22
  -2  -3  21    0.22    2.32
  -2  -3  20   46.74    5.05
   2   3 -19  293.83   11.65
  -2  -3  19  291.19   11.49
   2   3 -18   99.76    6.64
  -2  -3  18   98.95    6.55
  -2  -3  17   16.96    3.43
  -2  -3  17   18.13    3.11
   2   3 -17   14.42    2.91
  -2  -3  16   19.36    3.39
  -2  -3  16   17.09    2.81
   2   3 -16   17.17    3.03
  -2  -3  15   30.07    3.99
  -2  -3  15   29.65    3.39
   2   3 -15   29.59    3.43
  -2  -3  14   63.29    5.23
   2   3 -14   65.72    4.76
  -2  -3  14   58.36    4.29
  -2  -3  13  160.74    7.86
  -2  -3  13  155.19    6.65
   2   3 -13  163.19    6.88
  -2  -3  12   71.93    5.40
  -2  -3  12   64.22    4.20
   2   3 -12   68.79    4.36
   2   3 -12   63.03    3.20
  -2  -3  11  482.13   12.94
  -2  -3  11  470.78   10.58
   2   3 -11  489.61   10.78
   2   3 -11  472.69    8.55
  -2  -3  10   44.45    4.08
  -2  -3  10   50.10    3.49
   2   3 -10   47.33    3.40
   2   3 -10   44.74    2.69
  -2  -3   9  154.31    7.08
  -2  -3   9  151.64    5.43
   2   3  -9  151.29    5.42
  -2  -3   8   17.48    2.91
  -2  -3   8   20.15    2.12
   2   3  -8   16.78    2.00
  -2  -3   7  294.54    9.22
   2   3  -7  288.37    9.23
  -2  -3   7  294.08    6.67
   2   3  -6   77.57    4.74
  -2  -3   6   78.16    4.79
  -2  -3   6   78.48    5.07
  -2  -3   6   87.13    3.39
  -2  -3   6   77.25    5.29
   2   3  -5  472.42   11.35
  -2  -3   5  501.77   11.79
  -2  -3   5  489.03   11.63
  -2  -3   5  489.54    7.32
  -2  -3   5  474.03   11.65
   2   3  -4   87.87    5.17
  -2  -3   4   82.17    4.90
  -2  -3   4   93.85    5.31
  -2  -3   4   96.57    3.08
  -2  -3   4   89.59    5.17
   2   3  -3  718.07   14.01
  -2  -3   3  722.27   14.28
  -2  -3   3  682.83   12.70
  -2  -3   3  722.04    7.78
  -2  -3   3  696.38   12.85
   2   3  -2   66.30    4.69
  -2  -3   2   66.34    4.59
  -2  -3   2   57.35    3.59
  -2  -3   2   47.49    1.90
  -2  -3   2   57.33    3.65
   2   3  -1    3.02    1.71
  -2  -3   1    9.01    1.69
  -2  -3   1    7.20    1.65
  -2  -3   1    8.34    1.70
   2   3   0  413.16   11.03
  -2  -3   0  401.76   10.39
  -2  -3   0  390.81    8.59
   2   3   0  415.85    8.86
  -2  -3   0  381.08    5.79
  -2  -3   0  374.64    8.35
   2   3   0  416.03    8.83
  -2  -3  -1  271.08    8.76
   2   3   1  274.44    9.28
   2   3   1  272.88    7.07
  -2  -3  -1  258.51    5.18
   2   3   1  272.59    7.10
  -2  -3  -1  257.90    6.92
   2   3   2  197.75    7.89
  -2  -3  -2  179.21    7.12
   2   3   2  174.00    5.53
  -2  -3  -2  169.72    4.50
   2   3   2  177.16    5.62
  -2  -3  -3 1003.06   16.79
   2   3   3 1014.04   17.38
   2   3   3 1001.25   13.15
  -2  -3  -3 1027.87   11.74
   2   3   3  989.07   13.04
   2   3   4    1.47    1.17
  -2  -3  -4    1.84    1.78
   2   3   4    0.54    1.21
   2   3   4    4.82    2.46
  -2  -3  -4    3.31    1.52
   2   3   5  357.40   10.77
   2   3   5  334.09    7.96
  -2  -3  -5  335.41    7.83
   2   3   5  333.13    7.83
   2   3   6   47.54    4.31
  -2  -3  -6   40.87    3.10
   2   3   6   39.63    3.00
   2   3   7  331.95   10.69
   2   3   7  313.41    8.41
  -2  -3  -7  300.87    8.09
   2   3   7  316.83    8.22
   2   3   8   54.93    4.73
  -2  -3  -8   52.40    3.79
   2   3   8   52.08    3.80
   2   3   9   33.01    3.29
  -2  -3  -9   34.66    3.26
   2   3   9   33.84    3.78
   2   3  10   94.17    6.13
  -2  -3 -10   84.66    5.15
   2   3  10   86.38    5.45
   2   3  11 1188.85   22.01
  -2  -3 -11 1142.95   19.12
   2   3  11 1152.31   19.49
   2   3  12  108.74    6.81
  -2  -3 -12  103.81    6.14
   2   3  12  104.83    6.41
  -2  -3 -13   38.57    4.04
   2   3  13   35.06    4.09
   2   3  13   39.82    4.69
  -2  -3 -14   17.78    3.17
   2   3  14   18.61    3.42
   2   3  14   19.25    3.68
   2   3  15   48.99    4.96
  -2  -3 -15   51.47    4.97
   2   3  15   50.33    5.26
  -2  -3 -16    2.47    1.82
   2   3  16    4.48    2.66
   2   3  16   -0.70    2.64
   2   3  17   62.55    5.74
  -2  -3 -17   64.30    5.77
   2   3  17   64.21    6.05
   2   3  18   16.68    3.91
   2   3  18   13.91    3.46
   2   3  19  619.28   20.05
   2   3  19  550.68   17.75
   2   3  20   80.12    7.72
   2   3  20   76.95    7.27
   2   3  21    7.99    3.35
   2   3  21   12.54    4.06
   2   3  22    2.92    2.70
   2   3  22    4.67    3.65
   2   3  23   17.72    4.93
   2   3  23   13.04    4.53
   2   3  24   45.62    6.55
   2   3  24   55.44    7.32
   2   3  25  316.82   16.78
   2   3  25  284.33   14.73
   2   3  26    4.36    3.56
   2   3  26    7.87    4.75
   2   3  27  120.45   11.15
   2   3  27  106.94    9.83
   2   3  28   17.73    6.38
   2   3  28   10.40    4.26
   2   3  29   -1.26    3.63
  -2  -4  31  110.85   10.15
  -2  -4  30    8.25    4.00
  -2  -4  29   16.63    4.54
  -2  -4  28    3.04    3.59
  -2  -4  27    2.12    2.78
  -2  -4  26    7.23    3.45
  -2  -4  25  121.24    9.33
  -2  -4  24    5.03    3.32
  -2  -4  23  471.40   16.42
  -2  -4  22   52.24    5.63
  -2  -4  21    5.28    2.76
  -2  -4  20    3.43    2.22
  -2  -4  19   29.67    4.00
   2   4 -19   24.85    3.77
  -2  -4  18    0.11    1.92
   2   4 -18    2.16    2.04
  -2  -4  17  571.71   17.14
  -2  -4  17  534.01   14.55
   2   4 -17  556.45   14.99
  -2  -4  16   70.25    6.08
  -2  -4  16   66.17    5.29
   2   4 -16   71.71    5.32
  -2  -4  15  622.47   17.07
   2   4 -15  617.38   14.77
  -2  -4  15  606.23   14.52
  -2  -4  14  246.46   10.67
   2   4 -14  246.00    8.85
  -2  -4  14  244.47    9.07
   2   4 -14  236.58    7.39
  -2  -4  13   25.67    3.73
  -2  -4  13   22.47    2.96
   2   4 -13   22.54    2.49
   2   4 -13   26.48    3.14
  -2  -4  12   12.11    2.76
  -2  -4  12    7.40    2.07
   2   4 -12    7.59    1.83
   2   4 -12   12.24    2.01
  -2  -4  11    1.90    1.72
  -2  -4  11    1.77    1.46
   2   4 -11    1.26    1.51
   2   4 -11    1.66    1.30
  -2  -4  10   83.54    5.77
  -2  -4  10   82.82    4.43
  -2  -4   9  840.56   17.79
  -2  -4   9  845.38   13.59
  -2  -4   8  946.25   18.66
   2   4  -8  931.73   18.54
  -2  -4   8  965.43   13.85
  -2  -4   7 1315.30   21.74
   2   4  -7 1247.95   21.01
  -2  -4   7 1307.20   15.56
   2   4  -6   10.66    3.66
  -2  -4   6    6.76    3.12
  -2  -4   6    8.95    3.55
  -2  -4   6   12.91    2.63
  -2  -4   6   14.31    4.35
   2   4  -5  543.93   13.62
  -2  -4   5  569.90   14.03
  -2  -4   5  551.35   12.34
  -2  -4   5  571.85    9.32
  -2  -4   5  529.55   12.15
   2   4  -4  516.43   13.33
  -2  -4   4  524.24   13.50
  -2  -4   4  507.51   11.33
  -2  -4   4  510.55    8.48
  -2  -4   4  511.55   11.42
  -2  -4   3  474.92   10.45
  -2  -4   3  505.95   13.17
   2   4  -3  466.53   12.58
  -2  -4   3  471.79   10.38
  -2  -4   2  701.51   11.90
   2   4  -2  678.67   15.42
  -2  -4   2  707.42   15.40
  -2  -4   2  700.17   11.93
  -2  -4   1 2808.63   23.57
   2   4  -1 2903.81   32.36
  -2  -4   1 2928.86   32.01
  -2  -4   1 2830.79   23.46
  -2  -4   0  608.03   10.46
   2   4   0  669.41   16.00
  -2  -4   0  630.99   14.78
  -2  -4   0  593.11   10.23
  -2  -4  -1  282.17    9.91
   2   4   1  266.35    9.99
  -2  -4  -1  260.96    6.53
  -2  -4  -2  110.47    6.31
   2   4   2  100.47    6.11
   2   4   2  101.24    4.08
  -2  -4  -2   93.41    3.89
   2   4   2   99.08    4.01
  -2  -4  -3   47.89    4.18
   2   4   3   46.79    4.42
   2   4   3   48.67    2.78
  -2  -4  -3   49.18    3.08
   2   4   3   45.42    2.69
   2   4   4  158.55    7.65
  -2  -4  -4  163.76    7.55
   2   4   4  155.11    4.75
  -2  -4  -4  148.31    5.39
   2   4   4  151.02    4.72
  -2  -4  -5  348.08   11.31
   2   4   5  345.20   11.55
   2   4   5  312.65    6.72
  -2  -4  -5  325.22    8.40
   2   4   5  300.45    6.65
  -2  -4  -6  730.11   16.51
   2   4   6  748.67   17.31
   2   4   6  710.74   10.58
  -2  -4  -6  686.57   12.80
   2   4   6  687.31   10.54
   2   4   7 1531.49   24.98
  -2  -4  -7 1469.16   19.82
   2   4   7 1459.80   16.28
   2   4   8  182.30    8.86
  -2  -4  -8  173.93    7.27
   2   4   8  164.48    5.63
   2   4   9   52.05    4.94
  -2  -4  -9   47.99    4.15
   2   4   9   50.50    3.41
  -2  -4 -10   42.80    3.82
   2   4  10   48.08    4.95
  -2  -4 -11    4.31    2.03
   2   4  11    9.90    2.95
   2   4  12  268.17   11.48
  -2  -4 -12  241.56    9.37
   2   4  13  511.93   15.85
   2   4  13  492.19   14.40
  -2  -4 -13  482.74   13.70
   2   4  14   77.41    6.70
   2   4  14   66.51    5.92
  -2  -4 -14   65.68    5.51
   2   4  15  667.92   19.17
  -2  -4 -15  624.89   16.90
   2   4  15  622.37   17.23
   2   4  16  221.83   11.37
  -2  -4 -16  210.50   10.07
   2   4  16  204.64   10.24
   2   4  17   25.84    4.26
   2   4  17   27.56    4.52
   2   4  18   35.79    5.08
   2   4  18   40.95    5.36
   2   4  19    7.00    3.31
   2   4  19    6.70    3.64
   2   4  20   10.69    3.73
   2   4  20    8.47    3.73
   2   4  21  219.53   12.93
   2   4  21  186.55   11.31
   2   4  22  189.91   12.37
   2   4  22  164.25   10.86
   2   4  23  186.85   12.82
   2   4  23  167.51   11.37
   2   4  24   33.06    5.69
   2   4  24   29.94    5.62
   2   4  25   25.26    5.50
   2   4  25   20.81    5.29
   2   4  26   13.85    5.10
   2   4  26    9.15    3.64
   2   4  27    7.54    4.70
   2   4  27    9.30    4.56
   2   4  28   26.40    5.95
  -2  -5  31    8.65    4.70
  -2  -5  30   -2.28    3.22
  -2  -5  29   47.69    7.11
  -2  -5  28    2.99    3.06
  -2  -5  27   21.84    4.75
  -2  -5  26   24.14    4.85
  -2  -5  25    3.53    3.06
  -2  -5  24    1.64    2.62
  -2  -5  23    4.67    3.01
  -2  -5  22    3.64    2.64
  -2  -5  21  137.30    8.60
  -2  -5  20   44.84    5.18
  -2  -5  19   62.79    5.76
  -2  -5  18   21.97    3.31
   2   5 -18   26.35    3.80
  -2  -5  17   89.42    6.30
   2   5 -17   92.60    6.36
  -2  -5  16   24.80    3.62
   2   5 -16   14.70    2.96
   2   5 -16   16.89    2.61
  -2  -5  15   52.93    4.68
   2   5 -15   52.77    4.20
  -2  -5  14   83.10    6.84
  -2  -5  14   76.00    5.31
   2   5 -14   80.44    4.99
  -2  -5  13  522.65   16.14
  -2  -5  13  487.60   12.58
   2   5 -13  483.72   11.97
  -2  -5  12  424.75   14.18
  -2  -5  12  419.38   11.49
   2   5 -12  394.66   10.80
  -2  -5  11   23.10    3.94
  -2  -5  11   22.66    2.97
   2   5 -11   17.89    2.57
  -2  -5  10   50.62    5.16
  -2  -5  10   45.33    3.77
  -2  -5   9  212.60    9.98
   2   5  -9  203.48    9.74
  -2  -5   9  205.46    7.25
  -2  -5   8    4.32    1.76
   2   5  -8    2.47    2.30
  -2  -5   8    2.67    1.54
  -2  -5   7  146.73    8.07
   2   5  -7  136.73    7.88
  -2  -5   7  142.82    5.60
   2   5  -6  149.33    8.21
  -2  -5   6  159.74    8.11
  -2  -5   6  154.84    6.93
  -2  -5   6  161.52    5.88
   2   5  -5  618.35   16.48
  -2  -5   5  661.98   16.68
  -2  -5   5  632.22   13.02
  -2  -5   5  626.21   11.22
  -2  -5   5  615.85   13.02
  -2  -5   4  293.70    8.76
   2   5  -4  280.86   11.20
  -2  -5   4  317.06   11.64
  -2  -5   4  284.48    8.63
  -2  -5   3   85.86    4.57
  -2  -5   3   90.16    6.45
   2   5  -3   76.11    5.94
  -2  -5   3   85.68    4.62
  -2  -5   2  141.21    5.29
   2   5  -2  130.50    7.56
  -2  -5   2  137.26    7.48
  -2  -5   2  143.39    5.38
   2   5  -1   28.51    3.80
  -2  -5   1   28.79    3.41
  -2  -5   1   32.84    2.53
  -2  -5   1   31.34    2.54
   2   5   0   18.79    2.85
  -2  -5   0   17.42    1.76
  -2  -5   0   17.50    2.60
  -2  -5   0   17.67    1.76
  -2  -5  -1  623.49   16.01
   2   5   1  589.56   16.12
  -2  -5  -1  622.27    9.42
  -2  -5  -2  199.91    9.31
   2   5   2  187.73    9.37
  -2  -5  -2  178.73    6.77
  -2  -5  -3  130.52    7.42
   2   5   3  120.44    7.50
  -2  -5  -3  112.13    5.41
   2   5   4   74.51    6.18
  -2  -5  -4   76.26    5.74
  -2  -5  -4   67.72    4.35
   2   5   5    2.75    1.00
  -2  -5  -5    4.81    2.17
   2   5   5    1.71    2.19
   2   5   5    3.03    0.92
  -2  -5  -5    1.92    1.24
  -2  -5  -6   56.61    5.17
   2   5   6   43.32    2.22
   2   5   6   46.33    4.80
  -2  -5  -6   44.71    3.63
   2   5   6   40.80    2.16
  -2  -5  -7  182.44    9.13
   2   5   7  173.28    9.37
   2   5   7  163.96    4.52
  -2  -5  -7  162.53    7.27
   2   5   7  162.65    4.53
   2   5   8    3.36    1.08
   2   5   8    2.39    1.05
   2   5   8    5.63    2.81
  -2  -5  -8    2.78    1.61
   2   5   9  250.41   11.24
  -2  -5  -9  224.70    8.92
   2   5   9  222.30    5.90
   2   5  10  209.38   10.22
  -2  -5 -10  191.84    8.62
   2   5  10  201.94    6.09
   2   5  11  297.72   12.48
  -2  -5 -11  286.52   10.89
   2   5  11  289.00    7.86
  -2  -5 -12   10.46    2.77
   2   5  12    6.63    2.64
   2   5  13  163.99    9.68
  -2  -5 -13  148.32    8.05
   2   5  14   75.28    6.83
  -2  -5 -14   70.63    5.85
   2   5  15   25.39    4.64
   2   5  16   48.19    6.04
   2   5  17  239.85   12.77
   2   5  18   91.35    8.15
   2   5  19    1.32    2.71
   2   5  20   23.98    4.84
   2   5  21   81.52    8.17
   2   5  22    0.66    2.94
   2   5  23   -0.70    3.50
   2   5  24   61.60    7.85
   2   5  25   67.20    8.59
  -2  -6  30    6.24    3.75
  -2  -6  29    6.18    3.52
  -2  -6  28    4.12    3.38
  -2  -6  27   22.66    5.01
  -2  -6  26   45.75    6.16
  -2  -6  25    9.06    3.57
  -2  -6  24   85.10    7.78
  -2  -6  23    2.83    2.45
  -2  -6  22   13.57    3.70
  -2  -6  21   14.12    3.31
  -2  -6  20   41.77    5.08
  -2  -6  19    5.35    2.74
  -2  -6  18   86.46    6.72
   2   6 -18   86.14    5.92
  -2  -6  17   39.69    4.66
   2   6 -17   41.60    4.30
  -2  -6  16  183.88    8.89
   2   6 -16  178.24    8.30
  -2  -6  15   64.56    5.47
   2   6 -15   68.76    5.41
  -2  -6  14   73.77    5.62
   2   6 -14   70.95    5.38
  -2  -6  13   90.28    5.89
   2   6 -13   91.33    5.92
  -2  -6  12  123.70    6.62
   2   6 -12  123.88    6.91
  -2  -6  11    6.87    2.45
  -2  -6  10  676.37   19.01
   2   6 -10  609.71   18.47
  -2  -6  10  635.21   14.12
  -2  -6   9   13.16    3.69
   2   6  -9   14.45    4.24
  -2  -6   9   14.77    3.13
  -2  -6   8  100.65    7.32
   2   6  -8   77.95    6.65
  -2  -6   8   92.35    5.12
  -2  -6   7  196.03   10.02
   2   6  -7  180.96    9.83
  -2  -6   7  198.88    7.47
  -2  -6   6   29.18    4.35
  -2  -6   6   25.85    3.58
   2   6  -6   25.49    4.45
  -2  -6   6   22.73    2.84
  -2  -6   5   51.07    3.82
  -2  -6   5   57.31    5.62
   2   6  -5   45.59    5.25
  -2  -6   5   53.65    4.02
  -2  -6   5   45.03    3.39
  -2  -6   4   75.05    4.25
  -2  -6   4   72.69    5.86
   2   6  -4   58.47    5.66
  -2  -6   4   73.91    4.19
  -2  -6   3   13.37    2.36
  -2  -6   3   20.81    2.30
   2   6  -3   18.49    3.49
  -2  -6   3   17.85    2.08
  -2  -6   2  783.18   11.72
   2   6  -2  752.33   19.57
  -2  -6   2  809.39   19.44
  -2  -6   2  780.13   11.75
  -2  -6   1   83.05    3.72
   2   6  -1   74.16    7.11
  -2  -6   1   91.12    7.03
  -2  -6   1   77.87    3.66
   2   6   0  147.16    8.73
  -2  -6   0  193.29    9.51
  -2  -6   0  172.03    4.62
  -2  -6  -1  163.19    8.86
   2   6   1  142.53    8.73
  -2  -6  -2   76.27    6.31
   2   6   2   75.51    6.83
  -2  -6  -3   56.80    5.42
   2   6   3   53.15    5.74
  -2  -6  -3   48.21    4.09
   2   6   4  226.76   11.32
  -2  -6  -4  231.76   10.65
  -2  -6  -4  205.78    8.23
  -2  -6  -5    4.11    1.84
  -2  -6  -5    3.45    2.66
   2   6   5    6.44    3.10
   2   6   6  225.98   11.29
  -2  -6  -6  205.73    8.62
   2   6   7   39.09    5.25
  -2  -6  -7   37.90    4.23
   2   6   8   40.97    5.22
  -2  -6  -8   37.74    4.31
   2   6   9  202.71   10.96
   2   6   9  168.77    3.40
  -2  -6  -9  183.84    8.76
   2   6   9  166.53    3.31
   2   6  10    2.58    0.97
   2   6  10    3.30    1.04
   2   6  10    1.27    2.26
  -2  -6 -10    4.03    2.56
   2   6  11   54.61    2.66
   2   6  11   56.79    6.22
  -2  -6 -11   50.14    5.08
   2   6  11   54.95    2.68
   2   6  12  258.66   12.80
  -2  -6 -12  244.71   10.94
   2   6  12  233.72    5.91
   2   6  13    4.65    3.64
  -2  -6 -13    4.29    2.80
   2   6  13    5.62    1.63
   2   6  14  182.74   11.11
   2   6  14  172.18    6.24
   2   6  15   61.46    7.04
   2   6  16  104.66    8.92
   2   6  17   81.81    8.13
   2   6  18   38.08    5.70
   2   6  19   31.95    5.44
   2   6  20  202.43   13.13
   2   6  21    4.99    4.07
   2   6  22    6.31    4.38
   2   6  23   17.73    4.84
   2   6  24    3.21    3.63
  -2  -7  30   14.88    4.75
  -2  -7  29   22.48    5.57
  -2  -7  28   15.91    4.60
  -2  -7  27   12.23    4.25
  -2  -7  26    3.67    3.47
  -2  -7  25    4.15    3.20
  -2  -7  24   19.76    4.84
  -2  -7  23   15.43    4.03
  -2  -7  22  130.60    9.35
  -2  -7  21   38.54    5.34
  -2  -7  20   13.50    3.63
  -2  -7  19   60.75    6.11
   2   7 -19   59.36    5.62
  -2  -7  18    3.30    2.19
   2   7 -18    9.38    2.91
  -2  -7  17    5.57    2.59
   2   7 -17    3.57    2.30
  -2  -7  16   82.21    6.40
   2   7 -16   89.13    6.55
  -2  -7  15   12.45    2.97
   2   7 -15   16.76    3.51
  -2  -7  14  319.75   11.85
   2   7 -14  320.90   12.18
  -2  -7  13  166.95    8.44
   2   7 -13  161.76    8.72
  -2  -7  12   34.76    4.03
   2   7 -12   30.40    4.02
  -2  -7  11   63.39    5.14
   2   7 -10   11.43    3.78
  -2  -7  10   10.72    2.78
   2   7  -9    1.95    2.16
  -2  -7   9    3.25    1.95
   2   7  -8  472.04   16.92
  -2  -7   8  508.93   13.18
   2   7  -7  119.83    9.12
  -2  -7   7  127.32    6.83
  -2  -7   6   77.67    4.98
   2   7  -6   74.53    7.06
  -2  -7   6   73.29    4.94
  -2  -7   6   79.22    4.91
  -2  -7   5    3.39    1.60
   2   7  -5    4.86    2.89
  -2  -7   5    6.42    1.71
  -2  -7   4    1.79    1.47
   2   7  -4   -0.38    2.20
  -2  -7   4    2.56    1.39
  -2  -7   3    3.43    1.39
  -2  -7   3    0.79    1.06
   2   7  -3   -1.53    2.37
   2   7  -2    1.55    2.43
  -2  -7   2    8.75    1.46
  -2  -7   2    9.42    1.31
   2   7  -1   33.23    4.58
  -2  -7   1   42.99    2.24
   2   7   0  325.33   13.85
   2   7   1   56.65    6.39
   2   7   2  155.24    9.83
  -2  -7  -3   33.36    4.23
   2   7   3   39.21    5.60
   2   7   4  127.70    9.33
  -2  -7  -4  113.32    6.91
  -2  -7  -5    0.70    1.81
   2   7   5    1.66    2.82
  -2  -7  -6    6.13    2.36
   2   7   6    8.17    3.36
  -2  -7  -7   12.67    2.79
   2   7   7   12.10    3.80
   2   7   8  185.42   11.39
  -2  -7  -8  168.12    8.77
  -2  -7  -9    4.40    2.40
   2   7   9    6.11    3.15
  -2  -7 -10    4.22    2.57
   2   7  10    2.36    2.60
   2   7  11    5.22    3.28
   2   7  12   15.94    4.36
   2   7  13   23.43    4.98
   2   7  14   25.67    4.90
   2   7  15   23.42    4.94
   2   7  16   92.00    8.71
   2   7  17    2.56    3.18
   2   7  18   -8.06    3.64
   2   7  19    3.61    3.50
   2   7  20   20.06    5.30
   2   7  21   21.17    4.81
   2   7  22   11.64    4.78
  -2  -8  28    3.32    3.72
  -2  -8  27   30.93    5.92
  -2  -8  26   26.77    5.20
  -2  -8  25   50.15    6.67
  -2  -8  24    5.20    3.65
  -2  -8  23    5.64    2.90
  -2  -8  22   11.92    3.84
  -2  -8  21    6.30    3.38
  -2  -8  20   20.97    4.29
   2   8 -20   28.15    4.58
  -2  -8  19   77.37    6.84
   2   8 -19   86.89    7.19
  -2  -8  18   -0.15    2.57
   2   8 -18   12.28    3.41
  -2  -8  17   52.72    5.54
   2   8 -17   50.58    5.58
  -2  -8  16   19.19    3.78
   2   8 -16   20.31    3.72
  -2  -8  15   -0.42    2.29
   2   8 -15   -1.75    2.18
   2   8 -14    1.08    2.42
  -2  -8  14   -2.07    2.20
  -2  -8  13   56.81    5.58
   2   8 -13   53.46    5.60
  -2  -8  12   43.93    4.97
   2   8 -12   44.23    5.36
  -2  -8  11  153.35    8.36
   2   8 -10    8.69    3.54
  -2  -8  10    9.46    2.81
   2   8  -9   21.97    4.83
  -2  -8   9   34.99    4.01
   2   8  -8   49.28    6.40
  -2  -8   8   49.86    4.65
  -2  -8   7    3.80    1.87
   2   8  -7    0.91    2.66
  -2  -8   7    4.31    2.26
  -2  -8   7    2.00    1.98
  -2  -8   6   10.53    2.02
  -2  -8   6   12.55    2.10
   2   8  -6    7.04    3.35
  -2  -8   6    9.70    2.57
  -2  -8   5    9.42    2.03
  -2  -8   5    9.39    1.99
   2   8  -5    7.01    3.20
  -2  -8   4    4.87    1.54
   2   8  -4    0.53    2.38
  -2  -8   4    4.53    1.49
  -2  -8   3   58.80    3.09
   2   8  -3   55.54    6.58
  -2  -8   3   62.59    3.23
   2   8  -2   75.80    7.43
  -2  -8   2   79.09    2.92
   2   8  -1   64.82    7.15
   2   8   0  196.95   11.96
   2   8   1    5.87    3.37
   2   8   2   11.04    3.50
   2   8   3   45.39    6.02
  -2  -8  -4   10.29    2.84
   2   8   4   19.38    4.96
   2   8   5   90.15    8.33
  -2  -8  -5   84.11    6.56
   2   8   6  149.61   10.89
  -2  -8  -6  151.74    8.81
  -2  -8  -7    2.25    2.74
   2   8   7    0.09    2.61
   2   8   8  190.51   12.49
   2   8   9    7.45    4.06
   2   8  10   14.96    4.05
   2   8  11  171.51   11.82
   2   8  12    8.57    3.92
   2   8  13   88.63    8.84
   2   8  14  151.77   11.27
   2   8  15   -1.61    2.95
   2   8  16   41.59    6.55
   2   8  17   18.02    5.02
   2   8  18   15.69    4.96
   2   8  19   93.01    9.63
  -2  -9  27   -0.91    3.32
  -2  -9  26    4.79    3.76
  -2  -9  25   13.46    4.47
  -2  -9  24   17.43    4.75
  -2  -9  23   49.81    6.58
  -2  -9  22    5.99    3.50
  -2  -9  21   27.25    4.78
   2   9 -21   24.29    4.79
  -2  -9  20   25.17    4.75
   2   9 -20   33.61    5.22
  -2  -9  19   -0.44    3.36
   2   9 -19    7.23    3.60
  -2  -9  18    4.52    3.14
   2   9 -18   -0.40    2.54
  -2  -9  17   11.13    3.59
   2   9 -17    7.01    3.17
   2   9 -16   16.26    4.20
  -2  -9  16   12.95    3.78
  -2  -9  15  122.21    8.32
   2   9 -15  130.98    9.31
  -2  -9  14   11.55    3.52
   2   9 -14   15.57    3.94
  -2  -9  13   15.01    3.35
   2   9 -13   17.58    4.05
  -2  -9  12   71.86    6.41
   2   9 -12   72.53    7.22
   2   9 -11    5.38    3.60
  -2  -9  11   -0.18    2.29
   2   9 -10    5.94    3.86
  -2  -9  10    0.52    2.35
   2   9  -9   56.81    7.27
  -2  -9   9   64.79    5.82
  -2  -9   8    2.50    2.16
   2   9  -8    3.01    2.77
  -2  -9   8    7.62    2.43
  -2  -9   8    0.26    2.29
  -2  -9   7   82.11    4.96
   2   9  -7   70.85    8.02
  -2  -9   7   78.94    6.14
  -2  -9   7   82.48    4.89
  -2  -9   6   25.05    2.88
  -2  -9   6   20.87    2.57
   2   9  -6   18.31    4.54
  -2  -9   6   16.11    3.21
  -2  -9   5   17.59    2.21
   2   9  -5   11.11    3.45
  -2  -9   5   13.08    2.00
  -2  -9   4  154.91    4.92
   2   9  -4  151.71   11.34
  -2  -9   4  151.33    4.84
   2   9  -3   15.16    4.60
  -2  -9   3   13.41    1.28
   2   9  -2   -4.94    3.91
   2   9  -1  183.19   12.06
   2   9   0   27.93    5.83
   2   9   1  117.77   10.06
   2   9   2  182.98   12.48
   2   9   3    0.31    3.09
   2   9   4   38.45    6.03
   2   9   5   36.98    6.15
   2   9   6    7.76    4.14
   2   9   7  141.05   11.12
   2   9   8   21.07    4.98
   2   9   9   16.26    4.95
   2   9  10   63.83    7.91
   2   9  11   20.79    5.35
   2   9  12   20.62    5.71
   2   9  13   48.99    7.21
   2   9  14    4.70    3.57
   2   9  15  104.63   10.67
   2   9  16   12.19    4.80
  -2 -10  25    6.06    3.75
  -2 -10  24   31.26    5.72
  -2 -10  23   -1.62    3.29
  -2 -10  22    7.22    3.61
   2  10 -22   10.84    3.99
  -2 -10  21    3.75    3.47
   2  10 -21    3.29    3.26
  -2 -10  20   31.50    5.38
   2  10 -20   49.07    6.75
  -2 -10  19   19.47    4.53
   2  10 -19   18.38    4.79
  -2 -10  18   90.91    8.38
   2  10 -18   87.01    8.77
  -2 -10  17   16.59    4.27
   2  10 -17   15.04    4.41
  -2 -10  16   38.33    5.42
   2  10 -16   45.62    6.50
   2  10 -15   33.43    5.62
  -2 -10  15   25.16    4.39
   2  10 -14   32.91    5.66
  -2 -10  14   38.59    5.53
  -2 -10  13   18.26    4.33
   2  10 -13   20.67    4.65
  -2 -10  12  129.28    9.04
   2  10 -12  122.12    9.81
   2  10 -11    7.60    4.08
  -2 -10  11    3.48    2.92
   2  10 -11    8.52    3.63
   2  10 -10  114.48   10.95
  -2 -10  10  129.92    8.65
   2  10  -9   82.00    9.46
  -2 -10   9   88.97    7.58
   2  10  -8   77.38    8.97
  -2 -10   8   67.86    6.44
   2  10  -7    8.51    3.84
  -2 -10   7    3.55    2.41
   2  10  -6   77.02    8.76
  -2 -10   6   75.49    6.15
   2  10  -5    2.63    2.91
   2  10  -4   88.90    9.22
   2  10  -3   35.22    6.04
   2  10  -2   96.78    9.47
   2  10  -1  108.25   10.04
   2  10   0  120.96   10.59
   2  10   1   14.56    5.44
   2  10   2  100.21    9.66
   2  10   3    6.44    3.90
   2  10   4   62.29    7.77
   2  10   5   61.42    7.84
   2  10   6   51.43    7.50
   2  10   7   53.36    7.76
   2  10   8   49.97    7.80
   2  10   9    4.91    4.49
   2  10  10   10.35    4.45
   2  10  11    8.07    4.56
   2  10  12   33.11    6.89
  -2 -11  22    0.34    3.48
  -2 -11  21    5.53    3.26
   2  11 -21   10.68    4.21
  -2 -11  20    1.56    3.70
   2  11 -20    2.95    3.50
  -2 -11  19    0.30    3.01
   2  11 -19   -2.31    3.82
  -2 -11  18   13.70    4.29
   2  11 -18   18.79    5.06
  -2 -11  17    6.38    3.10
   2  11 -17    9.71    3.99
  -2 -11  16   12.22    4.04
   2  11 -16   25.99    5.64
   2  11 -15   -0.37    3.02
  -2 -11  15   -2.26    2.97
  -2 -11  14   13.68    3.78
   2  11 -14   14.57    4.50
  -2 -11  13   41.30    5.80
   2  11 -13   32.64    5.88
  -2 -11  12    1.34    2.73
   2  11 -12    5.97    4.02
   2  11 -11    3.08    3.47
  -2 -11  11    1.29    2.52
   2  11 -11   11.01    4.46
   2  11 -10   32.66    7.36
  -2 -11  10   30.18    4.92
   2  11  -9    4.82    3.57
  -2 -11   9   -1.23    2.58
   2  11  -8   22.66    5.39
  -2 -11   8   13.81    3.63
   2  11  -7   19.83    5.48
  -2 -11   7   16.99    3.99
   2  11  -6    9.13    4.12
  -2 -11   6    3.65    2.67
   2  11  -5   28.87    5.98
   2  11  -4    2.65    3.05
   2  11  -3    3.62    4.10
   2  11  -2    6.40    3.56
   2  11  -1    0.65    3.46
   2  11   0   23.84    5.78
   2  11   1    9.95    4.56
   2  11   2    2.23    3.26
   2  11   3   17.23    5.62
   2  11   4   16.04    5.52
   2  11   5    0.42    3.37
   2  11   6   13.99    5.43
   2  11   7    6.95    4.28
   2  12 -18    9.69    4.34
   2  12 -17   39.18    7.20
   2  12 -16    8.78    4.52
   2  12 -15   23.32    5.94
  -2 -12  14   -0.17    2.95
   2  12 -14    0.28    3.87
  -2 -12  13   49.73    6.37
   2  12 -13   64.18    8.31
   2  12 -12   15.25    5.26
  -2 -12  12    1.65    3.57
  -2 -12  11   94.59    8.49
   2  12 -11  116.06   10.71
  -2 -12  10   37.38    6.14
   2  12 -10   44.52    7.32
  -2 -12   9   34.72    5.77
  -2 -12   8   -1.38    2.96
  -2 -12   7   20.60    4.16
  -2 -12   6   -5.07    3.35
  -2 -12   5   50.58    6.18
  -3  12   0   -0.27    3.52
  -3  11  12    7.77    4.84
  -3  11  11   31.07    6.73
  -3  11  10   34.27    6.50
  -3  11   9    7.20    4.35
  -3  11   8    2.23    4.60
  -3  11   7    4.90    3.46
  -3  11   7    5.99    4.61
  -3  11   6   18.57    4.48
  -3  11   6    9.49    4.87
  -3  11   5   18.61    4.25
  -3  11   5   25.94    6.09
  -3  11   4   -0.18    2.80
  -3  11   4    1.28    3.39
  -3  11   3   45.15    6.13
  -3  11   3   42.51    7.14
  -3  11   2   33.79    5.32
  -3  11   2   34.70    6.42
  -3  11   1    2.56    3.32
  -3  11   1   -5.39    4.47
  -3  11   0    2.50    2.98
  -3  11   0   -1.97    4.33
  -3  11  -1   -1.00    3.31
  -3  11  -1    3.59    3.52
  -3  11  -2   26.63    6.17
   3 -11   3   29.13    4.75
  -3  11  -3   30.15    6.10
   3 -11   4    7.29    3.72
  -3  11  -4    1.67    3.83
   3 -11   5   71.63    7.22
  -3  11  -5   62.62    8.30
   3 -11   6   45.41    5.97
  -3  11  -6   53.27    8.17
   3 -11   7    3.31    3.43
  -3  11  -7    1.22    3.87
   3 -11   8    1.03    3.18
  -3  11  -8    4.39    4.39
   3 -11   9    3.12    3.10
  -3  11  -9    8.41    4.67
  -3  10  12   -0.67    2.72
  -3  10  12   10.18    5.47
  -3  10  11    3.87    3.16
  -3  10  11    6.69    4.24
  -3  10  10   77.89    7.48
  -3  10  10   80.47    9.06
  -3  10   9   58.93    6.58
  -3  10   9   46.25    7.07
  -3  10   8   48.25    6.25
  -3  10   8   53.29    7.49
  -3  10   7  114.20    8.74
  -3  10   7  108.16    9.91
  -3  10   6    3.56    2.87
  -3  10   6    4.71    3.39
   3 -10  -5   40.80    5.02
  -3  10   5   28.66    4.64
  -3  10   5   32.29    5.28
   3 -10  -4   53.03    5.68
  -3  10   4   35.44    4.96
  -3  10   4   48.57    7.06
   3 -10  -3   15.36    3.89
  -3  10   3   11.22    3.72
  -3  10   3   11.28    3.65
   3 -10  -2  176.59   10.07
  -3  10   2  160.99   10.15
  -3  10   2  176.45   12.53
   3 -10  -1  181.33   10.04
  -3  10   1  153.85    9.92
  -3  10   1  183.75   12.85
   3 -10   0   10.48    3.08
  -3  10   0    4.21    2.51
  -3  10   0   11.88    4.66
   3 -10   1   75.92    6.79
  -3  10  -1   60.27    6.19
  -3  10  -1   68.92    7.88
   3 -10   2    1.44    2.40
  -3  10  -2   -4.32    3.08
   3 -10   3   18.94    4.51
  -3  10  -3   16.43    4.67
   3 -10   4  142.00    9.53
  -3  10  -4  143.03   11.27
   3 -10   5   24.34    5.07
  -3  10  -5   36.41    6.93
   3 -10   6  211.39   12.04
  -3  10  -6  215.92   13.91
   3 -10   7  139.33   10.12
  -3  10  -7  144.55   11.47
   3 -10   8    9.18    4.05
  -3  10  -8    8.90    4.46
  -3  10  -9   78.14    8.76
   3 -10   9   70.15    8.12
  -3  10 -10   31.42    6.28
   3 -10  10   19.86    4.35
  -3  10 -11   11.69    4.61
   3 -10  11    9.93    4.89
   3 -10  12  143.43   11.62
  -3  10 -12  152.03   11.95
   3 -10  13   13.03    5.11
   3 -10  14   40.21    6.62
   3 -10  15   42.94    7.13
  -3   9  16    1.17    3.18
  -3   9  15    7.05    3.58
  -3   9  14   48.29    6.05
  -3   9  13   40.35    5.57
  -3   9  12    5.13    2.85
  -3   9  11   50.45    5.88
  -3   9  11   47.99    6.54
  -3   9  10   32.71    4.84
  -3   9  10   33.96    5.76
  -3   9   9    3.15    2.59
  -3   9   9    5.75    3.47
  -3   9   8    4.43    2.96
  -3   9   8    0.60    2.73
  -3   9   7   18.58    3.79
  -3   9   7   18.85    4.79
   3  -9  -6   95.59    7.82
  -3   9   6   93.09    7.27
  -3   9   6   95.14    8.79
   3  -9  -5   44.57    5.05
  -3   9   5   40.35    5.08
  -3   9   5   45.38    6.13
   3  -9  -4    6.75    2.58
  -3   9   4    2.03    2.45
  -3   9   4   11.87    3.91
   3  -9  -3   67.64    6.44
  -3   9   3   56.37    5.79
  -3   9   3   60.85    7.23
   3  -9  -2    3.36    2.84
  -3   9   2    6.10    2.75
  -3   9   2   -2.14    2.73
   3  -9  -1   -0.18    2.54
  -3   9   1   -0.51    2.08
  -3   9   1    2.02    3.08
   3  -9   0    4.12    2.56
  -3   9   0   -0.69    2.42
  -3   9   0   -1.55    3.15
   3  -9   1    7.57    3.04
  -3   9  -1    6.67    2.72
  -3   9  -1   15.37    4.24
   3  -9   2   67.66    6.52
  -3   9  -2   74.54    7.60
   3  -9   3   17.66    3.60
  -3   9  -3   33.61    5.61
   3  -9   4   -1.85    2.48
  -3   9  -4    1.95    3.26
   3  -9   5   29.43    4.69
  -3   9  -5   38.27    6.07
   3  -9   6   -1.19    2.54
  -3   9  -6    6.31    3.62
  -3   9  -7   31.30    5.68
  -3   9  -8   41.50    6.30
  -3   9  -9    9.50    3.87
   3  -9   9   11.79    3.96
  -3   9 -10   59.35    7.30
   3  -9  10   61.94    7.73
   3  -9  11   68.31    7.98
  -3   9 -11   70.78    7.86
   3  -9  12    2.48    3.69
   3  -9  13   -3.04    3.04
   3  -9  14    3.49    3.81
   3  -9  15   16.75    4.80
   3  -9  16   30.80    5.81
   3  -9  17    3.41    4.04
   3  -9  18   37.95    6.99
   3  -9  19   23.02    5.79
  -3   8  20    6.90    3.76
  -3   8  19   42.10    6.12
  -3   8  18   84.52    8.07
  -3   8  18   80.90    7.75
  -3   8  17   -2.94    3.34
  -3   8  17    1.00    3.90
  -3   8  16  101.91    8.33
  -3   8  16   88.35    7.75
  -3   8  15    2.21    2.59
  -3   8  15    5.36    3.43
  -3   8  14   12.49    3.44
  -3   8  14   10.35    3.67
  -3   8  13   12.69    3.50
  -3   8  13   12.24    4.00
  -3   8  12   45.76    5.40
  -3   8  12   36.36    4.92
  -3   8  11   20.76    3.91
  -3   8  11   21.82    4.51
  -3   8  10  254.24   11.51
  -3   8  10  236.50   12.26
  -3   8  10  246.80   12.07
  -3   8   9    2.22    2.34
  -3   8   9    6.84    3.20
  -3   8   8   66.05    5.85
  -3   8   8   59.68    6.30
  -3   8   7   -0.86    1.93
   3  -8  -7    4.31    2.83
  -3   8   7    2.04    3.04
   3  -8  -6   70.85    6.10
  -3   8   6   69.12    5.92
  -3   8   6   70.69    6.97
   3  -8  -6   67.83    6.17
   3  -8  -5   83.91    6.67
  -3   8   5   87.74    6.52
   3  -8  -5   69.45    5.98
   3  -8  -5   71.93    6.32
  -3   8   5   85.86    7.78
   3  -8  -4  159.67    9.27
  -3   8   4  143.99    8.09
   3  -8  -4  123.53    7.76
   3  -8  -4  156.68    9.17
  -3   8   4  151.73    9.96
   3  -8  -3   27.70    4.18
   3  -8  -3   22.65    3.70
  -3   8   3   27.02    3.85
   3  -8  -3   32.50    4.65
  -3   8   3   36.51    5.67
   3  -8  -2  193.18   10.02
  -3   8   2  184.98    9.07
   3  -8  -2  179.41    9.20
   3  -8  -2  196.15   10.16
  -3   8   2  206.31   11.69
   3  -8  -1   -2.59    2.30
   3  -8  -1    1.34    2.46
  -3   8   1   -1.95    2.19
   3  -8  -1    5.83    2.73
  -3   8   1    6.21    3.78
   3  -8   0  210.66   10.73
   3  -8   0  199.43    9.63
  -3   8   0  192.12    9.22
   3  -8   0  213.67   10.73
  -3   8   0  214.17   11.94
   3  -8   1   19.54    3.27
   3  -8   1   22.86    4.18
  -3   8  -1   17.91    3.17
   3  -8   1   22.51    4.06
  -3   8  -1   27.08    4.70
   3  -8   2   -1.64    1.95
   3  -8   2    6.24    3.21
  -3   8  -2    8.68    4.03
   3  -8   3  146.90    9.43
   3  -8   3  140.06    8.25
  -3   8  -3  147.54    9.94
   3  -8   4   80.25    7.22
   3  -8   4   75.28    6.27
  -3   8  -4   85.21    7.57
   3  -8   5  122.38    9.09
   3  -8   5  128.11    8.39
  -3   8  -5  131.44    9.75
   3  -8   6  302.75   12.53
  -3   8  -6  311.29   14.35
   3  -8   7    6.66    2.60
  -3   8  -7   15.08    4.08
   3  -8   8   33.50    4.78
  -3   8  -8   22.83    4.71
  -3   8  -9   42.13    5.84
   3  -8   9   36.13    5.59
  -3   8 -10   18.44    4.38
   3  -8  10   13.03    3.74
   3  -8  11  117.93    9.48
   3  -8  12   85.13    8.15
   3  -8  13   16.69    4.76
   3  -8  14   78.38    7.84
   3  -8  15    8.11    4.19
   3  -8  16   -0.94    3.13
   3  -8  17   15.18    4.49
   3  -8  18   10.81    4.64
   3  -8  19  126.47   10.75
   3  -8  20   60.15    7.68
   3  -8  21    3.95    4.09
   3  -8  22   24.12    5.83
  -3   7  23   25.59    5.57
  -3   7  23   22.42    4.91
  -3   7  22   55.64    7.21
  -3   7  22   56.70    7.17
  -3   7  21    5.71    3.20
  -3   7  21   12.04    4.50
  -3   7  20   63.64    7.00
  -3   7  20   51.93    6.42
  -3   7  19    7.76    3.48
  -3   7  19    2.21    3.00
  -3   7  18    3.74    2.93
  -3   7  18    4.90    3.41
  -3   7  17   -0.75    2.41
  -3   7  17    1.48    3.17
  -3   7  16    4.35    2.74
  -3   7  16    4.25    3.46
  -3   7  15   45.89    5.29
  -3   7  15   46.49    5.93
  -3   7  14  126.86    8.56
  -3   7  14  130.70    8.91
  -3   7  13    5.75    2.58
  -3   7  13    5.25    2.89
  -3   7  12  121.40    7.83
  -3   7  12  121.50    8.46
  -3   7  11   86.28    6.47
  -3   7  11   83.52    7.12
  -3   7  10    7.68    2.47
  -3   7  10   11.22    3.66
  -3   7   9   56.99    5.21
  -3   7   9   53.72    5.62
  -3   7   9   51.53    5.65
  -3   7   8    1.35    1.89
  -3   7   8    0.98    2.64
  -3   7   8    2.67    2.57
  -3   7   7   33.89    4.11
   3  -7  -7   28.05    4.16
   3  -7  -7   26.96    4.25
  -3   7   7   27.55    4.70
  -3   7   7   29.18    4.59
   3  -7  -6  169.37    9.28
  -3   7   6  181.25    8.41
   3  -7  -6  182.00    9.60
  -3   7   6  176.92   10.02
   3  -7  -5    4.42    2.29
   3  -7  -5   -0.34    2.83
  -3   7   5   10.08    2.58
  -3   7   5    3.97    2.63
   3  -7  -4   14.49    3.29
   3  -7  -4    7.69    2.25
   3  -7  -4   13.36    3.23
  -3   7   4   12.65    2.44
  -3   7   4   13.98    3.79
   3  -7  -3    8.71    2.86
   3  -7  -3    6.03    1.81
  -3   7   3    6.34    2.04
   3  -7  -3   11.58    2.95
  -3   7   3    9.56    3.40
   3  -7  -2   38.39    4.16
   3  -7  -2   44.38    4.98
   3  -7  -2   49.15    5.26
  -3   7   2   40.38    3.97
  -3   7   2   52.76    5.80
   3  -7  -1  142.14    8.79
   3  -7  -1  126.49    7.19
  -3   7   1  128.48    6.74
   3  -7  -1  141.94    8.59
  -3   7   1  137.56    8.84
   3  -7   0   11.35    3.34
   3  -7   0    7.34    1.79
  -3   7   0   12.22    2.27
   3  -7   0   13.93    3.04
  -3   7   0   15.31    3.45
   3  -7   1   17.38    3.80
   3  -7   1   10.67    2.45
   3  -7   1   20.64    3.76
  -3   7  -1   22.07    4.28
   3  -7   2  126.97    8.46
   3  -7   2  115.61    6.86
   3  -7   2  131.49    8.40
  -3   7  -2  127.00    8.48
   3  -7   3   30.41    4.56
   3  -7   3   27.67    3.86
   3  -7   3   32.99    4.66
  -3   7  -3   30.01    4.49
   3  -7   4    6.50    3.36
   3  -7   4    5.88    2.58
   3  -7   4    7.60    3.39
  -3   7  -4    6.66    3.23
   3  -7   5  116.70    7.11
  -3   7  -5  132.98    8.84
   3  -7   6  127.35    7.81
  -3   7  -6  124.04    8.91
   3  -7   7  407.54   13.39
  -3   7  -7  405.03   15.51
   3  -7   8   59.41    5.37
  -3   7  -8   59.54    6.17
   3  -7   9   12.40    3.12
   3  -7   9    6.80    2.92
   3  -7  10    9.07    3.03
   3  -7  10    4.18    3.36
   3  -7  11  108.80    7.40
   3  -7  11  104.47    8.41
   3  -7  12    4.59    2.94
   3  -7  13   49.75    6.34
   3  -7  14   11.58    4.13
   3  -7  15   77.51    7.83
   3  -7  16    8.92    3.52
   3  -7  17    4.92    3.60
   3  -7  18   69.56    7.83
   3  -7  19   28.97    5.35
   3  -7  20   10.47    4.40
   3  -7  21  150.46   11.35
   3  -7  22   37.28    6.57
   3  -7  23   28.33    6.24
   3  -7  24   28.76    6.05
  -3   6  27   37.38    6.41
  -3   6  26   -0.47    3.31
  -3   6  25    3.16    3.76
  -3   6  25    6.72    4.54
  -3   6  24    6.70    3.89
  -3   6  24    6.96    4.06
  -3   6  23    9.31    3.91
  -3   6  23    5.02    4.07
  -3   6  22   54.13    6.75
  -3   6  22   54.02    7.25
  -3   6  21   51.35    6.23
  -3   6  21   54.56    6.99
  -3   6  20   52.11    6.09
  -3   6  20   54.24    6.76
  -3   6  19  108.12    8.43
  -3   6  19  102.63    8.65
  -3   6  18   26.68    4.59
  -3   6  18   21.67    4.91
  -3   6  17    5.44    2.78
  -3   6  17    6.71    3.29
  -3   6  16   10.00    3.19
  -3   6  16   10.35    3.42
  -3   6  15   13.42    3.01
  -3   6  15   14.09    3.57
  -3   6  14  122.13    7.61
  -3   6  14  127.56    8.78
  -3   6  13  174.69    8.71
  -3   6  13  171.15    9.86
  -3   6  12  185.45    8.81
  -3   6  12  171.55    9.73
  -3   6  11  211.74   10.79
  -3   6  11  213.91    9.28
  -3   6  11  205.08   10.38
  -3   6  10   32.97    3.95
  -3   6  10   35.97    4.87
  -3   6  10   37.57    4.89
  -3   6  10   36.59    4.80
  -3   6   9    6.05    2.08
  -3   6   9    6.52    2.25
  -3   6   9    5.93    2.53
  -3   6   8    8.25    2.52
   3  -6  -8    3.04    2.70
   3  -6  -8    0.32    2.08
  -3   6   8    5.59    2.63
  -3   6   8    7.26    3.02
   3  -6  -7  250.59   11.10
  -3   6   7  258.03    9.18
  -3   6   7  244.08   10.57
   3  -6  -7  250.51   11.08
  -3   6   7  258.19   11.53
   3  -6  -6  837.96   20.09
  -3   6   6  851.29   16.55
   3  -6  -6  829.97   20.17
  -3   6   6  853.26   20.54
  -3   6   6  824.61   19.16
   3  -6  -5  492.20   15.38
  -3   6   5  479.51   12.08
   3  -6  -5  491.19   15.45
  -3   6   5  477.84   15.37
  -3   6   5  483.99   14.84
   3  -6  -4  187.62    9.55
  -3   6   4  177.27    7.19
   3  -6  -4  154.28    7.06
  -3   6   4  189.33    9.19
   3  -6  -4  182.20    9.29
   3  -6  -3  187.30    9.45
  -3   6   3  188.25    7.26
   3  -6  -3  163.79    7.03
   3  -6  -3  192.70    9.68
  -3   6   3  203.31    9.66
   3  -6  -2   24.06    3.59
   3  -6  -2   15.93    2.31
   3  -6  -2   24.11    3.55
  -3   6   2   21.63    2.38
  -3   6   2   27.12    4.06
   3  -6  -1   82.16    6.44
   3  -6  -1   66.33    4.63
  -3   6   1   78.25    4.59
   3  -6  -1   80.42    6.44
  -3   6   1   84.29    6.55
   3  -6   0  225.89   10.64
  -3   6   0  244.28    8.20
   3  -6   0  200.78    7.95
   3  -6   0  236.94   10.91
  -3   6   0  230.83   10.51
   3  -6   1  351.26   13.35
   3  -6   1  306.65    9.67
   3  -6   1  360.07   13.34
  -3   6  -1  363.24   13.05
   3  -6   2  559.51   16.91
   3  -6   2  554.70   13.48
   3  -6   2  563.46   16.81
  -3   6  -2  577.49   16.49
   3  -6   3  563.39   17.20
   3  -6   3  559.44   13.76
   3  -6   3  550.06   16.83
  -3   6  -3  555.69   16.27
   3  -6   4   16.00    2.60
   3  -6   4   16.36    3.44
   3  -6   4   25.17    4.18
  -3   6  -4   23.46    3.82
   3  -6   5   77.74    5.43
  -3   6  -5   76.28    6.48
   3  -6   5   73.51    6.66
   3  -6   6    6.79    2.21
  -3   6  -6    6.26    3.09
   3  -6   6    6.66    3.02
   3  -6   7  277.00   10.17
  -3   6  -7  266.68   11.75
   3  -6   8  293.65   10.70
   3  -6   8  262.61   12.04
   3  -6   9  262.73   10.26
   3  -6   9  233.49   11.41
   3  -6  10  639.37   16.34
   3  -6  10  584.57   18.14
   3  -6  11  302.60   11.40
   3  -6  11  277.71   12.71
   3  -6  12   17.71    3.40
   3  -6  12   20.97    4.48
   3  -6  13   97.44    6.90
   3  -6  13   85.87    7.33
   3  -6  14    4.16    2.83
   3  -6  15   18.43    4.36
   3  -6  16  196.68   11.47
   3  -6  17   86.32    7.75
   3  -6  18  214.88   12.07
   3  -6  19   94.22    8.46
   3  -6  20    8.87    3.83
   3  -6  21   10.76    3.94
   3  -6  22    4.79    3.14
   3  -6  23   40.62    6.68
   3  -6  24  161.44   11.83
   3  -6  25   14.88    4.85
   3  -6  26   22.94    5.90
  -3   5  29   11.95    5.45
  -3   5  28   16.42    5.11
  -3   5  28    5.00    4.20
  -3   5  27   12.39    4.22
  -3   5  27    8.16    4.64
  -3   5  26   31.13    6.03
  -3   5  26   30.19    6.19
  -3   5  25   12.76    4.28
  -3   5  25   18.65    4.97
  -3   5  24    7.21    3.37
  -3   5  24    9.44    4.26
  -3   5  23   24.24    4.91
  -3   5  23   29.18    5.51
  -3   5  22    7.76    3.56
  -3   5  22    7.83    3.80
  -3   5  21    6.67    3.09
  -3   5  21    2.90    3.62
  -3   5  20    9.91    3.27
  -3   5  20    6.70    3.33
  -3   5  19    0.70    2.33
  -3   5  19   -3.19    2.74
  -3   5  18   92.44    7.47
  -3   5  18   99.48    8.35
  -3   5  17   57.06    5.65
  -3   5  17   55.84    6.32
  -3   5  16   31.30    4.20
  -3   5  16   32.37    5.14
  -3   5  15  108.26    6.88
  -3   5  15  102.55    7.91
  -3   5  14   15.82    2.98
  -3   5  14   18.37    3.70
  -3   5  13   14.22    2.80
  -3   5  13   11.63    3.34
  -3   5  12   -1.95    2.42
  -3   5  12    0.16    1.52
  -3   5  12    3.36    2.37
  -3   5  11    4.63    2.55
  -3   5  11    2.73    1.71
  -3   5  11    1.59    2.10
  -3   5  10  190.68    9.91
  -3   5  10  186.57    7.71
  -3   5  10  171.16    7.93
  -3   5  10  177.73    9.30
  -3   5   9  121.34    7.92
  -3   5   9  121.60    6.20
  -3   5   9  116.99    6.63
  -3   5   9  116.01    7.50
  -3   5   8   40.51    4.90
   3  -5  -8   41.28    4.79
  -3   5   8   41.33    4.51
  -3   5   8   40.69    3.58
   3  -5  -8   47.19    5.10
  -3   5   8   40.58    4.02
   3  -5  -7  250.81   10.94
  -3   5   7  260.67    8.34
   3  -5  -7  248.87   10.91
  -3   5   7  252.27    9.57
  -3   5   7  250.97   10.79
  -3   5   6   31.62    2.87
   3  -5  -6   36.85    4.44
   3  -5  -6   33.98    4.16
  -3   5   6   31.14    4.04
  -3   5   6   39.43    4.21
   3  -5  -5   71.91    5.93
  -3   5   5   74.32    4.23
   3  -5  -5   74.77    6.06
  -3   5   5   77.25    6.26
  -3   5   5   71.77    5.32
   3  -5  -4  157.61    8.70
  -3   5   4  159.26    5.90
  -3   5   4  157.47    8.75
  -3   5   4  164.69    8.13
   3  -5  -4  156.26    8.68
   3  -5  -3    5.21    2.38
   3  -5  -3   -0.48    1.33
   3  -5  -3    4.04    2.15
  -3   5   3    1.22    1.20
  -3   5   3    3.22    2.19
  -3   5   3    2.83    2.63
   3  -5  -2  692.55   18.00
   3  -5  -2  624.37   11.77
  -3   5   2  667.11   11.52
   3  -5  -2  708.63   18.11
  -3   5   2  673.61   15.87
   3  -5  -1  326.49   12.35
   3  -5  -1  291.17    8.17
  -3   5   1  305.98    7.66
   3  -5  -1  329.98   12.37
  -3   5   1  322.75   11.28
   3  -5   0   -4.08    2.86
   3  -5   0    0.20    1.66
   3  -5   0    3.13    1.94
  -3   5   0    3.09    1.74
   3  -5   1  292.07   11.84
   3  -5   1  279.43    8.25
   3  -5   1  301.37   11.92
  -3   5  -1  289.32   10.72
   3  -5   2   76.90    6.24
   3  -5   2   88.19    4.84
   3  -5   2   91.38    6.75
  -3   5  -2   90.44    6.31
   3  -5   3    1.41    2.34
   3  -5   3    2.92    1.61
   3  -5   3    3.60    2.25
  -3   5  -3    2.20    1.81
   3  -5   4  179.64    6.93
  -3   5  -4  186.73    9.04
   3  -5   4  182.88    9.79
   3  -5   5   65.90    4.39
   3  -5   5   63.70    6.09
   3  -5   6  524.67   12.29
   3  -5   6  531.26   15.73
   3  -5   6  536.23   17.01
   3  -5   7   15.56    2.60
   3  -5   7   18.45    3.95
   3  -5   7   19.09    3.82
   3  -5   7   14.20    3.19
   3  -5   8   14.21    2.55
   3  -5   8    9.42    2.65
   3  -5   8   11.77    3.39
   3  -5   9  185.86    8.08
   3  -5   9  169.66    9.28
   3  -5  10  105.23    6.14
   3  -5  10   99.15    7.22
   3  -5  11   29.36    3.66
   3  -5  11   26.08    4.40
   3  -5  12  694.18   16.47
   3  -5  12  666.39   18.79
   3  -5  13   14.81    2.91
   3  -5  13   12.39    3.34
   3  -5  14   73.90    5.91
   3  -5  14   66.42    6.19
   3  -5  15   66.66    6.66
   3  -5  16  179.73   10.52
   3  -5  17   28.41    4.71
   3  -5  18   60.55    6.61
   3  -5  19    8.46    3.84
   3  -5  20  264.75   13.68
   3  -5  21    4.04    3.43
   3  -5  22   30.27    5.36
   3  -5  23    5.52    3.54
   3  -5  24   27.90    5.35
   3  -5  25    1.98    3.22
   3  -5  26   24.61    5.55
   3  -5  27   17.75    5.48
  -3   4  30   37.81    7.25
  -3   4  29    4.11    3.56
  -3   4  29    2.36    4.40
  -3   4  28   14.48    5.02
  -3   4  28   19.17    5.67
  -3   4  27   15.74    4.41
  -3   4  27   12.18    5.23
  -3   4  26    1.42    2.86
  -3   4  26    0.44    3.27
  -3   4  25    2.67    3.13
  -3   4  25    9.86    4.15
  -3   4  24    6.85    3.03
  -3   4  24    7.28    4.11
  -3   4  23   20.25    4.51
  -3   4  23   20.99    5.29
  -3   4  22   59.97    6.51
  -3   4  22   66.21    7.55
  -3   4  21    5.29    2.77
  -3   4  21    7.41    3.51
  -3   4  20   61.63    6.14
  -3   4  20   63.72    6.87
  -3   4  19   26.28    4.20
  -3   4  19   34.98    5.48
  -3   4  18   19.36    3.41
  -3   4  18   20.26    4.16
  -3   4  17   -0.90    1.95
  -3   4  17    0.86    2.77
  -3   4  16    7.02    2.67
  -3   4  16    1.09    2.73
  -3   4  15  378.00   12.20
  -3   4  15  357.24   14.20
  -3   4  14  736.67   16.54
  -3   4  14  681.25   19.16
  -3   4  13   63.64    6.50
  -3   4  13   66.36    4.93
  -3   4  13   61.91    6.28
  -3   4  12   31.07    4.49
  -3   4  12   29.12    3.16
  -3   4  12   35.07    4.72
  -3   4  11   14.15    3.31
  -3   4  11    9.10    2.05
  -3   4  11   15.20    3.46
   3  -4 -11   15.93    3.43
  -3   4  11   11.39    2.11
  -3   4  10    0.84    2.08
  -3   4  10    0.38    1.98
  -3   4  10    1.88    1.42
   3  -4 -10    1.94    2.34
  -3   4  10    0.30    1.38
  -3   4   9   77.17    4.37
  -3   4   9   84.93    6.50
   3  -4  -9   81.72    6.32
  -3   4   9   75.31    6.18
  -3   4   9   79.66    4.92
  -3   4   8  300.37   11.69
   3  -4  -8  282.50   11.52
  -3   4   8  296.96    8.19
  -3   4   8  284.47   11.19
   3  -4  -8  278.45   11.56
  -3   4   8  287.39    9.16
  -3   4   7  331.73   12.15
   3  -4  -7  311.09   12.00
  -3   4   7  314.52    8.02
  -3   4   7  318.80   11.94
   3  -4  -7  327.17   12.32
  -3   4   7  323.36    9.70
  -3   4   6  710.20   17.68
   3  -4  -6  684.58   17.42
  -3   4   6  704.58   11.40
  -3   4   6  680.05   17.17
   3  -4  -6  696.22   17.85
  -3   4   6  681.98   14.21
   3  -4  -5   60.51    5.54
  -3   4   5   53.91    3.02
  -3   4   5   52.36    4.91
   3  -4  -5   61.56    5.58
  -3   4   5   55.95    4.32
   3  -4  -4  285.29   11.27
  -3   4   4  289.32    6.46
  -3   4   4  283.04    9.16
  -3   4   4  272.81   10.79
   3  -4  -4  283.63   11.28
   3  -4  -3    6.70    2.19
  -3   4   3    4.15    1.03
   3  -4  -3    4.34    1.83
  -3   4   3    3.59    1.80
  -3   4   3    2.09    2.00
   3  -4  -2   -0.56    2.46
   3  -4  -2    1.62    1.04
   3  -4  -2    4.61    2.51
  -3   4   2    5.12    1.20
  -3   4   2    2.12    2.28
  -3   4   2    6.17    2.24
   3  -4  -1  689.21   17.44
   3  -4  -1  646.28    9.78
   3  -4  -1  729.97   17.93
  -3   4   1  730.42   15.42
   3  -4   0  717.58   17.90
   3  -4   0  685.41   10.45
  -3   4   0  769.93   16.49
   3  -4   0  722.90   17.92
   3  -4   1  140.47    7.98
   3  -4   1  136.20    4.82
   3  -4   1  143.20    7.93
  -3   4  -1  150.71    7.34
   3  -4   2  575.46   16.30
   3  -4   2  581.10   10.35
   3  -4   2  598.47   14.95
   3  -4   2  594.89   16.46
  -3   4  -2  598.89   14.76
   3  -4   3   26.21    2.37
   3  -4   3   24.54    3.74
   3  -4   3   27.68    4.00
   3  -4   3   28.48    3.77
   3  -4   4   32.04    2.71
   3  -4   4   29.66    4.04
   3  -4   4   32.80    3.95
   3  -4   5   78.09    4.18
   3  -4   5   75.42    6.18
   3  -4   5   77.03    5.74
   3  -4   6   32.11    3.10
   3  -4   6   30.30    4.22
   3  -4   6   27.77    4.17
   3  -4   7  804.12   14.37
   3  -4   7  765.55   17.65
   3  -4   7  814.18   20.78
   3  -4   7  810.46   18.64
   3  -4   8  740.88   14.27
   3  -4   8  698.47   16.96
   3  -4   8  733.57   20.15
   3  -4   8  744.18   18.35
   3  -4   9  492.86   12.17
   3  -4   9  472.87   14.14
   3  -4   9  494.22   15.14
   3  -4  10  100.76    6.79
   3  -4  10  101.84    7.08
   3  -4  11   13.92    2.82
   3  -4  12    2.72    2.36
   3  -4  13   49.06    5.22
   3  -4  14   21.41    3.99
   3  -4  15  551.82   16.95
   3  -4  16  270.07   12.34
   3  -4  17   91.02    7.47
   3  -4  18   11.32    3.52
   3  -4  19   10.98    3.54
   3  -4  20   12.87    3.72
   3  -4  21  120.06    9.13
   3  -4  22  101.08    8.67
   3  -4  23  238.24   13.57
   3  -4  24   40.39    6.06
   3  -4  25   10.25    4.32
   3  -4  26   -4.14    3.88
   3  -4  27    8.50    3.79
   3  -4  28    9.79    4.79
  -3   3  29    6.20    4.29
  -3   3  28   -1.55    4.20
  -3   3  27   11.62    3.94
  -3   3  26   54.42    7.91
  -3   3  25    2.53    5.14
  -3   3  24    5.77    4.32
  -3   3  23   39.08    6.26
  -3   3  22   -5.15    3.79
  -3   3  21    6.29    3.86
  -3   3  20   31.11    5.81
  -3   3  19  157.15   10.43
  -3   3  18  201.54   11.44
  -3   3  17   95.19    7.96
  -3   3  16   31.35    4.83
  -3   3  16   21.74    3.14
  -3   3  15   43.69    4.14
  -3   3  15   46.11    5.50
  -3   3  14    2.03    2.60
  -3   3  14    0.70    1.56
   3  -3 -14    0.66    2.30
  -3   3  13  229.23    8.50
  -3   3  13  228.37   11.01
   3  -3 -13  235.43   10.33
  -3   3  13  215.55    6.60
  -3   3  13  232.95   11.07
  -3   3  12  323.91    9.66
  -3   3  12  347.48   13.34
   3  -3 -12  342.73   12.20
  -3   3  12  328.01   12.80
  -3   3  12  325.33    8.19
  -3   3  11   22.47    3.74
  -3   3  11   20.73    3.46
  -3   3  11   20.66    2.62
   3  -3 -11   18.76    3.08
  -3   3  11   20.43    2.19
  -3   3  10  128.64    5.47
  -3   3  10  134.52    8.03
   3  -3 -10  128.82    7.20
  -3   3  10  127.99    7.72
  -3   3  10  128.25    5.25
  -3   3   9  177.34    5.90
  -3   3   9  190.09    9.37
   3  -3  -9  185.74    8.50
  -3   3   9  185.42    9.16
  -3   3   9  190.04    6.34
  -3   3   8    7.33    2.67
   3  -3  -8    6.16    2.48
   3  -3  -8    5.89    2.64
  -3   3   8    3.55    1.91
  -3   3   8    4.38    1.15
   3  -3  -8    1.59    1.66
  -3   3   8    4.09    1.50
   3  -3  -7   12.62    2.90
  -3   3   7   15.85    3.17
  -3   3   7   12.29    1.54
  -3   3   7   15.11    2.97
   3  -3  -7   12.22    2.83
  -3   3   7   11.06    1.82
   3  -3  -6  403.70   13.23
  -3   3   6  420.87   13.18
  -3   3   6  394.97    6.91
  -3   3   6  399.51   12.80
   3  -3  -6  416.26   13.60
  -3   3   6  418.33    9.82
  -3   3   5  329.48   11.60
   3  -3  -5  315.13   11.74
  -3   3   5  322.25    5.50
  -3   3   5  311.73   11.21
   3  -3  -5  320.44   11.81
  -3   3   5  334.73    8.90
  -3   3   4  106.55    6.83
   3  -3  -4  101.90    6.76
  -3   3   4  102.22    2.61
  -3   3   4   95.56    6.49
  -3   3   4  103.63    5.31
   3  -3  -4  103.48    6.78
   3  -3  -3  213.54    9.49
  -3   3   3  224.41    7.73
   3  -3  -3  226.18    9.83
  -3   3   3  223.29    9.53
   3  -3  -2  223.47    9.81
   3  -3  -2  226.56    9.93
  -3   3   2  220.33    7.80
  -3   3   2  223.67    9.61
   3  -3  -1  357.31   12.28
   3  -3  -1  373.33   12.57
  -3   3   1  375.35   12.51
   3  -3   0   16.86    3.04
   3  -3   0   16.39    1.31
   3  -3   0   15.98    2.82
   3  -3   0   19.69    2.76
   3  -3   1    2.24    1.88
   3  -3   1    2.88    1.05
   3  -3   1    2.87    2.10
   3  -3   1    3.42    1.60
   3  -3   2    6.28    2.47
   3  -3   2    9.10    1.29
   3  -3   2    6.34    2.30
   3  -3   2   11.19    2.81
   3  -3   3  636.84   16.85
   3  -3   3  661.43    9.67
   3  -3   3  632.41   16.69
   3  -3   3  659.32   14.88
   3  -3   4  341.89    7.38
   3  -3   4  335.81   10.85
   3  -3   4  327.47   12.21
   3  -3   5   11.31    1.66
   3  -3   5    7.32    2.59
   3  -3   5   10.58    2.59
   3  -3   5    9.37    1.93
   3  -3   6    4.22    2.05
   3  -3   6    1.37    2.09
   3  -3   6    2.90    1.76
   3  -3   7  536.13   13.62
   3  -3   7  541.29   16.36
   3  -3   7  558.95   14.85
   3  -3   8    1.88    2.13
   3  -3   8    3.26    2.41
   3  -3   9  413.27   12.54
   3  -3   9  432.74   13.64
   3  -3  10    6.54    2.10
   3  -3  10    4.05    2.47
   3  -3  11  918.33   19.45
   3  -3  11  959.95   21.32
   3  -3  12   79.59    5.89
   3  -3  12   80.44    6.60
   3  -3  13   39.06    4.50
   3  -3  14   35.69    4.50
   3  -3  15  237.53   10.83
   3  -3  16   36.15    4.67
   3  -3  17  116.40    8.13
   3  -3  18   28.31    4.33
   3  -3  19  460.15   16.43
   3  -3  20   57.24    6.42
   3  -3  21   54.69    6.15
   3  -3  22    4.00    3.09
   3  -3  23   18.97    4.66
   3  -3  24   10.46    3.55
   3  -3  25  108.72    9.31
   3  -3  26   11.05    3.83
   3  -3  27   42.17    6.83
   3  -3  28    1.06    3.06
   3  -3  29   33.33    6.42
  -3   2  29   11.69    4.39
  -3   2  28    2.57    4.41
  -3   2  27    6.60    4.94
  -3   2  26   12.61    5.24
  -3   2  25   73.40    8.86
  -3   2  24   11.95    4.62
  -3   2  23  202.04   13.18
  -3   2  22   12.35    4.12
  -3   2  21   10.94    4.09
  -3   2  20   -3.29    3.31
  -3   2  19   -1.20    2.99
  -3   2  18   28.86    5.54
  -3   2  17  764.16   21.95
  -3   2  16   27.36    5.00
   3  -2 -16   27.72    4.38
  -3   2  16   15.83    1.61
   3  -2 -15  100.01    6.78
  -3   2  15  100.35    7.90
  -3   2  15   88.72    3.27
  -3   2  14    8.26    3.24
  -3   2  14    5.77    2.43
   3  -2 -14    6.77    2.44
  -3   2  14    2.05    0.93
  -3   2  13    1.41    2.35
  -3   2  13    5.13    2.53
   3  -2 -13    5.93    2.41
  -3   2  13    2.61    1.02
  -3   2  12    4.67    2.73
  -3   2  12    3.15    2.36
   3  -2 -12    3.61    2.05
  -3   2  12    2.61    1.03
  -3   2  11   14.66    3.34
  -3   2  11   12.44    3.37
   3  -2 -11    9.18    2.39
  -3   2  11   10.40    1.39
  -3   2  10   18.43    3.21
  -3   2  10   22.16    3.70
   3  -2 -10   20.71    2.92
  -3   2  10   20.96    1.92
  -3   2   9  546.28    9.55
  -3   2   9  571.13   15.93
   3  -2  -9  560.20   13.43
  -3   2   9  551.82   15.54
  -3   2   9  567.76    9.37
  -3   2   8   11.77    2.89
   3  -2  -8   14.91    3.24
  -3   2   8   12.74    3.10
  -3   2   8    9.89    1.35
   3  -2  -8   10.00    2.18
  -3   2   8   11.89    1.70
  -3   2   7  308.35    5.70
  -3   2   7  334.83   11.83
   3  -2  -7  309.13   11.58
   3  -2  -7  327.65    9.80
  -3   2   7  319.19   11.53
   3  -2  -7  321.35   11.81
  -3   2   6    1.31    1.87
   3  -2  -6   -0.62    2.29
  -3   2   6    0.62    0.59
  -3   2   6   -0.81    1.90
   3  -2  -6    0.64    1.72
  -3   2   5   56.62    4.88
   3  -2  -5   58.03    4.99
   3  -2  -5   53.92    4.94
  -3   2   5   54.86    4.66
  -3   2   4   42.96    4.21
   3  -2  -4   42.16    4.39
  -3   2   4   37.66    4.03
   3  -2  -4   38.45    4.33
  -3   2   3  144.31    7.77
   3  -2  -3  129.23    7.46
  -3   2   3  132.15    7.31
   3  -2  -3  132.43    5.35
   3  -2  -3  131.79    7.49
   3  -2  -2  398.46   12.66
   3  -2  -2  416.31   12.93
  -3   2   2  407.75   12.55
   3  -2  -2  405.61    9.56
   3  -2  -1 1584.86   25.15
   3  -2  -1 1609.25   25.37
  -3   2   1 1605.77   24.86
   3  -2  -1 1598.46   19.87
   3  -2   0  126.86    7.06
   3  -2   0  139.87    7.53
  -3   2   0  136.95    7.30
   3  -2   0  140.51    6.02
   3  -2   1  119.08    7.01
   3  -2   1  122.75    2.59
   3  -2   1  126.79    7.08
   3  -2   1  131.39    5.99
   3  -2   2   12.35    2.58
   3  -2   2   16.13    3.19
   3  -2   2   16.19    1.29
   3  -2   2   14.48    2.18
   3  -2   3  107.78    6.70
   3  -2   3  107.27    6.71
   3  -2   3  105.45    5.62
   3  -2   4  251.18    8.14
   3  -2   4  271.67    9.31
   3  -2   4  272.28   10.65
   3  -2   5  199.02    7.52
   3  -2   5  223.30    8.92
   3  -2   5  205.02    9.40
   3  -2   6  406.46   10.77
   3  -2   6  430.03   12.36
   3  -2   6  417.62   13.56
   3  -2   7 1704.14   25.29
   3  -2   7 1650.42   27.57
   3  -2   8  272.52    9.17
   3  -2   8  282.09   10.39
   3  -2   9   28.38    3.36
   3  -2  10  101.55    5.89
   3  -2  11    6.96    2.28
   3  -2  12  197.91    8.80
   3  -2  13  903.78   19.09
   3  -2  14  331.37   11.81
  -3   2 -14  341.17   12.31
   3  -2  15  390.09   13.05
  -3   2 -15  398.94   13.72
   3  -2  16   13.05    2.98
  -3   2 -16    6.67    2.60
   3  -2  17   91.52    6.92
   3  -2  18    0.28    2.06
   3  -2  19    4.52    2.35
   3  -2  20  318.44   13.64
   3  -2  21  575.83   18.67
   3  -2  22   92.45    7.90
   3  -2  23  135.91    9.77
   3  -2  24    0.93    2.91
   3  -2  25   76.18    7.73
   3  -2  26    4.78    4.01
   3  -2  27    4.24    3.62
   3  -2  28  109.62   10.00
   3  -2  29  243.00   14.93
  -3   1  29   24.52    6.03
  -3   1  28    8.22    5.13
  -3   1  27   35.84    7.31
  -3   1  26   14.26    5.63
  -3   1  25   10.66    4.58
  -3   1  24    8.45    3.91
  -3   1  23   13.83    4.86
  -3   1  22   17.41    5.06
  -3   1  21   60.88    7.45
  -3   1  20   32.63    5.76
  -3   1  19   65.01    7.14
  -3   1  18    8.44    3.38
  -3   1  17   13.41    3.69
   3  -1 -17   19.45    3.46
  -3   1  16    2.97    2.96
   3  -1 -16    4.16    2.27
  -3   1  15    2.41    2.70
   3  -1 -15    0.88    1.83
  -3   1  14  113.40    8.22
   3  -1 -14  111.80    6.65
  -3   1  14  110.83    8.04
  -3   1  13  445.68   15.55
   3  -1 -13  447.06   13.03
  -3   1  13  429.68   15.26
  -3   1  12    2.17    2.63
  -3   1  12    4.64    2.45
   3  -1 -12    5.31    2.02
  -3   1  11  105.40    7.32
   3  -1 -11   91.19    5.40
  -3   1  11   85.89    6.66
  -3   1  10   25.56    3.76
  -3   1  10   28.24    4.00
   3  -1 -10   24.16    2.91
  -3   1   9  183.74    9.02
   3  -1  -9  173.57    6.85
  -3   1   9  177.69    8.98
  -3   1   8    7.22    2.83
  -3   1   8    6.95    2.42
   3  -1  -8    3.75    1.51
  -3   1   7  109.13    3.13
  -3   1   7  112.16    6.91
   3  -1  -7  107.32    6.95
   3  -1  -7  112.81    5.36
  -3   1   7  112.28    6.92
   3  -1  -7  113.67    7.18
  -3   1   6  626.72    6.44
  -3   1   6  692.04   16.47
   3  -1  -6  653.99   16.23
   3  -1  -6  687.82   12.35
  -3   1   6  681.12   16.23
   3  -1  -6  682.53   16.61
   3  -1  -5 1641.01   25.56
  -3   1   5 1769.29   26.06
   3  -1  -5 1749.73   19.39
   3  -1  -5 1698.22   16.25
   3  -1  -5 1700.24   26.26
  -3   1   5 1717.13   25.66
  -3   1   4   11.21    2.07
   3  -1  -4   20.85    3.46
   3  -1  -4   21.28    3.53
  -3   1   4   17.16    3.05
   3  -1  -4   19.51    2.16
  -3   1   3    6.69    2.38
   3  -1  -3    4.98    1.96
  -3   1   3    6.19    2.30
   3  -1  -3    3.60    2.12
   3  -1  -3    5.61    1.38
   3  -1  -2   37.21    3.90
  -3   1   2   40.49    4.02
  -3   1   2   45.50    4.31
   3  -1  -2   36.23    3.92
   3  -1  -2   38.99    2.99
   3  -1  -1   28.32    3.51
   3  -1  -1   29.26    3.45
   3  -1  -1   35.22    3.07
  -3   1   1   32.09    3.66
   3  -1   0  447.79   12.91
   3  -1   0  471.82   13.28
   3  -1   0  472.47   10.47
  -3   1   0  450.49   12.92
   3  -1   1 1219.23   21.39
   3  -1   1 1164.19    9.62
   3  -1   1 1255.25   21.64
  -3   1  -1 1246.59   21.69
   3  -1   2  329.34   11.12
   3  -1   2  321.76    5.73
   3  -1   2  346.97   11.35
   3  -1   3  734.25   16.79
   3  -1   3  742.65   12.30
   3  -1   3  746.43   16.92
   3  -1   4    6.24    1.84
   3  -1   4    6.34    1.72
   3  -1   5    8.39    1.83
   3  -1   5    9.34    2.46
   3  -1   6    2.37    1.53
   3  -1   6    4.12    2.28
   3  -1   7   26.50    3.77
   3  -1   7   24.69    2.75
   3  -1   8  329.20    9.43
   3  -1   8  325.49   11.87
   3  -1   9  767.08   14.74
   3  -1  10  381.21   10.72
  -3   1 -10  373.24   11.01
   3  -1  11  490.41   12.49
  -3   1 -11  486.82   12.96
   3  -1  12   53.73    4.47
  -3   1 -12   53.97    4.55
   3  -1  13   37.21    4.15
  -3   1 -13   28.24    3.60
   3  -1  14   34.27    4.04
  -3   1 -14   27.42    3.40
   3  -1  15   12.37    2.84
  -3   1 -15    8.32    2.57
  -3   1 -16   60.70    5.51
   3  -1  16   61.53    5.41
   3  -1  17  313.63   12.11
   3  -1  18   43.37    4.89
   3  -1  19   47.37    5.39
   3  -1  20    0.63    2.22
   3  -1  21   30.31    4.67
   3  -1  22    0.58    2.51
   3  -1  23    3.07    3.21
   3  -1  24   97.35    8.59
   3  -1  25  198.10   12.10
   3  -1  26   25.47    5.56
   3  -1  27    7.37    3.87
   3  -1  28   61.11    7.95
   3  -1  29   75.13    8.68
  -3   0  31   14.99    5.19
  -3   0  30    4.57    3.39
  -3   0  29   26.76    9.07
  -3   0  29   -0.46    3.43
  -3   0  28   23.04    6.08
  -3   0  28   22.66    5.09
  -3   0  27   18.16    5.95
  -3   0  27    5.76    4.07
  -3   0  26   44.70    7.38
  -3   0  26   56.31    6.76
  -3   0  25   22.07    5.93
  -3   0  25   16.54    4.29
  -3   0  24   35.69    6.72
  -3   0  24   33.62    5.23
  -3   0  23   20.87    5.70
  -3   0  23   17.27    3.92
  -3   0  22    3.10    3.51
  -3   0  22    2.25    3.00
  -3   0  21   24.76    5.65
  -3   0  21   16.80    3.92
  -3   0  20   28.60    5.53
  -3   0  20   26.60    4.40
  -3   0  19   -1.32    2.92
  -3   0  19    5.03    2.72
   3   0 -18  257.85   10.74
  -3   0  18  257.28   10.97
  -3   0  18  270.36   13.86
  -3   0  17   65.16    7.11
   3   0 -17   65.11    5.39
  -3   0  17   61.06    5.57
   3   0 -16  126.97    7.09
  -3   0  16  126.20    7.33
  -3   0  16  126.68    9.37
  -3   0  15   28.66    4.66
   3   0 -15   23.00    3.23
  -3   0  15   20.62    3.16
  -3   0  14   37.60    4.93
  -3   0  14   36.55    4.72
  -3   0  14   46.49    4.37
   3   0 -14   40.82    3.89
  -3   0  13   81.61    6.83
   3   0 -13   85.16    5.26
  -3   0  13   87.00    7.16
  -3   0  12   70.81    6.32
   3   0 -12   66.32    4.54
  -3   0  12   58.89    5.78
  -3   0  11   99.43    7.34
   3   0 -11   94.80    5.11
  -3   0  11   97.54    7.18
  -3   0  10  444.15    9.26
  -3   0  10  457.03   14.59
   3   0 -10  454.33   10.65
  -3   0  10  452.85   14.44
  -3   0   9  196.92    5.69
  -3   0   9  209.04    9.68
   3   0  -9  215.53    7.14
  -3   0   9  198.08    9.42
  -3   0   8  210.66    5.57
  -3   0   8  217.35    9.58
   3   0  -8  214.85    6.71
  -3   0   8  206.52    9.49
  -3   0   7   82.60    3.28
  -3   0   7   83.48    6.08
   3   0  -7   91.28    4.25
  -3   0   7   89.64    6.32
  -3   0   6  136.16    3.94
  -3   0   6  141.43    7.56
   3   0  -6  131.83    7.27
   3   0  -6  143.31    4.92
  -3   0   6  140.05    7.51
   3   0  -6  139.38    7.55
   3   0  -6  139.29    3.75
  -3   0   5   41.15    2.11
  -3   0   5   47.56    4.38
   3   0  -5   42.80    4.25
  -3   0   5   41.03    4.04
   3   0  -5   38.39    4.08
   3   0  -5   39.38    2.47
   3   0  -5   45.05    2.46
  -3   0   4  714.40    8.08
  -3   0   4  756.27   16.68
   3   0  -4  727.83   16.33
   3   0  -4  785.09   10.44
   3   0  -4  754.82   16.80
  -3   0   4  745.41   16.37
  -3   0   3  178.88    3.74
  -3   0   3  198.32    8.49
   3   0  -3  193.53    8.49
   3   0  -3  194.66    4.98
   3   0  -3  195.63    8.53
  -3   0   3  200.62    8.50
  -3   0   2 1327.67   21.81
   3   0  -2 1283.07   21.44
   3   0  -2 1317.78   10.04
  -3   0   2 1307.68   21.41
   3   0  -2 1364.80   22.34
   3   0  -1   43.89    4.11
   3   0  -1   35.62    1.62
  -3   0   1   44.19    4.07
   3   0  -1   42.38    3.98
   3   0   0  255.22    9.46
   3   0   0  235.42    5.10
   3   0   0  258.83    9.55
  -3   0   0  256.62    9.41
   3   0   1  241.53    5.57
   3   0   1  256.72    9.45
   3   0   1  257.55    5.67
   3   0   1  256.92    9.62
  -3   0  -1  251.01    9.59
   3   0   2  184.21    5.19
   3   0   2  188.35    8.06
   3   0   2  187.19    4.96
   3   0   2  188.27    8.10
   3   0   3   87.11    3.95
   3   0   3   70.38    5.05
   3   0   3   77.79    3.31
   3   0   3   77.20    5.36
   3   0   4 1549.48   24.11
   3   0   4 1528.44   17.01
   3   0   4 1559.01   24.09
   3   0   5  323.05    8.16
   3   0   5  309.52    7.39
   3   0   5  330.78   11.06
   3   0   6  321.16    7.95
   3   0   6  327.74   11.13
   3   0   7   67.81    3.92
   3   0   7   71.52    5.54
   3   0   8   36.81    3.14
  -3   0  -8   33.51    3.05
   3   0   8   35.90    3.94
   3   0   9  278.40    8.57
  -3   0  -9  281.33    8.78
  -3   0 -10  262.72    8.78
   3   0  10  255.11    8.51
   3   0  11   70.70    4.99
  -3   0 -11   68.42    4.83
   3   0  12 1150.95   19.53
  -3   0 -12 1178.55   20.25
   3   0  13   27.61    3.56
  -3   0 -13   27.04    3.58
   3   0  14   47.18    4.50
  -3   0 -14   48.85    4.50
  -3   0 -15  111.11    7.01
   3   0  15  108.33    6.68
  -3   0 -16   49.21    4.97
   3   0  16   40.89    4.40
  -3   0 -17  155.59    8.65
   3   0  17  157.61    8.58
   3   0  18   94.93    7.17
   3   0  19    6.82    3.29
   3   0  20  232.70   11.39
   3   0  21    5.56    2.96
   3   0  22   48.35    5.83
   3   0  23  141.31    9.91
   3   0  24   11.34    3.40
   3   0  25   67.90    7.39
   3   0  26   73.91    7.88
   3   0  27    4.04    3.94
   3   0  28   76.67    8.47
   3   0  29    6.19    3.79
  -3  -1  31    3.01    3.14
  -3  -1  30   72.84    8.11
  -3  -1  29    4.44    3.60
  -3  -1  28   13.78    3.95
  -3  -1  27    4.47    3.14
  -3  -1  26   -0.56    2.61
  -3  -1  25    4.15    2.85
  -3  -1  24   50.56    5.88
  -3  -1  23    4.14    3.06
  -3  -1  22  181.91   10.24
  -3  -1  21    3.19    2.44
  -3  -1  20   -0.79    2.15
  -3  -1  19    7.32    4.10
   3   1 -19    1.53    2.08
  -3  -1  19   -0.46    2.01
  -3  -1  18   13.59    4.58
   3   1 -18    5.63    2.25
  -3  -1  18    3.26    2.21
  -3  -1  17    9.20    4.24
   3   1 -17    2.55    1.85
  -3  -1  17    4.80    2.49
  -3  -1  16  371.02   11.87
   3   1 -16  369.95   11.76
  -3  -1  16  365.09   15.45
  -3  -1  15   23.48    4.76
  -3  -1  15   33.29    3.90
   3   1 -15   26.93    3.45
  -3  -1  14  463.06   16.73
  -3  -1  14  477.61   12.48
   3   1 -14  468.25   12.11
  -3  -1  14  448.65   16.25
  -3  -1  13    6.50    3.25
  -3  -1  13    7.79    2.01
   3   1 -13    5.14    1.78
  -3  -1  13    6.95    2.22
  -3  -1  13    1.20    2.37
  -3  -1  12   14.04    2.17
  -3  -1  12   11.45    3.17
   3   1 -12   11.89    2.08
  -3  -1  12   17.74    2.62
  -3  -1  12    7.88    2.94
  -3  -1  11   16.04    2.37
  -3  -1  11   13.56    3.35
   3   1 -11   17.19    2.32
  -3  -1  11   14.20    2.19
  -3  -1  11   15.12    3.44
  -3  -1  10    8.86    3.01
  -3  -1  10    8.26    1.80
   3   1 -10    7.45    1.65
  -3  -1  10    8.87    1.81
  -3  -1  10   10.51    3.11
  -3  -1   9   54.54    3.46
  -3  -1   9   46.90    4.78
  -3  -1   9   60.25    5.41
   3   1  -9   55.22    3.42
  -3  -1   8  864.08   13.02
  -3  -1   8  887.37   19.55
   3   1  -8  887.25   12.18
  -3  -1   8  850.66   19.06
  -3  -1   7   62.34    3.45
  -3  -1   7   74.04    5.74
   3   1  -7   70.96    3.27
  -3  -1   7   64.13    5.47
  -3  -1   6  982.64   13.44
  -3  -1   6  996.29   19.80
   3   1  -6 1018.91   11.12
  -3  -1   6  975.23   19.53
  -3  -1   5   53.75    3.21
  -3  -1   5   57.87    5.15
   3   1  -5   64.93    5.49
   3   1  -5   55.93    2.31
  -3  -1   5   60.52    5.24
   3   1  -5   69.42    5.68
  -3  -1   4   58.39    3.16
   3   1  -4   66.16    3.20
  -3  -1   4   62.29    4.87
   3   1  -4   59.19    4.73
   3   1  -4   67.11    2.20
  -3  -1   4   60.58    4.76
   3   1  -4   60.07    4.75
  -3  -1   3  228.16    6.01
   3   1  -3  236.59    5.90
   3   1  -3  218.94    8.57
  -3  -1   3  227.19    8.94
   3   1  -3  224.56    3.56
  -3  -1   3  222.66    8.86
   3   1  -3  220.90    8.70
  -3  -1   2   23.73    3.05
   3   1  -2   28.11    3.62
  -3  -1   2   23.66    1.92
  -3  -1   2   22.99    3.15
   3   1  -2   22.19    1.94
   3   1  -2   29.51    3.50
  -3  -1   1   67.52    4.99
   3   1  -1   63.62    4.66
   3   1  -1   65.03    3.39
  -3  -1   1   59.43    3.00
  -3  -1   1   63.04    4.62
   3   1  -1   68.02    4.82
   3   1   0 2528.81   29.14
  -3  -1   0 2521.71   20.94
   3   1   0 2493.19   22.43
   3   1   0 2550.75   29.42
  -3  -1   0 2477.38   29.39
   3   1   1  186.86    6.02
   3   1   1  210.49    8.39
   3   1   1  172.77    3.13
   3   1   1  209.61    8.42
  -3  -1  -1  197.64    8.09
   3   1   2  414.92    9.27
   3   1   2  424.08   11.80
   3   1   2  425.38    6.08
   3   1   2  430.29   11.96
  -3  -1  -2  421.71   12.00
   3   1   3  177.16    6.35
   3   1   3  169.63    7.70
   3   1   3  164.47    4.24
   3   1   3  174.52    7.74
   3   1   4   54.74    3.80
   3   1   4   54.20    4.45
   3   1   4   47.81    2.48
   3   1   4   53.49    4.53
   3   1   5    2.90    1.78
   3   1   5    4.10    1.55
   3   1   5    4.34    2.20
   3   1   5    3.45    1.14
  -3  -1  -5    4.08    1.20
   3   1   6   47.63    3.68
  -3  -1  -6   46.86    2.95
   3   1   6   46.73    2.96
   3   1   6   48.96    4.42
   3   1   7  115.31    5.85
  -3  -1  -7  112.92    4.89
   3   1   7  109.83    4.89
   3   1   7  117.37    6.58
   3   1   8 1276.85   19.97
  -3  -1  -8 1252.29   17.10
   3   1   8 1257.03   17.01
   3   1   8 1268.81   22.16
   3   1   9  203.53    8.38
  -3  -1  -9  204.73    7.17
   3   1   9  208.61    7.36
   3   1   9  203.97    8.99
   3   1  10   31.69    3.33
   3   1  10   32.65    3.40
  -3  -1 -10   33.03    3.25
  -3  -1 -11   66.89    4.69
   3   1  11   66.81    4.83
  -3  -1 -12  163.45    7.39
   3   1  12  167.68    7.53
  -3  -1 -13   69.68    5.07
   3   1  13   77.53    5.50
  -3  -1 -14  161.60    7.84
   3   1  14  160.40    8.10
  -3  -1 -15  155.21    8.03
   3   1  15  159.33    8.26
  -3  -1 -16  376.72   12.77
   3   1  16  384.09   13.46
   3   1  17    4.29    2.36
  -3  -1 -17    7.63    3.08
   3   1  18  108.43    7.56
   3   1  19    2.33    2.69
   3   1  20   23.00    4.30
   3   1  21   91.37    7.60
   3   1  22  140.47    9.48
   3   1  23  117.31    9.07
   3   1  24   75.19    7.45
   3   1  25    9.46    3.74
   3   1  26   45.58    7.49
   3   1  27    2.28    3.07
   3   1  28   -0.87    3.28
   3   1  29   40.56    6.60
  -3  -2  31   14.85    5.17
  -3  -2  30    9.85    4.27
  -3  -2  29    2.51    3.45
  -3  -2  28    7.59    3.79
  -3  -2  27   61.64    7.28
  -3  -2  26   40.99    5.79
  -3  -2  25  132.17    9.57
  -3  -2  24   16.92    4.13
  -3  -2  23    4.01    3.05
  -3  -2  22   38.31    4.93
  -3  -2  21    5.65    2.81
  -3  -2  20   62.53    5.83
  -3  -2  19  258.47   11.39
  -3  -2  19  249.70   10.63
   3   2 -19  238.97   10.37
  -3  -2  18   15.70    3.40
   3   2 -18   20.67    3.32
  -3  -2  18   15.54    3.22
  -3  -2  17  196.09    9.29
  -3  -2  17  192.43    8.71
   3   2 -17  204.98    8.95
  -3  -2  16  124.46    7.14
  -3  -2  16  122.13    6.76
   3   2 -16  122.07    6.66
  -3  -2  16  119.86    9.34
  -3  -2  15   37.21    5.46
  -3  -2  15   36.17    3.95
   3   2 -15   41.64    4.02
  -3  -2  15   37.52    3.85
  -3  -2  14   32.83    5.20
  -3  -2  14   35.70    3.87
  -3  -2  14   28.82    4.79
   3   2 -14   34.73    3.46
  -3  -2  14   34.76    3.50
  -3  -2  13  126.17    6.49
  -3  -2  13  128.83    8.80
  -3  -2  13  136.40    6.29
   3   2 -13  132.09    6.12
  -3  -2  13  121.46    8.54
  -3  -2  12  104.94    5.86
  -3  -2  12  107.18    7.87
  -3  -2  12  107.98    5.40
   3   2 -12  108.95    5.34
  -3  -2  12  106.70    7.95
  -3  -2  11  639.37   13.84
  -3  -2  11  645.81   18.19
  -3  -2  11  653.17   12.30
   3   2 -11  638.94   12.00
  -3  -2  11  608.74   17.62
  -3  -2  10    3.58    1.53
  -3  -2  10    0.21    2.16
  -3  -2  10    3.92    2.00
   3   2 -10    2.49    1.37
  -3  -2  10    3.84    1.48
   3   2 -10    2.13    0.57
  -3  -2   9   73.09    4.51
  -3  -2   9   73.22    5.93
  -3  -2   9   80.07    3.84
   3   2  -9   75.18    3.67
  -3  -2   9   78.60    6.25
  -3  -2   8  397.39   10.21
  -3  -2   8  409.58   13.30
   3   2  -8  406.66    7.50
  -3  -2   8  423.27    7.87
  -3  -2   8  384.70   13.09
  -3  -2   7    6.59    2.33
  -3  -2   7    7.53    1.57
  -3  -2   7    9.09    2.56
   3   2  -7    9.57    1.42
  -3  -2   6   33.31    4.21
  -3  -2   6   35.25    4.04
  -3  -2   6   24.65    2.44
   3   2  -6   27.07    1.57
  -3  -2   5  971.51   19.15
  -3  -2   5  970.03   15.79
   3   2  -5  955.55   14.80
  -3  -2   5  931.34   18.72
  -3  -2   4  240.57    9.32
   3   2  -4  247.92    9.46
   3   2  -4  243.04    7.44
  -3  -2   4  227.46    7.39
  -3  -2   4  229.28    9.15
  -3  -2   3  899.23   17.47
   3   2  -3  898.65   17.28
   3   2  -3  938.63   14.76
  -3  -2   3  895.10   14.55
  -3  -2   3  880.36   17.36
   3   2  -3  918.91   17.73
  -3  -2   2  282.61    9.68
   3   2  -2  292.22    9.88
   3   2  -2  293.16    8.41
  -3  -2   2  280.95    8.02
  -3  -2   2  276.59    9.57
   3   2  -2  291.27    9.97
   3   2  -1   55.13    4.24
  -3  -2   1   57.67    4.41
  -3  -2   1   56.15    3.54
   3   2  -1   54.76    3.70
  -3  -2   1   56.75    4.19
   3   2  -1   59.81    4.71
   3   2   0  613.45   13.80
   3   2   0  620.45   12.88
  -3  -2   0  616.79   11.76
   3   2   0  623.93   14.07
  -3  -2   0  596.77   13.85
   3   2   1  111.61    6.07
  -3  -2  -1  113.91    5.24
   3   2   1  115.16    5.79
   3   2   1  113.73    6.14
  -3  -2  -1  109.82    6.13
  -3  -2  -2    2.26    1.36
   3   2   2    4.12    1.50
   3   2   2    2.95    1.57
   3   2   2    3.12    1.67
  -3  -2  -2    0.09    1.89
   3   2   3  589.54   12.91
   3   2   3  583.35   13.45
   3   2   3  582.29    7.03
  -3  -2  -3  583.01    6.98
   3   2   3  600.17   13.71
   3   2   4   17.04    2.81
   3   2   4   14.26    2.65
   3   2   4   16.96    2.71
  -3  -2  -4   17.46    1.69
   3   2   4   17.30    1.70
   3   2   5  600.35   13.62
   3   2   5  602.63   13.86
   3   2   5  585.21    9.11
  -3  -2  -5  586.88    9.24
   3   2   5  592.45   13.75
   3   2   6  168.67    7.35
   3   2   6  156.64    7.22
  -3  -2  -6  156.99    5.16
   3   2   6  156.84    5.22
   3   2   6  159.77    7.24
   3   2   7   64.95    4.86
  -3  -2  -7   61.71    3.60
   3   2   7   65.60    3.82
   3   2   7   56.58    4.41
   3   2   8  884.21   17.63
  -3  -2  -8  849.76   13.69
   3   2   8  873.43   14.06
   3   2   8  873.95   17.60
   3   2   9  257.51    9.75
  -3  -2  -9  246.04    7.88
   3   2   9  253.07    8.13
   3   2   9  253.89    9.65
   3   2  10   39.04    4.07
  -3  -2 -10   40.11    3.56
   3   2  10   44.96    3.95
   3   2  10   40.00    4.08
   3   2  11  640.94   16.11
  -3  -2 -11  621.86   13.66
   3   2  11  628.48   14.04
   3   2  12   83.98    6.22
  -3  -2 -12   77.60    5.44
   3   2  12   85.98    5.80
   3   2  13  138.02    8.15
  -3  -2 -13  137.89    7.19
   3   2  13  134.09    7.35
   3   2  14  984.25   21.99
  -3  -2 -14  928.64   19.01
   3   2  14  936.09   19.28
   3   2  15    6.43    2.99
   3   2  15    5.56    2.89
  -3  -2 -15    7.06    2.76
   3   2  16  222.80   10.97
  -3  -2 -16  209.46    9.78
   3   2  16  202.75    9.73
   3   2  17   64.03    6.60
  -3  -2 -17   56.15    5.48
   3   2  17   48.96    5.33
   3   2  18   51.43    5.97
   3   2  18   45.35    5.28
   3   2  19  243.38   11.64
   3   2  20   24.15    4.38
   3   2  21   23.78    4.41
   3   2  22  272.71   13.27
   3   2  23    3.69    3.28
   3   2  24   41.92    6.06
   3   2  25  136.11   10.55
   3   2  26   28.88    5.45
   3   2  27   89.56    8.83
   3   2  28   13.20    4.97
   3   2  29   11.99    4.22
  -3  -3  31   27.38    5.75
  -3  -3  30    8.34    4.49
  -3  -3  29   13.76    4.65
  -3  -3  28    6.90    3.53
  -3  -3  27    3.91    3.05
  -3  -3  26   13.28    3.68
  -3  -3  25   25.62    4.66
  -3  -3  24   23.63    4.31
  -3  -3  23  101.53    7.87
  -3  -3  22    6.69    3.13
  -3  -3  21    7.50    3.12
  -3  -3  20   42.55    4.90
   3   3 -20   51.95    5.36
  -3  -3  19   41.71    4.73
   3   3 -19   33.44    4.18
  -3  -3  18    2.04    2.02
  -3  -3  18    4.31    2.41
   3   3 -18    6.31    2.56
  -3  -3  17  200.62    9.75
  -3  -3  17  211.74    9.09
   3   3 -17  213.51    9.17
  -3  -3  16   79.81    6.13
  -3  -3  16   89.31    5.92
   3   3 -16   81.59    5.51
  -3  -3  15  313.07   11.42
  -3  -3  15  341.14   10.63
   3   3 -15  335.20   10.43
  -3  -3  14   64.28    5.23
  -3  -3  14   55.58    6.41
  -3  -3  14   63.34    4.56
   3   3 -14   61.82    4.45
  -3  -3  14   55.36    6.64
  -3  -3  13   23.51    3.30
  -3  -3  13   23.09    4.31
  -3  -3  13   19.41    4.14
  -3  -3  13   26.49    3.00
   3   3 -13   22.64    2.68
  -3  -3  12   57.96    4.80
  -3  -3  12   59.53    6.10
   3   3 -12   64.69    3.98
  -3  -3  12   68.52    4.18
  -3  -3  12   60.28    6.20
   3   3 -12   60.38    2.62
  -3  -3  11   20.49    2.99
  -3  -3  11   17.93    3.59
  -3  -3  11   21.35    4.06
  -3  -3  11   20.92    2.37
   3   3 -11   22.27    2.41
   3   3 -11   20.10    1.76
  -3  -3  10  105.77    6.19
  -3  -3  10  101.89    7.30
  -3  -3  10  105.59    4.66
   3   3 -10  110.17    4.51
  -3  -3  10  104.30    7.35
  -3  -3   9  183.28    7.89
  -3  -3   9  182.47    9.30
   3   3  -9  187.01    5.43
  -3  -3   9  189.22    5.78
  -3  -3   9  177.24    9.10
  -3  -3   8   34.10    4.47
  -3  -3   8   30.84    3.42
  -3  -3   8   30.41    4.06
  -3  -3   8   37.09    2.50
  -3  -3   7  635.75   14.37
   3   3  -7  648.53   14.56
  -3  -3   7  641.29   16.38
  -3  -3   7  689.70    8.67
  -3  -3   7  614.70   16.10
  -3  -3   6   36.25    3.78
   3   3  -6   34.33    3.76
  -3  -3   6   38.58    4.53
  -3  -3   6   32.71    1.65
  -3  -3   6   33.84    4.66
  -3  -3   5    6.25    1.54
  -3  -3   5    9.33    2.40
  -3  -3   5   10.80    2.85
   3   3  -5    8.70    1.92
  -3  -3   4   51.92    4.61
   3   3  -4   48.50    4.04
  -3  -3   4   48.44    4.01
  -3  -3   4   49.49    4.40
  -3  -3   3    1.20    1.51
  -3  -3   3    4.88    2.12
   3   3  -3    2.13    1.44
  -3  -3   3    3.55    1.96
  -3  -3   2   66.54    4.94
   3   3  -2   55.99    4.34
   3   3  -2   55.59    4.27
  -3  -3   2   62.91    4.49
  -3  -3   2   61.34    4.61
   3   3  -2   52.91    4.35
  -3  -3   1  847.74   16.22
   3   3  -1  844.73   16.35
  -3  -3   1  867.70   16.27
   3   3  -1  853.47   16.98
  -3  -3   1  844.84   16.20
   3   3  -1  845.97   16.57
   3   3   0   13.51    3.43
  -3  -3   0    7.56    2.18
   3   3   0    7.99    3.07
   3   3   0    8.27    3.18
  -3  -3   0    6.64    2.70
   3   3   1  104.14    5.61
  -3  -3  -1  111.41    5.80
   3   3   1  106.67    6.13
  -3  -3  -1  109.91    5.77
   3   3   1  102.89    5.76
  -3  -3  -2   38.70    3.57
   3   3   2   35.02    3.50
   3   3   2   36.39    3.43
   3   3   2   34.83    3.70
  -3  -3  -2   38.44    1.61
  -3  -3  -2   43.34    3.73
   3   3   3   31.07    3.16
  -3  -3  -3   35.57    3.53
   3   3   3   33.26    3.82
   3   3   3   33.83    3.35
  -3  -3  -3   31.85    1.80
   3   3   4   93.33    5.91
   3   3   4   90.91    5.15
  -3  -3  -4   85.66    3.39
   3   3   4   92.59    5.31
   3   3   5    1.31    1.45
   3   3   5   -0.42    1.53
   3   3   5    1.82    2.04
  -3  -3  -5    1.51    1.15
   3   3   6   66.97    5.23
   3   3   6   58.69    4.25
  -3  -3  -6   59.03    3.47
   3   3   6   60.60    4.37
   3   3   7  535.23   14.46
   3   3   7  549.69   13.02
   3   3   7  518.87   10.28
  -3  -3  -7  506.08   10.29
   3   3   7  538.22   12.91
   3   3   8   -0.09    1.52
   3   3   8    3.96    2.31
  -3  -3  -8    4.40    1.64
   3   3   8    1.62    1.43
   3   3   9   34.58    4.16
  -3  -3  -9   27.02    2.99
   3   3   9   30.46    3.08
   3   3   9   28.14    3.29
   3   3  10  429.36   13.98
   3   3  10  408.41   10.85
  -3  -3 -10  397.46   10.69
   3   3  10  417.83   12.09
   3   3  11  152.34    8.39
   3   3  11  149.97    7.03
  -3  -3 -11  146.01    6.84
   3   3  11  154.83    7.66
   3   3  12   59.04    5.52
   3   3  12   60.44    4.80
  -3  -3 -12   62.48    4.89
   3   3  12   62.44    5.09
   3   3  13  213.25   10.18
   3   3  13  202.53    8.89
  -3  -3 -13  201.42    8.66
   3   3  14  142.55    8.54
   3   3  14  139.49    7.77
  -3  -3 -14  136.41    7.54
   3   3  15  142.15    8.94
   3   3  15  135.68    8.00
  -3  -3 -15  140.16    7.90
   3   3  16  237.88   11.76
   3   3  16  219.87   10.35
  -3  -3 -16  221.46   10.26
   3   3  17    5.94    2.94
   3   3  17    7.55    2.96
   3   3  18   25.20    4.15
   3   3  18   34.08    5.19
   3   3  19   38.39    5.23
   3   3  19   40.98    5.61
   3   3  20   -2.01    2.56
   3   3  20   -4.89    3.30
   3   3  21  102.42    9.01
   3   3  21   90.09    7.65
   3   3  22    3.20    3.01
   3   3  22   -2.12    2.58
   3   3  23   57.81    7.20
   3   3  23   51.63    6.70
   3   3  24   50.69    6.89
   3   3  24   42.87    6.17
   3   3  25   26.91    5.91
   3   3  25   19.54    4.72
   3   3  26   49.57    7.41
   3   3  26   40.99    6.52
   3   3  27    1.27    3.30
   3   3  28    1.22    3.70
  -3  -4  31   12.49    4.68
  -3  -4  30   18.93    5.31
  -3  -4  29    4.16    3.67
  -3  -4  28    4.43    3.46
  -3  -4  27   -3.85    3.08
  -3  -4  26   26.20    5.00
  -3  -4  25   16.15    4.35
  -3  -4  24   50.85    5.95
  -3  -4  23    2.43    2.76
  -3  -4  22   41.04    5.00
  -3  -4  21   -0.31    2.21
  -3  -4  20   -2.88    2.38
   3   4 -20    4.15    2.66
  -3  -4  19    4.41    2.52
   3   4 -19    5.32    2.34
  -3  -4  18   61.97    5.56
   3   4 -18   57.19    5.08
   3   4 -17  113.33    6.80
  -3  -4  17  122.38    7.28
  -3  -4  16  194.83   10.15
  -3  -4  16  197.94    8.77
   3   4 -16  198.67    8.42
  -3  -4  15    2.21    2.22
  -3  -4  15    1.93    1.76
   3   4 -15    2.61    1.24
   3   4 -15    1.64    1.69
  -3  -4  14   58.25    5.48
  -3  -4  14   55.60    4.25
   3   4 -14   55.14    4.19
   3   4 -14   54.50    3.18
  -3  -4  13  124.38    7.58
  -3  -4  13  117.77    8.65
  -3  -4  13  126.31    6.02
   3   4 -13  136.49    6.14
  -3  -4  13  106.43    8.24
   3   4 -13  127.28    4.95
  -3  -4  12   49.85    4.97
  -3  -4  12   45.18    5.67
  -3  -4  12   49.28    6.15
  -3  -4  12   56.16    3.92
   3   4 -12   51.58    3.77
   3   4 -12   46.96    3.18
  -3  -4  11   27.10    4.61
  -3  -4  11   30.05    4.60
  -3  -4  11   31.59    4.08
  -3  -4  11   33.06    3.00
  -3  -4  10  123.96    7.39
  -3  -4  10  127.85    8.11
  -3  -4  10  131.43    5.24
  -3  -4  10  125.63    8.01
  -3  -4   9  105.28    6.73
  -3  -4   9  113.40    7.50
  -3  -4   9  118.40    4.62
  -3  -4   9  103.66    7.16
  -3  -4   8   39.52    4.37
  -3  -4   8   36.70    4.36
   3   4  -8   31.65    4.10
  -3  -4   8   37.26    2.41
  -3  -4   8   45.27    4.87
   3   4  -7   -0.37    1.91
  -3  -4   7    4.23    2.27
  -3  -4   7    1.31    1.52
  -3  -4   7    3.90    2.25
  -3  -4   7    2.94    1.08
  -3  -4   6   88.10    6.04
   3   4  -6   81.16    5.95
  -3  -4   6   81.53    5.65
  -3  -4   6   76.95    2.83
  -3  -4   6   80.60    5.79
   3   4  -5  194.59    8.89
  -3  -4   5  206.95    9.09
  -3  -4   5  204.45    8.88
  -3  -4   5  197.69    4.15
  -3  -4   5  195.52    8.73
   3   4  -4  210.42    9.43
  -3  -4   4  212.87    9.05
  -3  -4   4  223.79    9.02
  -3  -4   4  181.80    3.59
  -3  -4   4  223.85    9.01
  -3  -4   3  108.04    6.10
   3   4  -3   94.66    6.27
  -3  -4   3  103.14    6.16
  -3  -4   3  108.46    6.22
  -3  -4   2  370.69   10.65
   3   4  -2  350.31   12.00
  -3  -4   2  362.90   11.61
  -3  -4   2  360.31   10.56
  -3  -4   1  406.73   12.46
   3   4  -1  395.95   12.90
  -3  -4   1  412.76   11.09
  -3  -4   1  394.32   10.80
  -3  -4   0   91.95    5.99
   3   4   0   89.11    6.35
   3   4   0  100.69    5.86
  -3  -4   0   80.36    2.53
   3   4   0   97.06    5.89
  -3  -4   0   97.12    5.42
  -3  -4  -1   60.41    4.87
   3   4   1   54.85    5.19
   3   4   1   59.30    4.37
  -3  -4  -1   51.75    2.32
   3   4   1   54.19    4.14
  -3  -4  -1   59.19    4.27
  -3  -4  -2  246.23    9.61
   3   4   2  247.74   10.43
   3   4   2  245.60    8.30
  -3  -4  -2  226.84    5.15
   3   4   2  235.12    8.11
   3   4   3    9.35    2.16
  -3  -4  -3   12.67    2.78
   3   4   3   12.09    2.44
   3   4   3   13.58    3.15
  -3  -4  -3   14.28    1.84
   3   4   4  291.15   11.45
  -3  -4  -4  301.83   11.16
   3   4   4  280.58    8.87
  -3  -4  -4  280.09    6.86
   3   4   4  281.26    8.81
   3   4   5  484.65   14.72
   3   4   5  490.76   11.76
  -3  -4  -5  459.70    9.42
   3   4   5  481.80   11.53
   3   4   6  166.18    8.87
   3   4   6  157.67    6.68
  -3  -4  -6  160.41    6.05
   3   4   6  152.43    6.52
   3   4   7  242.49   10.56
   3   4   7  228.02    7.89
  -3  -4  -7  225.18    7.43
   3   4   7  227.20    7.86
   3   4   8  193.94    9.70
   3   4   8  182.76    7.30
  -3  -4  -8  182.91    7.11
   3   4   8  188.67    7.41
   3   4   9   17.24    2.82
   3   4   9   13.13    2.50
   3   4   9   16.75    3.25
  -3  -4  -9   15.92    2.81
   3   4  10  263.18   11.39
  -3  -4 -10  249.77    8.88
   3   4  10  252.90    8.98
   3   4  11    6.47    3.12
  -3  -4 -11    5.47    2.26
   3   4  11    3.24    2.04
   3   4  12  458.84   15.86
  -3  -4 -12  431.02   12.75
   3   4  12  440.76   12.65
   3   4  13  533.73   17.53
   3   4  13  506.62   14.36
  -3  -4 -13  500.51   14.22
   3   4  13  526.74   14.34
   3   4  14   10.09    3.84
   3   4  14   11.37    3.45
  -3  -4 -14   12.38    3.23
   3   4  14   12.41    3.03
   3   4  15   96.47    8.00
   3   4  15   87.90    6.63
  -3  -4 -15   88.81    6.51
   3   4  16  316.69   14.20
   3   4  16  297.20   12.25
  -3  -4 -16  292.69   12.11
   3   4  17   42.28    5.12
   3   4  17   44.21    5.76
   3   4  18   96.54    8.35
   3   4  18   88.81    7.39
   3   4  19   12.04    3.11
   3   4  19   18.36    4.57
   3   4  20    0.26    2.54
   3   4  20    3.32    2.89
   3   4  21  232.45   13.74
   3   4  21  217.77   12.30
   3   4  22   92.74    9.14
   3   4  22   74.24    7.71
   3   4  23   22.73    5.36
   3   4  23   24.64    5.37
   3   4  24   78.91    8.39
   3   4  24   65.02    7.57
   3   4  25   28.95    5.61
   3   4  25   33.40    6.03
   3   4  26    8.45    4.87
   3   4  27   18.98    5.69
   3   4  28   32.24    6.18
  -3  -5  31    8.08    4.57
  -3  -5  30    7.80    4.53
  -3  -5  29    3.41    3.41
  -3  -5  28    2.14    3.36
  -3  -5  27    8.86    3.88
  -3  -5  26   33.39    5.66
  -3  -5  25   45.90    6.55
  -3  -5  24   50.42    6.24
  -3  -5  23    4.22    2.76
  -3  -5  22    1.88    2.86
  -3  -5  21   19.25    4.07
  -3  -5  20    4.58    2.75
  -3  -5  19   59.52    5.60
   3   5 -19   59.64    5.60
  -3  -5  18   36.76    4.49
   3   5 -18   32.19    4.05
  -3  -5  17  152.46    8.01
  -3  -5  16  184.28    8.38
   3   5 -16  175.83    6.69
  -3  -5  15   10.04    2.49
   3   5 -15    6.94    1.70
  -3  -5  14   14.87    2.75
   3   5 -14   15.99    2.53
  -3  -5  13   22.06    4.52
  -3  -5  13   22.77    4.27
  -3  -5  13   23.65    4.66
  -3  -5  13   23.70    3.04
   3   5 -13   22.97    2.96
  -3  -5  12    8.65    3.45
  -3  -5  12    9.59    3.00
  -3  -5  12   11.46    3.30
  -3  -5  12    8.64    2.32
  -3  -5  11  292.57   12.24
  -3  -5  11  277.34   11.92
  -3  -5  11  309.49    8.85
  -3  -5  11  271.57   11.89
  -3  -5  10  558.71   16.66
  -3  -5  10  528.84   16.07
  -3  -5  10  589.18   11.60
  -3  -5  10  517.78   16.01
  -3  -5   9   27.02    4.31
   3   5  -9   29.72    5.02
  -3  -5   9   29.17    2.90
  -3  -5   9   32.02    4.44
  -3  -5   9   24.94    4.17
   3   5  -8    4.08    2.22
  -3  -5   8    4.34    2.39
  -3  -5   8    2.41    1.41
  -3  -5   8    5.17    2.72
  -3  -5   8    0.17    1.85
   3   5  -7   11.98    3.03
  -3  -5   7   10.16    2.66
  -3  -5   7    9.18    1.58
  -3  -5   7   10.70    2.95
  -3  -5   7   11.95    2.66
  -3  -5   6    7.53    2.45
   3   5  -6    1.93    2.07
  -3  -5   6    2.78    1.04
  -3  -5   6    3.88    2.13
  -3  -5   6    6.42    2.54
   3   5  -5    5.01    2.38
  -3  -5   5   10.32    2.63
  -3  -5   5    2.52    2.26
  -3  -5   5   13.63    2.81
  -3  -5   5    6.55    1.31
   3   5  -4  259.54   11.28
  -3  -5   4  279.67   11.01
  -3  -5   4  283.61    9.63
  -3  -5   4  279.28    5.93
  -3  -5   4  281.99    9.55
   3   5  -3  110.30    7.78
  -3  -5   3  108.70    7.13
  -3  -5   3  113.47    6.06
  -3  -5   3   99.53    3.45
  -3  -5   3  113.76    6.14
   3   5  -2  481.51   15.45
  -3  -5   2  502.73   14.91
  -3  -5   2  494.59   11.90
  -3  -5   2  471.36    7.44
  -3  -5   2  481.22   11.72
   3   5  -1   16.76    3.90
  -3  -5   1   15.19    3.45
  -3  -5   1   18.38    2.85
  -3  -5   1   26.71    3.41
  -3  -5   0   75.87    5.93
   3   5   0   66.47    5.90
  -3  -5   0   68.54    3.09
  -3  -5   0   78.46    4.67
  -3  -5  -1  204.17    9.87
   3   5   1  184.50    9.90
  -3  -5  -1  184.63    5.34
  -3  -5  -1  194.05    7.22
  -3  -5  -2   13.07    2.10
   3   5   2   12.92    3.68
  -3  -5  -2   14.02    3.24
   3   5   3    1.64    1.44
   3   5   3    1.28    1.41
   3   5   3    1.08    2.07
  -3  -5  -3    1.62    1.85
  -3  -5  -3    3.69    1.33
  -3  -5  -4  351.39   12.71
   3   5   4  365.64   13.91
   3   5   4  360.22    9.38
  -3  -5  -4  365.91    8.88
   3   5   4  346.34    9.15
   3   5   5   58.94    6.14
  -3  -5  -5   58.19    5.59
   3   5   5   50.40    3.96
  -3  -5  -5   57.17    4.08
   3   5   5   51.14    3.89
   3   5   6  263.41   12.06
   3   5   6  249.08    7.67
  -3  -5  -6  255.39    8.01
   3   5   6  243.51    7.67
   3   5   7   43.43    3.41
   3   5   7   47.12    5.26
  -3  -5  -7   49.17    3.89
   3   5   7   42.83    3.21
   3   5   8    5.11    1.76
   3   5   8    4.03    2.28
   3   5   8    3.51    1.69
  -3  -5  -8    5.58    1.93
   3   5   9  159.88    9.72
   3   5   9  152.80    6.41
  -3  -5  -9  147.28    7.12
   3   5   9  146.86    6.28
   3   5  10  127.89    8.69
   3   5  10  116.27    5.67
  -3  -5 -10  106.35    6.21
   3   5  10  109.28    5.40
   3   5  11    2.02    1.81
   3   5  11    1.89    1.74
   3   5  11    6.90    2.93
  -3  -5 -11    4.72    2.09
   3   5  12  187.19   10.59
  -3  -5 -12  173.89    8.37
   3   5  12  170.71    7.17
   3   5  13    4.36    2.64
  -3  -5 -13    5.88    2.50
   3   5  13    6.84    2.09
   3   5  14  100.61    8.26
  -3  -5 -14  107.93    7.27
   3   5  14   97.15    6.06
   3   5  15    2.39    2.76
  -3  -5 -15    3.08    2.45
   3   5  15    7.32    2.88
   3   5  16   16.35    3.82
   3   5  16   10.04    2.92
   3   5  17  112.78    9.46
   3   5  17  107.59    7.26
   3   5  18   56.46    7.12
   3   5  19    8.38    3.83
   3   5  20  119.69   10.25
   3   5  21   43.76    6.79
   3   5  22    5.89    3.94
   3   5  23   45.25    7.29
   3   5  24    5.58    4.70
  -3  -6  30   15.64    5.21
  -3  -6  29    5.70    4.43
  -3  -6  28   11.26    4.10
  -3  -6  27   61.27    7.53
  -3  -6  26    7.89    4.37
  -3  -6  25   56.56    6.89
  -3  -6  24   10.85    3.97
  -3  -6  23    3.97    2.74
  -3  -6  22   84.32    7.28
  -3  -6  21   39.64    5.30
  -3  -6  20    1.68    2.65
  -3  -6  19  159.10    9.08
  -3  -6  18   18.88    3.66
   3   6 -18   20.81    3.04
  -3  -6  17   48.01    4.89
   3   6 -17   40.13    3.92
  -3  -6  16   22.10    3.48
   3   6 -16   19.96    2.92
  -3  -6  15   85.77    6.03
   3   6 -15   85.42    5.59
  -3  -6  14  198.21    8.58
   3   6 -14  171.71    7.68
  -3  -6  13  201.60   10.90
  -3  -6  13  227.48    8.82
   3   6 -13  209.28    8.69
  -3  -6  13  204.81   10.89
  -3  -6  12    7.23    3.65
  -3  -6  12    5.00    3.24
  -3  -6  12    3.89    2.07
  -3  -6  11  179.05    9.63
  -3  -6  11  181.57    7.46
  -3  -6  11  166.59    9.18
   3   6 -10   73.40    7.16
  -3  -6  10   84.13    6.54
  -3  -6  10   89.02    5.23
  -3  -6  10   87.97    6.68
   3   6  -9  272.33   13.01
  -3  -6   9  307.39   11.78
  -3  -6   9  323.32    9.21
  -3  -6   9  291.88   11.54
   3   6  -8  110.49    8.59
  -3  -6   8  138.57    8.00
  -3  -6   8  114.15    5.64
  -3  -6   8  125.64    7.72
  -3  -6   7   26.72    4.07
  -3  -6   7   26.33    3.73
   3   6  -7   14.90    3.53
  -3  -6   7   26.24    3.81
  -3  -6   7   17.84    2.25
   3   6  -6   35.32    4.50
  -3  -6   6   43.28    4.72
  -3  -6   6   49.06    4.53
  -3  -6   6   46.12    3.11
  -3  -6   6   51.55    4.54
   3   6  -5  280.91   12.91
  -3  -6   5  314.94   12.54
  -3  -6   5  326.61   10.52
  -3  -6   5  299.76    7.63
  -3  -6   5  315.12   10.28
  -3  -6   4   28.68    4.02
  -3  -6   4   36.76    3.93
   3   6  -4   28.52    4.70
  -3  -6   4   34.62    3.85
  -3  -6   4   22.94    2.12
   3   6  -3  694.32   19.91
  -3  -6   3  771.02   19.89
  -3  -6   3  731.75   14.49
  -3  -6   3  710.04   11.56
  -3  -6   3  730.54   14.45
  -3  -6   2   58.20    4.66
   3   6  -2   56.68    7.10
  -3  -6   2   66.71    6.70
  -3  -6   2   73.95    5.24
  -3  -6   1  236.98   11.02
   3   6  -1  211.77   11.22
  -3  -6   1  192.23    6.25
  -3  -6   1  226.56    7.62
  -3  -6   0  121.77    8.03
   3   6   0  108.58    8.04
  -3  -6   0   98.21    4.57
  -3  -6   0  119.88    5.40
   3   6   1  172.25   10.06
  -3  -6  -1  174.21    6.15
   3   6   2   73.65    6.79
  -3  -6  -2   67.02    4.04
   3   6   3  362.73   14.88
  -3  -6  -3  363.14    9.58
   3   6   4  232.84   12.20
  -3  -6  -4  240.60    8.28
   3   6   5  364.09   15.33
  -3  -6  -5  350.40   10.19
   3   6   6   28.75    5.04
  -3  -6  -6   35.55    4.05
   3   6   7   66.54    6.97
   3   6   7   56.56    3.30
  -3  -6  -7   61.23    4.88
   3   6   7   50.32    3.12
   3   6   8  183.05   10.92
   3   6   8  166.30    5.76
  -3  -6  -8  164.16    7.74
   3   6   8  158.58    5.62
   3   6   9  100.30    8.27
   3   6   9   97.98    4.58
  -3  -6  -9   94.42    6.09
   3   6   9  100.90    4.56
   3   6  10    2.48    1.45
   3   6  10    7.26    3.15
   3   6  10    3.92    1.71
  -3  -6 -10    6.35    2.37
   3   6  11  370.45   15.88
   3   6  11  360.27    9.04
  -3  -6 -11  360.30   12.41
   3   6  11  357.40    8.96
   3   6  12  173.28   11.38
   3   6  12  176.53    6.47
  -3  -6 -12  164.34    8.84
   3   6  12  168.34    6.34
   3   6  13   63.23    7.35
   3   6  13   57.00    4.04
  -3  -6 -13   55.08    5.56
   3   6  13   53.94    3.81
   3   6  14    1.89    1.92
   3   6  14    3.63    3.54
   3   6  15   10.98    3.14
   3   6  15    8.97    2.49
   3   6  16   14.11    4.07
   3   6  17   58.21    6.81
   3   6  18   15.29    3.86
   3   6  19   67.22    7.61
   3   6  20  106.56    9.53
   3   6  21   17.98    5.12
   3   6  22    0.67    3.30
  -3  -7  29    3.46    4.10
  -3  -7  28    1.18    3.63
  -3  -7  27   -0.07    3.24
  -3  -7  26   18.97    4.70
  -3  -7  25   21.37    4.83
  -3  -7  24   -0.25    2.92
  -3  -7  23   31.97    5.24
  -3  -7  22   10.50    3.62
  -3  -7  21   -2.07    2.81
  -3  -7  20    2.05    2.56
  -3  -7  19    2.04    2.68
   3   7 -19    2.49    2.34
  -3  -7  18   32.33    4.49
   3   7 -18   30.41    4.00
  -3  -7  17   43.70    4.90
   3   7 -17   40.81    4.56
  -3  -7  16   26.31    3.92
   3   7 -16   26.11    3.66
  -3  -7  15   46.87    4.85
   3   7 -15   45.03    4.79
  -3  -7  14   51.13    6.02
  -3  -7  14   50.23    4.81
   3   7 -14   49.41    4.90
  -3  -7  13    6.03    2.96
  -3  -7  13    6.57    2.44
   3   7 -13   11.53    3.03
  -3  -7  12   24.74    4.11
  -3  -7  12   28.42    3.55
  -3  -7  12   30.07    4.75
  -3  -7  11    9.36    3.15
  -3  -7  11    9.87    2.58
  -3  -7  11    8.96    3.03
  -3  -7  10    6.36    2.65
   3   7 -10    1.84    2.35
  -3  -7  10    0.10    2.18
  -3  -7  10    2.79    1.78
  -3  -7   9   30.75    4.35
   3   7  -9   22.29    4.89
  -3  -7   9   32.45    4.11
  -3  -7   9   25.27    3.03
   3   7  -8   48.44    6.10
  -3  -7   8   51.91    5.00
  -3  -7   8   50.38    4.00
  -3  -7   8   60.39    5.31
   3   7  -7  150.77   10.58
  -3  -7   7  173.62    8.22
  -3  -7   7  159.23    6.70
  -3  -7   7  170.28    8.04
   3   7  -6   70.56    7.49
  -3  -7   6   82.99    5.72
  -3  -7   6   62.19    4.16
  -3  -7   6   86.60    5.78
  -3  -7   5   51.44    4.38
   3   7  -5   38.22    5.30
  -3  -7   5   34.95    2.99
  -3  -7   5   51.72    4.33
   3   7  -4   62.12    6.56
  -3  -7   4   79.96    4.91
  -3  -7   4   60.31    3.79
  -3  -7   4   81.86    4.99
  -3  -7   3  107.16    5.36
   3   7  -3   96.96    8.03
  -3  -7   3  109.99    5.40
  -3  -7   3   89.71    4.70
   3   7  -2   13.24    3.24
  -3  -7   2   15.78    2.19
   3   7  -1  286.40   13.94
  -3  -7   1  308.24    8.33
   3   7   0  181.71   11.59
  -3  -7   0  181.17    7.39
  -3  -7  -1    8.36    1.88
   3   7   1   15.08    4.42
  -3  -7  -2    0.85    1.69
   3   7   2   -2.35    2.76
  -3  -7  -3   16.88    2.60
   3   7   3   16.14    3.88
  -3  -7  -4   60.05    4.63
   3   7   4   61.13    6.82
  -3  -7  -5   49.36    4.42
   3   7   5   46.29    6.25
  -3  -7  -6   58.61    4.82
   3   7   6   59.99    6.96
  -3  -7  -7   19.63    3.25
   3   7   7   20.23    4.60
   3   7   8  104.49    9.19
  -3  -7  -8  107.90    6.92
  -3  -7  -9   30.64    4.15
   3   7   9   43.16    6.37
  -3  -7 -10    5.47    2.61
   3   7  10    1.13    3.16
  -3  -7 -11   25.83    4.05
   3   7  11   22.55    4.87
   3   7  12   21.85    5.01
   3   7  13   23.37    5.04
   3   7  14  132.96   10.36
   3   7  15    3.78    3.68
   3   7  16   38.24    6.23
   3   7  17   10.77    4.39
   3   7  18   18.56    4.84
   3   7  19   12.94    4.50
   3   7  20    2.06    3.35
  -3  -8  25    4.67    3.51
  -3  -8  24    5.31    3.19
  -3  -8  23    3.77    3.13
  -3  -8  22    7.45    3.37
  -3  -8  21   15.12    3.98
  -3  -8  20  126.03    8.89
  -3  -8  19    4.45    3.27
   3   8 -19    8.15    3.14
  -3  -8  18   47.53    5.48
   3   8 -18   52.13    5.44
  -3  -8  17   12.01    3.53
   3   8 -17    4.92    2.59
  -3  -8  16    5.11    2.72
   3   8 -16    0.11    2.58
  -3  -8  15   40.30    5.70
  -3  -8  15   45.12    4.89
   3   8 -15   41.63    5.29
  -3  -8  14  107.75    7.14
   3   8 -14  103.70    7.61
  -3  -8  14   97.54    7.88
  -3  -8  13    9.26    3.67
  -3  -8  13   10.69    3.20
   3   8 -13    9.73    3.22
  -3  -8  12  258.81   11.85
  -3  -8  12  254.02   10.32
  -3  -8  12  260.12   11.44
  -3  -8  11    6.28    3.25
   3   8 -11   10.74    4.85
  -3  -8  11   10.22    3.98
  -3  -8  11    2.47    2.80
  -3  -8  10   21.41    3.86
   3   8 -10   13.73    4.20
  -3  -8  10   17.15    3.01
  -3  -8  10   15.91    2.83
  -3  -8   9   16.57    3.46
   3   8  -9    8.40    3.79
  -3  -8   9   11.48    2.67
  -3  -8   9   12.30    2.73
  -3  -8   8   17.57    3.14
   3   8  -8   11.28    3.92
  -3  -8   8   17.53    3.06
  -3  -8   8   11.36    2.34
   3   8  -7   52.56    6.73
  -3  -8   7   62.95    4.98
  -3  -8   7   50.57    4.27
  -3  -8   7   66.98    5.23
   3   8  -6  120.63    9.95
  -3  -8   6  138.78    6.91
  -3  -8   6  126.79    6.63
  -3  -8   6  139.75    6.94
  -3  -8   5    6.32    2.16
   3   8  -5    1.12    2.78
  -3  -8   5    5.52    2.27
  -3  -8   5   -3.04    1.68
  -3  -8   4  181.99    6.93
   3   8  -4  157.37   11.11
  -3  -8   4  174.35    6.78
  -3  -8   4  160.90    7.27
  -3  -8   3    7.62    2.08
   3   8  -3    2.27    2.58
   3   8  -2   58.23    6.66
  -3  -8   2   63.85    3.72
   3   8  -1   75.80    7.92
  -3  -8   0   13.04    2.50
   3   8   0   12.14    3.51
  -3  -8  -1   30.87    3.62
   3   8   1   30.87    5.61
   3   8   2  171.78   11.84
  -3  -8  -2  177.63    8.33
  -3  -8  -3    8.67    3.23
   3   8   3   13.18    4.66
   3   8   4  111.49    9.75
  -3  -8  -4  105.91    6.75
  -3  -8  -5    6.61    2.28
   3   8   5   10.55    4.85
  -3  -8  -6    7.25    2.64
   3   8   6    6.54    3.27
  -3  -8  -7    3.97    2.01
   3   8   7    2.03    3.11
  -3  -8  -8    3.33    2.83
   3   8   8    0.70    2.89
   3   8   9    2.58    3.72
   3   8  10  162.71   12.00
   3   8  11    5.53    3.83
   3   8  12  141.84   11.39
   3   8  13    5.00    3.90
   3   8  14   -2.85    3.86
   3   8  15    3.09    3.10
   3   8  16    7.66    4.57
   3   8  17   13.96    5.05
  -3  -9  20   13.23    3.96
  -3  -9  19    9.37    3.73
  -3  -9  18   19.97    4.36
   3   9 -18   18.60    4.18
  -3  -9  17    6.52    2.98
   3   9 -17    7.94    3.46
  -3  -9  16   35.50    5.17
  -3  -9  16   36.85    4.88
   3   9 -16   37.74    5.34
  -3  -9  15    9.13    3.65
  -3  -9  15    9.83    3.19
   3   9 -15   14.77    4.14
  -3  -9  14    5.57    2.99
  -3  -9  14    6.30    2.88
   3   9 -14    5.52    3.06
  -3  -9  13   22.19    4.07
  -3  -9  13   24.02    3.89
   3   9 -13   26.57    4.60
  -3  -9  12    4.35    2.55
  -3  -9  12   14.58    3.24
  -3  -9  11    9.48    3.04
   3   9 -11    5.26    3.64
  -3  -9  11   10.42    2.79
   3   9 -10   51.40    7.52
  -3  -9  10   73.96    6.17
  -3  -9  10   77.82    6.06
   3   9  -9    1.78    3.76
  -3  -9   9    8.71    2.92
  -3  -9   9    2.29    2.47
  -3  -9   8   32.28    3.79
   3   9  -8   29.05    5.59
  -3  -9   8   32.82    3.91
  -3  -9   7    1.83    1.93
   3   9  -7   -1.74    3.10
  -3  -9   7    2.50    1.95
   3   9  -6   -0.13    2.75
  -3  -9   6   -0.73    1.79
   3   9  -5   25.96    5.40
  -3  -9   5   27.32    3.01
  -3  -9   5   24.08    3.28
   3   9  -4    8.29    4.02
  -3  -9   4    9.26    2.20
   3   9  -3   -2.68    3.64
   3   9  -2   61.70    7.89
   3   9  -1   35.10    6.45
   3   9   0   67.23    8.41
   3   9   1    5.52    3.45
   3   9   2    5.16    3.55
   3   9   3   -1.70    3.24
   3   9   4   17.74    4.89
   3   9   5   60.32    8.01
   3   9   6   40.58    6.95
   3   9   7   59.06    7.84
   3   9   8   14.55    4.64
   3   9   9    4.42    4.20
   3   9  10    3.43    3.43
   3   9  11   19.82    5.70
   3   9  12   47.52    7.65
   3   9  13   55.49    8.04
  -3 -10  19   16.66    4.94
   3  10 -17    0.73    3.08
   3  10 -16   19.26    4.46
   3  10 -15   47.41    6.40
   3  10 -14   28.97    5.32
   3  10 -13  135.17   10.45
   3  10 -11   15.49    5.31
  -3 -10  11   14.12    3.39
   3  10 -10   11.63    5.10
  -3 -10  10    2.36    2.65
   3  10  -9    5.03    3.83
  -3 -10   9    3.98    2.34
   3  10  -8   25.84    5.99
  -3 -10   8   37.57    4.56
   3  10  -7   88.70   10.24
  -3 -10   7   93.06    6.76
   3  10  -6   13.65    5.52
  -3 -10   6   -2.16    2.49
   3  10  -5   97.28   10.27
  -3 -10   5   93.31    6.46
   3  10  -4   25.72    5.79
  -3 -10   4   13.26    3.01
   3  10  -3    6.32    3.80
   3  10  -2   -4.31    4.05
   3  10  -1   33.97    6.32
   3  10   0   40.68    6.99
   3  10   1  188.88   13.97
   3  10   2    7.26    4.94
   3  10   3   91.67    9.93
   3  10   4    8.92    4.79
   3  10   5   26.38    5.98
   3  10   6    2.13    3.76
   3  10   7   47.49    7.62
   3  10   8    6.49    5.26
   3  10   9  126.58   11.83
   3  11 -16   11.67    4.45
   3  11 -15   -0.37    3.11
   3  11 -14   14.90    4.68
   3  11 -13   27.32    5.54
   3  11 -12    5.31    3.34
   3  11  -9   20.08    5.75
   3  11  -8   -3.09    3.27
   3  11  -7    1.61    3.32
   3  11  -6   16.91    5.45
   3  11  -5   15.19    5.32
   3  11  -4    1.86    3.51
   3  11  -3   60.51    8.64
   3  11  -2   14.71    5.47
   3  11  -1    9.85    4.91
   3  11   0    1.48    3.90
   3  11   1    2.43    3.39
   3  12 -14   25.29    6.26
   3  12 -13    5.25    4.19
   3  12 -12   16.42    5.42
  -4  11   7    6.07    3.92
  -4  11   6    8.52    4.30
  -4  11   5   13.97    5.22
  -4  11   4    3.42    3.58
  -4  11   3    9.23    4.93
  -4  11   2   15.36    5.16
   4 -11   3   13.21    4.85
   4 -11   4   42.83    6.67
   4 -11   5   24.63    5.62
   4 -11   6   31.14    5.94
   4 -11   7   37.26    6.29
   4 -11   8   -0.31    3.55
   4 -11   9   17.24    5.29
   4 -11  10    2.42    3.79
   4 -11  11    6.96    4.95
   4 -11  12   32.68    7.26
   4 -11  13   31.91    7.37
  -4  10  12   18.61    5.20
  -4  10  11   -5.17    3.60
  -4  10  10   -0.70    3.60
  -4  10   9   50.40    7.00
  -4  10   8   57.02    7.31
  -4  10   7   26.03    5.89
   4 -10  -6  122.98    9.76
  -4  10   6  104.57    9.86
   4 -10  -5    1.90    2.92
  -4  10   5    8.89    4.15
   4 -10  -4    8.97    3.40
  -4  10   4   12.59    4.51
   4 -10  -3   -0.76    2.99
  -4  10   3    3.09    3.42
   4 -10  -2   10.10    4.07
  -4  10   2    6.87    4.03
   4 -10  -1   59.03    7.19
  -4  10   1   56.89    8.01
   4 -10   0   94.62    8.56
  -4  10   0   98.11    9.77
   4 -10   1    7.35    3.84
  -4  10  -1   15.47    5.13
   4 -10   2  102.30    9.13
  -4  10  -2  107.57   10.06
   4 -10   3    9.92    4.27
  -4  10  -3    3.19    4.20
   4 -10   4   26.95    5.38
  -4  10  -4   28.71    6.07
   4 -10   5    9.81    4.11
  -4  10  -5   16.21    4.83
   4 -10   6   46.05    6.70
  -4  10  -6   39.10    6.95
   4 -10   7   51.72    7.31
  -4  10  -7   56.59    8.13
   4 -10   8  122.17   10.39
   4 -10   8  110.78   10.31
   4 -10   9   14.80    5.90
   4 -10   9    5.06    4.42
   4 -10  10   85.14    9.20
   4 -10  10   76.52    9.11
   4 -10  11    0.19    4.04
  -4   9  13   22.93    4.63
  -4   9  12   43.51    6.36
  -4   9  11    0.35    3.29
  -4   9  10   37.39    6.13
  -4   9   9   39.84    5.85
  -4   9   8    2.15    2.95
   4  -9  -7    1.37    3.61
  -4   9   7    2.42    2.70
   4  -9  -6    5.36    3.44
  -4   9   6    6.79    3.41
   4  -9  -5   44.01    6.08
  -4   9   5   52.23    6.71
   4  -9  -4  109.07    8.93
  -4   9   4  105.37    9.15
   4  -9  -3    2.85    3.42
  -4   9   3    8.60    4.36
   4  -9  -2  118.07    9.37
  -4   9   2  108.80    9.56
   4  -9  -1   71.56    7.45
  -4   9   1   74.85    7.94
   4  -9   0    5.76    2.83
  -4   9   0   10.15    3.77
   4  -9   1    4.17    3.67
  -4   9  -1    0.12    2.98
   4  -9   2   22.84    4.85
  -4   9  -2   29.68    5.76
   4  -9   3   76.54    7.98
  -4   9  -3   84.83    9.00
   4  -9   4  164.37   11.10
  -4   9  -4  179.79   12.05
   4  -9   5    2.29    3.50
  -4   9  -5    4.96    3.38
   4  -9   6  101.90    9.12
  -4   9  -6  106.02    9.39
   4  -9   7   63.20    7.80
   4  -9   8    6.22    4.09
   4  -9   8   -1.86    3.59
   4  -9   9   23.55    5.49
   4  -9   9   18.39    4.58
   4  -9  10   25.46    5.15
   4  -9  11   27.94    5.79
   4  -9  12  103.09    9.78
   4  -9  13    8.60    3.93
   4  -9  14   13.19    4.32
   4  -9  15   36.08    6.50
  -4   8  18   21.15    5.64
  -4   8  17   85.88    8.80
  -4   8  16   13.79    4.69
  -4   8  15   57.27    7.33
  -4   8  14   20.72    4.70
  -4   8  14   14.03    4.57
  -4   8  13    2.28    3.34
  -4   8  13    4.34    3.08
  -4   8  12    4.71    4.10
  -4   8  12   10.80    3.58
  -4   8  11    7.45    3.06
  -4   8  11    6.05    3.59
  -4   8  10    0.66    2.66
  -4   8   9  199.36   11.29
   4  -8  -8   12.68    4.56
  -4   8   8    7.98    3.30
   4  -8  -7   84.57    7.88
  -4   8   7   83.44    5.93
  -4   8   7   88.76    7.56
   4  -8  -6    7.54    3.80
  -4   8   6    2.92    1.88
  -4   8   6   -0.20    2.72
   4  -8  -5    4.29    3.07
  -4   8   5   -2.45    2.09
  -4   8   5    2.33    2.55
   4  -8  -4   30.45    5.41
  -4   8   4   30.02    3.77
  -4   8   4   25.75    4.84
   4  -8  -3  153.02   10.25
  -4   8   3  150.35   10.09
   4  -8  -2    0.12    2.93
  -4   8   2    6.94    3.82
   4  -8  -1  225.86   12.36
  -4   8   1  212.56   11.90
   4  -8   0   27.60    5.03
  -4   8   0   35.17    5.71
   4  -8   1   21.83    4.71
  -4   8  -1   22.10    4.45
   4  -8   2   -4.60    3.36
  -4   8  -2   -2.63    2.77
   4  -8   3    3.76    3.34
  -4   8  -3    6.70    3.69
   4  -8   4  124.06   10.11
  -4   8  -4  110.15    9.23
   4  -8   5  345.64   16.02
  -4   8  -5  336.19   15.24
   4  -8   6   15.32    5.00
   4  -8   7  278.55   14.60
   4  -8   8    3.84    3.10
   4  -8   8    7.32    3.85
   4  -8   9    0.65    2.99
   4  -8  10   25.64    5.18
   4  -8  11   28.20    5.54
   4  -8  12   84.60    9.07
   4  -8  13  197.32   12.63
   4  -8  14   14.80    4.64
   4  -8  15  150.94   11.52
   4  -8  16    4.84    3.42
   4  -8  17    7.06    4.26
   4  -8  18   75.32    9.06
   4  -8  19   48.04    7.22
  -4   7  23    5.51    3.87
  -4   7  22   10.61    4.86
  -4   7  21   42.61    7.00
  -4   7  20    0.62    3.29
  -4   7  19   29.91    5.70
  -4   7  18   18.69    5.48
  -4   7  17    3.12    3.49
  -4   7  16   19.03    5.01
  -4   7  15   16.14    4.84
  -4   7  15   18.43    3.94
  -4   7  14   10.80    4.09
  -4   7  14   11.30    3.71
  -4   7  13  100.56    7.55
  -4   7  13  105.29    9.19
  -4   7  12   21.31    4.65
  -4   7  12   18.92    3.91
  -4   7  11   26.08    3.57
  -4   7  11   23.51    3.82
  -4   7  11   26.73    4.98
  -4   7  10   24.19    3.33
  -4   7  10   26.00    4.12
  -4   7  10   23.82    4.65
  -4   7   9   11.37    2.62
  -4   7   9    8.52    3.34
  -4   7   9    8.92    2.97
   4  -7  -8   24.25    4.86
  -4   7   8   19.79    3.00
  -4   7   8   16.48    3.72
  -4   7   8   19.83    4.62
   4  -7  -7   60.98    6.70
  -4   7   7   56.27    4.41
  -4   7   7   64.30    6.27
   4  -7  -6   37.55    5.54
  -4   7   6   38.44    3.59
  -4   7   6   43.48    5.21
   4  -7  -5  164.14   10.67
  -4   7   5  133.81    6.39
  -4   7   5  148.32    9.19
   4  -7  -4   11.76    3.88
  -4   7   4    3.34    1.62
  -4   7   4    5.29    2.89
   4  -7  -3   37.26    5.55
  -4   7   3   35.30    5.18
   4  -7  -2   21.43    2.91
   4  -7  -2   39.85    5.71
  -4   7   2   34.44    4.81
   4  -7  -1    4.94    3.23
   4  -7  -1    4.17    1.67
  -4   7   1    4.53    2.58
   4  -7   0   13.37    3.99
   4  -7   0   11.89    2.38
  -4   7   0   17.72    4.29
   4  -7   1   58.69    6.62
   4  -7   1   48.68    4.17
  -4   7  -1   76.81    6.97
   4  -7   2    6.59    3.52
   4  -7   2    7.31    2.59
  -4   7  -2    9.78    3.62
   4  -7   3  157.98   10.33
   4  -7   3  142.57    7.09
  -4   7  -3  160.16    9.82
   4  -7   4    1.82    2.76
   4  -7   4   -1.96    1.96
   4  -7   5    2.06    3.01
   4  -7   5   -0.87    1.84
   4  -7   6    5.18    3.50
   4  -7   6    5.33    2.31
   4  -7   7    8.65    2.94
   4  -7   7    7.63    4.06
   4  -7   8   85.47    6.32
   4  -7   8   86.81    8.32
   4  -7   9  157.26    8.38
   4  -7   9  151.87   10.51
   4  -7  10   36.21    4.60
   4  -7  10   35.12    5.37
   4  -7  11   66.35    5.98
   4  -7  11   67.19    7.30
   4  -7  12    7.94    3.72
   4  -7  13    8.55    3.19
   4  -7  14    3.62    2.74
   4  -7  15    3.81    3.82
   4  -7  16  122.16   10.06
   4  -7  17  141.29   10.73
   4  -7  18   13.37    4.64
   4  -7  19   11.77    4.41
   4  -7  20    3.67    3.10
   4  -7  21   11.52    4.14
  -4   6  25    9.77    5.00
  -4   6  24    8.63    4.60
  -4   6  23    0.84    3.73
  -4   6  22    1.15    3.38
  -4   6  21    5.05    3.44
  -4   6  20   26.58    5.38
  -4   6  19    8.92    4.63
  -4   6  18   67.24    7.48
  -4   6  17    3.36    3.25
  -4   6  16    7.13    3.25
  -4   6  16    8.03    2.66
  -4   6  15    3.39    2.17
  -4   6  15    0.77    3.06
  -4   6  15    3.31    2.09
  -4   6  14    2.14    1.97
  -4   6  14    0.59    2.99
  -4   6  14    1.76    2.17
  -4   6  13   61.68    7.06
  -4   6  13   60.97    4.81
  -4   6  13   57.91    5.30
  -4   6  12   84.46    5.56
  -4   6  12   78.77    7.74
  -4   6  12   83.03    6.28
  -4   6  11    3.89    2.00
  -4   6  11    4.90    2.85
  -4   6  11   -3.01    2.70
  -4   6  10   36.82    3.51
  -4   6  10   38.11    5.48
  -4   6  10   32.67    4.08
   4  -6  -9   10.53    4.10
  -4   6   9    5.39    1.90
  -4   6   9    0.97    2.02
  -4   6   9    4.42    3.09
   4  -6  -8    2.31    3.09
  -4   6   8   -0.68    1.35
  -4   6   8    2.19    2.12
  -4   6   8   -2.62    2.50
   4  -6  -7   46.29    6.15
  -4   6   7   46.43    3.39
  -4   6   7   47.45    4.87
  -4   6   7   40.30    5.42
   4  -6  -6   64.47    6.52
  -4   6   6   64.49    3.68
  -4   6   6   70.02    6.96
  -4   6   6   71.56    6.04
   4  -6  -5   73.29    7.33
  -4   6   5   59.33    3.43
  -4   6   5   71.60    6.19
   4  -6  -4  103.22    8.38
  -4   6   4  108.75    7.44
   4  -6  -3   59.79    6.29
  -4   6   3   66.34    6.10
   4  -6  -2  176.74   10.61
  -4   6   2  169.70    9.36
   4  -6  -1   21.24    4.49
   4  -6  -1   12.01    1.83
  -4   6   1   21.09    3.82
   4  -6   0    2.81    3.25
   4  -6   0    0.52    1.32
  -4   6   0    5.54    2.96
   4  -6   1  100.21    8.15
   4  -6   1   89.35    4.71
   4  -6   2    6.75    3.22
   4  -6   2    3.06    1.55
   4  -6   3  210.71   11.98
   4  -6   3  190.84    7.40
   4  -6   4  438.45   17.16
   4  -6   4  414.19   11.17
   4  -6   5    4.22    2.94
   4  -6   5    1.29    1.59
   4  -6   6  207.42   12.22
   4  -6   6  197.46    8.10
   4  -6   7   34.68    3.74
   4  -6   7   31.37    4.67
   4  -6   8   19.55    3.05
   4  -6   8   11.37    3.04
   4  -6   9  135.19    7.34
   4  -6   9  118.27    8.92
   4  -6  10  117.75    6.99
   4  -6  10  101.07    7.98
   4  -6  11   86.73    6.39
   4  -6  11   79.27    7.57
   4  -6  12  424.91   13.98
   4  -6  12  408.01   16.16
   4  -6  13    8.82    3.07
   4  -6  13   -0.17    2.49
   4  -6  14   99.00    8.34
   4  -6  15   24.73    4.95
   4  -6  16   -3.19    2.96
   4  -6  17  102.18    9.07
   4  -6  18  218.40   12.68
   4  -6  19   19.84    4.72
   4  -6  20  269.30   14.74
   4  -6  21    2.09    3.86
   4  -6  22    7.03    3.64
   4  -6  23   24.95    5.70
  -4   5  25   10.54    4.97
  -4   5  24   20.23    5.62
  -4   5  23    6.38    3.91
  -4   5  22   34.69    6.03
  -4   5  21   -1.49    3.46
  -4   5  20    3.64    3.42
  -4   5  19    6.26    3.78
  -4   5  18    9.41    2.96
  -4   5  18    3.85    3.34
  -4   5  17   41.01    4.41
  -4   5  17   39.79    6.13
  -4   5  16   50.74    6.76
  -4   5  16   47.06    4.49
  -4   5  16   49.83    4.28
  -4   5  15   25.13    3.38
  -4   5  15   23.29    4.99
  -4   5  15   23.88    3.26
  -4   5  14  123.72    6.43
  -4   5  14  127.61    9.46
  -4   5  14  131.35    6.87
  -4   5  13   41.63    5.77
  -4   5  13   43.98    4.01
  -4   5  13   38.61    4.05
  -4   5  12    6.45    1.88
  -4   5  12    9.62    3.76
  -4   5  12    7.32    2.15
  -4   5  11    1.70    1.44
  -4   5  11   -0.34    2.66
  -4   5  11    2.64    2.24
  -4   5  10    3.58    1.59
  -4   5  10    0.14    2.77
  -4   5  10    5.90    2.38
   4  -5  -9   21.20    4.53
  -4   5   9   14.55    2.06
  -4   5   9   15.68    4.31
  -4   5   9   18.11    3.20
   4  -5  -8  250.59   12.77
  -4   5   8  238.72    6.55
  -4   5   8  267.37   10.01
  -4   5   8  255.68   12.66
   4  -5  -7    9.20    3.08
  -4   5   7   12.92    1.52
  -4   5   7   16.07    3.30
  -4   5   7   18.14    4.09
   4  -5  -6  101.19    8.08
  -4   5   6   97.94    3.46
  -4   5   6  107.90    6.85
  -4   5   6  103.00    8.12
   4  -5  -5   16.29    4.12
  -4   5   5   16.53    3.32
  -4   5   5   15.16    3.98
   4  -5  -4   -1.83    2.96
  -4   5   4    3.37    2.44
  -4   5   4    1.28    1.88
   4  -5  -3    4.07    2.79
  -4   5   3    6.31    2.48
   4  -5  -2   57.94    6.27
   4  -5  -1   40.64    5.71
   4  -5   0  581.48   18.89
   4  -5   0  452.51    7.93
   4  -5   1   41.89    5.38
   4  -5   1   30.22    2.18
   4  -5   2   76.31    6.95
   4  -5   2   74.84    3.79
   4  -5   3   17.18    3.91
   4  -5   3   16.32    2.00
   4  -5   4   54.01    6.07
   4  -5   4   56.70    3.84
   4  -5   5  110.78    9.21
   4  -5   5   93.66    4.85
   4  -5   6  846.02   23.87
   4  -5   6  847.16   15.10
   4  -5   6  796.53   20.29
   4  -5   7   10.63    2.34
   4  -5   7    5.98    2.94
   4  -5   8  275.61    9.31
   4  -5   8  257.53   11.70
   4  -5   9   25.89    3.29
   4  -5   9   23.08    4.06
   4  -5  10   56.42    4.73
   4  -5  10   51.03    5.44
   4  -5  11   17.91    3.20
   4  -5  11   12.08    3.52
   4  -5  12   28.30    3.71
   4  -5  12   27.24    4.47
   4  -5  13   10.02    2.75
   4  -5  13    5.61    2.89
   4  -5  14  162.70    8.94
   4  -5  14  148.08    9.71
   4  -5  15   -1.81    2.74
   4  -5  16  226.54   12.17
   4  -5  17   -4.75    2.89
   4  -5  18    3.17    2.75
   4  -5  19   -0.19    2.65
   4  -5  20   -1.07    3.36
   4  -5  21   10.05    3.90
   4  -5  22  117.75    9.79
   4  -5  23   11.41    4.44
   4  -5  24   29.18    5.72
   4  -5  25    6.86    4.29
  -4   4  26   33.60    6.93
  -4   4  25    3.19    4.55
  -4   4  24    7.89    3.99
  -4   4  23    5.67    3.93
  -4   4  22   11.64    4.42
  -4   4  21   64.48    6.26
  -4   4  21   70.23    8.89
  -4   4  20   47.50    5.12
  -4   4  20   42.18    6.93
  -4   4  19   43.26    4.80
  -4   4  19   43.29    6.46
  -4   4  18   16.71    3.11
  -4   4  18   14.51    4.29
  -4   4  17    4.80    2.11
  -4   4  17    2.71    3.35
  -4   4  16    7.87    2.35
  -4   4  16   11.92    4.02
  -4   4  16   13.44    2.35
  -4   4  15   11.74    2.43
  -4   4  15   17.27    4.19
  -4   4  15   13.96    2.46
  -4   4  14   24.85    3.00
  -4   4  14   29.57    5.16
  -4   4  14   27.87    3.13
  -4   4  13  195.26    7.26
  -4   4  13  201.70   11.52
  -4   4  13  215.26    7.84
  -4   4  12  133.73    5.66
  -4   4  12  150.68    9.98
  -4   4  12  153.67    6.83
  -4   4  11   31.04    4.77
  -4   4  11   27.54    2.72
  -4   4  11   27.96    3.17
  -4   4  10   28.71    2.39
  -4   4  10   32.20    4.84
  -4   4  10   34.06    3.43
  -4   4   9    1.76    1.08
   4  -4  -9    2.55    3.30
  -4   4   9    3.64    3.00
  -4   4   9    4.30    1.82
  -4   4   8   91.59    2.85
   4  -4  -8   94.60    7.91
   4  -4  -8   99.77    7.42
  -4   4   8   97.13    7.75
  -4   4   8   93.84    5.57
   4  -4  -7   87.01    7.54
  -4   4   7   87.80    7.26
   4  -4  -6    0.89    2.75
  -4   4   6   -1.31    2.35
   4  -4  -5  354.78   14.68
  -4   4   5  350.80   14.19
   4  -4  -4  279.05   12.99
  -4   4   4  275.04   12.53
   4  -4  -3   75.94    6.69
  -4   4   3   77.87    6.78
   4  -4  -2   -4.84    3.16
  -4   4   2   -1.78    2.94
   4  -4  -1    1.11    2.38
   4  -4   0   50.61    5.81
   4  -4   1  122.79    8.71
   4  -4   1  137.23    7.84
   4  -4   2   69.36    6.50
   4  -4   2   60.25    2.70
   4  -4   2   78.31    6.24
   4  -4   3  108.15    8.07
   4  -4   3  104.25    3.98
   4  -4   3  113.78    7.24
   4  -4   4  128.67    8.95
   4  -4   4  126.09    4.65
   4  -4   4  131.18    7.94
   4  -4   5  163.20   10.10
   4  -4   5  167.73    5.71
   4  -4   5  156.25    8.32
   4  -4   5  171.79    9.19
   4  -4   6    3.40    2.80
   4  -4   6    4.48    1.63
   4  -4   6    5.50    2.13
   4  -4   7    1.54    1.28
   4  -4   7   -1.83    2.48
   4  -4   8  110.89    5.66
   4  -4   8  107.50    7.30
   4  -4   9  200.78    7.91
   4  -4   9  191.44    9.72
   4  -4  10   77.83    5.40
   4  -4  10   64.40    5.70
   4  -4  11  330.13   12.98
   4  -4  12   26.62    4.32
   4  -4  13    0.39    2.62
   4  -4  14   94.98    7.38
   4  -4  15   36.15    5.25
   4  -4  16   48.43    5.87
   4  -4  17  215.22   11.67
   4  -4  18    8.66    4.17
   4  -4  19  148.73   10.24
   4  -4  20    5.22    2.96
   4  -4  21    1.37    2.83
   4  -4  22  160.09   11.15
   4  -4  23    1.78    3.09
   4  -4  24   10.07    3.85
   4  -4  25   89.32    9.19
   4  -4  26    4.23    3.89
  -4   3  26    9.17    5.23
  -4   3  25   25.83    6.05
  -4   3  24   20.48    5.79
  -4   3  23   46.72    5.73
  -4   3  23   56.97    7.99
  -4   3  22   24.88    4.43
  -4   3  22   42.67    7.00
  -4   3  21    0.89    1.97
  -4   3  21    9.29    4.22
  -4   3  20    4.69    2.44
  -4   3  20    5.35    3.60
  -4   3  19   15.12    3.22
  -4   3  19   15.72    4.55
  -4   3  18    0.81    1.67
  -4   3  18    6.27    3.76
  -4   3  17  100.69    6.22
  -4   3  17  113.61    9.38
  -4   3  16   36.73    3.78
  -4   3  16   40.26    5.62
  -4   3  15   75.56    4.91
  -4   3  15   73.67    7.44
  -4   3  14   36.67    3.38
  -4   3  14   40.55    5.60
  -4   3  13    0.86    2.84
  -4   3  13    2.17    1.37
  -4   3  12    4.39    2.98
   4  -3 -12   10.31    2.96
  -4   3  12    3.18    1.45
  -4   3  11   10.55    3.37
   4  -3 -11   17.02    3.36
  -4   3  11   11.44    1.76
  -4   3  10    5.84    3.08
  -4   3  10    8.78    1.34
   4  -3 -10   10.52    2.77
   4  -3  -9  250.39   12.46
   4  -3  -9  262.79   10.61
  -4   3   9  253.94   12.00
   4  -3  -8   81.05    7.32
   4  -3  -8   76.68    5.76
  -4   3   8   86.17    7.23
   4  -3  -7   91.69    7.51
   4  -3  -7   99.32    6.48
  -4   3   7   99.97    7.50
   4  -3  -6   19.85    3.46
  -4   3   6   18.85    3.84
   4  -3  -5    1.98    2.28
  -4   3   5    0.98    2.52
   4  -3  -4   84.95    7.18
  -4   3   4   81.86    6.97
   4  -3  -3  141.87    9.05
   4  -3  -3  151.82    9.40
  -4   3   3  150.70    9.13
   4  -3  -2   13.09    3.34
   4  -3  -2   13.70    3.40
  -4   3   2   10.31    3.15
   4  -3  -1  559.21   17.98
   4  -3  -1  579.15   14.33
   4  -3  -1  576.24   18.00
  -4   3   1  561.07   17.57
   4  -3   0  156.11    9.73
   4  -3   0  152.42    9.43
   4  -3   0  158.58    7.70
   4  -3   1   33.44    4.58
   4  -3   1   37.41    4.64
   4  -3   1   41.70    3.95
   4  -3   2   -1.26    2.61
   4  -3   2    5.70    2.67
   4  -3   2    0.69    1.81
   4  -3   3    1.19    2.22
   4  -3   3    2.85    0.91
   4  -3   3    3.66    2.44
   4  -3   4    1.71    2.21
   4  -3   4    5.47    1.28
   4  -3   4    4.75    2.42
   4  -3   4    5.00    1.83
   4  -3   5  107.47    8.19
   4  -3   5  115.82    4.49
   4  -3   5  114.61    6.84
   4  -3   5  114.52    7.34
   4  -3   6   14.15    3.99
   4  -3   6   17.66    2.13
   4  -3   6   15.28    3.38
   4  -3   6   18.51    3.37
   4  -3   7  815.28   18.24
   4  -3   7  859.65   20.43
   4  -3   8  146.49    8.03
   4  -3   9    0.48    1.90
   4  -3  10  222.67    9.96
   4  -3  11    0.76    2.02
   4  -3  12   69.71    6.04
   4  -3  13  371.53   13.65
   4  -3  14  105.11    7.50
   4  -3  15   51.54    5.68
   4  -3  16    7.67    2.60
   4  -3  17    0.90    2.24
   4  -3  18  155.68    9.83
   4  -3  19   23.37    4.51
   4  -3  20   39.84    5.61
   4  -3  21  140.16   10.00
   4  -3  22    2.32    3.62
   4  -3  23   70.02    8.14
   4  -3  24   20.54    4.78
   4  -3  25   23.75    5.30
   4  -3  26   43.07    6.52
   4  -3  27    9.76    4.16
  -4   2  26   28.67    6.86
  -4   2  25   17.57    5.93
  -4   2  24   45.10    7.41
  -4   2  23    5.65    4.17
  -4   2  22  101.49    9.98
  -4   2  21   22.97    5.82
  -4   2  20   70.22    8.26
  -4   2  19   34.55    5.77
  -4   2  18    3.10    3.34
  -4   2  17   91.52    8.63
  -4   2  16  427.36   17.30
  -4   2  15    3.15    3.28
   4  -2 -14  125.67    7.60
  -4   2  14  123.93    9.28
  -4   2  13   63.28    6.89
   4  -2 -13   64.90    5.51
  -4   2  12   22.89    4.52
   4  -2 -12   26.21    3.71
  -4   2  12   17.97    2.16
  -4   2  11    3.22    2.96
  -4   2  11    1.19    1.09
   4  -2 -11    2.41    2.05
  -4   2  10   65.73    2.58
  -4   2  10   62.83    2.72
   4  -2 -10   80.06    5.56
  -4   2  10   78.43    7.07
   4  -2  -9  161.13    7.60
  -4   2   9  152.31    9.39
   4  -2  -8  375.90   14.84
   4  -2  -8  395.52   11.68
  -4   2   8  372.91   14.23
  -4   2   7    3.86    2.92
   4  -2  -7    0.75    2.35
   4  -2  -7    4.94    1.90
  -4   2   6  294.07   12.44
   4  -2  -6  261.42   12.08
   4  -2  -6  282.63    9.55
  -4   2   6  266.88   11.84
   4  -2  -6  282.76   12.65
  -4   2   5  250.86   11.54
   4  -2  -5  230.28   11.60
  -4   2   5  233.80   11.20
   4  -2  -5  228.39   11.27
   4  -2  -4   16.21    3.43
  -4   2   4   14.47    3.17
   4  -2  -4   16.27    3.88
   4  -2  -4    8.09    1.71
   4  -2  -3  114.54    8.16
   4  -2  -3  115.70    7.99
  -4   2   3  106.56    7.70
   4  -2  -3  110.39    5.63
   4  -2  -2  285.13   12.47
   4  -2  -2  285.80   12.47
  -4   2   2  286.07   12.12
   4  -2  -2  303.24    9.57
   4  -2  -1  155.14    9.29
   4  -2  -1  156.03    9.24
  -4   2   1  145.39    8.81
   4  -2  -1  137.73    6.33
   4  -2   0  540.89   16.91
   4  -2   0  554.42   17.20
  -4   2   0  552.44   16.91
   4  -2   0  536.47   13.17
   4  -2   1  182.12   10.11
   4  -2   1  196.87   10.42
   4  -2   1  192.99    8.25
   4  -2   2   39.01    4.56
   4  -2   2   42.94    4.86
   4  -2   2   44.07    3.92
   4  -2   3   52.43    5.58
   4  -2   3   49.43    2.38
   4  -2   3   59.21    5.81
   4  -2   3   51.88    4.18
   4  -2   3   52.52    4.38
   4  -2   4   13.85    3.25
   4  -2   4   18.12    3.82
   4  -2   4   14.68    2.82
   4  -2   4   10.96    2.39
   4  -2   5  310.83   13.17
   4  -2   5  324.39   10.22
   4  -2   5  314.63   13.12
   4  -2   5  357.23   12.57
   4  -2   6  313.77   13.32
   4  -2   6  322.62   10.25
   4  -2   6  315.10   13.22
   4  -2   6  347.79   12.59
   4  -2   7   40.51    4.77
   4  -2   7   38.04    3.64
   4  -2   8  423.33   12.34
   4  -2   8  435.96   14.44
   4  -2   9  113.32    6.68
   4  -2  10  220.84    9.28
   4  -2  11   -0.34    2.03
   4  -2  12   45.00    4.65
   4  -2  13  307.78   11.70
   4  -2  14  193.75    9.57
   4  -2  15    1.52    2.26
   4  -2  16   68.31    6.03
   4  -2  17   15.51    3.79
   4  -2  18   99.31    7.55
   4  -2  19   11.77    3.40
   4  -2  20  141.72    9.48
   4  -2  21  145.15    9.80
   4  -2  22   79.00    7.68
   4  -2  23    4.56    3.55
   4  -2  24   47.49    6.46
   4  -2  25   18.99    5.05
   4  -2  26   16.18    5.05
   4  -2  27   44.19    6.55
   4  -2  28   14.00    5.14
  -4   1  26   27.70    6.73
  -4   1  25   36.67    7.04
  -4   1  24   -0.52    4.13
  -4   1  23   -2.43    3.98
  -4   1  22   12.10    4.64
  -4   1  21   29.69    5.76
  -4   1  20   54.39    7.57
  -4   1  19   48.51    7.28
  -4   1  18   64.03    7.67
  -4   1  17   51.81    7.05
  -4   1  16   25.14    5.02
   4  -1 -16   22.53    3.64
   4  -1 -15   79.46    5.89
  -4   1  15   79.91    8.01
  -4   1  14    4.87    3.20
   4  -1 -14    5.84    2.38
  -4   1  13    6.09    2.80
  -4   1  13    7.40    1.53
   4  -1 -13    6.74    2.39
  -4   1  12   37.99    5.30
  -4   1  12   33.27    2.57
   4  -1 -12   33.91    3.85
  -4   1  11  138.23    4.58
   4  -1 -11  148.99    7.06
  -4   1  11  145.64    9.44
  -4   1  10   13.09    1.36
  -4   1  10    7.43    3.31
   4  -1 -10    7.52    1.98
  -4   1   9   16.17    3.80
   4  -1  -9   15.00    2.52
  -4   1   9   10.75    1.14
  -4   1   8    7.33    3.07
   4  -1  -8   10.80    3.48
   4  -1  -8    5.67    1.78
  -4   1   7   50.10    5.57
  -4   1   7   53.21    5.85
   4  -1  -7   45.14    5.40
   4  -1  -7   52.31    3.96
   4  -1  -7   50.22    5.67
  -4   1   6    1.70    2.13
   4  -1  -6   -2.78    2.29
  -4   1   6   -3.34    2.64
   4  -1  -6    0.65    2.49
   4  -1  -6   -0.94    1.41
  -4   1   5   92.92    7.20
   4  -1  -5   88.78    7.20
   4  -1  -5   85.69    4.69
  -4   1   5   87.09    6.99
   4  -1  -5   91.46    7.04
   4  -1  -5   88.13    4.47
  -4   1   4   80.20    6.74
   4  -1  -4   74.46    6.73
  -4   1   4   75.71    6.41
   4  -1  -4   77.71    6.66
   4  -1  -4   75.39    4.38
   4  -1  -3  296.50   12.54
   4  -1  -3  310.75    8.81
   4  -1  -3  308.02   12.78
  -4   1   3  310.02   12.55
   4  -1  -2  165.24    9.47
   4  -1  -2  181.77    7.07
   4  -1  -2  187.39    9.93
  -4   1   2  176.31    9.40
   4  -1  -1    2.80    2.60
   4  -1  -1    6.34    2.01
   4  -1  -1   11.77    2.39
  -4   1   1    2.31    2.44
   4  -1   0    5.16    2.71
   4  -1   0    8.34    2.85
   4  -1   0    9.59    2.48
  -4   1   0    6.65    2.76
   4  -1   1  255.41   11.74
   4  -1   1  244.35    7.54
   4  -1   1  269.18   11.88
   4  -1   1  269.07    9.65
  -4   1  -1  244.35   11.37
   4  -1   2    1.46    2.17
   4  -1   2    2.23    1.06
   4  -1   2    5.98    2.47
   4  -1   2    1.23    1.41
   4  -1   3   -4.11    2.95
   4  -1   3    0.95    1.06
   4  -1   3   -2.81    2.50
   4  -1   3   -2.33    1.89
   4  -1   4  222.08    6.36
   4  -1   4  228.56   10.87
   4  -1   4  220.49    7.31
   4  -1   4  234.42   10.95
   4  -1   5  285.82    7.53
   4  -1   5  286.35   12.45
   4  -1   5  298.30    8.86
   4  -1   5  314.29   12.90
   4  -1   6  141.55    5.71
   4  -1   6  127.21    8.44
   4  -1   6  140.53    6.21
   4  -1   6  142.79    8.84
   4  -1   7   41.11    5.12
   4  -1   7   38.14    3.40
   4  -1   8    0.80    1.63
   4  -1   8    1.05    2.06
   4  -1   9  457.02   12.06
   4  -1  10  135.90    6.96
   4  -1  11    0.18    1.67
   4  -1  12  612.19   15.25
   4  -1  13  116.06    7.03
   4  -1  14   25.49    3.77
   4  -1  15   64.60    5.72
   4  -1  16   34.71    4.38
   4  -1  17  172.18    9.44
   4  -1  18  259.55   11.75
   4  -1  19   17.53    3.78
   4  -1  20  237.37   11.91
   4  -1  21    3.98    2.71
   4  -1  22    6.07    3.77
   4  -1  23   75.58    7.51
   4  -1  24   -1.04    2.67
   4  -1  25   11.69    4.10
   4  -1  26   66.59    7.52
   4  -1  27    5.86    4.37
   4  -1  28   76.62    8.98
  -4   0  26   15.56    5.90
  -4   0  25   46.56    8.12
  -4   0  24    5.99    5.08
  -4   0  23    2.15    3.90
  -4   0  22   63.87    8.43
  -4   0  21    5.59    3.72
  -4   0  20   30.81    6.38
  -4   0  19  328.56   16.78
  -4   0  18    6.41    3.99
  -4   0  18    5.16    2.15
   4   0 -18    5.94    2.65
  -4   0  17   89.72    5.77
   4   0 -17   99.13    6.60
  -4   0  17  103.85    9.13
  -4   0  16   16.06    2.48
  -4   0  16   18.48    4.93
   4   0 -16   19.13    3.31
  -4   0  15   16.89    2.42
  -4   0  15   15.00    4.46
   4   0 -15   16.37    2.95
  -4   0  14   79.17    4.65
   4   0 -14   82.49    5.44
  -4   0  14   86.95    8.04
  -4   0  13  154.46    6.11
   4   0 -13  152.49    7.05
  -4   0  13  159.72   10.25
  -4   0  12   10.03    1.72
  -4   0  12    9.90    3.10
   4   0 -12   10.70    2.26
  -4   0  11  239.92    6.84
   4   0 -11  245.39    8.18
  -4   0  11  253.91   12.40
  -4   0  10   27.79    2.35
  -4   0  10   24.74    4.36
   4   0 -10   28.68    2.96
  -4   0   9  132.02    4.65
   4   0  -9  143.55    5.93
  -4   0   9  131.12    8.72
  -4   0   8  176.94    5.07
  -4   0   8  205.36   10.83
   4   0  -8  202.58    6.71
  -4   0   8  188.45   10.21
  -4   0   7   50.23    5.43
  -4   0   7   41.70    2.18
  -4   0   7   52.57    5.43
   4   0  -7   46.40    5.46
   4   0  -7   46.88    3.11
   4   0  -7   50.40    5.73
   4   0  -7   57.77    2.98
  -4   0   6  188.33    4.08
  -4   0   6  235.92   11.19
   4   0  -6  218.59   10.77
   4   0  -6  225.78    6.40
  -4   0   6  223.99   10.72
   4   0  -6  225.39   10.89
   4   0  -6  227.89    6.25
  -4   0   5  318.64   12.65
   4   0  -5  284.87   12.05
   4   0  -5  293.07    6.95
  -4   0   5  286.66   11.90
   4   0  -5  309.22   12.66
   4   0  -5  320.95    7.93
  -4   0   4  107.44    7.31
   4   0  -4   95.18    7.16
   4   0  -4   98.41    3.88
  -4   0   4   93.42    6.81
   4   0  -4  111.01    7.50
   4   0  -4  100.50    4.86
  -4   0   3  552.60   16.51
   4   0  -3  520.78   16.26
   4   0  -3  546.44    9.14
  -4   0   3  530.41   16.02
   4   0  -3  551.27   16.50
   4   0  -2   -3.94    2.84
   4   0  -2    0.51    2.36
  -4   0   2   -0.12    2.59
   4   0  -1  145.43    8.47
   4   0  -1  155.16    3.79
   4   0  -1  161.07    8.90
  -4   0   1  150.10    8.53
   4   0   0  562.88    8.29
   4   0   0  557.12   16.55
   4   0   0  549.20    9.12
   4   0   0  576.69   16.67
  -4   0   0  550.83   16.46
   4   0   1   96.15    3.70
   4   0   1  122.62    8.05
   4   0   1   98.54    3.89
   4   0   1  115.85    7.73
  -4   0  -1  107.52    7.36
   4   0   2  100.05    4.37
   4   0   2  100.91    7.12
   4   0   2   95.24    3.98
   4   0   2  106.73    7.38
   4   0   3  240.42    6.98
   4   0   3  243.54   10.88
   4   0   3  239.54    6.39
   4   0   3  254.47   11.07
   4   0   4  103.85    4.74
   4   0   4   99.28    6.99
   4   0   4  100.87    4.23
   4   0   4  106.83    7.14
   4   0   5  413.43    9.95
   4   0   5  393.62   13.87
   4   0   5  398.08    8.93
   4   0   5  422.28   14.20
   4   0   6   33.55    3.04
   4   0   6   39.53    4.71
   4   0   6   34.80    4.52
   4   0   6   37.59    3.05
   4   0   7  202.45    7.53
   4   0   7  197.14   10.17
   4   0   7  203.30    6.95
   4   0   7  213.31   10.35
   4   0   8  353.40   10.51
   4   0   8  342.81    9.52
   4   0   8  336.46   13.22
   4   0   9   86.52    5.50
   4   0   9   80.95    4.97
   4   0   9   82.36    6.60
   4   0  10   56.75    4.80
   4   0  10   54.07    4.48
   4   0  10   55.96    5.78
   4   0  11  659.26   14.73
   4   0  12  148.23    7.43
   4   0  13  258.68    9.94
  -4   0 -13  262.01   10.36
   4   0  14   53.92    4.93
  -4   0 -14   57.08    5.25
   4   0  15    2.76    2.20
  -4   0 -15    4.93    2.16
   4   0  16  268.00   11.26
  -4   0 -16  273.16   11.82
   4   0  17   25.49    4.02
   4   0  18   71.65    6.43
   4   0  19  301.60   12.86
   4   0  20  117.36    8.54
   4   0  21   95.42    8.16
   4   0  22   70.96    6.86
   4   0  23    6.43    3.32
   4   0  24   59.25    6.99
   4   0  25   13.84    4.91
   4   0  26  163.16   11.68
   4   0  27   94.23    9.26
   4   0  28   19.19    5.20
  -4  -1  27    3.62    3.21
  -4  -1  26   23.98    6.08
  -4  -1  26   28.55    5.53
  -4  -1  25   13.93    5.84
  -4  -1  25   10.07    4.15
  -4  -1  24    3.25    4.46
  -4  -1  24    3.00    3.49
  -4  -1  23   18.65    5.12
  -4  -1  22   -0.67    3.44
  -4  -1  21   20.35    5.34
  -4  -1  20   44.58    4.91
  -4  -1  20   49.21    7.29
  -4  -1  19   11.85    2.67
  -4  -1  19   14.03    4.73
   4   1 -19    9.08    2.60
  -4  -1  18   79.20    5.79
   4   1 -18   76.00    5.70
  -4  -1  18   85.90    8.91
  -4  -1  17   74.85    5.50
   4   1 -17   79.49    5.81
  -4  -1  17   83.82    8.64
  -4  -1  16   21.09    2.97
  -4  -1  16   26.40    5.32
   4   1 -16   18.22    3.16
  -4  -1  15   99.21    5.68
   4   1 -15  108.90    6.25
  -4  -1  15   98.97    8.90
  -4  -1  14   17.88    2.71
  -4  -1  14   21.41    4.88
   4   1 -14   16.08    2.73
  -4  -1  13   16.76    4.30
  -4  -1  13   11.35    2.14
   4   1 -13   11.87    2.37
  -4  -1  12  220.30    7.58
   4   1 -12  237.01    7.92
  -4  -1  12  237.01   12.27
  -4  -1  11    0.12    2.37
  -4  -1  11    4.35    1.53
   4   1 -11    4.47    1.56
  -4  -1  10  107.44    5.08
   4   1 -10  114.41    5.03
  -4  -1  10  103.37    7.96
  -4  -1   9   32.22    4.78
  -4  -1   9   27.91    2.66
   4   1  -9   33.41    2.73
   4   1  -9   23.91    1.28
  -4  -1   8  227.60    7.12
  -4  -1   8  241.38   11.67
   4   1  -8  251.73    6.43
  -4  -1   8  230.35   11.31
   4   1  -8  249.10    5.31
  -4  -1   7  226.41    6.88
  -4  -1   7  238.14   11.43
   4   1  -7  243.09    5.86
  -4  -1   7  220.87   10.90
  -4  -1   6   18.99    3.34
   4   1  -6   18.87    4.19
   4   1  -6   22.31    1.81
  -4  -1   6   18.73    3.47
   4   1  -6   21.51    4.30
  -4  -1   6   15.39    1.74
  -4  -1   5    2.55    2.10
   4   1  -5    3.95    2.36
  -4  -1   5    0.76    2.03
   4   1  -5    1.95    2.53
  -4  -1   5   -0.81    1.17
   4   1  -5   -0.42    0.85
  -4  -1   4  355.45    7.93
  -4  -1   4  392.88   13.86
   4   1  -4  383.76   13.72
   4   1  -4  354.76    5.12
  -4  -1   4  362.29   13.11
   4   1  -4  389.99   13.88
   4   1  -3   14.73    1.78
  -4  -1   3   15.10    3.50
   4   1  -3    8.53    2.18
   4   1  -3   11.77    2.92
  -4  -1   3   20.33    3.67
  -4  -1   3    6.39    1.25
   4   1  -2   78.05    6.58
   4   1  -2   65.05    3.42
  -4  -1   2   58.55    5.40
   4   1  -2   77.26    6.62
   4   1  -1  137.40    8.21
   4   1  -1  128.76    4.94
  -4  -1   1  139.12    8.05
   4   1  -1  138.57    8.24
   4   1   0  144.53    5.55
   4   1   0  145.78    8.18
   4   1   0  150.61    8.40
  -4  -1   0  145.83    8.15
   4   1   1  218.47    7.37
   4   1   1  210.99    9.96
   4   1   1  201.66    3.81
   4   1   1  223.57   10.22
  -4  -1  -1  212.69   10.05
   4   1   2   39.34    4.46
   4   1   2   45.00    2.19
   4   1   2   37.76    3.12
   4   1   2   39.69    4.32
   4   1   3   12.08    2.62
   4   1   3    8.22    2.41
   4   1   3   14.70    2.37
   4   1   3   12.37    1.47
   4   1   4  218.21    7.82
   4   1   4  210.13    9.84
   4   1   4  219.91    5.40
   4   1   4  224.63   10.14
   4   1   5   37.12    4.70
   4   1   5   36.05    3.48
   4   1   5   39.89    4.82
   4   1   5   36.55    2.63
   4   1   6   66.89    4.72
   4   1   6   61.51    5.49
   4   1   6   70.66    3.89
   4   1   6   66.24    5.68
   4   1   7  279.48    9.80
   4   1   7  269.90   11.33
   4   1   7  286.38    7.95
   4   1   7  282.97   11.43
   4   1   8  396.82   11.82
   4   1   8  385.92   13.85
   4   1   8  395.48    9.81
   4   1   8  400.97   13.86
   4   1   9   40.98    4.97
   4   1   9   43.81    4.39
   4   1   9   38.86    3.52
   4   1  10   24.13    3.24
   4   1  10   24.65    3.01
   4   1  10   27.04    4.26
  -4  -1 -10   22.38    2.92
   4   1  11   24.18    3.51
   4   1  11   28.30    3.26
   4   1  11   28.78    4.56
  -4  -1 -11   22.38    2.98
   4   1  12  112.49    7.12
  -4  -1 -12  110.42    6.47
   4   1  12  108.99    6.31
   4   1  13  181.57    9.38
  -4  -1 -13  172.13    8.13
   4   1  13  182.74    8.58
   4   1  14  292.28   12.35
  -4  -1 -14  272.73   10.83
   4   1  14  281.70   11.04
   4   1  15   24.68    4.31
   4   1  15   24.25    3.94
  -4  -1 -15   21.84    3.76
   4   1  16   82.33    6.98
  -4  -1 -16   81.38    6.57
   4   1  16   81.84    6.56
   4   1  17   -0.39    2.14
   4   1  17    0.41    2.93
   4   1  18   32.33    4.55
   4   1  18   31.26    5.08
   4   1  19   32.58    4.89
   4   1  19   33.48    5.24
   4   1  20   -0.53    2.47
   4   1  21   29.33    4.87
   4   1  22  268.08   13.30
   4   1  23   19.73    4.97
   4   1  24   36.68    5.59
   4   1  25   16.54    5.22
   4   1  26   61.32    7.20
   4   1  27    8.46    4.29
   4   1  28   35.37    6.69
  -4  -2  31    0.13    3.71
  -4  -2  30   10.01    4.29
  -4  -2  29   12.03    4.65
  -4  -2  28   12.82    4.03
  -4  -2  27    9.65    4.62
  -4  -2  26   19.11    5.84
  -4  -2  26   22.86    5.18
  -4  -2  25   27.37    6.63
  -4  -2  25   21.13    4.68
  -4  -2  24    0.45    3.38
  -4  -2  24   10.07    3.99
  -4  -2  23   -2.10    3.85
  -4  -2  23   -0.15    3.10
  -4  -2  22    8.54    4.23
  -4  -2  22   10.39    3.75
  -4  -2  21    0.66    3.46
  -4  -2  21    6.51    2.82
  -4  -2  20  105.92    7.57
   4   2 -20  102.84    7.25
  -4  -2  20   95.91    9.65
  -4  -2  19   11.52    4.71
  -4  -2  19    9.26    2.74
  -4  -2  19   14.85    3.36
   4   2 -19   18.00    3.64
  -4  -2  18   63.61    5.51
  -4  -2  18   72.95    7.98
  -4  -2  18   74.30    5.88
   4   2 -18   67.69    5.55
  -4  -2  17   30.65    3.81
  -4  -2  17   22.55    5.06
  -4  -2  17   31.10    3.80
   4   2 -17   30.46    3.79
  -4  -2  16    4.76    2.33
  -4  -2  16    9.51    4.12
  -4  -2  16    4.24    1.81
   4   2 -16    5.27    2.24
  -4  -2  15    4.72    2.16
  -4  -2  15    3.44    3.57
   4   2 -15    6.89    2.24
  -4  -2  14  138.74    7.10
   4   2 -14  155.75    6.88
  -4  -2  14  141.96   10.10
  -4  -2  13    5.89    3.41
  -4  -2  13    4.05    1.94
   4   2 -13    2.17    1.71
  -4  -2  12  222.19    8.55
   4   2 -12  244.43    7.70
  -4  -2  12  230.09   12.19
  -4  -2  11    6.30    1.86
  -4  -2  11    6.99    3.56
   4   2 -11    8.24    1.75
  -4  -2  10   12.05    2.29
  -4  -2  10   13.92    3.82
   4   2 -10   12.78    1.85
  -4  -2   9    5.75    1.90
  -4  -2   9    1.81    2.40
  -4  -2   9    1.07    2.35
   4   2  -9    2.48    1.13
  -4  -2   8    6.12    1.81
  -4  -2   8    6.11    2.72
  -4  -2   8    6.11    2.79
   4   2  -8    5.56    1.12
  -4  -2   7    6.76    2.97
  -4  -2   7    2.03    1.36
  -4  -2   7    6.83    2.54
   4   2  -7    4.08    0.83
  -4  -2   6  413.22   14.53
  -4  -2   6  381.54   10.14
  -4  -2   6  390.83   14.09
  -4  -2   5    7.55    3.57
  -4  -2   5    5.25    1.65
   4   2  -5   18.96    4.60
  -4  -2   5    5.53    2.96
   4   2  -5    0.12    1.49
  -4  -2   4  458.24   14.69
   4   2  -4  450.39   14.70
  -4  -2   4  428.62   10.51
   4   2  -4  459.47   10.67
  -4  -2   4  441.38   14.32
   4   2  -4  466.91   14.92
  -4  -2   3   21.44    4.21
   4   2  -3   19.52    3.67
  -4  -2   3   17.35    2.28
  -4  -2   3   23.42    4.32
   4   2  -3   23.69    3.95
   4   2  -3   19.76    3.01
   4   2  -2   13.70    2.98
  -4  -2   2   10.38    1.92
  -4  -2   2   12.30    3.22
  -4  -2   2   16.68    3.36
   4   2  -2   10.04    1.87
   4   2  -2   14.27    3.06
  -4  -2   1   18.17    2.29
   4   2  -1   27.13    3.12
   4   2  -1   19.50    3.35
   4   2  -1   27.79    4.16
  -4  -2   1   25.09    3.86
   4   2   0   43.04    4.47
   4   2   0   44.69    3.74
   4   2   0   35.63    4.08
  -4  -2   0   45.75    4.49
   4   2   1    5.74    2.45
   4   2   1    3.89    1.77
   4   2   1    7.92    2.57
  -4  -2  -1    7.28    2.61
   4   2   2  758.95   18.42
   4   2   2  749.88   15.88
   4   2   2  781.99   18.56
   4   2   3   17.16    3.58
   4   2   3   21.17    4.88
   4   2   3   22.36    5.09
   4   2   4  100.42    5.93
   4   2   4   98.67    6.82
   4   2   4   92.79    2.88
   4   2   4  105.63    6.84
   4   2   5    2.69    2.10
   4   2   5    4.01    1.21
   4   2   5    1.42    2.07
   4   2   5    3.60    1.96
   4   2   6   13.68    3.22
   4   2   6   11.74    1.69
   4   2   6   12.95    3.32
   4   2   6   12.39    2.75
   4   2   7   15.65    3.16
   4   2   7   17.46    3.60
   4   2   7   16.71    3.05
   4   2   7   14.42    1.99
   4   2   8   63.44    5.15
   4   2   8   57.74    5.27
   4   2   8   60.76    3.87
  -4  -2  -8   61.82    3.90
   4   2   8   61.27    5.35
   4   2   9    4.18    2.48
   4   2   9    7.79    3.35
   4   2   9    6.09    2.71
   4   2   9    8.74    2.26
  -4  -2  -9    5.03    2.02
   4   2  10 1184.83   23.24
  -4  -2 -10 1153.04   18.28
   4   2  10 1168.68   18.24
   4   2  10 1188.54   24.04
   4   2  11   78.26    6.62
   4   2  11   82.15    5.45
  -4  -2 -11   80.61    5.57
   4   2  11   72.15    6.55
   4   2  12   21.08    3.76
   4   2  12   18.64    3.03
   4   2  12   17.49    3.67
  -4  -2 -12   16.86    2.70
   4   2  13  102.11    7.24
  -4  -2 -13  109.59    6.66
   4   2  13  104.10    6.48
   4   2  13  106.60    7.80
   4   2  14    7.65    2.75
   4   2  14   11.08    2.71
  -4  -2 -14    8.04    2.51
   4   2  15    2.11    2.47
   4   2  15    3.39    2.21
  -4  -2 -15    4.58    2.56
   4   2  16  151.64    9.68
  -4  -2 -16  146.37    8.44
   4   2  16  155.24    8.68
   4   2  17   47.69    5.56
   4   2  17   54.38    6.04
   4   2  18  223.03   12.35
   4   2  18  209.96   10.54
   4   2  19    1.61    2.55
   4   2  19    3.39    3.39
   4   2  20   21.24    4.10
   4   2  20   22.76    4.63
   4   2  21    7.44    3.69
   4   2  21    7.56    3.96
   4   2  22    4.36    3.28
   4   2  22    4.45    3.20
   4   2  23    1.37    2.89
   4   2  23   14.05    4.95
   4   2  24  123.12   11.13
   4   2  24  108.27    9.38
   4   2  25    4.64    3.58
   4   2  25   11.96    5.28
   4   2  26  129.63   11.89
   4   2  26   90.73    9.04
   4   2  27    5.69    4.12
   4   2  28    2.07    3.85
  -4  -3  30    5.26    3.68
  -4  -3  29    6.61    4.13
  -4  -3  28    7.72    4.25
  -4  -3  27    8.56    4.18
  -4  -3  26   17.26    5.66
  -4  -3  26   20.15    5.04
  -4  -3  25    9.28    4.35
  -4  -3  25    8.00    3.85
  -4  -3  24   46.17    7.41
  -4  -3  24   54.96    6.34
  -4  -3  23    3.33    3.57
  -4  -3  23    6.82    3.19
  -4  -3  22    2.42    3.45
  -4  -3  22    6.18    3.15
  -4  -3  21    7.59    3.73
  -4  -3  21    8.39    2.97
  -4  -3  20    3.25    3.49
  -4  -3  20    0.36    2.13
   4   3 -20    1.09    2.17
  -4  -3  19    0.49    3.08
  -4  -3  19    9.38    2.95
   4   3 -19   11.90    3.16
  -4  -3  18  126.58    7.47
   4   3 -18  123.20    7.28
  -4  -3  18  102.68    9.40
  -4  -3  17   34.35    4.19
  -4  -3  17   36.16    6.28
  -4  -3  17   38.14    4.25
   4   3 -17   39.14    4.19
  -4  -3  16   64.89    5.57
  -4  -3  16   63.18    7.36
  -4  -3  16   75.68    5.32
   4   3 -16   80.80    5.42
  -4  -3  15   10.83    3.87
  -4  -3  15   11.92    2.65
  -4  -3  15   12.43    2.48
   4   3 -15   10.39    2.45
  -4  -3  14    6.93    3.71
  -4  -3  14    3.98    2.17
  -4  -3  14    5.43    2.08
   4   3 -14    4.19    1.93
  -4  -3  13  144.27    7.73
   4   3 -13  153.26    6.10
  -4  -3  13  147.19    6.38
  -4  -3  13  133.50    9.74
  -4  -3  12   46.61    4.49
  -4  -3  12   51.87    6.21
   4   3 -12   53.96    3.54
   4   3 -12   43.90    1.90
  -4  -3  11   58.92    4.92
  -4  -3  11   63.35    6.52
   4   3 -11   62.76    3.37
  -4  -3  10   30.28    4.81
   4   3 -10   31.38    2.20
  -4  -3  10   29.05    3.57
  -4  -3   9   49.46    5.74
  -4  -3   9   44.71    4.19
  -4  -3   9   45.90    5.65
  -4  -3   8   31.26    3.56
  -4  -3   8   26.59    4.42
  -4  -3   8   20.59    4.17
  -4  -3   7   32.65    3.75
  -4  -3   7   35.49    4.59
  -4  -3   7   29.61    4.24
  -4  -3   6   17.64    3.62
  -4  -3   6   12.40    2.32
   4   3  -6   12.01    2.32
  -4  -3   6   13.62    4.03
  -4  -3   5  124.51    7.84
  -4  -3   5  113.90    6.28
   4   3  -5  114.72    6.35
  -4  -3   5  114.60    7.45
  -4  -3   4  100.39    7.17
   4   3  -4   88.96    5.59
  -4  -3   4   84.10    5.40
  -4  -3   4   91.48    6.76
  -4  -3   3   62.90    5.47
   4   3  -3   49.60    4.71
  -4  -3   3   53.86    4.22
   4   3  -3   63.02    4.69
  -4  -3   3   62.20    5.51
   4   3  -3   52.06    4.91
  -4  -3   2  218.24   10.07
   4   3  -2  201.61    9.71
   4   3  -2  205.88    8.64
  -4  -3   2  200.28    8.39
  -4  -3   2  219.70    9.84
   4   3  -2  204.82    9.81
   4   3  -1   55.76    5.62
   4   3  -1   57.72    5.06
  -4  -3   1   51.36    4.40
   4   3  -1   51.12    5.44
  -4  -3   1   51.67    5.17
  -4  -3   0   16.17    2.58
   4   3   0   16.46    2.74
   4   3   0   15.22    3.41
   4   3   0   18.08    3.33
  -4  -3   0   20.50    3.51
   4   3   1  156.58    8.29
   4   3   1  153.75    7.89
  -4  -3  -1  159.17    7.38
   4   3   1  162.55    8.38
  -4  -3  -1  171.74    8.65
   4   3   2   36.18    4.30
   4   3   2   37.19    4.30
   4   3   2   35.55    4.14
   4   3   3  155.69    8.15
   4   3   3  154.07    8.16
   4   3   3  162.89    8.40
   4   3   4  110.55    7.13
   4   3   4  116.20    7.37
   4   3   4  113.54    7.07
   4   3   5   73.01    5.80
   4   3   5   68.42    5.46
   4   3   5   73.79    5.82
   4   3   6  107.56    7.16
   4   3   6  111.08    7.13
  -4  -3  -6  101.91    4.03
   4   3   6  106.09    7.08
   4   3   7   10.57    3.11
   4   3   7    9.48    3.07
   4   3   7    9.92    2.75
  -4  -3  -7   11.52    1.99
   4   3   8   93.54    6.83
   4   3   8   90.28    6.32
  -4  -3  -8   88.96    4.56
   4   3   8   83.59    6.27
   4   3   9  125.57    7.83
   4   3   9  138.41    7.87
   4   3   9  132.10    5.68
  -4  -3  -9  136.75    6.05
   4   3   9  131.82    7.66
   4   3  10   41.75    4.72
   4   3  10   37.84    4.36
   4   3  10   33.62    4.18
   4   3  10   36.56    3.30
  -4  -3 -10   41.97    3.76
   4   3  11    6.88    2.22
   4   3  11    8.18    2.51
   4   3  11    6.06    2.80
   4   3  11    5.83    2.17
  -4  -3 -11    4.25    1.90
   4   3  12  113.72    8.05
   4   3  12  103.30    6.18
  -4  -3 -12  103.12    6.28
   4   3  12  113.71    7.74
   4   3  13   75.06    6.92
   4   3  13   67.77    5.19
  -4  -3 -13   66.85    5.30
   4   3  13   67.50    6.11
   4   3  14  173.82   10.44
   4   3  14  162.74    8.32
  -4  -3 -14  160.15    8.26
   4   3  14  156.48    9.27
   4   3  15   24.59    4.43
   4   3  15   14.96    3.38
  -4  -3 -15   20.68    3.48
   4   3  16   10.27    3.38
   4   3  16    8.15    2.96
  -4  -3 -16   13.06    3.16
   4   3  17   64.05    6.25
   4   3  17   59.51    6.70
   4   3  18   11.17    3.36
   4   3  18   10.80    3.60
   4   3  19   17.33    3.80
   4   3  19   15.75    4.24
   4   3  20   45.25    5.97
   4   3  20   52.60    6.59
   4   3  21   75.67    7.63
   4   3  21   71.12    7.86
   4   3  22   94.85    9.52
   4   3  22   92.91    8.40
   4   3  23    3.87    3.48
   4   3  23    2.08    3.27
   4   3  24    4.00    3.89
   4   3  24    2.28    3.93
   4   3  25   22.58    4.76
   4   3  26   16.72    5.42
   4   3  27   29.52    6.47
   4   3  28   40.73    7.03
  -4  -4  28    3.74    3.73
  -4  -4  27    8.64    3.95
  -4  -4  26   -0.58    3.43
  -4  -4  26   -0.39    3.09
  -4  -4  25    0.99    3.61
  -4  -4  25    3.05    3.19
  -4  -4  24   12.96    4.95
  -4  -4  24   14.64    4.00
  -4  -4  23    1.40    3.30
  -4  -4  23   13.41    3.85
  -4  -4  22    2.44    3.83
  -4  -4  22    2.96    2.76
  -4  -4  21   61.92    7.88
  -4  -4  21   73.60    6.45
  -4  -4  20   11.48    4.27
  -4  -4  20    7.23    3.11
  -4  -4  19   -3.74    3.64
  -4  -4  19    0.75    2.21
   4   4 -19    4.60    2.81
  -4  -4  18    5.67    3.13
  -4  -4  18   -0.35    1.97
   4   4 -18    4.40    2.44
  -4  -4  17    0.81    3.13
  -4  -4  17    2.46    2.11
   4   4 -17    2.25    2.11
  -4  -4  16   35.26    5.87
  -4  -4  16   45.60    4.14
   4   4 -16   39.38    3.84
  -4  -4  15   88.46    6.88
  -4  -4  15   66.18    6.01
  -4  -4  15   92.48    5.42
   4   4 -15   95.44    5.42
  -4  -4  14    1.23    2.78
  -4  -4  14    1.51    2.00
  -4  -4  14   -0.04    1.63
   4   4 -14    1.80    1.05
  -4  -4  13  120.29    7.71
  -4  -4  13  127.48    5.76
  -4  -4  13  112.10    8.75
   4   4 -13  127.01    4.49
  -4  -4  12    0.98    2.82
  -4  -4  12    4.57    1.74
  -4  -4  12    4.74    2.40
  -4  -4  11    6.49    3.39
  -4  -4  11    5.18    1.49
  -4  -4  11    4.01    2.24
  -4  -4  10    3.44    1.94
  -4  -4  10    3.63    2.71
  -4  -4   9    0.14    1.84
  -4  -4   9    1.98    2.41
  -4  -4   9    3.55    2.90
  -4  -4   8    5.17    2.29
  -4  -4   8    6.05    2.69
  -4  -4   8    9.46    3.24
  -4  -4   7  200.44   10.23
  -4  -4   7  189.61    9.08
   4   4  -7  187.67    9.03
  -4  -4   7  188.02    9.77
  -4  -4   6   54.02    5.65
  -4  -4   6   46.33    5.39
  -4  -4   6   47.72    4.70
   4   4  -6   42.62    4.71
  -4  -4   5  147.75    8.33
   4   4  -5  136.34    7.86
  -4  -4   5  127.71    7.38
  -4  -4   5  138.11    8.14
  -4  -4   4    7.74    3.03
  -4  -4   4   -0.87    2.39
   4   4  -4    3.48    2.59
  -4  -4   4    2.97    2.79
  -4  -4   3   20.48    3.42
  -4  -4   3   17.61    3.07
  -4  -4   3   20.64    3.26
   4   4  -3   18.73    2.92
   4   4  -2   15.40    2.65
  -4  -4   2   20.22    3.25
  -4  -4   2   23.71    3.58
  -4  -4   2   20.81    3.25
   4   4  -1   17.35    3.12
   4   4  -1   17.37    3.20
  -4  -4   1   20.18    3.04
  -4  -4   1   25.63    3.86
   4   4   0  113.42    7.12
   4   4   0  118.90    7.69
  -4  -4   0  119.38    6.95
   4   4   0  111.13    7.15
  -4  -4   0  118.52    7.13
   4   4   1  289.50   11.22
   4   4   1  289.67   11.96
  -4  -4  -1  296.42   11.06
   4   4   1  274.59   11.02
  -4  -4  -1  303.69   11.27
  -4  -4  -2    9.99    2.55
   4   4   2   11.64    3.56
   4   4   2    3.83    2.46
   4   4   2    2.57    2.20
   4   4   3   75.66    5.81
   4   4   3   79.19    6.47
   4   4   3   72.71    5.77
   4   4   4   13.56    3.17
   4   4   4   20.52    3.98
   4   4   4   14.46    2.92
  -4  -4  -4   14.41    1.19
   4   4   5  171.52    9.64
   4   4   5  167.66    8.17
  -4  -4  -5  159.27    4.52
   4   4   5  158.79    8.06
   4   4   6   33.07    3.93
   4   4   6   38.02    4.87
   4   4   6   36.39    4.12
  -4  -4  -6   37.96    2.71
   4   4   7   78.40    6.58
   4   4   7   71.82    5.47
  -4  -4  -7   76.30    4.05
   4   4   7   70.26    5.40
   4   4   8   21.14    3.40
   4   4   8   25.81    4.37
   4   4   8   21.65    3.29
  -4  -4  -8   23.56    2.87
   4   4   9  670.35   19.30
   4   4   9  680.53   16.71
  -4  -4  -9  677.69   13.45
   4   4   9  635.58   16.23
   4   4  10    2.73    2.80
   4   4  10    3.75    3.23
   4   4  10    0.41    1.96
  -4  -4 -10    3.08    1.97
   4   4  11    3.87    2.30
   4   4  11   -0.05    2.40
   4   4  11   -1.16    2.53
  -4  -4 -11    2.00    1.82
   4   4  12    1.52    2.11
   4   4  12   -4.16    2.73
   4   4  12   -0.56    2.35
  -4  -4 -12    0.98    1.88
   4   4  13    0.58    2.28
   4   4  13    0.75    2.40
   4   4  13    0.19    2.06
  -4  -4 -13   -0.29    1.65
   4   4  14   16.77    3.86
   4   4  14   20.08    3.69
  -4  -4 -14   19.66    3.79
   4   4  15  131.10    9.48
  -4  -4 -15  127.95    7.72
   4   4  15  124.52    8.08
   4   4  16    7.28    3.10
   4   4  16   11.47    4.11
   4   4  17  198.36   12.33
   4   4  17  189.24   10.06
   4   4  18   18.60    4.03
   4   4  18   22.53    5.08
   4   4  19    5.05    3.92
   4   4  19    6.36    3.92
   4   4  20    2.80    3.17
   4   4  20    5.01    3.68
   4   4  21    3.87    3.29
   4   4  21    0.77    3.20
   4   4  22    3.40    3.53
   4   4  22    4.38    3.56
   4   4  23  178.63   13.35
   4   4  23  161.64   11.18
   4   4  24    4.43    4.18
   4   4  25   59.20    7.40
   4   4  26   -0.59    3.38
   4   4  27    2.18    3.79
  -4  -5  25   50.93    7.66
  -4  -5  25   55.37    6.54
  -4  -5  24    1.05    4.39
  -4  -5  24    6.79    3.54
  -4  -5  23    3.10    3.61
  -4  -5  23    3.96    2.87
  -4  -5  22    8.38    4.03
  -4  -5  22   18.37    3.80
  -4  -5  21   -1.30    3.16
  -4  -5  21    0.81    2.22
  -4  -5  20   15.58    4.76
  -4  -5  20   20.88    3.68
  -4  -5  19  138.57    7.99
  -4  -5  19  111.80    9.90
  -4  -5  18   14.08    4.38
  -4  -5  18   22.96    3.50
  -4  -5  17  117.66    6.84
  -4  -5  17   91.19    8.44
  -4  -5  16    2.67    2.75
  -4  -5  16    8.04    2.38
   4   5 -16    3.17    1.42
  -4  -5  15    7.39    3.44
  -4  -5  15   14.65    2.59
   4   5 -15   10.09    1.88
  -4  -5  14   32.74    5.67
  -4  -5  14   44.29    3.91
   4   5 -14   37.37    3.09
  -4  -5  13   74.35    4.49
   4   5 -13   70.94    4.38
  -4  -5  13   64.27    6.88
  -4  -5  12   56.45    6.67
  -4  -5  12   64.26    3.87
  -4  -5  11   99.06    7.45
  -4  -5  11  106.04    4.37
  -4  -5  11   96.84    7.79
  -4  -5  10   24.76    4.45
  -4  -5  10   20.02    3.66
  -4  -5  10   19.51    1.99
  -4  -5   9  281.50   12.23
  -4  -5   9  276.13   12.43
  -4  -5   9  264.11   12.03
  -4  -5   8    6.12    2.84
  -4  -5   8   13.07    4.30
  -4  -5   8    9.55    3.94
   4   5  -8    4.41    2.80
  -4  -5   7   14.41    3.86
  -4  -5   7   10.33    2.41
   4   5  -7   10.84    2.93
  -4  -5   7   13.09    3.40
  -4  -5   6  218.11   10.15
  -4  -5   6  218.93   10.40
   4   5  -6  203.46   10.55
  -4  -5   6  216.07   10.10
  -4  -5   5  176.60    9.05
   4   5  -5  151.62    9.12
  -4  -5   5  169.78    9.27
  -4  -5   5  174.71    8.97
  -4  -5   4   93.33    6.72
   4   5  -4   77.54    6.65
  -4  -5   4   99.82    7.26
  -4  -5   4   95.58    6.70
  -4  -5   3  501.97   14.42
  -4  -5   3  512.18   15.86
   4   5  -3  474.79   15.96
  -4  -5   3  512.31   14.66
   4   5  -2   10.26    3.77
  -4  -5   2   15.51    3.61
  -4  -5   2   19.82    3.93
   4   5  -1   46.97    5.66
  -4  -5   1   39.20    4.27
  -4  -5   1   49.61    4.57
   4   5   0   36.94    4.81
  -4  -5   0   44.49    4.74
  -4  -5   0   51.11    4.44
   4   5   1   10.02    3.01
  -4  -5  -1    9.20    2.62
   4   5   2  149.59    7.83
   4   5   2  146.61    9.35
  -4  -5  -2  159.79    8.82
   4   5   2  135.53    7.50
   4   5   3  244.38   12.15
  -4  -5  -3  257.74   11.44
   4   5   3  248.90    9.87
   4   5   3  233.69    9.62
   4   5   4    0.91    2.23
   4   5   4    1.11    2.33
   4   5   4   10.00    3.75
  -4  -5  -4    5.38    1.18
   4   5   5  278.13   13.21
   4   5   5  262.39   10.08
  -4  -5  -5  251.75    6.39
   4   5   5  250.74    9.83
   4   5   6    8.99    3.18
  -4  -5  -6   10.23    2.05
   4   5   6   10.56    3.48
   4   5   6    6.29    3.09
   4   5   7   15.03    3.01
  -4  -5  -7   14.53    2.19
   4   5   7   11.22    2.66
   4   5   7   11.97    3.52
   4   5   8   36.24    3.94
  -4  -5  -8   36.49    3.34
   4   5   8   38.28    4.92
   4   5   8   37.76    3.90
   4   5   9   26.15    3.67
  -4  -5  -9   30.32    3.22
   4   5   9   28.84    4.75
   4   5   9   28.39    3.79
   4   5  10    1.76    2.18
   4   5  10    1.26    2.36
   4   5  10    4.49    3.10
  -4  -5 -10    5.56    2.38
   4   5  11  550.46   19.14
   4   5  11  563.31   14.92
  -4  -5 -11  557.09   14.20
   4   5  11  543.19   14.68
   4   5  12    6.28    2.91
   4   5  12    6.60    3.12
   4   5  12    9.67    3.64
  -4  -5 -12   14.11    3.53
   4   5  13   61.33    5.03
   4   5  13   68.20    7.08
   4   5  13   57.18    5.08
   4   5  14    6.00    2.69
   4   5  14    4.86    2.97
   4   5  15    7.90    2.89
   4   5  15    3.95    2.72
   4   5  16   40.42    6.07
   4   5  16   39.75    4.70
   4   5  17   71.65    7.90
   4   5  18    8.65    4.36
   4   5  19  139.25   11.15
   4   5  20   25.05    5.68
   4   5  21   50.92    7.55
  -4  -6  24   13.09    5.01
  -4  -6  23   39.41    6.68
  -4  -6  22   36.54    6.35
  -4  -6  21    1.36    3.37
  -4  -6  20   17.05    4.77
  -4  -6  20   26.61    4.10
  -4  -6  19    2.12    2.98
  -4  -6  19   11.45    3.07
  -4  -6  18    1.74    3.00
  -4  -6  18    9.62    2.78
  -4  -6  17   57.85    6.85
  -4  -6  17   69.57    5.32
  -4  -6  16  100.41    6.13
  -4  -6  16   71.88    7.74
   4   6 -16   78.89    4.90
  -4  -6  15   94.07    5.63
  -4  -6  15   71.71    7.81
   4   6 -15   77.11    5.07
  -4  -6  14  128.62    6.21
  -4  -6  14  102.72    8.80
   4   6 -14  105.28    6.08
  -4  -6  13    4.67    3.67
  -4  -6  13    7.65    2.17
  -4  -6  12   19.31    4.15
  -4  -6  12   21.44    2.60
  -4  -6  11    1.83    2.97
  -4  -6  11    4.57    1.62
  -4  -6  10   17.69    3.82
  -4  -6  10   10.74    1.69
  -4  -6   9   22.45    4.20
   4   6  -9   20.11    4.23
  -4  -6   9   23.25    4.55
  -4  -6   9   19.57    1.94
   4   6  -8  207.43   11.84
  -4  -6   8  237.02   11.22
  -4  -6   8  193.91    4.71
  -4  -6   8  233.33   11.04
   4   6  -7    9.39    3.47
  -4  -6   7   17.53    3.91
  -4  -6   7   12.63    3.61
  -4  -6   7    6.81    0.99
  -4  -6   6   99.86    6.97
   4   6  -6   81.70    7.26
  -4  -6   6  100.04    6.97
  -4  -6   5   17.32    3.55
   4   6  -5   13.13    4.07
  -4  -6   5   13.58    3.07
  -4  -6   4   21.60    3.50
  -4  -6   4   20.48    3.48
   4   6  -4    9.73    3.29
  -4  -6   3    2.75    2.10
  -4  -6   3    3.15    2.04
   4   6  -3    4.01    2.50
   4   6  -2   72.10    6.95
  -4  -6   2   91.53    5.96
   4   6  -1   42.06    5.93
  -4  -6   1   41.28    4.35
   4   6   0  341.44   15.27
  -4  -6  -1    5.88    1.33
  -4  -6  -1   13.41    1.38
   4   6   1   14.60    4.71
  -4  -6  -2   63.39    2.76
   4   6   2   66.09    6.69
  -4  -6  -3   19.86    2.00
   4   6   3   20.26    4.61
   4   6   4   69.45    7.24
  -4  -6  -4   67.14    3.61
   4   6   5   24.98    4.79
   4   6   5   28.61    3.68
  -4  -6  -5   22.79    2.27
   4   6   6   72.39    7.60
   4   6   6   71.69    4.96
  -4  -6  -6   74.53    4.41
   4   6   6   67.49    4.81
   4   6   7   18.68    2.82
   4   6   7   14.49    2.59
   4   6   7   21.55    4.77
  -4  -6  -7   22.58    3.02
   4   6   8  233.72    8.92
   4   6   8  234.46   13.21
   4   6   8  219.67    8.63
   4   6   9    4.96    2.99
   4   6   9    8.60    3.46
   4   6  10  202.85    8.31
   4   6  10  199.00   12.30
   4   6  11   15.31    4.10
   4   6  11   17.54    3.21
   4   6  12    7.20    3.47
   4   6  12   11.36    2.82
   4   6  13   10.27    2.71
   4   6  13    8.64    3.60
   4   6  14  148.91   10.86
   4   6  15   15.43    4.13
   4   6  16  175.38   12.19
   4   6  17    8.03    4.56
   4   6  18    9.12    4.53
   4   6  19   28.94    5.52
  -4  -7  24    2.44    3.74
  -4  -7  23    1.76    3.49
  -4  -7  22   12.47    4.48
  -4  -7  21    4.96    3.88
  -4  -7  20   19.92    5.09
  -4  -7  19    5.42    3.55
  -4  -7  18   49.64    6.81
  -4  -7  17   11.36    3.84
  -4  -7  16   -2.09    3.13
  -4  -7  15   15.03    4.25
   4   7 -15    6.24    2.57
  -4  -7  14   15.29    3.83
   4   7 -14   14.01    3.18
  -4  -7  13   10.08    3.86
  -4  -7  12   89.45    7.69
  -4  -7  11    9.63    3.41
  -4  -7  11    7.67    3.13
  -4  -7  10   10.01    3.21
   4   7 -10    6.67    3.26
  -4  -7  10    8.05    1.65
   4   7  -9    5.93    3.57
  -4  -7   9    1.57    2.37
  -4  -7   9    4.51    1.52
  -4  -7   9    9.42    3.94
   4   7  -8    7.39    3.83
  -4  -7   8   12.33    3.05
  -4  -7   8   11.65    1.78
  -4  -7   8    5.89    2.89
   4   7  -7   -3.11    2.65
  -4  -7   7    4.63    1.60
  -4  -7   7    1.05    2.57
  -4  -7   6   43.84    4.55
   4   7  -6   33.45    5.21
  -4  -7   6   29.12    2.18
  -4  -7   6   39.74    4.39
   4   7  -5    2.03    2.89
  -4  -7   5    3.97    2.30
  -4  -7   5   12.46    3.02
  -4  -7   5    9.03    2.52
   4   7  -4   74.66    8.15
  -4  -7   4   82.50    5.85
  -4  -7   4   59.78    2.89
  -4  -7   4   86.26    5.95
   4   7  -3    0.07    2.53
  -4  -7   3   11.13    2.28
  -4  -7   3    5.88    2.53
   4   7  -2    1.61    2.66
  -4  -7   2   -0.85    0.93
  -4  -7   2    2.09    2.05
   4   7  -1    2.00    3.09
  -4  -7   1    1.93    1.03
  -4  -7   1    1.48    1.69
   4   7   0    0.89    2.56
  -4  -7   0    1.09    1.08
   4   7   1   10.20    3.86
   4   7   2  114.01    9.71
   4   7   3    1.36    2.86
   4   7   4   55.48    7.34
   4   7   5    7.83    3.79
   4   7   6    5.34    3.43
   4   7   7    2.94    3.25
   4   7   8   12.52    4.47
   4   7   9   27.18    5.87
   4   7  10  111.86   10.01
   4   7  11   -1.63    3.37
   4   7  12   73.13    8.66
   4   7  13   18.07    5.19
   4   7  14    3.85    3.05
   4   7  15   -1.50    3.39
   4   7  16    8.22    3.90
   4   7  17    6.71    4.09
  -4  -8  23    9.93    5.22
  -4  -8  22    1.08    3.60
  -4  -8  21   22.74    5.19
  -4  -8  20    8.13    4.37
  -4  -8  19   -1.79    3.25
  -4  -8  18   10.31    3.76
  -4  -8  17   18.63    4.32
  -4  -8  16   34.82    5.66
  -4  -8  15  112.40    9.16
  -4  -8  14   12.23    4.17
   4   8 -14   14.82    3.50
  -4  -8  13    5.86    3.13
  -4  -8  12   20.31    4.30
  -4  -8  11    8.25    3.13
  -4  -8  10   54.25    5.53
   4   8 -10   45.85    7.14
   4   8  -9   39.08    6.35
  -4  -8   9   66.08    5.87
   4   8  -8    0.10    3.00
  -4  -8   8    8.63    2.64
   4   8  -7  100.16   10.00
  -4  -8   7  114.81    7.02
   4   8  -6   51.17    7.36
  -4  -8   6   64.90    5.43
   4   8  -5    7.79    3.81
  -4  -8   5   14.13    2.94
   4   8  -4   -3.30    3.96
  -4  -8   4    4.06    2.10
   4   8  -3    7.13    3.28
  -4  -8   3   12.79    2.72
   4   8  -2   84.32    8.94
   4   8  -1  151.71   11.62
   4   8   0    6.50    4.19
   4   8   1   46.43    6.83
   4   8   2   16.47    4.78
   4   8   3   15.84    4.18
   4   8   4    5.88    4.32
   4   8   5   46.96    7.15
   4   8   6   76.39    8.84
   4   8   7   77.59    9.24
   4   8   8    3.66    3.73
   4   8   9   19.20    5.39
   4   8  10    5.25    4.38
   4   8  11   17.14    5.40
   4   8  12   40.20    6.71
   4   8  13   47.08    7.37
   4   8  14   25.21    5.91
  -4  -9  22   19.36    5.43
  -4  -9  21    7.35    3.81
  -4  -9  20   10.35    4.29
  -4  -9  19   27.47    5.77
  -4  -9  18   10.00    4.06
  -4  -9  17    9.64    3.88
  -4  -9  16   21.15    4.48
  -4  -9  15   20.73    4.65
  -4  -9  14   53.13    6.42
   4   9 -14   50.72    6.15
  -4  -9  13   49.76    5.98
  -4  -9  12   -0.70    2.42
   4   9 -10    1.70    3.34
   4   9  -9   -0.51    3.06
   4   9  -8   46.41    7.56
   4   9  -7   12.42    4.57
   4   9  -6   55.21    8.38
   4   9  -5   63.49    8.79
   4   9  -4    3.96    3.96
   4   9  -3    4.51    3.99
   4   9  -2    4.52    3.37
   4   9  -1    1.85    3.58
   4   9   0   86.91    9.86
   4   9   1   68.52    9.02
   4   9   2   58.54    8.57
   4   9   3   46.69    7.60
   4   9   4   -1.37    4.04
   4   9   5    3.33    3.86
   4   9   6    0.14    3.62
   4   9   7   -0.06    3.59
   4   9   8   55.13    8.46
   4   9   9   66.57    8.97
   4   9  10   23.51    5.97
   4  10 -10    8.21    4.53
   4  10  -9   21.87    5.98
   4  10  -8   45.56    8.29
   4  10  -7    0.64    3.95
   4  10  -6   10.89    5.03
   4  10  -5    2.02    3.63
   4  10  -4    5.75    4.01
   4  10  -3   29.22    6.46
   4  10  -2   22.27    6.14
   4  10  -1   19.22    5.75
   4  10   0   45.91    7.75
   4  10   1    3.85    3.75
   4  10   2   17.49    5.98
   4  10   3   10.64    5.79
   4  10   4    4.34    4.48
  -5  10   7   36.86    6.65
  -5  10   6    6.60    4.37
   5 -10  -5  110.06   10.27
  -5  10   5   84.61    9.25
   5 -10  -4    5.55    4.64
  -5  10   4   19.08    5.59
   5 -10  -3   12.17    4.63
  -5  10   3   11.32    4.41
   5 -10  -2    3.47    4.43
  -5  10   2   -0.61    3.34
   5 -10  -1   18.55    5.61
  -5  10   1   14.07    4.98
   5 -10   0   29.44    6.88
   5 -10   1   78.63    9.42
   5 -10   2    5.33    4.55
   5 -10   3  101.21   10.11
   5 -10   4   29.42    6.72
   5 -10   5   11.90    5.28
   5 -10   6   27.85    6.48
   5 -10   7   30.69    6.44
   5 -10   8    2.14    4.72
  -5   9   8   26.11    5.37
   5  -9  -7    5.64    4.57
  -5   9   7    6.42    3.39
   5  -9  -6   -2.79    3.75
  -5   9   6    6.22    3.99
   5  -9  -5   -0.96    3.86
  -5   9   5   -0.11    3.48
   5  -9  -4   10.42    4.73
  -5   9   4   14.64    4.47
   5  -9  -3   62.58    7.90
  -5   9   3   54.54    7.15
   5  -9  -2   10.02    4.43
  -5   9   2   10.74    4.13
   5  -9  -1   39.66    6.77
   5  -9   0   56.91    8.02
   5  -9   1   -0.75    3.57
   5  -9   2    6.39    4.25
   5  -9   3   11.89    4.58
   5  -9   4   13.28    5.20
   5  -9   5   83.96    9.37
   5  -9   6   14.71    5.35
   5  -9   6    5.28    4.25
   5  -9   7   52.59    7.92
   5  -9   7   40.58    6.81
   5  -9   8   26.80    6.28
   5  -9   8   24.26    5.85
   5  -9   9   -1.71    4.08
   5  -9   9    4.99    4.36
   5  -9  10   10.04    5.40
   5  -9  10   10.67    5.01
   5  -9  11   21.72    6.70
  -5   8  17    2.19    4.06
  -5   8  16   42.11    7.04
  -5   8  15    5.53    4.70
  -5   8  14   43.02    7.66
  -5   8  13   32.61    6.71
  -5   8   9    2.68    3.52
   5  -8  -8  177.03   13.13
  -5   8   8  157.43   10.49
   5  -8  -7   25.38    5.82
  -5   8   7   25.53    5.15
   5  -8  -6   69.70    8.30
  -5   8   6   59.05    6.58
   5  -8  -5   10.69    4.08
  -5   8   5   14.39    4.30
   5  -8  -4   -5.07    4.06
  -5   8   4    1.18    2.85
   5  -8  -3   18.01    6.15
   5  -8  -2   47.71    7.65
   5  -8  -1   11.54    5.87
   5  -8   0  138.37   11.22
   5  -8   1   26.16    5.61
   5  -8   2   36.50    6.29
   5  -8   3   10.89    4.14
   5  -8   4    5.47    3.54
   5  -8   5   28.91    6.25
   5  -8   6   87.26    9.50
   5  -8   6   81.72    8.31
   5  -8   7    6.76    4.79
   5  -8   7   -2.49    3.28
   5  -8   8   92.35    9.93
   5  -8   8   98.95    9.53
   5  -8   9   25.59    6.18
   5  -8   9   20.84    5.11
   5  -8  10    3.30    4.10
   5  -8  10    0.01    3.13
   5  -8  11    3.96    4.96
   5  -8  11    5.31    4.07
   5  -8  12   23.31    6.31
   5  -8  12   11.32    4.10
   5  -8  13   24.61    5.50
   5  -8  14   35.66    6.34
   5  -8  15   -0.60    3.61
  -5   7  19    1.72    4.00
  -5   7  18   34.98    6.74
  -5   7  17   51.20    7.85
  -5   7  16   14.01    4.61
  -5   7  15    6.02    4.47
  -5   7  14    6.09    3.78
  -5   7  13    5.45    4.26
  -5   7  12   54.68    7.97
  -5   7  11   48.88    7.37
  -5   7  10    8.85    4.75
  -5   7  10   12.64    3.59
  -5   7   9   10.52    3.56
  -5   7   9   11.14    4.75
   5  -7  -8   11.12    4.37
  -5   7   8    3.08    2.99
   5  -7  -7   18.69    5.05
   5  -7  -6   29.77    5.80
   5  -7  -5   -3.48    3.56
   5  -7  -4  100.45    9.67
   5  -7  -3   71.27    8.31
   5  -7  -2   -2.16    3.60
   5  -7  -1    6.10    3.17
   5  -7   0   11.59    4.48
   5  -7   1   64.59    8.06
   5  -7   2    8.84    4.23
   5  -7   3    7.85    4.34
   5  -7   4  144.02   11.25
   5  -7   5   66.39    8.14
   5  -7   6   -1.66    3.22
   5  -7   6    1.94    2.84
   5  -7   7    4.45    3.65
   5  -7   7    4.66    2.88
   5  -7   8   12.08    5.11
   5  -7   8    7.75    3.60
   5  -7   9   43.48    7.25
   5  -7   9   32.49    5.52
   5  -7  10   28.46    6.10
   5  -7  10   39.23    6.65
   5  -7  11    4.34    4.33
   5  -7  11    2.47    4.58
   5  -7  12   64.90    7.69
   5  -7  13   34.12    5.75
   5  -7  14   -1.28    3.08
   5  -7  15   14.66    4.86
   5  -7  16    4.54    3.88
   5  -7  17   78.34    8.73
   5  -7  18   76.42    8.56
  -5   6  20   11.24    4.81
  -5   6  19   51.63    7.93
  -5   6  18    0.72    3.90
  -5   6  17   58.83    8.07
  -5   6  16   38.53    7.01
  -5   6  15    0.01    3.22
  -5   6  14    8.74    3.88
  -5   6  13    7.31    3.73
  -5   6  12    8.38    4.23
  -5   6  11   77.42    8.66
  -5   6  10    3.80    3.91
   5  -6  -9  114.65   10.34
  -5   6   9  101.45    9.56
   5  -6  -8   52.94    7.12
  -5   6   8   50.14    7.07
   5  -6  -7   -2.67    4.10
  -5   6   7    1.95    3.46
   5  -6  -6    4.83    3.72
   5  -6  -5   72.03    8.25
   5  -6  -4   25.52    5.89
   5  -6  -3  149.62   11.34
   5  -6  -2    3.07    3.66
   5  -6  -1   44.98    6.64
   5  -6   0   52.45    6.96
   5  -6   1   14.23    4.51
   5  -6   2   39.85    6.68
   5  -6   3  126.24   10.33
   5  -6   4   34.89    6.19
   5  -6   5  225.91   13.91
   5  -6   5  219.65   12.06
   5  -6   6   52.89    7.23
   5  -6   6   49.76    6.28
   5  -6   7   -2.32    3.69
   5  -6   7   -0.84    3.00
   5  -6   8   35.58    6.70
   5  -6   8   31.74    5.56
   5  -6   9    0.47    3.77
   5  -6   9    6.17    3.07
   5  -6  10   77.27    9.39
   5  -6  10   67.43    7.33
   5  -6  11  106.97    8.81
   5  -6  12   24.41    4.50
   5  -6  13   80.78    8.18
   5  -6  14  102.24    8.94
   5  -6  15    2.72    3.31
   5  -6  16    4.99    3.32
   5  -6  17   28.73    5.53
   5  -6  18   26.34    5.34
   5  -6  19   99.72    9.65
   5  -6  20   10.49    4.79
   5  -6  21   40.83    6.89
  -5   5  21   29.39    6.87
  -5   5  20   22.05    5.85
  -5   5  19    4.90    4.56
  -5   5  18    8.30    3.89
  -5   5  17    2.99    3.87
  -5   5  16   -0.67    3.09
  -5   5  15   38.92    6.48
  -5   5  14    3.83    3.61
  -5   5  13   21.90    5.13
  -5   5  12   47.69    6.91
  -5   5  11    4.88    4.00
  -5   5  10    1.76    3.54
   5  -5  -9    7.91    4.30
  -5   5   9    9.72    4.42
   5  -5  -8   17.78    4.66
  -5   5   8   19.37    4.58
   5  -5  -7  104.73    9.46
  -5   5   7   90.06    8.63
   5  -5  -6   -0.01    3.07
  -5   5   6    2.25    3.31
   5  -5  -5   81.34    8.57
  -5   5   5   64.17    7.40
   5  -5  -4   83.90    8.58
   5  -5  -3   -0.28    3.15
   5  -5  -2    0.33    3.49
   5  -5  -1   19.85    4.40
   5  -5   0   29.77    5.63
   5  -5   1   69.57    7.81
   5  -5   2   13.83    4.61
   5  -5   3   56.57    6.87
   5  -5   4   52.64    6.86
   5  -5   5    7.29    3.69
   5  -5   5    1.22    2.34
   5  -5   6   18.08    4.88
   5  -5   6   11.62    3.76
   5  -5   7   97.05    9.13
   5  -5   7  112.35    8.00
   5  -5   8   31.44    5.43
   5  -5   8   23.07    4.32
   5  -5   9  134.85   11.08
   5  -5   9  127.86    9.02
   5  -5  10   43.53    6.98
   5  -5  10   40.81    5.30
   5  -5  11   17.95    3.74
   5  -5  12   48.08    5.75
   5  -5  13    2.98    3.02
   5  -5  14   38.16    5.69
   5  -5  15  145.07   10.13
   5  -5  16    0.68    2.75
   5  -5  17   97.74    8.89
   5  -5  18   33.66    5.67
   5  -5  19   17.46    4.65
   5  -5  20   -3.76    3.03
   5  -5  21   37.05    6.38
   5  -5  22   27.33    5.73
   5  -5  23   39.39    6.94
  -5   4  21    3.63    3.68
  -5   4  20   32.81    6.72
  -5   4  19   37.08    6.65
  -5   4  18   29.24    6.12
  -5   4  17   26.86    5.70
  -5   4  16    0.88    3.24
  -5   4  15    4.29    3.71
  -5   4  14   42.41    6.74
  -5   4  13   41.51    6.53
  -5   4  12   58.02    7.27
  -5   4  11   71.26    7.92
  -5   4  10    2.38    3.15
   5  -4  -9    9.06    4.33
  -5   4   9    7.62    3.73
   5  -4  -8   30.10    5.65
  -5   4   8   31.33    5.53
   5  -4  -7    9.32    3.32
  -5   4   7   23.36    4.77
   5  -4  -6   77.53    7.91
  -5   4   6   75.03    7.90
   5  -4  -5    9.54    4.11
  -5   4   5    9.07    3.90
   5  -4  -4  240.26   13.82
  -5   4   4  240.47   13.32
   5  -4  -3  170.26   11.68
  -5   4   3  167.35   11.22
   5  -4  -2    3.03    3.07
   5  -4  -1   28.06    5.14
   5  -4   0   -4.72    3.47
   5  -4   1    5.59    3.36
   5  -4   2  246.42   13.79
   5  -4   3   25.45    4.68
   5  -4   4   92.14    8.26
   5  -4   4   91.40    6.78
   5  -4   5   93.48    8.58
   5  -4   5   76.00    3.25
   5  -4   5   97.79    7.17
   5  -4   6    8.85    3.96
   5  -4   6    9.21    1.63
   5  -4   6    4.79    2.30
   5  -4   7   38.62    6.22
   5  -4   7   39.26    3.06
   5  -4   7   35.25    4.88
   5  -4   8   23.13    5.13
   5  -4   8   19.63    2.57
   5  -4   8   16.68    3.45
   5  -4   9    0.36    3.02
   5  -4   9    6.25    2.12
   5  -4   9    1.32    2.69
   5  -4  10  204.15    8.36
   5  -4  10  209.88   13.37
   5  -4  10  210.41   10.97
   5  -4  11   16.46    3.89
   5  -4  12   54.21    6.23
   5  -4  13  109.97    8.31
   5  -4  14   27.49    4.68
   5  -4  15    2.68    2.89
   5  -4  16   29.43    5.00
   5  -4  17    5.55    4.07
   5  -4  18  202.21   12.03
   5  -4  19   25.80    4.92
   5  -4  20   -1.28    3.05
   5  -4  21   12.63    4.25
   5  -4  22   11.61    4.56
   5  -4  23    0.17    3.20
   5  -4  24   45.74    7.12
  -5   3  22   17.59    5.25
  -5   3  21   47.96    7.59
  -5   3  20   15.04    4.98
  -5   3  19    4.11    3.73
  -5   3  18   26.20    5.91
  -5   3  17    3.98    3.61
  -5   3  16  126.37   10.63
  -5   3  15   58.32    7.54
  -5   3  14   20.40    4.81
  -5   3  13   68.26    7.60
  -5   3  12   19.80    4.68
  -5   3  11    4.66    3.89
   5  -3 -10   99.92    7.19
  -5   3  10  102.48    8.91
  -5   3   9   -2.11    2.65
   5  -3  -9    3.34    2.58
   5  -3  -8  168.39   11.69
   5  -3  -8  156.98    8.56
  -5   3   8  167.17   11.02
   5  -3  -7   36.51    5.95
   5  -3  -7   40.40    4.49
  -5   3   7   42.81    5.95
   5  -3  -6   26.91    4.73
   5  -3  -6   22.81    3.49
  -5   3   6   29.43    5.01
   5  -3  -5   57.92    6.74
  -5   3   5   61.34    6.91
   5  -3  -4   60.38    7.44
  -5   3   4   43.65    5.71
   5  -3  -3   30.63    5.33
  -5   3   3   29.26    5.03
   5  -3  -2  286.54   14.50
   5  -3  -2  283.13   11.00
  -5   3   2  284.71   14.08
   5  -3  -1   -1.16    2.73
   5  -3  -1    8.12    2.71
   5  -3   0   94.58    8.56
   5  -3   0   94.49    6.67
   5  -3   1  167.62   11.25
   5  -3   1  169.37    8.98
   5  -3   2   43.58    6.33
   5  -3   2   39.67    4.39
   5  -3   3   49.62    6.59
   5  -3   3   42.59    4.42
   5  -3   4  267.32   14.07
   5  -3   4  267.53   10.74
   5  -3   5    5.85    3.51
   5  -3   5    4.81    1.31
   5  -3   5    3.85    1.11
   5  -3   5   -0.74    2.18
   5  -3   6  136.89    4.95
   5  -3   6  156.58    5.22
   5  -3   6  152.63   10.63
   5  -3   6  175.37    8.85
   5  -3   7   -0.97    3.25
   5  -3   7    4.18    1.50
   5  -3   7   -0.04    2.21
   5  -3   8   26.33    4.98
   5  -3   8   33.38    4.37
   5  -3   9   37.32    5.94
   5  -3   9   41.70    4.80
   5  -3  10   19.06    4.33
   5  -3  10   26.09    4.11
   5  -3  11    7.03    2.95
   5  -3  12   60.18    5.82
   5  -3  13   60.09    6.14
   5  -3  14   58.74    6.14
   5  -3  15   13.89    3.89
   5  -3  16    9.35    3.35
   5  -3  17   16.50    3.86
   5  -3  18   19.93    4.45
   5  -3  19   52.99    6.50
   5  -3  20   60.34    6.94
   5  -3  21   59.15    7.31
   5  -3  22   41.94    6.31
   5  -3  23   10.75    4.59
   5  -3  24    0.15    3.93
   5  -3  25    3.48    4.22
  -5   2  22   16.04    5.98
  -5   2  21   42.10    7.11
  -5   2  20   12.48    5.03
  -5   2  19    3.53    3.84
  -5   2  18   10.24    4.78
  -5   2  17    2.43    3.74
  -5   2  16    1.66    3.58
  -5   2  15  165.87   11.99
  -5   2  14   22.29    5.46
   5  -2 -13   88.04    6.59
  -5   2  13   88.96    8.43
  -5   2  12   14.87    4.70
   5  -2 -12   17.95    3.48
  -5   2  11    4.25    3.02
   5  -2 -11   -0.12    2.09
  -5   2  10    8.82    3.58
   5  -2 -10    7.17    2.33
  -5   2   9   25.25    4.71
   5  -2  -9   25.34    3.62
   5  -2  -9   30.64    5.77
  -5   2   8    7.87    3.42
   5  -2  -8   13.29    4.51
   5  -2  -8    7.83    2.59
   5  -2  -7  496.17   19.19
   5  -2  -7  495.92   13.48
  -5   2   7  498.67   18.68
  -5   2   6    8.57    3.91
   5  -2  -6    5.45    3.65
   5  -2  -6    2.43    1.84
   5  -2  -5  160.21   10.79
   5  -2  -5  166.66    7.65
  -5   2   5  164.33   10.68
  -5   2   4    1.98    3.32
   5  -2  -4   -3.17    2.31
   5  -2  -3   -1.26    2.83
   5  -2  -3    2.03    2.05
  -5   2   3    1.36    2.65
   5  -2  -2   14.37    3.78
  -5   2   2   12.21    3.57
   5  -2  -2   16.88    3.49
   5  -2  -1  188.31   11.45
  -5   2   1  192.13   11.57
   5  -2  -1  181.99    8.49
   5  -2   0    6.67    3.51
   5  -2   0    0.04    2.46
   5  -2   1  313.74   14.86
   5  -2   1  279.16    9.69
   5  -2   1  303.18   11.51
   5  -2   2   31.79    5.48
   5  -2   2   30.61    4.06
   5  -2   2   25.37    3.06
   5  -2   3  154.51   10.40
   5  -2   3  156.70    7.41
   5  -2   3  160.15    8.79
   5  -2   4    2.52    2.87
   5  -2   4    1.21    0.87
   5  -2   4    3.46    0.98
   5  -2   4   -0.43    1.66
   5  -2   5    8.30    3.48
   5  -2   5    4.36    1.27
   5  -2   5    6.74    2.33
   5  -2   6   23.26    4.66
   5  -2   6   23.93    2.39
   5  -2   6   24.13    3.37
   5  -2   7  124.54    5.33
   5  -2   7  126.58    9.54
   5  -2   7  137.61    7.58
   5  -2   8    7.12    2.11
   5  -2   8    3.67    3.23
   5  -2   8    4.12    2.65
   5  -2   9  561.84   13.05
   5  -2   9  565.05   15.28
   5  -2   9  558.54   20.00
   5  -2  10    2.89    2.06
   5  -2  10    2.76    3.32
   5  -2  11   34.60    4.35
   5  -2  12    5.16    2.43
   5  -2  13   30.73    4.17
   5  -2  14    9.28    3.00
   5  -2  15  170.45    9.83
   5  -2  16    2.16    3.05
   5  -2  17  253.70   12.23
   5  -2  18    5.13    3.56
   5  -2  19    0.72    2.65
   5  -2  20    6.35    3.30
   5  -2  21    3.70    3.15
   5  -2  22    0.08    2.76
   5  -2  23  149.82   10.78
   5  -2  24    5.43    3.48
   5  -2  25   39.95    6.59
   5  -2  26    0.24    3.59
  -5   1  23    7.14    5.23
  -5   1  22    7.61    4.11
  -5   1  21    4.30    4.18
  -5   1  20    9.59    4.36
  -5   1  19   64.59    8.50
  -5   1  18    8.60    4.33
  -5   1  17   74.14    8.41
  -5   1  16   16.03    4.66
  -5   1  15   11.60    4.31
   5  -1 -15    4.98    2.44
  -5   1  14   27.27    5.36
   5  -1 -14   26.04    3.62
  -5   1  13    5.59    3.18
   5  -1 -13   10.89    2.61
  -5   1  12   28.51    5.29
   5  -1 -12   25.78    3.61
   5  -1 -11  129.59    6.85
  -5   1  11  134.89    9.97
  -5   1  10   19.51    4.47
   5  -1 -10   16.75    2.75
   5  -1  -9   62.30    4.63
  -5   1   9   69.24    7.42
  -5   1   8   26.15    4.76
   5  -1  -8   22.31    2.81
   5  -1  -8   28.41    5.35
  -5   1   7    1.63    2.81
   5  -1  -7    5.16    3.29
   5  -1  -7    3.90    1.75
  -5   1   6   23.95    4.77
   5  -1  -6   19.79    4.57
   5  -1  -6   21.74    2.77
   5  -1  -6   26.12    2.90
   5  -1  -5  114.61    9.22
   5  -1  -5  113.21    5.54
   5  -1  -5  125.76    6.05
  -5   1   5  120.66    9.09
   5  -1  -4    4.81    3.21
   5  -1  -4   -1.86    1.71
  -5   1   4    2.55    2.92
   5  -1  -4    7.98    2.46
   5  -1  -3  281.49   14.04
   5  -1  -3  277.99    9.62
  -5   1   3  279.81   13.55
   5  -1  -2   49.34    6.25
  -5   1   2   48.39    5.92
   5  -1  -2   51.79    4.54
   5  -1  -1   24.19    4.58
  -5   1   1   21.08    3.70
   5  -1  -1   33.12    4.11
   5  -1   0   25.42    4.15
   5  -1   0   30.96    2.76
   5  -1   0   41.84    4.66
   5  -1   1    9.14    3.59
   5  -1   1   12.20    3.23
   5  -1   1    9.94    1.82
   5  -1   2   83.59    7.72
   5  -1   2   86.94    4.80
   5  -1   2  104.07    7.14
   5  -1   3   22.89    4.25
   5  -1   3   24.91    1.97
   5  -1   3   33.00    4.27
   5  -1   3   23.03    2.56
   5  -1   4   -0.93    2.68
   5  -1   4    4.41    1.74
   5  -1   4    0.69    1.89
   5  -1   4    1.03    1.46
   5  -1   5  532.33   10.43
   5  -1   5  534.41   12.37
   5  -1   5  540.88   18.83
   5  -1   6   63.71    3.94
   5  -1   6   63.23    4.58
   5  -1   6   56.05    6.46
   5  -1   7   10.72    2.49
   5  -1   7    8.55    3.33
   5  -1   7    7.49    1.92
   5  -1   8   49.04    3.91
   5  -1   8   46.74    4.29
   5  -1   8   44.33    5.65
   5  -1   9   13.96    2.72
   5  -1   9   15.59    4.07
   5  -1   9   14.64    2.31
   5  -1  10   15.77    3.01
   5  -1  10   20.08    2.86
   5  -1  10   16.26    4.34
   5  -1  11  448.92   13.36
   5  -1  11  425.53   13.01
   5  -1  11  413.08   17.11
   5  -1  12   13.38    3.11
   5  -1  12   17.73    3.31
   5  -1  13   34.35    4.27
   5  -1  13   37.53    4.50
   5  -1  14   24.88    3.98
   5  -1  14   27.16    4.17
   5  -1  15   33.41    4.41
   5  -1  16   26.56    4.25
   5  -1  17   17.17    3.81
   5  -1  18    4.74    3.08
   5  -1  19  201.72   11.15
   5  -1  20    6.71    3.79
   5  -1  21   37.89    5.76
   5  -1  22   16.87    4.17
   5  -1  23   11.39    3.69
   5  -1  24    5.87    3.44
   5  -1  25   38.60    6.70
   5  -1  26    4.42    4.25
  -5   0  23    7.33    5.32
  -5   0  22   13.81    5.82
  -5   0  21   26.00    6.38
  -5   0  20    2.73    4.05
  -5   0  19    5.65    3.42
  -5   0  18   26.14    5.86
  -5   0  17    5.80    3.82
   5   0 -16   75.27    5.77
  -5   0  16   80.98    8.94
  -5   0  15   28.79    5.53
   5   0 -15   24.29    3.50
  -5   0  14   27.68    5.38
   5   0 -14   23.00    3.19
  -5   0  13    7.69    3.44
   5   0 -13   14.88    2.65
  -5   0  12   -2.00    3.42
   5   0 -12    2.24    1.77
  -5   0  12    1.66    1.21
  -5   0  11    9.72    3.61
   5   0 -11    9.40    2.11
  -5   0  11    5.68    1.21
  -5   0  10   33.55    5.31
   5   0 -10   31.12    3.17
  -5   0  10   19.42    1.49
  -5   0   9    9.48    4.10
   5   0  -9    8.53    2.18
   5   0  -8  247.92    7.46
  -5   0   8  250.41   13.06
   5   0  -7  125.63    9.85
   5   0  -7  113.81    4.99
  -5   0   7  115.78    9.21
   5   0  -7  124.60    5.31
   5   0  -6   70.48    7.05
   5   0  -6   68.29    3.55
  -5   0   6   72.58    7.17
   5   0  -6   77.11    4.41
  -5   0   5   10.19    3.78
   5   0  -5    4.60    2.92
   5   0  -5    3.80    1.17
   5   0  -5    7.35    2.15
   5   0  -4   10.14    3.40
   5   0  -4    7.43    1.29
  -5   0   4   11.94    3.57
   5   0  -4   11.98    2.51
   5   0  -3    7.02    3.50
   5   0  -3    4.78    1.47
   5   0  -3    9.09    2.52
  -5   0   3    8.96    3.39
   5   0  -2  265.66   13.26
   5   0  -2  210.54    5.68
   5   0  -2  248.72    6.27
   5   0  -2  256.88    9.58
  -5   0   2  254.67   12.80
   5   0  -1   99.25    8.61
   5   0  -1   76.98    3.47
  -5   0   1   92.41    7.98
   5   0   0  240.45    4.67
   5   0   0  256.71   12.94
   5   0   0  232.00    6.16
  -5   0   0  256.63   12.83
   5   0   1   35.19    1.92
   5   0   1   42.08    3.10
   5   0   1   48.95    5.82
   5   0   2    0.84    1.19
   5   0   2    0.38    1.15
   5   0   2    4.04    2.44
   5   0   3   43.36    2.96
   5   0   3   47.42    3.21
   5   0   3   55.81    6.33
   5   0   4   41.06    3.37
   5   0   4   35.45    3.04
   5   0   4   37.05    5.35
   5   0   5    2.58    1.37
   5   0   5    3.21    2.34
   5   0   5    1.59    1.38
   5   0   6  233.66    8.22
   5   0   6  235.05    7.68
   5   0   6  231.98   12.01
   5   0   7  216.99    8.38
   5   0   7  215.27    7.87
   5   0   7  201.44   11.58
   5   0   8  454.03   12.46
   5   0   8  473.66   11.69
   5   0   8  435.23   16.80
   5   0   9   10.51    2.99
   5   0   9   19.30    4.78
   5   0   9   12.06    2.76
   5   0  10   12.50    2.81
   5   0  10   14.75    3.68
   5   0  10    8.78    2.36
   5   0  11   16.11    2.98
   5   0  11   15.98    3.11
   5   0  11   13.01    3.49
   5   0  12   72.89    5.85
   5   0  12   72.84    5.51
   5   0  13   42.97    4.54
   5   0  13   51.43    5.45
   5   0  14  182.09    9.95
   5   0  14  174.01    8.78
   5   0  15   13.57    3.43
   5   0  15   13.06    3.59
   5   0  16   86.40    7.53
   5   0  16   76.85    6.50
   5   0  17    1.34    2.91
   5   0  17    1.20    3.12
   5   0  18   12.47    2.94
   5   0  18   18.22    4.49
   5   0  19    2.22    2.53
   5   0  19    6.70    3.43
   5   0  20   39.82    5.58
   5   0  20   42.48    6.38
   5   0  21   22.12    5.12
   5   0  21   31.89    6.40
   5   0  22  126.46   10.82
   5   0  22  118.77    9.43
   5   0  23   39.17    6.27
   5   0  23   39.98    6.85
   5   0  24   38.91    5.99
   5   0  24   44.11    7.05
   5   0  25    3.08    3.80
   5   0  25    6.18    4.56
   5   0  26    7.95    4.38
   5   0  27   17.03    5.32
  -5  -1  23    3.37    4.69
  -5  -1  22    6.40    4.06
  -5  -1  21   53.80    8.50
  -5  -1  20   94.71   10.42
  -5  -1  19   73.87    8.95
  -5  -1  18   -6.32    4.31
  -5  -1  17    9.02    4.33
  -5  -1  16    4.24    3.77
  -5  -1  15   66.00    8.10
   5   1 -15   54.29    4.63
   5   1 -14  184.03    7.60
  -5  -1  14  191.59   12.69
  -5  -1  13   48.14    3.90
  -5  -1  13   49.72    6.77
   5   1 -13   52.34    4.04
  -5  -1  12   62.43    4.42
   5   1 -12   78.12    4.57
  -5  -1  12   77.87    8.07
  -5  -1  11   58.71    6.89
  -5  -1  11   50.39    3.78
   5   1 -11   63.67    3.94
  -5  -1  10   -0.30    2.86
  -5  -1  10    2.98    1.31
   5   1 -10    4.33    1.62
  -5  -1   9   64.44    3.66
   5   1  -9   78.70    3.76
  -5  -1   9   70.62    7.24
   5   1  -9   70.95    2.99
  -5  -1   8   10.62    3.86
  -5  -1   8    8.63    1.45
   5   1  -8    7.44    1.51
   5   1  -8   11.81    1.82
   5   1  -7   50.37    2.54
  -5  -1   7   66.86    7.23
   5   1  -7   64.42    3.92
  -5  -1   6  275.08    6.74
   5   1  -6  324.79   14.78
   5   1  -6  281.02    5.10
  -5  -1   6  318.26   14.42
   5   1  -6  345.08    9.31
   5   1  -5   82.06    7.87
  -5  -1   5   76.95    7.59
   5   1  -4  197.95   11.23
  -5  -1   4  212.91   11.69
   5   1  -3   59.22    6.09
  -5  -1   3   69.49    7.00
   5   1  -2    1.08    2.30
   5   1  -2   -0.96    1.14
  -5  -1   2   -1.13    3.22
   5   1  -1   81.10    7.55
   5   1  -1   81.07    4.00
  -5  -1   1   79.00    7.15
   5   1   0    6.09    2.57
   5   1   0    5.31    1.20
  -5  -1   0   15.10    4.21
   5   1   1   68.11    4.31
   5   1   1   60.82    6.10
   5   1   2  269.25    8.49
   5   1   2  277.19   12.90
   5   1   3   46.82    4.33
   5   1   3   50.69    2.42
   5   1   3   45.08    5.87
   5   1   4   35.29    2.29
   5   1   4   30.67    3.29
   5   1   4   30.35    4.68
   5   1   5   97.23    5.94
   5   1   5   82.12    3.59
   5   1   5   89.86    7.64
   5   1   6    8.76    1.45
   5   1   6   12.98    3.57
   5   1   6   16.16    2.87
   5   1   7   10.50    1.63
   5   1   7   18.03    4.05
   5   1   7   16.54    2.76
   5   1   8   37.81    3.16
   5   1   8   40.88    5.52
   5   1   8   34.93    3.89
   5   1   9    6.77    2.24
   5   1   9    9.05    3.83
   5   1   9    5.04    2.39
   5   1  10  298.86   11.64
   5   1  10  309.82    9.95
   5   1  10  277.28   13.31
   5   1  11   59.60    4.97
   5   1  11   51.56    6.29
   5   1  11   48.81    5.06
   5   1  12    9.10    2.85
   5   1  12   12.02    3.69
   5   1  12    6.39    2.89
   5   1  13   88.67    7.07
   5   1  13   90.66    6.34
   5   1  13   83.46    7.98
   5   1  14   79.28    6.86
   5   1  14   85.79    6.36
   5   1  15    3.20    2.86
   5   1  15    2.08    2.49
   5   1  16   63.61    5.88
   5   1  16   60.51    6.52
   5   1  17    8.50    3.46
   5   1  17    5.24    3.44
   5   1  18  140.62   10.17
   5   1  18  131.86    8.86
   5   1  19   24.76    4.83
   5   1  19   22.49    5.01
   5   1  20    1.58    3.13
   5   1  20   -3.94    2.96
   5   1  21    3.52    3.15
   5   1  21    2.47    3.18
   5   1  22   17.15    4.49
   5   1  22   21.24    4.81
   5   1  23    4.26    3.36
   5   1  23    4.40    3.81
   5   1  24   58.34    7.12
   5   1  24   56.25    7.95
   5   1  25    5.15    4.12
   5   1  25    2.51    3.73
   5   1  26   71.46    8.19
  -5  -2  23    9.47    5.76
  -5  -2  22    1.04    3.80
  -5  -2  21   12.31    5.02
  -5  -2  20   15.33    5.13
  -5  -2  19    0.22    3.48
  -5  -2  18   87.16    9.54
  -5  -2  17   34.07    6.43
  -5  -2  16   32.38    5.72
  -5  -2  15   43.87    6.58
  -5  -2  14    9.24    3.70
  -5  -2  13    8.77    2.34
  -5  -2  13   14.53    4.75
  -5  -2  12    7.17    2.16
  -5  -2  12    1.73    3.53
   5   2 -12    7.55    1.84
  -5  -2  11   25.20    3.24
  -5  -2  11   18.24    4.32
   5   2 -11   29.01    2.32
  -5  -2  10   60.23    4.40
   5   2 -10   71.61    2.88
  -5  -2  10   73.29    7.72
   5   2 -10   71.22    2.74
  -5  -2   9   61.47    6.98
  -5  -2   9   59.26    4.30
  -5  -2   8   59.23    6.86
  -5  -2   8   57.26    4.16
  -5  -2   7   48.33    3.77
  -5  -2   7   52.08    6.36
  -5  -2   6   13.53    2.10
  -5  -2   6   19.42    4.24
   5   2  -5   48.67    6.53
  -5  -2   5   26.00    2.52
  -5  -2   5   22.80    4.18
  -5  -2   4    5.77    1.55
   5   2  -4    9.58    3.80
  -5  -2   4    6.91    2.93
   5   2  -3  103.23    8.08
   5   2  -3  102.70    5.31
  -5  -2   3  101.66    8.08
   5   2  -2  121.67    8.85
   5   2  -2  123.67    6.00
  -5  -2   2  127.59    9.20
   5   2  -1  239.07   12.11
   5   2  -1  225.08    8.13
  -5  -2   1  224.97   11.80
   5   2   0   -0.35    2.47
   5   2   0    4.11    2.18
  -5  -2   0    6.28    3.29
   5   2   1   44.94    4.09
   5   2   1   42.50    5.22
   5   2   2  115.51    6.49
   5   2   2  115.35    8.45
   5   2   3   19.24    4.22
   5   2   3   14.88    3.06
   5   2   4    5.14    2.13
   5   2   4    7.56    3.13
   5   2   5  181.60    8.75
   5   2   5  188.07   10.77
   5   2   6  125.98    7.56
   5   2   6  109.36    3.58
   5   2   6  124.51    9.12
   5   2   7  298.72   11.42
   5   2   7  302.50    6.86
   5   2   7  307.38   13.54
   5   2   8   52.61    5.25
   5   2   8   51.68    3.38
   5   2   8   46.66    5.55
   5   2   9   30.79    2.79
   5   2   9   32.79    4.72
   5   2   9   32.94    4.32
   5   2  10   33.59    3.34
   5   2  10   30.94    4.84
   5   2  10   28.46    4.18
   5   2  11   66.83    5.96
   5   2  11   67.40    4.79
   5   2  11   64.04    6.64
   5   2  12   45.24    4.27
   5   2  12   42.17    5.65
   5   2  12   42.24    5.14
   5   2  13  131.92    8.65
   5   2  13  129.33    7.05
   5   2  13  122.36    9.05
   5   2  14   89.09    7.72
   5   2  14   86.04    6.26
   5   2  14   86.71    8.11
   5   2  15   75.80    7.43
   5   2  15   70.40    5.90
   5   2  16   69.63    6.14
   5   2  16   72.50    7.24
   5   2  17   10.49    3.49
   5   2  17   13.19    4.18
   5   2  18    7.42    3.04
   5   2  18   12.59    4.20
   5   2  19   70.74    6.83
   5   2  19   68.91    7.96
   5   2  20   85.22    8.97
   5   2  20   81.87    7.58
   5   2  21  130.48   10.82
   5   2  21  129.02    9.48
   5   2  22   35.82    6.30
   5   2  22   48.23    7.57
   5   2  23    0.35    3.35
   5   2  23    5.83    4.34
   5   2  24   28.16    5.83
  -5  -3  23    3.22    4.01
  -5  -3  22   23.86    5.89
  -5  -3  21   12.49    4.62
  -5  -3  20   13.93    5.41
  -5  -3  19    5.12    4.28
  -5  -3  18   -0.23    3.74
  -5  -3  17    2.49    3.94
  -5  -3  16    7.16    3.68
  -5  -3  15   33.08    5.79
  -5  -3  14   29.97    4.02
  -5  -3  14   34.06    6.31
  -5  -3  13   23.30    3.53
  -5  -3  13   22.31    4.89
  -5  -3  12   51.12    6.74
  -5  -3  12   51.97    5.01
  -5  -3  11   21.60    3.63
  -5  -3  11   17.51    4.38
  -5  -3  10   74.97    5.65
  -5  -3  10   81.87    8.06
  -5  -3   9   -0.75    1.94
  -5  -3   9   -1.00    2.85
  -5  -3   8   30.49    3.72
  -5  -3   8   24.06    4.45
  -5  -3   7   60.56    4.60
  -5  -3   7   79.93    7.50
  -5  -3   6  129.11    6.91
  -5  -3   6  144.76    9.94
  -5  -3   5  110.56    6.44
   5   3  -5  112.93    6.48
  -5  -3   5  122.07    8.96
  -5  -3   4   16.55    2.76
   5   3  -4   14.60    2.72
  -5  -3   4   25.30    4.85
  -5  -3   3    2.62    1.47
   5   3  -3    2.11    2.99
   5   3  -3    0.69    2.09
  -5  -3   3    9.93    3.16
  -5  -3   2   39.54    3.91
   5   3  -2   34.41    4.73
   5   3  -2   33.68    3.79
  -5  -3   2   33.14    4.83
   5   3  -1   49.35    6.07
   5   3  -1   43.57    4.43
  -5  -3   1   50.92    5.90
   5   3   0  112.67    8.75
   5   3   0  113.27    7.04
  -5  -3   0  114.51    8.20
   5   3   1  142.14    8.01
   5   3   1  157.06    9.88
   5   3   2   20.15    3.46
   5   3   2   30.63    5.14
   5   3   3   32.29    4.66
   5   3   3   35.76    4.60
   5   3   4   15.12    3.68
   5   3   4   16.02    3.18
   5   3   5   -1.04    2.29
   5   3   5   -0.11    2.41
   5   3   6    0.64    2.59
   5   3   6    0.49    2.68
   5   3   7   72.28    6.34
   5   3   7   71.64    6.69
   5   3   8  114.00    7.86
   5   3   8  117.65    8.43
   5   3   9  282.04   12.31
   5   3   9  287.56   12.81
   5   3  10    5.44    3.16
   5   3  10    7.70    3.19
   5   3  11   16.73    2.51
   5   3  11   14.92    3.69
   5   3  11   15.23    3.54
   5   3  12    3.00    2.18
   5   3  12    2.47    2.81
   5   3  12    2.47    2.89
   5   3  13    1.39    1.90
   5   3  13    2.17    3.52
   5   3  13    2.92    2.53
   5   3  14   70.07    6.96
   5   3  14   78.33    5.72
   5   3  14   77.49    7.47
   5   3  15   69.11    5.67
   5   3  15   69.18    7.19
   5   3  15   65.56    7.23
   5   3  16   42.39    4.81
   5   3  16   47.03    6.18
   5   3  16   45.86    6.11
   5   3  17   86.22    8.48
   5   3  17   84.59    7.09
   5   3  17   93.87    8.53
   5   3  18    4.98    3.19
   5   3  18    4.50    3.74
   5   3  19    3.22    3.13
   5   3  20    6.63    4.43
   5   3  21    1.93    3.79
   5   3  22   35.47    7.03
  -5  -4  22   14.74    5.76
  -5  -4  21    2.94    3.91
  -5  -4  20    0.97    3.80
  -5  -4  19   64.32    8.58
  -5  -4  18   13.12    5.05
  -5  -4  17   43.72    6.72
  -5  -4  16   28.40    5.65
  -5  -4  15    5.24    3.76
  -5  -4  14   24.81    5.19
  -5  -4  13   30.51    5.69
  -5  -4  12    1.67    2.43
  -5  -4  12    3.81    3.30
  -5  -4  11   89.63    6.95
  -5  -4  11   89.95    8.36
  -5  -4  10   15.38    3.10
  -5  -4  10   18.03    4.84
  -5  -4   9    8.19    2.36
  -5  -4   9   11.42    3.67
  -5  -4   8   72.02    6.01
  -5  -4   8   71.29    7.01
  -5  -4   7    2.76    2.07
  -5  -4   7    5.56    3.17
  -5  -4   6   17.88    3.08
  -5  -4   6   23.16    4.36
   5   4  -6   19.97    3.15
  -5  -4   5   69.21    5.76
   5   4  -5   71.01    5.93
  -5  -4   5   70.81    6.76
  -5  -4   4    8.66    2.72
  -5  -4   4    4.18    2.90
   5   4  -4    3.53    2.16
   5   4  -3  176.52    9.29
  -5  -4   3  172.83    8.63
  -5  -4   3  174.15   10.11
   5   4  -2   74.28    6.57
  -5  -4   2   71.01    5.77
  -5  -4   2   83.70    7.50
  -5  -4   1    2.57    1.94
   5   4  -1   -2.60    2.75
  -5  -4   1    2.74    2.32
   5   4   0   72.32    7.00
   5   4   0   80.24    6.66
  -5  -4   0   73.16    5.71
  -5  -4   0   81.49    6.63
   5   4   1   27.00    4.27
   5   4   1   20.63    4.34
   5   4   2   32.92    4.74
   5   4   2   39.93    4.85
   5   4   3   34.00    5.16
   5   4   3   30.49    4.87
   5   4   4   -0.63    2.37
   5   4   4    1.20    3.02
   5   4   5   94.97    7.70
   5   4   5  103.42    7.94
   5   4   6   11.12    3.72
   5   4   6   15.66    4.06
   5   4   7   17.50    4.01
   5   4   7   19.70    4.35
   5   4   8  123.28    8.44
   5   4   8  126.92    9.03
   5   4   9    4.12    3.03
   5   4   9    5.71    3.34
   5   4  10   22.42    4.34
   5   4  10   20.14    4.10
   5   4  11  137.83    8.96
   5   4  11  133.23    9.64
   5   4  12    8.43    3.69
   5   4  12    4.74    2.95
   5   4  13   46.80    5.46
   5   4  13   40.37    5.73
   5   4  14   14.64    3.61
   5   4  14   15.70    4.47
   5   4  15    9.71    3.46
   5   4  15    9.96    4.04
   5   4  16   32.09    5.49
   5   4  16   45.46    6.64
   5   4  17   -0.92    3.71
   5   4  17    1.48    3.84
   5   4  18    6.03    3.60
   5   4  18    4.76    3.02
   5   4  19   86.12    8.18
   5   4  19   79.97    8.74
   5   4  20   -2.09    3.54
   5   4  21    0.65    3.96
  -5  -5  22    6.59    4.72
  -5  -5  21   18.54    5.66
  -5  -5  20    9.27    4.29
  -5  -5  19   -2.46    3.52
  -5  -5  18    9.21    4.31
  -5  -5  17   31.68    6.14
  -5  -5  16    8.74    4.06
  -5  -5  15   63.92    7.72
  -5  -5  14   19.07    4.88
  -5  -5  13    8.40    3.78
  -5  -5  12   22.38    4.78
  -5  -5  11    7.29    3.85
  -5  -5  10    5.73    3.42
  -5  -5   9   50.65    6.11
  -5  -5   8   65.10    6.71
  -5  -5   7   50.02    5.66
  -5  -5   7   62.73    6.54
   5   5  -7   57.56    6.05
  -5  -5   6   61.38    6.04
   5   5  -6   56.89    6.15
  -5  -5   6   70.99    6.92
  -5  -5   5   -0.07    2.31
   5   5  -5   -1.73    2.19
  -5  -5   4   41.45    5.01
  -5  -5   4   42.17    5.17
   5   5  -4   32.29    4.59
   5   5  -3    2.17    2.58
  -5  -5   3    7.59    3.29
   5   5  -2   42.47    5.18
  -5  -5   2   54.44    5.65
   5   5  -1   73.45    7.25
  -5  -5   1   81.80    6.79
   5   5   0  148.42    9.79
   5   5   1   31.92    5.29
   5   5   2   46.18    5.63
   5   5   2   42.31    5.69
   5   5   2   44.12    5.62
   5   5   3    7.77    3.58
   5   5   3    7.59    3.26
   5   5   3    7.36    2.91
   5   5   4   14.58    4.17
   5   5   4   11.91    3.15
   5   5   4   11.48    3.31
   5   5   5    7.55    2.77
   5   5   5    5.09    3.06
   5   5   5    3.86    2.23
   5   5   6   40.40    5.46
   5   5   6   44.08    5.39
   5   5   6   37.17    4.52
   5   5   7   87.15    7.36
   5   5   7   80.33    7.90
   5   5   8  101.90    7.73
   5   5   8  101.28    8.61
   5   5   9    3.83    3.04
   5   5   9    4.17    3.37
   5   5  10   40.04    5.91
   5   5  10   42.30    4.97
   5   5  11   13.05    3.94
   5   5  11   13.65    3.66
   5   5  12   36.87    5.73
   5   5  12   38.92    5.44
   5   5  13    4.94    3.27
   5   5  13    5.25    3.90
   5   5  14   17.74    4.14
   5   5  14   18.42    4.88
   5   5  15   33.96    6.00
   5   5  16   39.43    6.62
   5   5  17    3.45    3.32
   5   5  18   10.43    4.72
   5   5  19   25.00    6.17
  -5  -6  21    8.74    4.36
  -5  -6  20   47.47    7.40
  -5  -6  19    7.09    4.15
  -5  -6  18   64.64    8.17
  -5  -6  17   45.30    7.03
  -5  -6  16    1.20    3.53
  -5  -6  15   16.11    4.62
  -5  -6  14   10.77    3.72
  -5  -6  13   -1.28    3.06
  -5  -6  12   98.80    8.62
  -5  -6  11   25.12    5.22
  -5  -6  10   52.73    6.39
  -5  -6   9  135.13    9.55
  -5  -6   8    5.64    3.77
   5   6  -8    2.25    3.23
   5   6  -7   12.75    3.48
  -5  -6   7   17.48    3.81
  -5  -6   6   26.43    4.45
   5   6  -6   17.06    3.87
  -5  -6   5    7.34    3.38
   5   6  -5    4.28    3.36
   5   6  -4  116.67    9.28
  -5  -6   4  144.22    9.12
   5   6  -3   93.91    8.47
  -5  -6   3  123.56    8.15
   5   6  -2    6.13    3.21
  -5  -6   2   14.15    3.33
   5   6  -1   61.05    6.73
   5   6   0    5.04    3.37
   5   6   1   24.20    4.84
   5   6   2   37.92    6.01
   5   6   3    2.53    3.00
   5   6   4   24.85    5.23
   5   6   5   72.26    6.18
   5   6   5   68.49    7.77
   5   6   6   26.41    4.26
   5   6   6   33.30    5.72
   5   6   7   67.85    7.50
   5   6   7   71.66    5.93
   5   6   8    3.86    2.77
   5   6   8    5.97    4.01
   5   6   9    0.49    3.13
   5   6  10   20.43    4.61
   5   6  11   36.92    6.44
   5   6  12   13.07    4.79
   5   6  13   63.57    7.95
   5   6  14    9.87    4.22
   5   6  15   15.87    4.51
   5   6  16    8.34    4.74
   5   6  17    1.63    3.27
  -5  -7  21   25.25    6.09
  -5  -7  20    8.67    4.33
  -5  -7  19    2.16    3.20
  -5  -7  18   32.97    6.32
  -5  -7  17    4.95    4.11
  -5  -7  16   49.39    6.95
  -5  -7  15   37.25    6.26
  -5  -7  14   10.84    4.35
  -5  -7  13    9.85    3.89
  -5  -7  12    1.82    3.05
  -5  -7  11   -3.09    2.68
  -5  -7  10   44.07    5.56
  -5  -7   9    2.60    3.43
   5   7  -9    5.74    3.91
   5   7  -8   36.98    6.44
  -5  -7   8   58.38    6.45
   5   7  -7   61.92    7.74
  -5  -7   7   75.51    6.97
  -5  -7   6    5.98    3.08
   5   7  -6   -0.51    3.11
   5   7  -5   -3.73    4.08
  -5  -7   5    7.60    2.81
   5   7  -4    2.05    2.91
  -5  -7   4    2.89    2.31
   5   7  -3   -0.33    2.79
  -5  -7   3    6.70    3.08
   5   7  -2   51.55    7.28
  -5  -7   2   71.56    6.07
   5   7  -1   21.38    5.12
   5   7   0   27.05    5.63
   5   7   1   51.68    6.96
   5   7   2   34.97    6.20
   5   7   3    1.97    3.30
   5   7   4    0.33    3.09
   5   7   5    3.66    3.10
   5   7   6   53.68    7.36
   5   7   7   17.77    4.76
   5   7   8   -3.44    3.68
   5   7   9   89.77    9.52
   5   7  10   13.62    4.81
   5   7  11    1.99    3.98
   5   7  12   15.87    5.61
   5   7  13    0.01    3.57
   5   7  14   56.49    7.98
  -5  -8  20    6.20    4.35
  -5  -8  19   20.45    5.66
  -5  -8  18   20.74    5.22
  -5  -8  17   12.76    4.44
  -5  -8  16    2.56    3.11
  -5  -8  15    1.60    3.05
  -5  -8  14   -0.54    3.35
  -5  -8  13   19.30    4.37
  -5  -8  12    0.47    2.85
  -5  -8  11   23.63    4.62
  -5  -8  10   58.90    6.48
  -5  -8   9    3.63    3.40
   5   8  -9    2.52    3.93
   5   8  -8    7.15    3.70
   5   8  -7    3.86    3.53
   5   8  -6   -0.99    3.10
   5   8  -5   19.53    4.94
   5   8  -4   12.79    4.94
   5   8  -3   20.46    5.23
   5   8  -2   61.67    8.03
   5   8  -1   -1.51    3.00
   5   8   0    2.25    3.42
   5   8   1    7.02    4.31
   5   8   2   -1.40    3.60
   5   8   3   21.65    5.32
   5   8   4   43.23    7.02
   5   8   5    2.88    3.93
   5   8   6   49.22    7.50
   5   8   7    5.18    4.61
   5   8   8    1.35    3.83
   5   8   9   28.69    6.32
   5   8  10    1.82    4.33
   5   9  -9   13.59    5.11
   5   9  -8    6.78    4.85
   5   9  -7    9.76    4.89
   5   9  -6   11.05    4.88
   5   9  -5   15.52    4.98
   5   9  -4    4.96    4.40
   5   9  -3   33.99    6.26
   5   9  -2    6.02    4.16
   5   9  -1   25.94    6.16
   5   9   0   36.33    7.03
   5   9   1    7.76    4.66
   5   9   2   15.67    4.97
   5   9   3   10.31    4.27
   5   9   4    3.06    4.37
   5   9   5   49.11    8.26
   6  -8   4    3.33    3.85
   6  -8   5    7.91    3.67
   6  -8   6   -3.59    3.57
   6  -8   7   32.21    6.22
   6  -8   8   -1.22    4.42
   6  -8   9   75.81    8.83
   6  -7  -8   56.37    8.52
   6  -7  -7    4.15    4.71
   6  -7  -6    4.19    4.66
   6  -7  -5   30.81    6.81
   6  -7  -4   12.38    5.12
   6  -7  -3  100.83   10.97
   6  -7  -2   91.74   10.51
   6  -7  -1    5.98    4.59
   6  -7   0   26.20    6.24
   6  -7   1   -0.34    3.99
   6  -7   2    8.11    4.89
   6  -7   3   57.62    8.04
   6  -7   4   16.77    5.73
   6  -7   4    4.20    3.24
   6  -7   5  114.50   11.41
   6  -7   5   94.33    9.26
   6  -7   6   55.86    8.86
   6  -7   6   48.78    6.81
   6  -7   7    1.34    3.59
   6  -7   8    3.76    3.67
   6  -7   9    1.91    3.54
   6  -7  10    1.23    3.63
   6  -7  11   46.30    7.29
   6  -7  12   12.64    5.36
   6  -7  13   33.65    6.42
   6  -7  14   39.38    6.69
  -6   6  11    7.44    4.70
  -6   6  10   38.97    7.57
   6  -6  -9   24.87    6.88
  -6   6   9    3.36    4.36
   6  -6  -8   43.10    7.55
   6  -6  -7   48.12    8.26
   6  -6  -6    4.73    4.38
   6  -6  -5   11.72    5.10
   6  -6  -4    8.39    4.52
   6  -6  -3    7.63    4.54
   6  -6  -2   92.94   10.36
   6  -6  -1   25.93    5.91
   6  -6   0   45.76    7.21
   6  -6   1   32.74    6.40
   6  -6   2    6.73    4.58
   6  -6   3    2.07    4.23
   6  -6   3   -3.79    3.46
   6  -6   4   43.62    7.22
   6  -6   4   36.82    5.51
   6  -6   5   -0.69    4.19
   6  -6   5    4.05    3.78
   6  -6   6  150.29   12.69
   6  -6   6  135.53   10.03
   6  -6   7   58.61    8.58
   6  -6   7   54.93    7.21
   6  -6   8   29.37    6.36
   6  -6   8   37.21    6.02
   6  -6   9    8.19    4.60
   6  -6   9    8.83    4.26
   6  -6  10   17.64    5.85
   6  -6  10    9.29    4.04
   6  -6  11    3.81    3.69
   6  -6  12   25.22    5.20
   6  -6  13    3.63    4.21
   6  -6  14   86.82    8.67
   6  -6  15   51.06    6.80
   6  -6  16   14.35    4.60
   6  -6  17   -1.60    3.54
  -6   5  13   27.27    6.16
  -6   5  12    6.20    4.31
  -6   5  11   65.21    8.80
  -6   5  10   13.26    5.19
   6  -5  -9    9.42    5.20
  -6   5   9    9.42    4.72
   6  -5  -8    2.22    4.41
  -6   5   8   12.93    5.01
   6  -5  -7   15.57    5.75
  -6   5   7    4.71    4.24
   6  -5  -6   90.35   10.34
   6  -5  -5   83.15    9.73
   6  -5  -4   20.53    6.12
   6  -5  -3   95.74   10.14
   6  -5  -2   19.28    5.80
   6  -5  -1    2.60    3.51
   6  -5   0    6.96    3.72
   6  -5   1   -1.53    3.63
   6  -5   2  141.42   12.22
   6  -5   2  108.98    8.08
   6  -5   3  156.33   12.66
   6  -5   3  110.81    8.62
   6  -5   4   22.28    5.66
   6  -5   4   11.09    2.94
   6  -5   5   37.91    7.17
   6  -5   5   36.19    4.91
   6  -5   6    5.69    4.80
   6  -5   6   -3.53    3.12
   6  -5   7   10.08    4.42
   6  -5   7   -0.66    3.11
   6  -5   8   45.41    7.43
   6  -5   8   36.35    5.29
   6  -5   9    5.23    4.36
   6  -5   9    6.70    3.45
   6  -5  10  125.29   11.57
   6  -5  10  124.01    9.61
   6  -5  11   47.47    7.60
   6  -5  11   41.58    5.95
   6  -5  12    4.22    4.69
   6  -5  12    1.55    3.36
   6  -5  13   34.68    5.62
   6  -5  14    6.07    3.87
   6  -5  15    5.71    3.86
   6  -5  16   98.39    9.56
   6  -5  17   10.46    4.25
   6  -5  18   61.11    7.70
   6  -5  19   12.66    4.40
   6  -5  20   -0.65    3.93
  -6   4  15    5.15    4.80
  -6   4  14   -3.39    3.61
  -6   4  13    6.30    4.59
  -6   4  12    1.13    3.64
  -6   4  11   38.77    7.13
  -6   4  10   97.02    9.90
   6  -4  -9   10.07    6.20
  -6   4   9    7.81    4.17
   6  -4  -8   35.66    6.91
  -6   4   8   32.13    6.25
   6  -4  -7   14.59    5.67
  -6   4   7   11.27    4.89
   6  -4  -6    2.81    3.62
  -6   4   6   -1.90    3.93
   6  -4  -5   21.75    5.52
  -6   4   5   23.86    5.44
   6  -4  -4   38.74    6.78
   6  -4  -3   87.89    9.77
   6  -4  -2  159.01   12.60
   6  -4  -1    1.18    3.82
   6  -4   0   18.86    5.36
   6  -4   1    4.44    4.10
   6  -4   1   -0.10    3.35
   6  -4   2    1.86    3.80
   6  -4   2   -7.49    3.61
   6  -4   3  139.50   11.75
   6  -4   3  136.90    8.89
   6  -4   4  106.05   10.57
   6  -4   4   92.74    7.57
   6  -4   5   47.58    7.45
   6  -4   5   53.86    6.15
   6  -4   6  209.65   13.97
   6  -4   6  231.84   11.41
   6  -4   7   11.56    4.87
   6  -4   7   15.42    3.62
   6  -4   8    0.59    3.42
   6  -4   8   -0.52    2.60
   6  -4   9   35.77    6.69
   6  -4   9   44.03    5.55
   6  -4  10    6.33    4.96
   6  -4  10   10.01    3.61
   6  -4  11  107.18    8.42
   6  -4  11  123.85   11.58
   6  -4  12  147.23    9.93
   6  -4  12  154.01   12.71
   6  -4  13   16.71    4.32
   6  -4  13   16.49    5.30
   6  -4  14   56.12    6.68
   6  -4  14   45.93    7.51
   6  -4  15   11.26    4.08
   6  -4  16    6.37    4.44
   6  -4  17   28.30    5.52
   6  -4  18    1.26    3.26
   6  -4  19   51.96    7.21
   6  -4  20   57.59    7.69
   6  -4  21   40.03    6.80
  -6   3  16   15.91    5.27
  -6   3  15    0.58    3.73
  -6   3  14   60.87    8.32
  -6   3  13    1.53    3.85
  -6   3  12   23.73    5.45
  -6   3  11    8.80    4.98
  -6   3  10    0.24    3.67
   6  -3  -9   14.66    5.47
  -6   3   9    1.75    3.23
   6  -3  -8   25.63    6.25
  -6   3   8   15.45    4.87
   6  -3  -7   56.60    8.00
  -6   3   7   64.86    8.12
   6  -3  -6  108.43   10.93
  -6   3   6  110.16   10.32
   6  -3  -5    8.30    4.23
  -6   3   5   17.67    4.83
   6  -3  -4   30.42    6.38
  -6   3   4   28.23    5.29
   6  -3  -3    5.89    4.24
   6  -3  -2    4.66    4.29
   6  -3  -1   17.28    5.15
   6  -3   0   19.41    4.86
   6  -3   0   17.77    2.57
   6  -3   1   51.02    7.28
   6  -3   1   46.98    4.63
   6  -3   2   83.81    8.99
   6  -3   2   82.12    6.20
   6  -3   3   39.83    7.20
   6  -3   3   27.50    3.97
   6  -3   4    3.39    3.69
   6  -3   4    1.58    2.17
   6  -3   5    4.65    3.49
   6  -3   5    4.66    2.52
   6  -3   6    6.17    4.18
   6  -3   6    5.73    2.89
   6  -3   7   43.53    7.07
   6  -3   7   47.08    5.56
   6  -3   8   48.45    7.18
   6  -3   8   56.80    5.58
   6  -3   9   96.75    9.50
   6  -3   9   97.79    7.09
   6  -3  10   16.71    5.40
   6  -3  10   18.56    4.13
   6  -3  11    0.69    2.52
   6  -3  11    7.01    4.52
   6  -3  12   35.24    4.86
   6  -3  12   27.73    6.79
   6  -3  13    6.71    3.19
   6  -3  13    5.82    4.27
   6  -3  14   -0.21    2.55
   6  -3  14   -0.11    4.02
   6  -3  15   43.05    5.50
   6  -3  15   39.87    6.61
   6  -3  16   36.25    5.54
   6  -3  16   20.16    5.25
   6  -3  17   33.02    5.49
   6  -3  18    0.77    3.64
   6  -3  19    0.62    2.90
   6  -3  20   24.51    5.48
   6  -3  21    3.45    3.97
   6  -3  22    2.89    3.48
  -6   2  17    8.60    4.42
  -6   2  16    8.84    4.58
  -6   2  15    7.08    4.65
  -6   2  14   15.41    5.32
  -6   2  13   19.69    5.55
  -6   2  12    2.81    3.97
  -6   2  11    6.88    4.06
  -6   2  10    3.29    3.60
  -6   2   9   11.82    4.42
   6  -2  -8   15.96    5.51
  -6   2   8   14.56    4.56
   6  -2  -7    2.90    4.55
  -6   2   7    0.65    3.27
   6  -2  -6   44.29    7.06
  -6   2   6   47.43    7.19
   6  -2  -5   67.86    8.60
  -6   2   5   72.71    8.31
   6  -2  -4   -3.70    4.27
  -6   2   4    5.52    4.01
   6  -2  -3   63.13    8.09
  -6   2   3   54.05    7.46
   6  -2  -2    3.46    3.98
   6  -2  -2    6.28    2.65
   6  -2  -1    7.76    4.24
   6  -2  -1    1.56    1.84
   6  -2   0   63.30    7.93
   6  -2   0   62.98    4.73
   6  -2   1   -1.99    3.10
   6  -2   1   -0.57    1.91
   6  -2   2   36.50    6.19
   6  -2   2   31.32    3.48
   6  -2   3   44.07    7.12
   6  -2   3   37.94    3.97
   6  -2   4   13.37    5.21
   6  -2   4    6.03    2.53
   6  -2   5  105.67   10.26
   6  -2   5   94.29    6.32
   6  -2   6   46.05    7.15
   6  -2   6   37.98    4.09
   6  -2   7   20.50    3.42
   6  -2   7   24.49    5.62
   6  -2   8   43.01    4.63
   6  -2   8   37.90    6.18
   6  -2   9    0.19    2.35
   6  -2   9   -0.64    3.20
   6  -2  10   57.30    5.74
   6  -2  10   60.63    7.66
   6  -2  11  105.04    7.27
   6  -2  11  115.40   10.40
   6  -2  12    5.02    3.07
   6  -2  12   10.46    4.89
   6  -2  13    7.45    3.33
   6  -2  13    5.45    4.23
   6  -2  14    7.23    3.44
   6  -2  14    4.79    3.48
   6  -2  15   17.58    4.30
   6  -2  15   16.07    4.90
   6  -2  16   69.82    7.20
   6  -2  16   57.13    7.62
   6  -2  17    9.43    3.56
   6  -2  18   13.38    3.76
   6  -2  19   39.44    5.87
  -6   1  17   56.84    8.43
  -6   1  16    6.87    4.61
  -6   1  15   21.26    5.62
  -6   1  14    0.01    4.09
  -6   1  13   10.75    4.44
  -6   1  12    2.65    3.14
  -6   1  11    7.04    4.23
  -6   1  10    9.57    4.15
  -6   1   9   43.20    6.82
   6  -1  -8   44.81    7.65
  -6   1   8   36.61    6.06
   6  -1  -7   83.57    9.19
  -6   1   7   75.26    8.29
   6  -1  -6   -1.97    3.67
  -6   1   6    2.19    3.67
   6  -1  -5    4.07    3.74
  -6   1   5    3.94    3.09
   6  -1  -4   10.08    4.05
  -6   1   4   10.99    4.43
   6  -1  -3   17.26    5.04
  -6   1   3   19.62    5.00
   6  -1  -3   28.07    4.11
   6  -1  -3    9.80    1.84
   6  -1  -2   63.42    8.33
   6  -1  -2   57.07    4.29
   6  -1  -2   67.30    5.85
  -6   1   2   67.72    7.88
   6  -1  -1  220.05   14.18
   6  -1  -1  211.28    7.55
   6  -1  -1  234.63   10.77
   6  -1   0    3.10    3.99
   6  -1   0    0.18    1.82
   6  -1   1   -2.48    3.89
   6  -1   1   -2.65    1.81
   6  -1   2   50.99    4.04
   6  -1   2   42.82    6.67
   6  -1   3    7.41    2.17
   6  -1   3   13.09    4.57
   6  -1   4   48.85    3.94
   6  -1   4   61.78    7.84
   6  -1   5   54.56    4.54
   6  -1   5   63.69    7.74
   6  -1   6   96.81    5.74
   6  -1   6   95.41    9.42
   6  -1   7  105.59    5.97
   6  -1   7  114.38   10.36
   6  -1   8   58.46    4.76
   6  -1   8   55.15    7.21
   6  -1   9   13.32    3.40
   6  -1   9    6.44    2.98
   6  -1  10   17.40    3.50
   6  -1  10    6.65    2.80
   6  -1  11    4.89    2.78
   6  -1  11    2.55    2.86
   6  -1  12   64.87    5.64
   6  -1  12   65.15    7.85
   6  -1  13   63.78    5.60
   6  -1  13   63.47    7.96
   6  -1  14   54.72    5.70
   6  -1  14   59.03    7.43
   6  -1  15   69.31    6.36
   6  -1  15   59.52    7.66
   6  -1  16    9.45    3.65
   6  -1  17    2.43    2.88
  -6   0  18   -2.24    3.68
  -6   0  17    8.17    4.62
  -6   0  16   -0.02    3.56
  -6   0  15    0.25    3.68
  -6   0  14   32.95    6.71
  -6   0  13   12.58    4.93
  -6   0  12   12.55    4.39
  -6   0  11    7.51    3.92
  -6   0  10    7.84    4.25
  -6   0   9   32.87    5.92
  -6   0   8   10.46    3.92
   6   0  -7    8.08    5.11
  -6   0   7    4.99    3.88
   6   0  -6   86.82    9.38
  -6   0   6  100.50    9.72
   6   0  -5   14.15    4.57
  -6   0   5    9.70    4.43
   6   0  -4   60.74    7.58
  -6   0   4   62.55    7.45
   6   0  -3    5.79    3.39
   6   0  -3   16.48    3.53
  -6   0   3   16.98    4.60
   6   0  -2    6.02    3.47
  -6   0   2   18.55    5.09
   6   0  -2    8.29    2.47
   6   0  -1   14.50    4.75
   6   0  -1   10.95    2.88
   6   0   0    4.16    3.86
   6   0   0    3.67    2.75
   6   0   1    3.63    3.53
   6   0   2   84.94    8.78
   6   0   3   -2.71    3.52
   6   0   4  104.38    9.10
   6   0   5   53.64    7.71
   6   0   6    2.57    3.66
   6   0   7   20.86    2.70
   6   0   7   29.49    5.61
   6   0   8   15.82    3.98
   6   0   8   11.59    2.19
   6   0   9    3.86    3.70
   6   0   9    2.09    1.71
   6   0  10   87.93    8.55
   6   0  10   84.22    5.75
   6   0  11    6.87    3.78
   6   0  11    6.69    2.16
   6   0  12   20.06    5.34
   6   0  12   24.75    4.22
   6   0  13   40.13    6.46
   6   0  13   43.95    5.23
   6   0  14   17.78    4.71
   6   0  14    9.90    3.08
   6   0  15   26.38    5.73
   6   0  15   26.02    4.69
   6   0  16   11.73    4.25
   6   0  16   11.73    3.83
   6   0  17    1.01    3.62
   6   0  17   -2.38    2.95
   6   0  18   43.37    6.16
   6   0  18   47.40    7.17
   6   0  19    5.02    3.81
  -6  -1  18   29.65    6.51
  -6  -1  17    1.75    3.92
  -6  -1  16   29.98    6.27
  -6  -1  15   -0.22    3.73
  -6  -1  14   41.85    6.70
  -6  -1  13   18.84    5.33
  -6  -1  12    5.22    4.01
  -6  -1  11    1.35    3.15
  -6  -1  10   75.35    8.51
  -6  -1   9    5.52    3.97
  -6  -1   8   88.12    8.81
  -6  -1   7   66.76    8.15
   6   1  -6   14.05    5.33
  -6  -1   6   12.64    4.31
   6   1  -5   64.28    8.10
  -6  -1   5   53.03    7.01
   6   1  -4   57.48    7.71
  -6  -1   4   60.86    7.51
   6   1  -3    6.35    3.33
  -6  -1   3    5.71    3.70
   6   1  -2  149.23   10.99
  -6  -1   2  175.54   12.17
   6   1  -1   33.99    5.91
  -6  -1   1   37.44    6.17
   6   1   0   96.21    9.60
   6   1   1   22.61    5.26
   6   1   2    0.56    2.87
   6   1   2    0.87    1.40
   6   1   3   97.68    8.91
   6   1   3  115.39    6.04
   6   1   4  114.59    9.84
   6   1   4  106.02    5.76
   6   1   5   38.24    4.03
   6   1   5   32.25    6.14
   6   1   6  237.05   13.75
   6   1   6  215.15    9.15
   6   1   7   53.94    4.74
   6   1   7   60.95    7.30
   6   1   8   10.57    3.19
   6   1   8    3.79    3.41
   6   1   9  112.03    9.73
   6   1   9  112.45    7.24
   6   1  10    4.95    4.35
   6   1  10    4.87    2.41
   6   1  11    9.89    3.58
   6   1  11   11.26    3.19
   6   1  12  113.97    9.56
   6   1  12  116.32    7.99
   6   1  13   20.32    5.00
   6   1  13   26.61    4.67
   6   1  14   36.03    6.04
   6   1  14   41.34    5.43
   6   1  15   49.77    7.22
   6   1  15   52.88    6.07
   6   1  16    4.57    3.63
   6   1  16    2.64    3.52
   6   1  17   60.27    7.81
   6   1  17   56.77    6.62
   6   1  18    5.60    3.86
   6   1  18   -1.31    3.22
   6   1  19    6.01    4.67
   6   1  19   17.83    5.31
   6   1  20   85.60    9.58
   6   1  20  106.64   10.17
   6   1  21   19.42    5.59
   6   1  22    5.97    4.47
  -6  -2  18   18.08    6.17
  -6  -2  17   17.80    5.83
  -6  -2  16    7.55    4.28
  -6  -2  15   23.83    5.62
  -6  -2  14    5.12    3.95
  -6  -2  13   24.07    5.78
  -6  -2  12    4.86    3.86
  -6  -2  11   10.11    4.61
  -6  -2  10   44.32    6.87
  -6  -2   9   21.11    5.47
  -6  -2   8    1.07    3.10
  -6  -2   7   48.74    6.74
  -6  -2   6    1.85    3.02
  -6  -2   5   59.12    7.55
   6   2  -4   39.89    7.08
  -6  -2   4   37.99    6.06
   6   2  -3   22.51    5.35
  -6  -2   3   17.76    4.48
   6   2  -2   29.95    5.20
  -6  -2   2   33.89    5.81
   6   2  -1   59.39    6.91
   6   2  -1   58.65    4.10
  -6  -2   1   67.59    7.76
   6   2   0   -1.96    3.33
   6   2   0    4.58    2.15
   6   2   1   -0.20    3.27
   6   2   1    3.02    1.97
   6   2   2   -0.17    3.65
   6   2   2    1.87    1.93
   6   2   3    8.14    2.50
   6   2   3    1.43    2.87
   6   2   4   55.26    7.26
   6   2   4   42.54    4.63
   6   2   5   57.14    7.24
   6   2   5   61.00    5.52
   6   2   6   87.80    8.77
   6   2   6   81.95    6.33
   6   2   7   22.71    3.96
   6   2   7   17.62    5.05
   6   2   8    1.74    2.51
   6   2   8   -0.36    3.55
   6   2   9    5.30    2.65
   6   2   9    5.07    3.96
   6   2  10   16.53    4.81
   6   2  10   10.60    3.41
   6   2  11   12.70    4.44
   6   2  11   20.34    4.25
   6   2  12   71.27    7.88
   6   2  12   70.27    6.70
   6   2  13    2.75    3.78
   6   2  13    3.72    2.73
   6   2  14   35.31    5.67
   6   2  14   39.38    5.54
   6   2  15    1.36    3.59
   6   2  15    9.43    4.00
   6   2  16    4.66    4.25
   6   2  16    4.62    3.89
   6   2  17    7.58    4.80
   6   2  17    6.51    3.43
   6   2  18   37.66    6.93
   6   2  18   21.54    4.86
   6   2  19   10.00    5.97
   6   2  19   -0.69    3.75
   6   2  20   75.87    9.69
   6   2  20   70.40    8.94
   6   2  21   10.57    6.01
   6   2  21    3.07    4.40
  -6  -3  18    0.87    3.93
  -6  -3  17   13.35    5.09
  -6  -3  16    4.56    5.22
  -6  -3  15   15.47    5.41
  -6  -3  14   11.45    4.69
  -6  -3  13   17.61    4.74
  -6  -3  12    4.45    4.08
  -6  -3  11   45.82    7.13
  -6  -3  10    1.52    3.43
  -6  -3   9    8.76    4.31
  -6  -3   8   18.99    5.07
  -6  -3   7   20.49    4.65
  -6  -3   6    7.82    3.72
  -6  -3   5   49.75    6.77
  -6  -3   4   -0.78    3.22
   6   3  -3   86.24    8.68
   6   3  -3   79.17    5.60
  -6  -3   3   87.76    8.37
   6   3  -2    3.00    2.71
   6   3  -2    1.46    1.82
  -6  -3   2    5.99    3.73
   6   3  -1    4.48    3.34
   6   3  -1    5.90    2.33
   6   3   0   30.63    6.10
   6   3   0   34.35    4.32
   6   3   1   11.39    5.00
   6   3   1    1.09    2.01
   6   3   2   11.31    4.84
   6   3   2   12.13    3.20
   6   3   3   30.00    4.18
   6   3   3   28.21    5.23
   6   3   4    2.91    2.62
   6   3   4    3.01    3.12
   6   3   5   70.03    7.92
   6   3   5   68.66    6.34
   6   3   6   26.39    5.20
   6   3   6   30.15    4.41
   6   3   7    0.48    3.07
   6   3   7    5.65    2.90
   6   3   8   89.86    8.63
   6   3   8   93.62    8.07
   6   3   9   10.39    3.68
   6   3   9   11.49    4.38
   6   3  10   52.51    5.99
   6   3  10   50.68    6.54
   6   3  11   47.76    6.07
   6   3  11   54.10    7.03
   6   3  12   10.80    4.70
   6   3  12    3.65    3.03
   6   3  13   25.19    5.75
   6   3  13   24.26    4.34
   6   3  14   30.42    5.60
   6   3  14   42.44    5.79
   6   3  15    3.04    3.84
   6   3  15    6.34    4.00
   6   3  16   71.17    7.88
   6   3  16   68.32    7.81
   6   3  17    8.88    4.42
   6   3  17    6.08    3.98
   6   3  18   19.62    5.24
   6   3  18   17.00    4.91
   6   3  19   62.20    8.38
   6   3  19   56.28    7.52
   6   3  20    7.26    4.75
  -6  -4  18   11.02    4.91
  -6  -4  17    4.91    4.05
  -6  -4  16   13.40    4.76
  -6  -4  15    0.64    4.26
  -6  -4  14   10.55    4.66
  -6  -4  13    6.42    4.04
  -6  -4  12   31.92    6.14
  -6  -4  11   35.01    6.16
  -6  -4  10    4.35    3.50
  -6  -4   9   -2.30    3.05
  -6  -4   8    4.99    4.21
  -6  -4   7   11.60    4.31
  -6  -4   6   80.04    8.07
  -6  -4   5   44.31    6.37
   6   4  -4   34.07    4.24
  -6  -4   4   52.08    6.87
   6   4  -3   19.96    3.51
  -6  -4   3   35.43    5.40
   6   4  -2   14.09    3.12
  -6  -4   2   21.54    4.81
   6   4  -1    7.10    3.03
   6   4   0   26.10    5.32
   6   4   0   21.16    3.92
   6   4   1    0.22    3.79
   6   4   1    0.42    2.24
   6   4   2   61.25    7.45
   6   4   2   66.84    6.50
   6   4   3   81.47    8.42
   6   4   3   80.28    7.16
   6   4   4   30.59    5.98
   6   4   4   30.32    4.69
   6   4   5   18.31    3.79
   6   4   5   14.29    4.70
   6   4   6   26.92    4.74
   6   4   6   24.52    4.90
   6   4   7    2.60    3.48
   6   4   7    2.39    2.93
   6   4   8   75.43    7.53
   6   4   8   70.12    7.16
   6   4   9   23.97    5.41
   6   4   9   22.11    4.77
   6   4  10   80.06    8.13
   6   4  10   71.09    7.52
   6   4  11   65.87    7.26
   6   4  11   66.99    7.44
   6   4  12   25.04    5.10
   6   4  12   41.31    6.43
   6   4  13    1.60    3.24
   6   4  13    6.59    4.46
   6   4  14   10.41    4.47
   6   4  14    1.54    3.51
   6   4  15    3.49    3.56
   6   4  16   33.41    6.29
   6   4  17   20.87    5.24
   6   4  18   24.37    5.81
  -6  -5  17   10.22    5.18
  -6  -5  16   13.44    4.99
  -6  -5  15    7.29    4.84
  -6  -5  14   17.94    4.88
  -6  -5  13   18.35    5.35
  -6  -5  12   39.99    6.60
  -6  -5  11    7.09    3.88
  -6  -5  10   66.78    8.04
  -6  -5   9   35.79    6.24
  -6  -5   8   17.47    4.59
  -6  -5   7   -6.94    3.72
  -6  -5   6   26.57    5.37
   6   5  -5   21.63    4.04
  -6  -5   5   30.19    5.42
   6   5  -4   76.43    6.87
  -6  -5   4   82.81    8.26
   6   5  -3    4.81    2.89
  -6  -5   3    2.93    3.13
   6   5  -2  117.64    8.74
  -6  -5   2  120.43    9.44
   6   5  -1   68.80    7.12
   6   5   0    8.71    3.24
   6   5   1   -1.74    2.95
   6   5   2   19.96    5.05
   6   5   2   18.14    4.49
   6   5   3   14.21    4.06
   6   5   3   12.10    4.61
   6   5   4   77.11    7.66
   6   5   4   77.79    7.47
   6   5   5   31.79    5.17
   6   5   5   25.45    5.18
   6   5   6   55.18    6.77
   6   5   6   52.18    6.22
   6   5   7   79.78    7.80
   6   5   7   75.76    7.58
   6   5   8    9.47    3.66
   6   5   8    4.44    3.91
   6   5   9   -0.28    3.18
   6   5   9    7.96    4.55
   6   5  10   21.97    5.40
   6   5  11    5.56    3.82
   6   5  12   78.55    8.56
   6   5  13   59.63    7.65
   6   5  14    1.37    3.70
   6   5  15    6.41    3.54
   6   5  16    2.45    3.41
  -6  -6  17   -1.04    3.53
  -6  -6  16    2.80    3.62
  -6  -6  15    4.27    3.80
  -6  -6  14    6.16    3.29
  -6  -6  13   27.42    5.67
  -6  -6  12    8.77    4.42
  -6  -6  11   -0.07    3.33
  -6  -6  10    8.39    3.89
  -6  -6   9    1.77    3.79
  -6  -6   8   -0.10    3.39
  -6  -6   7   35.80    6.02
   6   6  -6    1.64    2.60
  -6  -6   6    0.51    3.25
   6   6  -5   33.09    5.32
  -6  -6   5   54.01    6.67
   6   6  -4    9.68    3.63
  -6  -6   4   17.29    4.40
   6   6  -3   -2.04    3.01
  -6  -6   3    1.53    3.79
   6   6  -2    2.61    3.03
   6   6  -1   10.28    3.38
   6   6   0   -2.30    3.12
   6   6   1   68.25    7.60
   6   6   2   27.48    5.67
   6   6   3   28.46    5.13
   6   6   4   34.36    5.98
   6   6   5   -0.39    3.39
   6   6   6    7.92    4.03
   6   6   7   14.97    4.62
   6   6   8   10.87    4.23
   6   6   9   92.24    9.48
   6   6  10   24.37    5.55
   6   6  11   17.67    4.79
   6   6  12   11.06    5.15
   6   6  13    0.54    3.62
   6   6  14   -3.17    4.44
  -6  -7  16    1.85    3.50
  -6  -7  15   20.81    5.64
  -6  -7  14    3.00    3.97
  -6  -7  13   27.23    5.14
  -6  -7  12   12.61    4.94
  -6  -7  11   43.26    6.46
  -6  -7  10   11.25    4.46
  -6  -7   9   31.54    5.78
  -6  -7   8    0.24    3.43
   6   7  -7   26.65    5.71
  -6  -7   7   35.30    5.70
   6   7  -6   -2.77    3.70
   6   7  -5   49.02    7.05
   6   7  -4    3.05    3.65
   6   7  -3   65.07    7.93
   6   7  -2   14.58    4.87
   6   7  -1   35.63    6.13
   6   7   0   -1.43    3.32
   6   7   1   24.67    5.63
   6   7   2    8.67    4.39
   6   7   3   58.05    7.60
   6   7   4   11.55    4.71
   6   7   5   43.70    7.20
   6   7   6   13.41    4.84
   6   7   7    7.28    4.54
   6   7   8    1.99    3.68
   6   7   9   13.53    4.58
   6   7  10    2.35    3.56
   6   8  -7    4.05    3.82
   6   8  -6   10.62    4.92
   6   8  -5   15.73    5.45
   6   8  -4    1.08    3.55
   6   8  -3    1.47    3.57
   6   8  -2    5.77    3.32
   6   8  -1    0.85    3.69
   6   8   0   44.93    7.83
   6   8   1   12.72    4.81
   6   8   2    6.22    4.57
   6   8   3    9.98    5.01
   6   8   4    2.51    3.68
   6   8   5    2.47    3.88
   6   8   6   40.62    7.69
   6   9  -5   -3.81    4.83
   6   9  -4   49.91    8.21
   7  -2  -5   24.63    6.30
  -7   2   5   25.16    6.69
   7  -2  -4   13.02    5.63
   7  -2  -3    2.49    4.63
   7  -2  -2    6.07    4.45
   7  -2  -1    6.72    5.04
   7  -2   0    8.88    5.83
   7  -2   1    2.54    4.44
   7  -2   2   19.12    5.96
   7  -2   3   42.34    7.57
   7  -2   4   33.91    7.01
   7  -2   5   -1.49    3.71
   7  -1  -7   11.40    6.31
  -7   1   7   -1.70    3.80
   7  -1  -6   31.78    7.47
  -7   1   6   35.53    6.93
   7  -1  -5    8.59    5.35
  -7   1   5    0.45    4.40
   7  -1  -4   33.56    6.82
   7  -1  -3    2.70    4.05
   7  -1  -2   26.14    6.29
   7  -1  -1    6.08    4.52
   7  -1   0   52.68    8.31
   7  -1   1    9.09    5.42
   7  -1   2   39.76    6.94
   7  -1   3    9.61    4.81
   7  -1   4   55.18    7.76
   7  -1   5   23.61    6.09
   7  -1   6   23.83    5.91
   7  -1   7   22.90    6.45
   7  -1   8   58.02    8.94
  -7   0   8    7.65    5.17
  -7   0   7   17.69    5.54
   7   0  -6   23.73    7.14
  -7   0   6    6.59    4.14
   7   0  -5   38.93    7.52
  -7   0   5   30.61    6.63
   7   0  -4   10.94    5.47
  -7   0   4   -0.70    3.45
   7   0  -3   -0.15    4.12
   7   0  -2   13.95    4.79
   7   0  -1   -5.37    4.98
   7   0   0    1.16    4.07
   7   0   1   31.79    7.26
   7   0   2   13.72    5.83
   7   0   3   60.26    8.47
   7   0   4    4.27    4.42
   7   0   5    4.21    3.92
   7   0   6    5.01    4.47
   7   0   7   -4.38    3.32
   7   0   8   12.58    5.23
   7   0   9   75.49    9.59
   7   0  10    1.86    4.54
  -7  -1   9   30.67    6.66
  -7  -1   8   11.67    4.42
  -7  -1   7   16.53    4.98
  -7  -1   6    3.96    4.90
   7   1  -5   49.25    8.48
  -7  -1   5   47.36    8.29
   7   1  -4   16.81    6.06
  -7  -1   4   13.61    5.22
   7   1  -3   67.45    9.11
   7   1  -2    1.57    3.95
   7   1  -1    6.17    3.63
   7   1   0  -12.40    6.01
   7   1   1    6.80    3.24
   7   1   2    2.36    4.48
   7   1   3   65.92    8.69
   7   1   4   16.08    6.00
   7   1   5   64.30    8.24
   7   1   6    4.22    4.25
   7   1   7   43.38    7.24
   7   1   8    9.37    5.26
   7   1   9   14.01    5.50
   7   1  10    3.05    4.45
   7   1  11   44.37    7.45
  -7  -2  10    1.45    3.64
  -7  -2   9    1.49    4.14
  -7  -2   8   39.61    7.64
  -7  -2   7    0.88    4.09
  -7  -2   6   12.08    4.34
  -7  -2   5   15.19    5.35
  -7  -2   4    9.23    4.32
   7   2  -3   11.28    5.80
   7   2  -2    3.04    4.46
   7   2  -1    1.72    3.44
   7   2   0   23.22    5.57
   7   2   1   11.00    4.47
   7   2   2    6.76    4.18
   7   2   3   -9.44    5.36
   7   2   4  -13.57    6.54
   7   2   5   -1.51    4.41
   7   2   6   16.32    5.35
   7   2   7    1.01    4.44
   7   2   8   55.77    8.00
   7   2   9    9.49    5.30
   7   2  10    9.05    4.61
   7   2  11    4.23    4.45
   7   2  12    2.11    4.38
   7   2  13   11.53    5.63
  -7  -3  10   17.34    5.86
  -7  -3   9   -0.72    3.70
  -7  -3   8    2.98    3.85
  -7  -3   7   15.64    5.12
  -7  -3   6   64.46    8.67
  -7  -3   5   13.80    5.27
  -7  -3   4   76.18    9.05
   7   3  -1    5.33    3.40
   7   3   0   -6.71    5.10
   7   3   1    2.32    3.32
   7   3   2   62.47    8.26
   7   3   3   12.21    6.06
   7   3   4  107.02   10.84
   7   3   5    9.47    5.77
   7   3   6    3.88    4.68
   7   3   7    2.86    4.22
   7   3   8   12.29    4.64
   7   3   9   11.76    5.78
   7   3  10  110.12   10.90
   7   3  11   28.33    6.95
   7   3  12   11.65    4.86
   7   3  13   -1.25    4.44
  -7  -4  10    1.83    4.82
  -7  -4   9   19.10    5.57
  -7  -4   8    4.16    3.59
  -7  -4   7   17.16    5.41
  -7  -4   6    1.62    3.99
  -7  -4   5    1.29    4.42
  -7  -4   4    0.63    3.44
   7   4   1    4.73    4.33
   7   4   2   18.82    5.44
   7   4   3    6.00    4.46
   7   4   4    2.40    4.54
   7   4   5   18.12    6.03
   7   4   6   11.11    5.60
   7   4   7   32.93    6.40
   7   4   8   11.18    4.72
   7   4   9   12.95    5.72
  -7  -5  10    0.16    4.02
  -7  -5   9    8.90    5.10
  -7  -5   8    0.90    3.55
  -7  -5   7   22.84    5.52
  -7  -5   6    2.67    4.55
  -7  -5   5   48.51    7.65
  -7  -6   8   17.39    5.29
  -7  -6   7    5.29    4.02
   0   0   0    0.00    0.00


TITL pvl1016_auto in P-1
REM P-1 (#2 in standard setting)
CELL 0.71073   5.878342  10.060968  26.069164  96.4174  91.5309  90.9073
ZERR   18.00   0.000141   0.000325   0.000974   0.0029   0.0025   0.0023
LATT  1
SFAC C H N O Zn Se
UNIT 18.00 18.00 18.00 18.00 18.00 18.00
REM  CrysAlisPro recorded range (K): Min=290.6; max=291.2; aver:290.9
TEMP 18
TREF
HKLF 4
END
_computing_structure_solution     'SHELXT 2018/2 (Sheldrick, 2018)'
;
_shelx_hkl_checksum   92033

