 
data_pvl1032_auto_a
 
_audit_creation_method            'SHELXL-2018/3'
_shelx_SHELXL_version_number      '2018/3'
_chemical_name_systematic         ?
_chemical_name_common             ?
_chemical_melting_point           ?
_chemical_formula_moiety          ?
_chemical_formula_sum
 'C H N O Se Zn' 
_chemical_formula_weight          187.36

loop_
 _atom_type_symbol
 _atom_type_description
 _atom_type_scat_dispersion_real
 _atom_type_scat_dispersion_imag
 _atom_type_scat_source
 'C'  'C'   0.0033   0.0016
 'International Tables Vol C Tables 4.2.6.8 and 6.1.1.4'
 'H'  'H'   0.0000   0.0000
 'International Tables Vol C Tables 4.2.6.8 and 6.1.1.4'
 'N'  'N'   0.0061   0.0033
 'International Tables Vol C Tables 4.2.6.8 and 6.1.1.4'
 'O'  'O'   0.0106   0.0060
 'International Tables Vol C Tables 4.2.6.8 and 6.1.1.4'
 'Zn'  'Zn'   0.2839   1.4301
 'International Tables Vol C Tables 4.2.6.8 and 6.1.1.4'
 'Se'  'Se'  -0.0929   2.2259
 'International Tables Vol C Tables 4.2.6.8 and 6.1.1.4'
 
_space_group_crystal_system       triclinic
_space_group_IT_number            2
_space_group_name_H-M_alt         'P -1'
_space_group_name_Hall            '-P 1'
 
_shelx_space_group_comment
;
The symmetry employed for this shelxl refinement is uniquely defined
by the following loop, which should always be used as a source of
symmetry information in preference to the above space-group names.
They are only intended as comments.
;
 
loop_
 _space_group_symop_operation_xyz
 'x, y, z'
 '-x, -y, -z'
 
_cell_length_a                    12.4021(2)
_cell_length_b                    13.0496(2)
_cell_length_c                    13.1737(2)
_cell_angle_alpha                 83.536(2)
_cell_angle_beta                  68.574(2)
_cell_angle_gamma                 86.544(2)
_cell_volume                      1971.68(6)
_cell_formula_units_Z             22
_cell_measurement_temperature     172(2)
_cell_measurement_reflns_used     ?
_cell_measurement_theta_min       ?
_cell_measurement_theta_max       ?
 
_exptl_crystal_description        ?
_exptl_crystal_colour             ?
_exptl_crystal_density_meas       ?
_exptl_crystal_density_method     ?
_exptl_crystal_density_diffrn     3.471          
_exptl_crystal_F_000              1892
_exptl_transmission_factor_min    ?
_exptl_transmission_factor_max    ?
_exptl_crystal_size_max           ?
_exptl_crystal_size_mid           ?
_exptl_crystal_size_min           ?
_exptl_absorpt_coefficient_mu     16.775
_shelx_estimated_absorpt_T_min    ?
_shelx_estimated_absorpt_T_max    ?
_exptl_absorpt_correction_type    ?
_exptl_absorpt_correction_T_min   ?
_exptl_absorpt_correction_T_max   ?
_exptl_absorpt_process_details    ?
_exptl_absorpt_special_details    ?
_diffrn_ambient_temperature       172(2)
_diffrn_radiation_wavelength      0.71073
_diffrn_radiation_type            MoK\a
_diffrn_source                    ?
_diffrn_measurement_device_type   ?
_diffrn_measurement_method        ?
_diffrn_detector_area_resol_mean  ?
_diffrn_reflns_number             18351
_diffrn_reflns_av_unetI/netI      0.0331
_diffrn_reflns_av_R_equivalents   0.0207
_diffrn_reflns_limit_h_min        -15
_diffrn_reflns_limit_h_max        16
_diffrn_reflns_limit_k_min        -16
_diffrn_reflns_limit_k_max        17
_diffrn_reflns_limit_l_min        -17
_diffrn_reflns_limit_l_max        17
_diffrn_reflns_theta_min          1.941
_diffrn_reflns_theta_max          29.140
_diffrn_reflns_theta_full         25.242
_diffrn_measured_fraction_theta_max   0.821
_diffrn_measured_fraction_theta_full  1.000
_diffrn_reflns_Laue_measured_fraction_max    0.821
_diffrn_reflns_Laue_measured_fraction_full   1.000
_diffrn_reflns_point_group_measured_fraction_max   0.821
_diffrn_reflns_point_group_measured_fraction_full  1.000
_reflns_number_total              8699
_reflns_number_gt                 7429
_reflns_threshold_expression      'I > 2\s(I)'
_reflns_Friedel_coverage          0.000
_reflns_Friedel_fraction_max      .
_reflns_Friedel_fraction_full     .
 
_reflns_special_details
;
 Reflections were merged by SHELXL according to the crystal
 class for the calculation of statistics and refinement.
 
 _reflns_Friedel_fraction is defined as the number of unique
 Friedel pairs measured divided by the number that would be
 possible theoretically, ignoring centric projections and
 systematic absences.
;
 
_computing_data_collection        ?
_computing_cell_refinement        ?
_computing_data_reduction         ?
_computing_structure_solution     'SHELXT 2018/2 (Sheldrick, 2018)'
_computing_structure_refinement 'SHELXL-2018/3 (Sheldrick, 2018)'
_computing_molecular_graphics     ?
_computing_publication_material   ?
_refine_special_details           ?
_refine_ls_structure_factor_coef  Fsqd
_refine_ls_matrix_type            full
_refine_ls_weighting_scheme       calc
_refine_ls_weighting_details
'w=1/[\s^2^(Fo^2^)+(0.0446P)^2^+4.1423P] where P=(Fo^2^+2Fc^2^)/3'
_atom_sites_solution_primary      ?
_atom_sites_solution_secondary    ?
_atom_sites_solution_hydrogens    geom
_refine_ls_hydrogen_treatment     constr
_refine_ls_extinction_method      none
_refine_ls_extinction_coef        .
_refine_ls_number_reflns          8699
_refine_ls_number_parameters      572
_refine_ls_number_restraints      0
_refine_ls_R_factor_all           0.0500
_refine_ls_R_factor_gt            0.0397
_refine_ls_wR_factor_ref          0.1021
_refine_ls_wR_factor_gt           0.0967
_refine_ls_goodness_of_fit_ref    1.037
_refine_ls_restrained_S_all       1.037
_refine_ls_shift/su_max           0.000
_refine_ls_shift/su_mean          0.000
 
loop_
 _atom_site_label
 _atom_site_type_symbol
 _atom_site_fract_x
 _atom_site_fract_y
 _atom_site_fract_z
 _atom_site_U_iso_or_equiv
 _atom_site_adp_type
 _atom_site_occupancy
 _atom_site_site_symmetry_order  
 _atom_site_calc_flag
 _atom_site_refinement_flags_posn
 _atom_site_refinement_flags_adp
 _atom_site_refinement_flags_occupancy
 _atom_site_disorder_assembly
 _atom_site_disorder_group
Se1 Se 0.64446(3) -0.10565(3) -0.00731(3) 0.03166(10) Uani 1 1 d . . . . .
Zn1 Zn 0.34346(3) 0.33782(2) 0.21862(3) 0.01239(8) Uani 1 1 d . . . . .
O1 O 0.3005(2) 1.18643(17) 0.2536(2) 0.0282(5) Uani 1 1 d . . . . .
N1 N 1.1507(2) -0.0129(2) -0.1743(3) 0.0314(7) Uani 1 1 d . . . . .
C1 C 1.2121(3) -0.0939(3) -0.2154(3) 0.0334(8) Uani 1 1 d . . . . .
H1 H 1.294199 -0.096326 -0.238676 0.040 Uiso 1 1 calc R U . . .
Zn2 Zn 0.08792(3) 0.35967(2) 0.32551(3) 0.01224(8) Uani 1 1 d . . . . .
O2 O 0.3268(2) 0.3380(2) 0.37950(18) 0.0290(5) Uani 1 1 d . . . . .
N2 N 1.1516(3) -0.1737(3) -0.2228(3) 0.0387(8) Uani 1 1 d . . . . .
C2 C 1.0434(3) -0.1398(3) -0.1816(3) 0.0337(8) Uani 1 1 d . . . . .
H2 H 0.977309 -0.177701 -0.173853 0.040 Uiso 1 1 calc R U . . .
O3 O 0.2962(2) 0.3407(2) 1.08391(18) 0.0277(5) Uani 1 1 d . . . . .
N3 N 0.6953(2) 0.3444(2) 0.0099(2) 0.0273(6) Uani 1 1 d . . . . .
C3 C 0.9464(3) 0.0259(3) -0.1064(3) 0.0229(7) Uani 1 1 d . . . . .
O4 O 0.1372(2) 0.50835(17) 0.2911(2) 0.0253(5) Uani 1 1 d . . . . .
N4 N 0.6288(2) 0.0269(2) 0.0178(2) 0.0273(6) Uani 1 1 d . . . . .
C4 C 0.9671(3) 0.1257(3) -0.1021(3) 0.0270(7) Uani 1 1 d . . . . .
H4 H 1.044641 0.148881 -0.131268 0.032 Uiso 1 1 calc R U . . .
O5 O -0.08288(18) 0.37117(17) 0.38906(17) 0.0208(5) Uani 1 1 d . . . . .
N5 N 0.3653(3) 1.0165(3) 0.4661(3) 0.0474(9) Uani 1 1 d . . . . .
C5 C 0.8753(3) 0.1966(3) -0.0547(3) 0.0256(7) Uani 1 1 d . . . . .
H5 H 0.893138 0.265923 -0.052456 0.031 Uiso 1 1 calc R U . . .
O6 O 0.1079(2) 1.20369(16) 0.33026(19) 0.0254(5) Uani 1 1 d . . . . .
C6 C 0.7629(3) 0.1680(2) -0.0126(3) 0.0210(6) Uani 1 1 d . . . . .
O7 O 0.1340(2) 0.35334(19) 0.45913(19) 0.0281(5) Uani 1 1 d . . . . .
N7 N 1.0400(2) -0.0436(2) -0.1519(2) 0.0249(6) Uani 1 1 d . . . . .
C7 C 0.7356(3) 0.0638(2) -0.0171(3) 0.0220(7) Uani 1 1 d . . . . .
O8 O 0.10414(19) 0.36202(17) 1.16241(17) 0.0213(5) Uani 1 1 d . . . . .
N8 N 0.6743(2) 0.2410(2) 0.0361(2) 0.0206(5) Uani 1 1 d . . . . .
C8 C 0.8295(3) -0.0090(2) -0.0631(3) 0.0223(7) Uani 1 1 d . . . . .
O9 O 0.5239(3) 1.0416(4) 0.3110(3) 0.0730(12) Uani 1 1 d . . . . .
N9 N 0.5152(2) 0.3172(2) 0.1331(2) 0.0186(5) Uani 1 1 d . . . . .
C9 C 0.5965(3) 0.3862(3) 0.0694(3) 0.0253(7) Uani 1 1 d . . . . .
H9 H 0.582864 0.458707 0.067947 0.030 Uiso 1 1 calc R U . . .
N10 N 0.7986(2) -0.1048(2) -0.0631(2) 0.0272(6) Uani 1 1 d . . . . .
C10 C 0.5676(3) 0.2261(2) 0.1093(3) 0.0197(6) Uani 1 1 d . . . . .
H10 H 0.534205 0.160821 0.139698 0.024 Uiso 1 1 calc R U . . .
O11 O 0.3302(2) 0.49234(17) 0.2125(2) 0.0280(5) Uani 1 1 d . . . . .
N11 N -0.2609(2) 0.3791(2) 0.3784(2) 0.0239(6) Uani 1 1 d . . . . .
C11 C 0.2378(3) 0.5438(2) 0.2538(2) 0.0191(6) Uani 1 1 d . . . . .
C12 C 0.2497(3) 0.6565(2) 0.2593(3) 0.0186(6) Uani 1 1 d . . . . .
C13 C 0.3604(3) 0.7012(2) 0.2115(3) 0.0248(7) Uani 1 1 d . . . . .
H13 H 0.426245 0.659940 0.175696 0.030 Uiso 1 1 calc R U . . .
C14 C 0.3724(3) 0.8029(3) 0.2168(3) 0.0262(7) Uani 1 1 d . . . . .
H14 H 0.447510 0.831551 0.186521 0.031 Uiso 1 1 calc R U . . .
C15 C 0.2755(3) 0.8675(2) 0.2666(3) 0.0199(6) Uani 1 1 d . . . . .
C16 C 0.1648(3) 0.8217(2) 0.3175(2) 0.0192(6) Uani 1 1 d . . . . .
C17 C 0.1555(3) 0.7152(2) 0.3135(3) 0.0197(6) Uani 1 1 d . . . . .
H17 H 0.082405 0.683655 0.349130 0.024 Uiso 1 1 calc R U . . .
C18 C 0.1993(3) 1.1511(2) 0.2974(3) 0.0209(6) Uani 1 1 d . . . . .
C19 C 0.1882(3) 1.0358(2) 0.3091(3) 0.0200(6) Uani 1 1 d . . . . .
C20 C 0.0795(3) 0.9906(2) 0.3618(3) 0.0229(7) Uani 1 1 d . . . . .
H20 H 0.013099 1.032820 0.393734 0.028 Uiso 1 1 calc R U . . .
C21 C 0.0681(3) 0.8861(2) 0.3675(3) 0.0240(7) Uani 1 1 d . . . . .
H21 H -0.005735 0.856426 0.405494 0.029 Uiso 1 1 calc R U . . .
C22 C 0.2844(3) 0.9745(2) 0.2651(3) 0.0237(7) Uani 1 1 d . . . . .
H22 H 0.358470 1.005010 0.233104 0.028 Uiso 1 1 calc R U . . .
C23 C 0.2349(3) 0.3464(2) 0.4609(3) 0.0212(7) Uani 1 1 d . . . . .
C24 C 0.2469(3) 0.3479(2) 0.5703(2) 0.0198(6) Uani 1 1 d . . . . .
C25 C 0.1540(3) 0.3737(2) 0.6597(2) 0.0174(6) Uani 1 1 d . . . . .
H25 H 0.082032 0.392273 0.651797 0.021 Uiso 1 1 calc R U . . .
C26 C 0.1635(3) 0.3731(2) 0.7632(2) 0.0165(6) Uani 1 1 d . . . . .
C27 C 0.2718(3) 0.3462(2) 0.7745(2) 0.0187(6) Uani 1 1 d . . . . .
C28 C 0.3675(3) 0.3217(3) 0.6802(3) 0.0306(8) Uani 1 1 d . . . . .
H28 H 0.440670 0.304492 0.686097 0.037 Uiso 1 1 calc R U . . .
C29 C 0.3553(3) 0.3227(3) 0.5814(3) 0.0290(8) Uani 1 1 d . . . . .
H29 H 0.420169 0.306241 0.519188 0.035 Uiso 1 1 calc R U . . .
C30 C 0.1961(3) 0.3552(2) 1.0810(2) 0.0184(6) Uani 1 1 d . . . . .
C31 C 0.1857(3) 0.3636(2) 0.9697(2) 0.0159(6) Uani 1 1 d . . . . .
C32 C 0.2809(3) 0.3436(3) 0.8788(2) 0.0203(6) Uani 1 1 d . . . . .
H32 H 0.353602 0.327870 0.886170 0.024 Uiso 1 1 calc R U . . .
C33 C 0.0682(3) 0.3975(2) 0.8577(2) 0.0186(6) Uani 1 1 d . . . . .
H33 H -0.003728 0.419020 0.851171 0.022 Uiso 1 1 calc R U . . .
C34 C 0.0787(3) 0.3904(2) 0.9580(2) 0.0187(6) Uani 1 1 d . . . . .
H34 H 0.012894 0.403650 1.020839 0.022 Uiso 1 1 calc R U . . .
C35 C -0.1475(3) 0.3721(2) 0.3348(3) 0.0207(6) Uani 1 1 d . . . . .
H35 H -0.112584 0.367597 0.258099 0.025 Uiso 1 1 calc R U . . .
C36 C -0.3323(3) 0.3759(3) 0.3123(4) 0.0392(9) Uani 1 1 d . . . . .
H36A H -0.282244 0.372736 0.235359 0.059 Uiso 1 1 calc R U . . .
H36B H -0.381812 0.438129 0.319167 0.059 Uiso 1 1 calc R U . . .
H36C H -0.380723 0.314808 0.337767 0.059 Uiso 1 1 calc R U . . .
C37 C -0.3190(3) 0.3852(3) 0.4959(3) 0.0383(9) Uani 1 1 d . . . . .
H37A H -0.380889 0.438026 0.508510 0.057 Uiso 1 1 calc R U . . .
H37B H -0.262931 0.403378 0.527069 0.057 Uiso 1 1 calc R U . . .
H37C H -0.352360 0.318256 0.530941 0.057 Uiso 1 1 calc R U . . .
C38 C 0.4409(4) 1.0746(4) 0.3827(4) 0.0522(12) Uani 1 1 d . . . . .
H38 H 0.428111 1.147205 0.379742 0.063 Uiso 1 1 calc R U . . .
C39 C 0.2663(5) 1.0661(4) 0.5417(5) 0.0691(15) Uani 1 1 d . . . . .
H39A H 0.258262 1.137071 0.511592 0.104 Uiso 1 1 calc R U . . .
H39B H 0.276991 1.066858 0.611767 0.104 Uiso 1 1 calc R U . . .
H39C H 0.196304 1.028123 0.553326 0.104 Uiso 1 1 calc R U . . .
C40 C 0.3736(5) 0.9052(4) 0.4794(4) 0.0581(13) Uani 1 1 d . . . . .
H40A H 0.442543 0.881460 0.421066 0.087 Uiso 1 1 calc R U . . .
H40B H 0.304376 0.876037 0.475549 0.087 Uiso 1 1 calc R U . . .
H40C H 0.379460 0.882719 0.550797 0.087 Uiso 1 1 calc R U . . .
 
loop_
 _atom_site_aniso_label
 _atom_site_aniso_U_11
 _atom_site_aniso_U_22
 _atom_site_aniso_U_33
 _atom_site_aniso_U_23
 _atom_site_aniso_U_13
 _atom_site_aniso_U_12
Se1 0.02569(19) 0.02256(18) 0.0391(2) -0.00953(15) -0.00046(15) -0.00330(14)
Zn1 0.01458(17) 0.01096(16) 0.01258(16) -0.00405(12) -0.00549(12) 0.00171(12)
O1 0.0329(13) 0.0115(11) 0.0407(14) -0.0041(10) -0.0128(11) -0.0034(9)
N1 0.0218(15) 0.0377(18) 0.0345(17) -0.0085(14) -0.0092(12) 0.0035(13)
C1 0.0234(18) 0.042(2) 0.035(2) -0.0102(17) -0.0109(15) 0.0083(15)
Zn2 0.01446(17) 0.01106(16) 0.01254(16) -0.00330(12) -0.00598(12) 0.00053(12)
O2 0.0368(14) 0.0388(14) 0.0120(11) -0.0071(10) -0.0087(10) 0.0010(11)
N2 0.0287(17) 0.0422(19) 0.050(2) -0.0242(16) -0.0160(15) 0.0121(14)
C2 0.0289(19) 0.031(2) 0.045(2) -0.0184(17) -0.0156(16) 0.0074(15)
O3 0.0246(12) 0.0465(15) 0.0171(11) -0.0083(10) -0.0128(9) 0.0051(11)
N3 0.0262(15) 0.0186(14) 0.0310(16) -0.0030(12) -0.0028(12) -0.0005(11)
C3 0.0218(16) 0.0270(17) 0.0209(16) -0.0088(13) -0.0080(13) 0.0047(13)
O4 0.0306(13) 0.0124(11) 0.0349(13) -0.0044(9) -0.0130(10) -0.0030(9)
N4 0.0236(15) 0.0203(14) 0.0333(16) -0.0073(12) -0.0035(12) 0.0001(11)
C4 0.0199(16) 0.0292(18) 0.0309(18) -0.0083(14) -0.0063(14) -0.0001(13)
O5 0.0153(11) 0.0272(12) 0.0204(11) -0.0055(9) -0.0065(9) 0.0022(9)
N5 0.049(2) 0.052(2) 0.043(2) 0.0071(17) -0.0217(17) -0.0085(18)
C5 0.0226(17) 0.0226(17) 0.0315(18) -0.0081(14) -0.0081(14) -0.0003(13)
O6 0.0338(13) 0.0122(11) 0.0305(13) -0.0048(9) -0.0115(10) 0.0026(9)
C6 0.0208(16) 0.0203(16) 0.0208(16) -0.0069(12) -0.0056(12) 0.0041(12)
O7 0.0356(14) 0.0366(14) 0.0202(12) -0.0077(10) -0.0189(10) 0.0033(11)
N7 0.0213(14) 0.0274(15) 0.0276(15) -0.0096(12) -0.0095(11) 0.0031(11)
C7 0.0210(16) 0.0225(16) 0.0203(16) -0.0043(13) -0.0045(12) 0.0007(13)
O8 0.0257(12) 0.0272(12) 0.0120(10) -0.0046(9) -0.0073(9) -0.0001(9)
N8 0.0194(13) 0.0186(13) 0.0224(14) -0.0054(11) -0.0053(11) 0.0025(10)
C8 0.0254(17) 0.0216(16) 0.0205(16) -0.0054(13) -0.0085(13) 0.0022(13)
O9 0.0345(19) 0.117(3) 0.064(2) 0.006(2) -0.0171(17) -0.005(2)
N9 0.0174(13) 0.0180(13) 0.0209(13) -0.0032(10) -0.0075(10) 0.0018(10)
C9 0.0259(17) 0.0181(16) 0.0295(18) -0.0055(13) -0.0065(14) 0.0023(13)
N10 0.0249(15) 0.0251(15) 0.0291(15) -0.0057(12) -0.0059(12) 0.0005(12)
C10 0.0185(15) 0.0189(15) 0.0203(15) -0.0037(12) -0.0052(12) 0.0022(12)
O11 0.0334(13) 0.0130(11) 0.0373(14) -0.0054(10) -0.0123(11) 0.0041(9)
N11 0.0196(14) 0.0261(15) 0.0272(15) -0.0048(12) -0.0092(11) -0.0008(11)
C11 0.0317(18) 0.0125(14) 0.0175(15) -0.0029(11) -0.0140(13) 0.0012(12)
C12 0.0261(16) 0.0109(14) 0.0223(15) -0.0019(11) -0.0128(13) -0.0007(12)
C13 0.0238(17) 0.0172(16) 0.0319(18) -0.0047(13) -0.0082(14) 0.0037(13)
C14 0.0212(16) 0.0172(16) 0.0370(19) -0.0033(14) -0.0064(14) -0.0012(13)
C15 0.0209(16) 0.0140(15) 0.0263(16) -0.0031(12) -0.0100(13) -0.0002(12)
C16 0.0232(16) 0.0150(15) 0.0201(15) -0.0022(12) -0.0086(12) -0.0003(12)
C17 0.0219(16) 0.0145(15) 0.0238(16) -0.0018(12) -0.0091(12) -0.0026(12)
C18 0.0350(18) 0.0133(15) 0.0184(15) -0.0032(12) -0.0139(13) -0.0007(13)
C19 0.0275(17) 0.0141(15) 0.0205(15) -0.0056(12) -0.0102(13) 0.0011(12)
C20 0.0275(17) 0.0155(15) 0.0237(16) -0.0055(12) -0.0063(13) 0.0033(12)
C21 0.0229(17) 0.0167(15) 0.0278(17) -0.0041(13) -0.0032(13) -0.0003(12)
C22 0.0243(17) 0.0164(15) 0.0303(18) -0.0024(13) -0.0091(14) -0.0051(12)
C23 0.0350(19) 0.0159(15) 0.0163(15) -0.0013(12) -0.0134(13) -0.0021(13)
C24 0.0265(17) 0.0215(16) 0.0153(15) -0.0025(12) -0.0121(12) -0.0010(13)
C25 0.0218(15) 0.0169(15) 0.0175(15) -0.0019(11) -0.0118(12) 0.0000(12)
C26 0.0195(15) 0.0162(14) 0.0166(14) -0.0014(11) -0.0097(12) -0.0012(11)
C27 0.0169(15) 0.0269(16) 0.0130(14) -0.0046(12) -0.0055(11) 0.0003(12)
C28 0.0177(16) 0.055(2) 0.0207(17) -0.0086(16) -0.0085(13) 0.0073(15)
C29 0.0258(18) 0.046(2) 0.0149(16) -0.0078(15) -0.0060(13) 0.0037(15)
C30 0.0269(17) 0.0157(15) 0.0152(14) -0.0035(11) -0.0100(12) -0.0010(12)
C31 0.0202(15) 0.0176(14) 0.0117(14) -0.0032(11) -0.0071(11) -0.0008(11)
C32 0.0189(15) 0.0288(17) 0.0162(15) -0.0031(12) -0.0095(12) -0.0002(13)
C33 0.0183(15) 0.0215(16) 0.0176(15) -0.0025(12) -0.0089(12) 0.0038(12)
C34 0.0223(16) 0.0187(15) 0.0168(15) -0.0033(12) -0.0088(12) 0.0016(12)
C35 0.0225(16) 0.0179(15) 0.0214(16) -0.0043(12) -0.0070(13) -0.0005(12)
C36 0.029(2) 0.048(2) 0.050(2) -0.0100(19) -0.0238(18) 0.0043(17)
C37 0.0212(18) 0.054(3) 0.033(2) -0.0053(18) -0.0017(15) -0.0023(17)
C38 0.045(3) 0.064(3) 0.054(3) 0.003(2) -0.027(2) -0.004(2)
C39 0.083(4) 0.053(3) 0.062(3) -0.001(3) -0.017(3) 0.006(3)
C40 0.077(4) 0.053(3) 0.054(3) -0.012(2) -0.035(3) 0.008(3)
 
_geom_special_details
;
 All esds (except the esd in the dihedral angle between two l.s. planes)
 are estimated using the full covariance matrix.  The cell esds are taken
 into account individually in the estimation of esds in distances, angles
 and torsion angles; correlations between esds in cell parameters are only
 used when they are defined by crystal symmetry.  An approximate (isotropic)
 treatment of cell esds is used for estimating esds involving l.s. planes.
;
 
loop_
 _geom_bond_atom_site_label_1
 _geom_bond_atom_site_label_2
 _geom_bond_distance
 _geom_bond_site_symmetry_2
 _geom_bond_publ_flag
Se1 N10 1.780(3) . ?
Se1 N4 1.784(3) . ?
Zn1 O11 2.008(2) . ?
Zn1 N9 2.031(3) . ?
Zn1 O1 2.035(2) 1_545 ?
Zn1 O2 2.053(2) . ?
Zn1 O3 2.058(2) 1_554 ?
Zn1 Zn2 2.9714(5) . ?
O1 C18 1.266(4) . ?
N1 C1 1.312(5) . ?
N1 N7 1.370(4) . ?
C1 N2 1.351(5) . ?
Zn2 O5 1.976(2) . ?
Zn2 O4 2.022(2) . ?
Zn2 O7 2.032(2) . ?
Zn2 O6 2.032(2) 1_545 ?
Zn2 O8 2.080(2) 1_554 ?
O2 C23 1.257(4) . ?
N2 C2 1.320(5) . ?
C2 N7 1.350(4) . ?
O3 C30 1.257(4) . ?
N3 C9 1.314(4) . ?
N3 N8 1.371(4) . ?
C3 C4 1.354(5) . ?
C3 N7 1.420(4) . ?
C3 C8 1.432(5) . ?
O4 C11 1.257(4) . ?
N4 C7 1.334(4) . ?
C4 C5 1.424(5) . ?
O5 C35 1.252(4) . ?
N5 C38 1.344(6) . ?
N5 C39 1.440(6) . ?
N5 C40 1.445(6) . ?
C5 C6 1.356(5) . ?
O6 C18 1.248(4) . ?
C6 N8 1.423(4) . ?
C6 C7 1.434(4) . ?
O7 C23 1.258(4) . ?
C7 C8 1.451(4) . ?
O8 C30 1.255(4) . ?
N8 C10 1.332(4) . ?
C8 N10 1.329(4) . ?
O9 C38 1.210(6) . ?
N9 C10 1.333(4) . ?
N9 C9 1.361(4) . ?
O11 C11 1.263(4) . ?
N11 C35 1.313(4) . ?
N11 C36 1.456(4) . ?
N11 C37 1.458(5) . ?
C11 C12 1.499(4) . ?
C12 C17 1.366(4) . ?
C12 C13 1.415(4) . ?
C13 C14 1.358(5) . ?
C14 C15 1.418(4) . ?
C15 C22 1.406(4) . ?
C15 C16 1.423(4) . ?
C16 C17 1.410(4) . ?
C16 C21 1.416(4) . ?
C18 C19 1.504(4) . ?
C19 C22 1.372(5) . ?
C19 C20 1.404(5) . ?
C20 C21 1.370(4) . ?
C23 C24 1.503(4) . ?
C24 C25 1.372(4) . ?
C24 C29 1.420(5) . ?
C25 C26 1.410(4) . ?
C26 C33 1.420(4) . ?
C26 C27 1.424(4) . ?
C27 C32 1.415(4) . ?
C27 C28 1.421(4) . ?
C28 C29 1.362(5) . ?
C30 C31 1.511(4) . ?
C31 C32 1.377(4) . ?
C31 C34 1.410(4) . ?
C33 C34 1.367(4) . ?
 
loop_
 _geom_angle_atom_site_label_1
 _geom_angle_atom_site_label_2
 _geom_angle_atom_site_label_3
 _geom_angle
 _geom_angle_site_symmetry_1
 _geom_angle_site_symmetry_3
 _geom_angle_publ_flag
N10 Se1 N4 94.59(13) . . ?
O11 Zn1 N9 101.13(10) . . ?
O11 Zn1 O1 161.17(10) . 1_545 ?
N9 Zn1 O1 97.70(10) . 1_545 ?
O11 Zn1 O2 87.17(10) . . ?
N9 Zn1 O2 106.09(10) . . ?
O1 Zn1 O2 87.41(10) 1_545 . ?
O11 Zn1 O3 90.50(10) . 1_554 ?
N9 Zn1 O3 94.60(10) . 1_554 ?
O1 Zn1 O3 88.21(10) 1_545 1_554 ?
O2 Zn1 O3 159.24(10) . 1_554 ?
O11 Zn1 Zn2 81.14(7) . . ?
N9 Zn1 Zn2 174.26(7) . . ?
O1 Zn1 Zn2 80.13(7) 1_545 . ?
O2 Zn1 Zn2 79.20(7) . . ?
O3 Zn1 Zn2 80.06(7) 1_554 . ?
C18 O1 Zn1 126.5(2) . 1_565 ?
C1 N1 N7 101.9(3) . . ?
N1 C1 N2 116.1(3) . . ?
O5 Zn2 O4 103.21(9) . . ?
O5 Zn2 O7 102.95(9) . . ?
O4 Zn2 O7 88.01(10) . . ?
O5 Zn2 O6 99.74(9) . 1_545 ?
O4 Zn2 O6 157.00(10) . 1_545 ?
O7 Zn2 O6 88.38(10) . 1_545 ?
O5 Zn2 O8 97.43(9) . 1_554 ?
O4 Zn2 O8 87.31(9) . 1_554 ?
O7 Zn2 O8 159.62(10) . 1_554 ?
O6 Zn2 O8 88.22(9) 1_545 1_554 ?
O5 Zn2 Zn1 176.66(6) . . ?
O4 Zn2 Zn1 77.98(7) . . ?
O7 Zn2 Zn1 80.16(7) . . ?
O6 Zn2 Zn1 79.02(7) 1_545 . ?
O8 Zn2 Zn1 79.47(6) 1_554 . ?
C23 O2 Zn1 127.5(2) . . ?
C2 N2 C1 102.6(3) . . ?
N2 C2 N7 110.2(3) . . ?
C30 O3 Zn1 127.3(2) . 1_556 ?
C9 N3 N8 102.2(3) . . ?
C4 C3 N7 120.1(3) . . ?
C4 C3 C8 119.3(3) . . ?
N7 C3 C8 120.5(3) . . ?
C11 O4 Zn2 129.0(2) . . ?
C7 N4 Se1 106.5(2) . . ?
C3 C4 C5 121.4(3) . . ?
C35 O5 Zn2 124.1(2) . . ?
C38 N5 C39 118.9(4) . . ?
C38 N5 C40 123.1(5) . . ?
C39 N5 C40 117.8(4) . . ?
C6 C5 C4 121.8(3) . . ?
C18 O6 Zn2 128.6(2) . 1_565 ?
C5 C6 N8 119.8(3) . . ?
C5 C6 C7 119.2(3) . . ?
N8 C6 C7 121.0(3) . . ?
C23 O7 Zn2 127.2(2) . . ?
C2 N7 N1 109.3(3) . . ?
C2 N7 C3 131.9(3) . . ?
N1 N7 C3 118.8(3) . . ?
N4 C7 C6 125.0(3) . . ?
N4 C7 C8 116.0(3) . . ?
C6 C7 C8 118.9(3) . . ?
C30 O8 Zn2 127.1(2) . 1_556 ?
C10 N8 N3 110.5(3) . . ?
C10 N8 C6 129.9(3) . . ?
N3 N8 C6 119.6(3) . . ?
N10 C8 C3 124.7(3) . . ?
N10 C8 C7 116.0(3) . . ?
C3 C8 C7 119.3(3) . . ?
C10 N9 C9 103.5(3) . . ?
C10 N9 Zn1 124.8(2) . . ?
C9 N9 Zn1 130.5(2) . . ?
N3 C9 N9 114.5(3) . . ?
C8 N10 Se1 106.8(2) . . ?
N8 C10 N9 109.2(3) . . ?
C11 O11 Zn1 125.4(2) . . ?
C35 N11 C36 121.2(3) . . ?
C35 N11 C37 120.6(3) . . ?
C36 N11 C37 118.2(3) . . ?
O4 C11 O11 125.6(3) . . ?
O4 C11 C12 117.6(3) . . ?
O11 C11 C12 116.9(3) . . ?
C17 C12 C13 119.9(3) . . ?
C17 C12 C11 120.6(3) . . ?
C13 C12 C11 119.5(3) . . ?
C14 C13 C12 120.1(3) . . ?
C13 C14 C15 121.5(3) . . ?
C22 C15 C14 122.5(3) . . ?
C22 C15 C16 119.2(3) . . ?
C14 C15 C16 118.3(3) . . ?
C17 C16 C21 122.8(3) . . ?
C17 C16 C15 118.8(3) . . ?
C21 C16 C15 118.3(3) . . ?
C12 C17 C16 121.3(3) . . ?
O6 C18 O1 125.7(3) . . ?
O6 C18 C19 117.3(3) . . ?
O1 C18 C19 117.1(3) . . ?
C22 C19 C20 119.6(3) . . ?
C22 C19 C18 119.9(3) . . ?
C20 C19 C18 120.4(3) . . ?
C21 C20 C19 120.6(3) . . ?
C20 C21 C16 120.9(3) . . ?
C19 C22 C15 121.2(3) . . ?
O2 C23 O7 125.9(3) . . ?
O2 C23 C24 116.9(3) . . ?
O7 C23 C24 117.2(3) . . ?
C25 C24 C29 119.5(3) . . ?
C25 C24 C23 120.6(3) . . ?
C29 C24 C23 120.0(3) . . ?
C24 C25 C26 121.1(3) . . ?
C25 C26 C33 122.4(3) . . ?
C25 C26 C27 119.3(3) . . ?
C33 C26 C27 118.3(3) . . ?
C32 C27 C28 122.0(3) . . ?
C32 C27 C26 119.3(3) . . ?
C28 C27 C26 118.6(3) . . ?
C29 C28 C27 120.6(3) . . ?
C28 C29 C24 120.9(3) . . ?
O8 C30 O3 125.9(3) . . ?
O8 C30 C31 117.1(3) . . ?
O3 C30 C31 117.0(3) . . ?
C32 C31 C34 119.5(3) . . ?
C32 C31 C30 119.9(3) . . ?
C34 C31 C30 120.5(3) . . ?
C31 C32 C27 120.9(3) . . ?
C34 C33 C26 120.8(3) . . ?
C33 C34 C31 121.0(3) . . ?
O5 C35 N11 123.4(3) . . ?
O9 C38 N5 125.1(5) . . ?
 
_refine_diff_density_max    1.836
_refine_diff_density_min   -1.826
_refine_diff_density_rms    0.094

_shelx_res_file
;
TITL pvl1032_auto_a.res in P-1
    pvl1032_auto_a.res
    created by SHELXL-2018/3 at 18:40:10 on 20-Jun-2023
REM Old TITL pvl1032_auto in P-1
REM SHELXT solution in P-1: R1 0.099, Rweak 0.007, Alpha 0.070
REM <I/s>   0.000 for    0 systematic absences,  Orientation as input
REM Formula found by SHELXT:  C46 N4 O10 Zn2 Se
CELL  0.71073  12.4021  13.0496  13.1737   83.536   68.574   86.544
ZERR   22.000   0.0002   0.0002   0.0002    0.002    0.002    0.002
LATT  1
SFAC C H N O ZN SE
UNIT 22.00 22.00 22.00 22.00 22.00 22.00
ACTA
TEMP -101
L.S. 10
BOND
LIST 6
FMAP 2
PLAN 20
REM #####
WGHT    0.044600    4.142300
FVAR       0.26041
SE1   6    0.644459   -0.105652   -0.007307    11.00000    0.02569    0.02256 =
         0.03914   -0.00953   -0.00046   -0.00330
ZN1   5    0.343458    0.337823    0.218621    11.00000    0.01458    0.01096 =
         0.01258   -0.00405   -0.00549    0.00171
O1    4    0.300488    1.186435    0.253641    11.00000    0.03289    0.01151 =
         0.04067   -0.00408   -0.01282   -0.00336
N1    3    1.150718   -0.012904   -0.174343    11.00000    0.02179    0.03769 =
         0.03451   -0.00849   -0.00925    0.00350
C1    1    1.212078   -0.093904   -0.215444    11.00000    0.02343    0.04200 =
         0.03545   -0.01019   -0.01091    0.00827
AFIX  43
H1    2    1.294199   -0.096326   -0.238676    11.00000   -1.20000
AFIX   0
ZN2   5    0.087921    0.359668    0.325511    11.00000    0.01446    0.01106 =
         0.01254   -0.00330   -0.00598    0.00053
O2    4    0.326826    0.338019    0.379501    11.00000    0.03679    0.03882 =
         0.01205   -0.00707   -0.00869    0.00104
N2    3    1.151619   -0.173707   -0.222800    11.00000    0.02871    0.04218 =
         0.04993   -0.02418   -0.01597    0.01210
C2    1    1.043366   -0.139827   -0.181562    11.00000    0.02888    0.03110 =
         0.04548   -0.01844   -0.01559    0.00744
AFIX  43
H2    2    0.977309   -0.177701   -0.173853    11.00000   -1.20000
AFIX   0
O3    4    0.296160    0.340726    1.083914    11.00000    0.02457    0.04649 =
         0.01710   -0.00826   -0.01282    0.00509
N3    3    0.695314    0.344415    0.009935    11.00000    0.02619    0.01858 =
         0.03095   -0.00295   -0.00281   -0.00048
C3    1    0.946403    0.025898   -0.106410    11.00000    0.02183    0.02702 =
         0.02091   -0.00880   -0.00802    0.00467
O4    4    0.137238    0.508349    0.291093    11.00000    0.03056    0.01240 =
         0.03488   -0.00436   -0.01301   -0.00304
N4    3    0.628826    0.026931    0.017833    11.00000    0.02360    0.02032 =
         0.03332   -0.00725   -0.00354    0.00013
C4    1    0.967128    0.125677   -0.102062    11.00000    0.01986    0.02917 =
         0.03092   -0.00835   -0.00628   -0.00014
AFIX  43
H4    2    1.044641    0.148881   -0.131268    11.00000   -1.20000
AFIX   0
O5    4   -0.082878    0.371171    0.389059    11.00000    0.01530    0.02718 =
         0.02044   -0.00548   -0.00648    0.00221
N5    3    0.365261    1.016479    0.466084    11.00000    0.04871    0.05230 =
         0.04341    0.00713   -0.02168   -0.00847
C5    1    0.875251    0.196629   -0.054652    11.00000    0.02259    0.02258 =
         0.03155   -0.00809   -0.00812   -0.00026
AFIX  43
H5    2    0.893138    0.265923   -0.052456    11.00000   -1.20000
AFIX   0
O6    4    0.107894    1.203694    0.330262    11.00000    0.03379    0.01216 =
         0.03046   -0.00479   -0.01152    0.00265
C6    1    0.762949    0.167985   -0.012565    11.00000    0.02082    0.02035 =
         0.02081   -0.00691   -0.00555    0.00412
O7    4    0.134046    0.353338    0.459130    11.00000    0.03559    0.03657 =
         0.02017   -0.00769   -0.01888    0.00333
N7    3    1.040022   -0.043614   -0.151915    11.00000    0.02132    0.02739 =
         0.02761   -0.00962   -0.00947    0.00308
C7    1    0.735641    0.063779   -0.017091    11.00000    0.02105    0.02247 =
         0.02031   -0.00428   -0.00450    0.00068
O8    4    0.104137    0.362024    1.162413    11.00000    0.02573    0.02717 =
         0.01202   -0.00460   -0.00729   -0.00014
N8    3    0.674271    0.241046    0.036080    11.00000    0.01945    0.01857 =
         0.02237   -0.00537   -0.00528    0.00250
C8    1    0.829523   -0.008998   -0.063103    11.00000    0.02537    0.02158 =
         0.02049   -0.00545   -0.00847    0.00221
O9    4    0.523878    1.041639    0.310991    11.00000    0.03455    0.11669 =
         0.06404    0.00613   -0.01712   -0.00483
N9    3    0.515184    0.317232    0.133065    11.00000    0.01740    0.01804 =
         0.02089   -0.00322   -0.00754    0.00183
C9    1    0.596465    0.386227    0.069356    11.00000    0.02586    0.01812 =
         0.02952   -0.00553   -0.00651    0.00229
AFIX  43
H9    2    0.582864    0.458707    0.067947    11.00000   -1.20000
AFIX   0
N10   3    0.798602   -0.104763   -0.063131    11.00000    0.02487    0.02512 =
         0.02906   -0.00565   -0.00593    0.00049
C10   1    0.567622    0.226103    0.109267    11.00000    0.01848    0.01894 =
         0.02028   -0.00365   -0.00518    0.00225
AFIX  43
H10   2    0.534205    0.160821    0.139698    11.00000   -1.20000
AFIX   0
O11   4    0.330243    0.492338    0.212507    11.00000    0.03335    0.01295 =
         0.03730   -0.00535   -0.01233    0.00414
N11   3   -0.260910    0.379098    0.378447    11.00000    0.01959    0.02611 =
         0.02719   -0.00479   -0.00925   -0.00080
C11   1    0.237758    0.543772    0.253762    11.00000    0.03166    0.01250 =
         0.01749   -0.00290   -0.01398    0.00125
C12   1    0.249676    0.656451    0.259323    11.00000    0.02605    0.01091 =
         0.02235   -0.00194   -0.01281   -0.00068
C13   1    0.360352    0.701173    0.211521    11.00000    0.02381    0.01724 =
         0.03192   -0.00468   -0.00821    0.00369
AFIX  43
H13   2    0.426245    0.659940    0.175696    11.00000   -1.20000
AFIX   0
C14   1    0.372437    0.802935    0.216814    11.00000    0.02123    0.01722 =
         0.03705   -0.00332   -0.00637   -0.00121
AFIX  43
H14   2    0.447510    0.831551    0.186521    11.00000   -1.20000
AFIX   0
C15   1    0.275457    0.867458    0.266571    11.00000    0.02093    0.01397 =
         0.02629   -0.00305   -0.01004   -0.00017
C16   1    0.164774    0.821738    0.317456    11.00000    0.02321    0.01498 =
         0.02006   -0.00217   -0.00863   -0.00028
C17   1    0.155520    0.715188    0.313473    11.00000    0.02188    0.01448 =
         0.02379   -0.00176   -0.00908   -0.00263
AFIX  43
H17   2    0.082405    0.683655    0.349130    11.00000   -1.20000
AFIX   0
C18   1    0.199271    1.151129    0.297376    11.00000    0.03499    0.01327 =
         0.01838   -0.00322   -0.01390   -0.00074
C19   1    0.188248    1.035827    0.309148    11.00000    0.02747    0.01410 =
         0.02052   -0.00564   -0.01018    0.00106
C20   1    0.079451    0.990595    0.361771    11.00000    0.02751    0.01546 =
         0.02374   -0.00550   -0.00631    0.00334
AFIX  43
H20   2    0.013099    1.032820    0.393734    11.00000   -1.20000
AFIX   0
C21   1    0.068061    0.886087    0.367468    11.00000    0.02291    0.01668 =
         0.02782   -0.00413   -0.00324   -0.00032
AFIX  43
H21   2   -0.005735    0.856426    0.405494    11.00000   -1.20000
AFIX   0
C22   1    0.284438    0.974525    0.265136    11.00000    0.02429    0.01639 =
         0.03030   -0.00240   -0.00910   -0.00509
AFIX  43
H22   2    0.358470    1.005010    0.233104    11.00000   -1.20000
AFIX   0
C23   1    0.234943    0.346441    0.460924    11.00000    0.03497    0.01587 =
         0.01634   -0.00134   -0.01339   -0.00212
C24   1    0.246942    0.347884    0.570252    11.00000    0.02655    0.02154 =
         0.01532   -0.00248   -0.01208   -0.00103
C25   1    0.154002    0.373701    0.659708    11.00000    0.02180    0.01690 =
         0.01754   -0.00192   -0.01176   -0.00001
AFIX  43
H25   2    0.082032    0.392273    0.651797    11.00000   -1.20000
AFIX   0
C26   1    0.163477    0.373140    0.763197    11.00000    0.01951    0.01618 =
         0.01665   -0.00139   -0.00966   -0.00118
C27   1    0.271821    0.346152    0.774501    11.00000    0.01693    0.02686 =
         0.01296   -0.00463   -0.00546    0.00027
C28   1    0.367516    0.321685    0.680202    11.00000    0.01775    0.05474 =
         0.02071   -0.00860   -0.00849    0.00727
AFIX  43
H28   2    0.440670    0.304492    0.686097    11.00000   -1.20000
AFIX   0
C29   1    0.355296    0.322662    0.581439    11.00000    0.02579    0.04586 =
         0.01491   -0.00784   -0.00604    0.00373
AFIX  43
H29   2    0.420169    0.306241    0.519188    11.00000   -1.20000
AFIX   0
C30   1    0.196125    0.355211    1.081030    11.00000    0.02689    0.01571 =
         0.01515   -0.00346   -0.00998   -0.00098
C31   1    0.185667    0.363555    0.969658    11.00000    0.02016    0.01755 =
         0.01170   -0.00323   -0.00715   -0.00081
C32   1    0.280874    0.343583    0.878775    11.00000    0.01893    0.02876 =
         0.01617   -0.00309   -0.00952   -0.00020
AFIX  43
H32   2    0.353602    0.327870    0.886170    11.00000   -1.20000
AFIX   0
C33   1    0.068187    0.397498    0.857735    11.00000    0.01828    0.02150 =
         0.01761   -0.00254   -0.00889    0.00383
AFIX  43
H33   2   -0.003728    0.419020    0.851171    11.00000   -1.20000
AFIX   0
C34   1    0.078682    0.390355    0.958028    11.00000    0.02226    0.01868 =
         0.01683   -0.00335   -0.00883    0.00155
AFIX  43
H34   2    0.012894    0.403650    1.020839    11.00000   -1.20000
AFIX   0
C35   1   -0.147462    0.372136    0.334793    11.00000    0.02252    0.01791 =
         0.02140   -0.00431   -0.00700   -0.00048
AFIX  43
H35   2   -0.112584    0.367597    0.258099    11.00000   -1.20000
AFIX   0
C36   1   -0.332255    0.375934    0.312275    11.00000    0.02880    0.04755 =
         0.05003   -0.01005   -0.02379    0.00431
AFIX 137
H36A  2   -0.282244    0.372736    0.235359    11.00000   -1.50000
H36B  2   -0.381812    0.438129    0.319167    11.00000   -1.50000
H36C  2   -0.380723    0.314808    0.337767    11.00000   -1.50000
AFIX   0
C37   1   -0.319034    0.385188    0.495860    11.00000    0.02123    0.05406 =
         0.03327   -0.00533   -0.00172   -0.00232
AFIX 137
H37A  2   -0.380889    0.438026    0.508510    11.00000   -1.50000
H37B  2   -0.262931    0.403378    0.527069    11.00000   -1.50000
H37C  2   -0.352360    0.318256    0.530941    11.00000   -1.50000
AFIX   0
C38   1    0.440860    1.074594    0.382658    11.00000    0.04487    0.06399 =
         0.05355    0.00273   -0.02670   -0.00446
AFIX  43
H38   2    0.428111    1.147205    0.379742    11.00000   -1.20000
AFIX   0
C39   1    0.266296    1.066098    0.541737    11.00000    0.08285    0.05270 =
         0.06208   -0.00061   -0.01727    0.00650
AFIX 137
H39A  2    0.258262    1.137071    0.511592    11.00000   -1.50000
H39B  2    0.276991    1.066858    0.611767    11.00000   -1.50000
H39C  2    0.196304    1.028123    0.553326    11.00000   -1.50000
AFIX   0
C40   1    0.373579    0.905228    0.479448    11.00000    0.07735    0.05268 =
         0.05429   -0.01242   -0.03495    0.00777
AFIX 137
H40A  2    0.442543    0.881460    0.421066    11.00000   -1.50000
H40B  2    0.304376    0.876037    0.475549    11.00000   -1.50000
H40C  2    0.379460    0.882719    0.550797    11.00000   -1.50000
AFIX   0
HKLF 4




REM  pvl1032_auto_a.res in P-1
REM wR2 = 0.1021, GooF = S = 1.037, Restrained GooF = 1.037 for all data
REM R1 = 0.0397 for 7429 Fo > 4sig(Fo) and 0.0500 for all 8699 data
REM 572 parameters refined using 0 restraints

END

WGHT      0.0446      4.1425

REM Highest difference peak  1.836,  deepest hole -1.826,  1-sigma level  0.094
Q1    1   0.6646 -0.1130  0.0601  11.00000  0.05    1.84
Q2    1   0.6760 -0.1076  0.1154  11.00000  0.05    0.98
Q3    1   0.1358  0.3640  0.3104  11.00000  0.05    0.60
Q4    1   0.4790  0.9832  0.3653  11.00000  0.05    0.55
Q5    1   0.3078  0.3395  0.2261  11.00000  0.05    0.49
Q6    1   0.0784  0.3273  0.3631  11.00000  0.05    0.45
Q7    1   0.3438  0.3383  0.1643  11.00000  0.05    0.44
Q8    1   0.2235  0.3389  0.9276  11.00000  0.05    0.44
Q9    1   0.3368  0.3192  0.2439  11.00000  0.05    0.44
Q10   1   0.0815  0.3824  0.3547  11.00000  0.05    0.44
Q11   1   0.3784  0.3728  0.1759  11.00000  0.05    0.43
Q12   1   0.1176  0.3761  0.8092  11.00000  0.05    0.42
Q13   1   0.2159  0.8460  0.2855  11.00000  0.05    0.41
Q14   1   0.1987  0.3519  0.6142  11.00000  0.05    0.41
Q15   1   0.3009  0.6788  0.2403  11.00000  0.05    0.41
Q16   1   0.1007  0.3458  0.2860  11.00000  0.05    0.40
Q17   1   0.3773  0.8185  0.1474  11.00000  0.05    0.39
Q18   1   0.1251  0.8593  0.3323  11.00000  0.05    0.38
Q19   1   0.1985  0.3559  1.0190  11.00000  0.05    0.38
Q20   1   0.2379  0.3379  0.5201  11.00000  0.05    0.38
;
_shelx_res_checksum    9492

_shelx_hkl_file
;
   0   0  -2  316.54    5.30
   0   0   2  309.62    5.26
   0   0  -3 1213.98   16.50
   0   0   3 1223.72   16.51
   0   0   3 1222.96   17.75
   0   0  -3 1232.90   17.78
   0   0  -4  558.55    8.23
   0   0   4  567.47    8.26
   0   0   4  563.65    9.72
   0   0  -4  558.49    9.70
   0   0  -5   74.17    1.89
   0   0   5   71.33    1.88
   0   0   5   74.00    2.92
   0   0  -5   72.53    2.97
   0   0  -6  393.51    6.45
   0   0   6  397.31    6.50
   0   0  -6  392.07    8.42
   0   0   6  400.94    8.48
   0   0  -7   52.95    1.77
   0   0  -7   52.64    2.98
   0   0   7   55.98    3.00
   0   0   8    2.51    1.23
   0   0  -8    3.10    1.57
   0   0   9  656.77   13.57
   0   0  -9  621.92   13.33
   0   0 -10   47.69    3.47
   0   0 -11   84.24    4.80
   0   0  11   88.93    2.80
   0   0 -12    9.84    2.20
   0   0  12   11.26    1.13
   0   0 -13  142.36    6.74
   0   0 -14   -1.05    2.01
   0   1 -14   36.20    3.85
   0  -1  14   38.28    3.92
   0   1 -13    4.42    2.25
   0   1 -12   27.70    3.15
   0   1 -11  269.58    8.66
   0   1 -10   91.25    4.66
   0   1 -10   92.84    3.06
   0   1  -9   51.66    3.45
   0   1  -9   45.71    2.07
   0   1  -8    5.94    1.67
   0  -1   8    7.08    1.57
   0   1  -8    5.42    0.90
   0  -1   7  491.00   10.32
   0   1  -7  480.24   10.20
   0   1  -7  478.45    8.25
   0  -1   7  475.08    8.28
   0   1  -6  281.13    6.83
   0  -1   6  299.37    6.98
   0   1  -6  279.77    5.42
   0  -1   6  284.09    5.48
   0  -1   5    4.53    1.03
   0   1  -5    4.44    1.30
   0   1  -5    3.85    0.73
   0  -1   5    6.08    0.81
   0   1  -4  227.45    5.20
   0  -1   4  225.27    5.12
   0  -1   4  222.21    4.28
   0   1  -4  221.83    4.26
   0  -1   3   84.51    2.58
   0   1  -3   84.14    2.64
   0  -1   3   83.77    2.11
   0   1  -3   86.01    2.15
   0  -1   2  672.73   10.18
   0   1  -2  676.39   10.16
   0  -1   2  670.22    9.78
   0   1  -2  681.49    9.81
   0  -1   1 2559.08   33.52
   0   1  -1 2517.04   33.41
   0  -1   1 2511.98   33.41
   0  -1   1 2516.17   33.43
   0   1  -1 2543.84   33.42
   0  -1  -1   85.65    1.83
   0  -1  -2  821.20   11.86
   0   1   2  801.66   11.80
   0   1   3   39.32    1.70
   0  -1  -3   38.19    1.79
   0  -1  -4   37.73    2.06
   0   1   4   38.58    1.92
   0   1   5  168.25    2.79
   0   1   5  169.28    4.58
   0  -1  -5  165.56    4.61
   0   1   6    2.84    0.46
   0   1   6    3.33    1.13
   0  -1  -6    3.19    1.24
   0   1   7   50.91    2.88
   0  -1  -7   48.72    2.83
   0   1   7   50.99    1.49
   0  -1  -8  448.80   10.16
   0   1   8  474.11   10.35
   0   1   8  449.16    7.10
   0   1   9    4.50    1.51
   0   1   9    4.92    0.68
   0  -1  -9    2.93    1.54
   0  -1 -10    1.60    1.65
   0   1  10    2.36    0.63
   0  -1 -11  113.56    5.44
   0   1  11  110.55    2.58
   0  -1 -12   67.79    4.54
   0   1  12   59.37    1.64
   0  -1 -13    8.80    2.40
   0  -1 -14    2.76    2.14
   0  -1 -15    6.33    2.66
   0   2 -14    3.02    2.54
   0  -2  14   -3.07    2.28
   0   2 -13    0.92    1.87
   0  -2  13   -4.75    2.44
   0   2 -12   91.85    5.24
   0  -2  12   92.92    5.28
   0   2 -11   55.53    3.96
   0   2 -11   55.09    2.63
   0   2 -10    0.83    1.48
   0   2 -10    1.66    0.89
   0   2  -9    8.25    1.82
   0   2  -9    7.62    1.11
   0  -2   8  548.60   11.66
   0   2  -8  511.95   11.35
   0   2  -8  523.57    9.56
   0   2  -7   19.77    2.11
   0  -2   7   23.59    2.10
   0  -2   7   18.35    1.35
   0   2  -7   19.46    1.43
   0   2  -6    6.63    1.43
   0  -2   6    6.70    1.38
   0   2  -6    4.72    0.93
   0  -2   6    3.77    0.77
   0   2  -5   62.35    2.87
   0  -2   5   65.97    2.87
   0   2  -5   61.16    2.30
   0  -2   5   59.55    2.22
   0  -2   4    2.34    0.96
   0   2  -4    0.84    1.11
   0   2  -4    0.04    0.83
   0  -2   4    1.98    0.70
   0  -2   3  126.97    3.39
   0   2  -3  126.63    3.45
   0  -2   3  122.16    3.35
   0   2  -3  122.56    3.12
   0  -2   3  128.18    3.13
   0  -2   2  605.94    9.51
   0  -2   2  594.63    9.29
   0   2  -2  594.36    9.31
   0  -2   2  597.61    9.32
   0  -2   1  277.67    4.57
   0   2  -1  269.32    4.56
   0  -2   1  268.34    4.80
   0   2  -1  269.04    4.81
   0   2   0   14.48    0.92
   0  -2   0   14.11    0.86
   0   2   1  281.31    4.60
   0   2   1  282.46    4.55
   0   2   2   15.84    0.72
   0  -2  -2   18.07    1.30
   0  -2  -3  211.16    4.61
   0   2   3  207.82    4.49
   0   2   4   51.40    2.26
   0  -2  -4   51.94    2.39
   0   2   5  102.17    3.49
   0  -2  -5  104.54    3.63
   0  -2  -6   55.45    2.91
   0   2   6   58.73    2.86
   0   2   7  156.77    5.06
   0  -2  -7  151.13    5.08
   0  -2  -8  250.36    7.08
   0   2   8  250.87    7.08
   0  -2  -9  238.64    7.34
   0   2   9  239.94    7.27
   0  -2 -10    0.67    1.47
   0  -2 -11  104.84    5.31
   0  -2 -12   63.23    4.50
   0  -2 -13    1.18    2.15
   0  -2 -14    4.14    2.31
   0  -2 -15    3.22    2.41
   0   3 -14    7.19    2.50
   0  -3  14    0.93    1.99
   0   3 -13   59.34    4.62
   0  -3  13   64.61    4.67
   0   3 -12   43.30    3.78
   0  -3  12   35.10    3.44
   0   3 -12   41.56    2.61
   0   3 -11   98.72    5.19
   0  -3  11   95.37    5.08
   0   3 -11   99.20    3.84
   0   3 -10    0.53    1.60
   0  -3  10    0.19    1.54
   0   3 -10    2.09    1.13
   0   3  -9   13.28    2.10
   0  -3   9   11.65    2.02
   0   3  -9   15.83    1.60
   0  -3   8   83.32    4.02
   0   3  -8   79.74    3.99
   0  -3   8   75.04    3.85
   0   3  -8   79.26    3.16
   0   3  -7    1.52    1.41
   0  -3   7    1.16    1.16
   0  -3   7    2.93    1.30
   0   3  -7    2.01    0.94
   0  -3   6  118.37    4.28
   0   3  -6  105.40    4.05
   0  -3   6  107.96    4.06
   0   3  -6  113.02    3.59
   0  -3   6  114.47    3.63
   0  -3   5   47.17    2.52
   0   3  -5   44.12    2.48
   0  -3   5   48.43    2.51
   0  -3   5   46.78    2.24
   0   3  -5   41.15    2.08
   0  -3   4   68.30    2.80
   0  -3   4   67.62    2.73
   0   3  -4   64.45    2.52
   0  -3   4   66.65    2.56
   0  -3   3    0.48    0.84
   0  -3   3    1.15    0.98
   0   3  -3    0.63    0.96
   0  -3   3    1.83    0.87
   0   3  -2  187.59    4.02
   0  -3   2  185.89    4.04
   0  -3   2  187.03    4.24
   0   3  -2  182.21    4.21
   0   3  -1    2.28    0.68
   0   3  -1    0.60    0.88
   0  -3   1    3.00    0.89
   0  -3   0 4712.51   61.82
   0   3   0 4743.38   61.81
   0  -3   0 4747.75   62.85
   0   3   0 4757.54   62.85
   0   3   1  814.31   11.70
   0   3   1  801.69   11.94
   0   3   2   31.37    1.47
   0   3   2   29.90    1.28
   0  -3  -3    1.83    1.10
   0   3   3    2.66    0.60
   0  -3  -4  428.12    8.05
   0   3   4  402.22    6.06
   0   3   5   23.23    1.81
   0  -3  -5   25.53    1.98
   0  -3  -6    3.71    1.33
   0   3   6    4.70    1.28
   0  -3  -7  679.92   13.14
   0   3   7  693.39   13.22
   0   3   8   43.73    2.88
   0  -3  -8   41.43    2.96
   0  -3  -9  465.56   11.04
   0   3   9  472.08   10.88
   0  -3 -10   29.98    2.85
   0  -3 -11  183.27    7.06
   0  -3 -12   29.31    3.26
   0  -3 -13   12.98    2.53
   0  -3 -14   32.44    3.78
   0  -4  14    7.57    2.48
   0  -4  13   81.77    5.29
   0   4 -13   77.79    3.82
   0   4 -12  162.22    7.14
   0  -4  12  168.73    7.16
   0   4 -12  161.12    5.48
   0   4 -11   45.69    3.81
   0  -4  11   47.75    3.74
   0  -4  11   45.38    3.02
   0   4 -11   50.95    3.01
   0   4 -10    2.31    1.65
   0  -4  10    0.93    1.48
   0   4 -10    1.10    1.11
   0   4  -9  192.16    6.68
   0  -4   9  195.73    6.68
   0   4  -9  188.74    5.60
   0  -4   8   51.52    3.28
   0   4  -8   51.71    2.75
   0  -4   7   99.53    4.30
   0  -4   7   86.25    3.90
   0   4  -7   85.83    3.48
   0  -4   6   10.70    1.59
   0  -4   6    9.23    1.52
   0   4  -6   11.57    1.46
   0  -4   6   14.59    1.56
   0  -4   5  101.05    3.83
   0  -4   5  100.98    3.71
   0  -4   5  100.23    3.56
   0   4  -5  102.96    3.57
   0  -4   4   24.28    1.85
   0  -4   4   23.69    1.77
   0  -4   4   26.71    1.86
   0   4  -4   22.97    1.75
   0  -4   3  247.50    5.73
   0   4  -3  248.41    5.66
   0  -4   3  245.37    5.67
   0  -4   3  246.17    5.42
   0  -4   2    1.09    0.82
   0   4  -2    2.69    1.12
   0   4  -2    1.47    0.81
   0  -4   2    2.38    0.42
   0  -4   1  124.91    3.46
   0   4  -1  126.68    3.55
   0  -4   1  120.34    2.20
   0   4  -1  124.26    3.01
   0   4  -1  119.83    2.20
   0   4   0 4734.84   62.32
   0  -4   0 4758.69   62.31
   0  -4   0 4784.18   63.69
   0   4   0 4751.05   63.69
   0   4   1  250.48    4.56
   0   4   1  241.86    4.99
   0   4   2  272.66    5.28
   0   4   2  267.56    5.14
   0   4   3  403.97    7.44
   0   4   3  389.79    6.63
   0   4   4   36.35    2.03
   0   4   4   36.42    1.38
   0  -4  -4   37.34    2.25
   0  -4  -5  110.67    3.88
   0   4   5  111.69    3.79
   0   4   5  103.70    2.29
   0  -4  -6  508.52   10.39
   0   4   6  528.16   10.41
   0   4   6  505.21    7.27
   0  -4  -7   11.86    1.85
   0   4   7    8.89    1.46
   0   4   7    9.69    1.53
   0  -4  -8    0.54    1.38
   0   4   8    0.46    1.16
   0   4   8    3.37    1.39
   0  -4  -9  269.88    8.04
   0  -4 -10   79.42    4.49
   0  -4 -11    0.73    1.72
   0  -4 -12   -0.31    1.74
   0  -4 -13   38.26    3.76
   0  -4 -14   28.84    3.63
   0  -5  13   21.49    3.08
   0   5 -13   18.06    2.21
   0  -5  12   85.47    5.28
   0   5 -12   82.25    4.12
   0  -5  11   28.21    2.36
   0  -5  11   31.84    3.32
   0   5 -11   27.26    2.43
   0  -5  10  159.25    6.41
   0   5 -10  161.91    5.59
   0  -5   9    9.34    2.03
   0   5  -9    6.79    1.55
   0  -5   8   42.85    3.07
   0   5  -8   43.40    2.76
   0  -5   7  148.64    5.47
   0  -5   7  128.16    4.90
   0   5  -7  128.15    4.58
   0  -5   6   17.46    1.93
   0  -5   6   19.30    1.95
   0   5  -6   14.96    1.77
   0  -5   5  172.86    5.37
   0  -5   5  160.22    4.92
   0   5  -5  165.32    4.98
   0  -5   5  168.68    5.04
   0  -5   4  181.83    5.28
   0  -5   4  188.62    5.26
   0   5  -4  187.89    5.23
   0  -5   4  180.38    4.96
   0   5  -3   58.59    2.77
   0  -5   3   55.75    2.68
   0   5  -3   59.62    2.49
   0  -5   3   56.65    1.49
   0  -5   2    0.54    0.89
   0   5  -2    0.10    1.10
   0  -5   2    0.52    0.35
   0   5  -2    1.16    0.77
   0  -5   1 1052.37   16.51
   0   5  -1 1026.79   16.40
   0  -5   1 1027.99   14.27
   0   5  -1 1043.91   14.26
   0   5   0    6.10    1.19
   0  -5   0    4.86    0.71
   0   5   0    4.67    0.62
   0   5   1  206.05    4.83
   0   5   1  206.80    4.17
   0   5   2  261.35    5.45
   0   5   2  263.24    5.36
   0   5   3   27.84    1.51
   0   5   3   25.39    1.64
   0  -5  -4  297.11    6.82
   0   5   4  281.05    5.42
   0   5   4  290.62    6.48
   0   5   5  311.15    5.64
   0  -5  -5  334.86    7.66
   0   5   5  331.98    7.43
   0  -5  -6   27.77    2.31
   0   5   6   27.22    1.18
   0   5   6   32.23    2.32
   0  -5  -6   28.07    0.97
   0   5   7    3.25    1.27
   0   5   7    4.74    0.50
   0  -5  -7    3.40    1.51
   0  -5  -8  603.56   12.94
   0   5   8  622.70   12.93
   0  -5  -9  179.11    6.47
   0  -5 -10   67.39    4.20
   0  -5 -11   19.79    2.72
   0  -5 -12   36.21    3.61
   0  -5 -13    6.36    2.01
   0  -5 -14   28.42    3.66
   0  -6  13   63.55    4.76
   0   6 -13   64.07    3.94
   0  -6  12   66.20    4.70
   0   6 -12   67.93    3.98
   0  -6  11   93.09    5.29
   0   6 -11   95.80    4.58
   0  -6  10    0.21    0.99
   0  -6  10    3.90    2.04
   0   6 -10    3.18    1.53
   0  -6   9   13.77    2.34
   0   6  -9   11.55    1.87
   0  -6   8  214.31    6.87
   0   6  -8  204.35    6.42
   0  -6   7   19.10    2.17
   0   6  -7   14.98    1.93
   0  -6   6  153.17    5.46
   0   6  -6  144.69    5.05
   0  -6   6  139.19    4.93
   0  -6   5  141.50    4.97
   0   6  -5  135.04    4.74
   0  -6   5  132.63    4.50
   0  -6   5  129.68    3.04
   0   6  -4  131.18    4.52
   0  -6   4  134.78    4.62
   0  -6   4  125.16    2.67
   0   6  -3   44.57    2.62
   0  -6   3   45.63    2.61
   0   6  -3   39.99    2.19
   0  -6   3   39.78    1.16
   0   6  -2 2411.96   34.51
   0  -6   2 2331.00   31.20
   0   6  -2 2420.62   33.46
   0   6  -1  270.75    6.41
   0  -6   1  262.31    4.46
   0   6  -1  268.96    4.45
   0   6   0 2152.73   30.77
   0   6   0 2090.34   28.74
   0   6   1 1215.32   18.89
   0   6   1 1219.46   17.71
   0   6   2  217.88    5.21
   0   6   2  222.20    4.89
   0   6   3   57.59    2.34
   0   6   3   58.52    2.47
   0   6   4   68.54    2.46
   0   6   4   66.62    2.90
   0  -6  -5  113.25    4.33
   0   6   5  112.79    3.11
   0   6   5  115.38    4.14
   0   6   6    0.06    0.59
   0  -6  -6   -0.16    1.29
   0   6   6    0.15    1.10
   0  -6  -7  375.81    9.27
   0   6   7  370.15    6.22
   0   6   7  389.33    9.16
   0  -6  -7  364.26    5.59
   0  -6  -8    0.97    1.48
   0   6   8    1.63    0.39
   0  -6  -9  322.27    9.18
   0  -6 -10    1.87    1.82
   0  -6 -11   27.19    3.14
   0  -6 -12   19.27    2.88
   0  -6 -13   -0.79    2.19
   0  -6 -14   -0.48    2.15
   0   7 -13   89.66    4.89
   0  -7  13   89.39    5.73
   0   7 -12   39.58    3.33
   0  -7  12   47.63    4.14
   0   7 -11   72.04    4.22
   0  -7  11   75.76    4.78
   0   7 -10   -0.96    1.52
   0  -7  10   -0.11    1.68
   0   7  -9  127.33    5.39
   0  -7   9  134.11    4.17
   0  -7   9  139.78    5.87
   0   7  -8    4.38    1.62
   0  -7   8    4.12    1.68
   0   7  -7   31.87    2.68
   0  -7   7   36.13    2.83
   0   7  -6   15.92    2.02
   0  -7   6   14.36    1.09
   0   7  -5    6.82    1.51
   0  -7   5    6.29    1.47
   0  -7   5    8.26    0.75
   0   7  -4  146.28    5.12
   0  -7   4  146.09    2.76
   0   7  -3  278.02    7.13
   0   7  -3  275.56    6.39
   0  -7   3  253.50    4.05
   0   7  -2  197.64    5.80
   0   7  -2  202.02    5.11
   0  -7   2  196.65    3.38
   0   7  -1  127.67    4.43
   0   7  -1  133.74    2.77
   0   7   0 1635.66   23.04
   0   7   0 1673.84   25.35
   0   7   1    8.53    0.91
   0   7   1    8.79    1.36
   0   7   2    6.06    0.94
   0   7   2    7.57    1.30
   0   7   3    4.49    0.99
   0   7   3    4.42    1.06
   0   7   4   63.10    2.89
   0   7   4   61.50    2.59
   0   7   5   -0.63    1.12
   0   7   5   -0.08    0.82
   0  -7  -5   -1.32    1.37
   0   7   6   51.71    2.98
   0   7   6   50.23    2.15
   0  -7  -6   48.11    3.16
   0  -7  -7  139.08    5.42
   0   7   7  142.56    5.27
   0   7   7  138.88    3.48
   0  -7  -8  185.08    6.63
   0   7   8  179.93    3.72
   0  -7  -9  272.25    8.55
   0  -7 -10    1.08    1.77
   0  -7 -11   88.38    5.21
   0  -7 -12   20.39    3.02
   0  -7 -13    0.16    2.15
   0  -7 -14   -3.01    2.52
   0   8 -13    1.45    1.74
   0   8 -12   44.32    3.70
   0  -8  12   40.85    3.92
   0   8 -11    0.71    1.63
   0  -8  11    0.91    1.85
   0   8 -10   65.76    4.21
   0  -8  10   75.23    4.65
   0   8  -9   -1.58    1.67
   0  -8   9    3.80    1.80
   0  -8   9    4.30    1.05
   0   8  -8   79.14    4.31
   0  -8   8   75.59    2.63
   0  -8   8   78.17    2.68
   0   8  -7   20.46    2.44
   0  -8   7   23.77    1.35
   0   8  -6   -1.72    1.54
   0  -8   6    0.58    0.53
   0   8  -5    5.18    1.67
   0  -8   5    3.16    0.48
   0   8  -4   24.73    2.42
   0   8  -4   24.79    2.01
   0   8  -3  216.08    6.60
   0   8  -3  220.42    5.90
   0   8  -2   35.56    2.59
   0   8  -2   34.53    2.13
   0   8  -1  191.75    5.85
   0   8  -1  188.24    4.94
   0   8  -1  185.46    3.67
   0   8   0  499.76    8.31
   0   8   0  495.26   10.42
   0   8   1  389.54    7.21
   0   8   1  377.22    8.58
   0   8   2   70.11    2.70
   0   8   2   71.96    3.20
   0   8   3  245.95    5.97
   0   8   3  246.19    6.21
   0   8   4    5.02    1.19
   0   8   4    5.28    1.13
   0   8   5    5.40    1.25
   0   8   5    5.38    1.14
   0   8   6  426.57    9.84
   0  -8  -6  433.04   10.37
   0   8   6  412.47    8.22
   0   8   7   42.63    2.07
   0  -8  -7   45.64    3.40
   0   8   8  208.14    4.62
   0  -8  -8  208.28    7.25
   0  -8  -8  210.88    4.06
   0   8   9    1.59    0.64
   0  -8  -9    4.49    1.99
   0  -8 -10  138.67    6.41
   0  -8 -11   67.12    4.73
   0  -8 -12    5.46    2.38
   0  -8 -13    0.99    2.44
   0   9 -13   25.88    3.22
   0   9 -12   53.85    4.23
   0   9 -11    7.30    2.18
   0   9 -10   44.53    3.75
   0   9  -9   13.53    2.43
   0   9  -8   -1.88    1.60
   0  -9   8    0.44    0.61
   0   9  -7  127.10    5.64
   0  -9   7  117.89    2.60
   0  -9   7  115.44    2.60
   0   9  -6    2.16    1.58
   0  -9   6    1.82    0.32
   0  -9   6    1.85    0.33
   0   9  -5   22.43    2.64
   0   9  -4  149.29    5.76
   0   9  -4  146.08    5.03
   0   9  -3   10.14    1.85
   0   9  -3   11.00    1.57
   0   9  -2    0.45    1.27
   0   9  -2    0.37    0.90
   0   9  -1  498.46   11.13
   0   9  -1  509.91    9.88
   0   9  -1  504.12    8.05
   0   9   0  372.13    6.79
   0   9   0  375.58    9.04
   0   9   1    3.80    0.85
   0   9   1    5.06    1.59
   0   9   2  153.53    4.32
   0   9   2  160.71    5.26
   0   9   3   13.74    1.51
   0   9   3   13.32    1.66
   0   9   4   34.13    2.26
   0   9   4   32.00    2.21
   0   9   5  411.94    9.41
   0   9   5  407.59    8.73
   0   9   6    5.31    1.48
   0  -9  -6    4.43    1.74
   0   9   6    8.28    1.39
   0  -9  -7  478.01   11.76
   0   9   7  469.63    9.13
   0   9   8  177.06    4.54
   0  -9  -8  184.32    7.00
   0   9   9  442.50    7.25
   0  -9  -9  452.33   11.63
   0  -9 -10    3.13    2.06
   0  -9 -11   14.41    2.74
   0  -9 -12   95.17    5.89
   0  -9 -13    1.56    2.24
   0  10 -12    4.54    2.32
   0  10 -11   83.03    5.30
   0  10 -10   29.96    3.35
   0  10  -9    9.96    2.41
   0  10  -8   22.73    2.93
   0  10  -7   44.59    3.65
   0  10  -6   49.11    3.73
   0  10  -5  133.85    5.85
   0  10  -4    6.44    1.85
   0  10  -4    1.03    1.02
   0  10  -3    4.50    1.91
   0  10  -3    0.99    1.03
   0  10  -2  436.28   10.81
   0  10  -2  449.78    9.64
   0  10  -1   69.25    3.90
   0  10  -1   66.10    3.04
   0  10  -1   70.12    2.09
   0  10   0   43.33    1.86
   0  10   0   46.44    3.13
   0  10   1   94.71    3.13
   0  10   1   95.09    4.33
   0  10   2   11.06    1.28
   0  10   2   10.19    1.69
   0  10   3   44.90    2.48
   0  10   3   41.72    2.77
   0  10   4   64.41    3.20
   0  10   4   68.55    3.44
   0  10   5    2.08    1.03
   0  10   5    5.24    1.41
   0 -10  -6    6.79    1.83
   0  10   6    5.71    1.34
   0  10   7    2.47    1.04
   0 -10  -7    3.11    1.70
   0 -10  -8   43.28    3.67
   0  10   8   45.51    2.41
   0 -10  -9   76.35    4.89
   0  10   9   65.13    2.68
   0 -10 -10    4.73    2.26
   0 -10 -11   -1.66    2.11
   0 -10 -12    2.33    2.27
   0  11 -11    8.22    2.54
   0  11 -10   16.13    2.88
   0  11  -9   42.64    4.00
   0  11  -8   27.33    3.28
   0  11  -7   -2.31    1.91
   0  11  -6    9.38    2.27
   0  11  -5    1.66    1.88
   0  11  -4   28.15    2.98
   0  11  -4   25.99    2.35
   0  11  -3  357.66   10.09
   0  11  -3  360.45    8.85
   0  11  -2    1.81    1.63
   0  11  -2   -0.26    0.99
   0  11  -1  149.92    6.04
   0  11  -1  156.52    5.09
   0  11  -1  148.19    3.37
   0  11   0  221.67    4.87
   0  11   0  215.37    7.18
   0  11   1   69.02    2.72
   0  11   1   71.40    3.98
   0  11   2   14.96    1.49
   0  11   2   16.13    2.19
   0  11   3   51.61    2.76
   0  11   3   50.23    3.25
   0  11   4    0.81    1.04
   0  11   4    1.48    1.27
   0  11   5    6.65    1.44
   0  11   5    4.73    1.35
   0  11   6  194.25    5.98
   0  11   7   27.94    2.19
   0 -11  -7   27.40    3.17
   0 -11  -8  156.72    6.90
   0  11   8  152.54    4.82
   0  11   9   20.98    1.74
   0 -11  -9   18.37    2.96
   0 -11 -10    1.86    2.10
   0 -11 -11    0.84    2.08
   0  12  -9    3.23    2.02
   0  12  -8   -0.59    2.20
   0  12  -7   31.42    3.54
   0  12  -6   23.04    3.06
   0  12  -5   67.13    4.63
   0  12  -4  101.53    5.52
   0  12  -3   93.21    5.10
   0  12  -3   96.84    4.35
   0  12  -2   32.15    3.24
   0  12  -2   30.49    2.48
   0  12  -1   96.52    5.04
   0  12  -1   99.98    4.18
   0  12  -1   99.87    2.57
   0  12   0    0.37    1.65
   0  12   0   -1.32    0.78
   0  12   1   28.27    1.82
   0  12   1   26.52    2.76
   0  12   2    1.73    0.91
   0  12   2    4.72    1.71
   0  12   3   77.37    3.47
   0  12   3   73.58    4.09
   0  12   4    7.24    1.41
   0  12   4    8.21    1.73
   0  12   5   55.13    3.47
   0  12   6   75.22    3.89
   0 -12  -7  230.84    8.56
   0  12   7  227.12    6.71
   0 -12  -8   23.52    3.26
   0  12   8   18.23    2.03
   0 -12  -9   19.29    3.04
   0 -12 -10    9.62    2.66
   0 -12 -11    1.96    2.61
   0  13  -7   11.41    2.67
   0  13  -6   35.27    3.75
   0  13  -5   48.64    4.19
   0  13  -4  199.24    8.09
   0  13  -3   48.84    4.06
   0  13  -2  157.20    6.85
   0  13  -1   24.03    2.25
   0  13  -1   26.03    3.08
   0  13   0  242.72    6.97
   0  13   0  239.85    8.36
   0  13   1    9.55    2.06
   0  13   2   40.32    2.42
   0  13   2   39.71    3.43
   0  13   3    2.89    2.21
   0  13   3   -0.96    1.71
   0  13   4    3.87    1.29
   0  13   4    0.15    1.54
   0  13   5  326.53    9.16
   0  13   6  172.07    6.24
   0 -13  -7   24.04    3.08
   0  13   7   23.62    2.52
   0  13   8    0.69    1.32
   0 -13  -8   -0.60    2.00
   0 -13  -9  247.43    9.63
   0  14  -5   97.38    6.08
   0  14  -4    1.98    2.19
   0  14  -3   44.37    4.06
   0  14  -2   92.77    5.61
   0  14  -1  137.49    6.59
   0  14   0    1.85    1.87
   0  14   1   57.66    4.26
   0  14   2   42.01    3.65
   0  14   3   49.18    3.77
   0  14   4  186.30    7.15
   0  14   5   31.08    3.06
   0  14   6   42.72    3.33
   0  14   7   55.45    3.69
   0 -14  -7   54.35    4.63
   0 -14  -8  333.89   11.48
   0  15  -3  127.62    6.92
   0  15  -2   34.35    3.78
   0  15  -1   12.48    2.91
   0  15   0   28.11    3.40
   0  15   1   38.80    3.76
   0  15   2   23.12    4.54
   0  15   3  113.22    5.89
   0  15   4   -0.54    1.76
   0  15   5   12.54    2.49
   0  15   6  167.71    6.79
   0  15   7  147.49    6.17
   0  16   0   19.44    3.08
   0  16   1   -0.25    2.00
   0  16   2    5.32    2.13
   0  16   3   19.19    2.98
   0  16   4   -3.55    2.22
   0  16   5   20.68    2.95
   0  16   6    6.96    2.25
   0  17   3    4.81    2.25
   0  17   4    4.70    2.01
   0  17   5   37.37    3.71
  -1  17   5   78.90    5.24
  -1  17   4   12.98    2.78
  -1  17   3   19.26    3.20
  -1  16   6   29.45    3.21
  -1  16   5    1.20    1.84
  -1  16   4    2.61    1.88
  -1  16   3    4.49    2.17
  -1  16   2    4.63    2.04
  -1  16   1    0.45    1.95
  -1  16   0   -1.44    2.13
  -1  15   6   40.68    3.50
  -1  15   5   39.98    3.58
  -1  15   4   70.50    4.64
  -1  15   3   37.21    3.63
  -1  15   2   76.71    4.96
  -1  15   1    6.68    2.40
  -1  15   0   -1.49    2.05
  -1  15  -1    2.07    2.04
  -1  15  -2    6.44    2.44
  -1  15  -3    9.99    2.77
   1 -14  -8    9.72    2.80
   1 -14  -7  156.48    7.48
  -1  14   7  141.39    5.80
   1 -14  -6   39.58    3.99
  -1  14   6   35.48    3.11
  -1  14   5   88.30    4.81
  -1  14   4   33.22    3.16
  -1  14   3  297.11    9.40
  -1  14   2   12.56    2.53
  -1  14   1    1.16    1.75
  -1  14   0   13.51    2.62
  -1  14  -1    2.52    2.12
  -1  14  -2   43.08    3.98
  -1  14  -3   73.03    5.07
  -1  14  -4   21.21    3.10
  -1  14  -5    7.43    2.55
  -1  14  -6  158.08    7.71
   1 -13  -9   19.13    3.30
   1 -13  -8  143.27    7.09
  -1  13   7    5.90    1.69
   1 -13  -7    1.66    2.05
  -1  13   6   31.96    2.78
   1 -13  -6   39.76    3.86
  -1  13   5  100.94    4.84
  -1  13   4  170.54    6.54
  -1  13   3    1.00    1.53
  -1  13   3    0.98    1.19
  -1  13   2   -0.93    1.73
  -1  13   2   -0.27    1.09
  -1  13   1   47.13    3.71
  -1  13   1   50.61    2.68
  -1  13   0   15.93    2.61
  -1  13  -1   88.52    5.10
  -1  13  -2    8.55    2.30
  -1  13  -3   19.18    2.94
  -1  13  -4   86.76    5.37
  -1  13  -5  368.08   11.47
  -1  13  -6    3.57    2.25
  -1  13  -7   16.57    3.01
  -1  13  -8   20.16    3.16
   1 -12 -10    1.73    2.14
   1 -12  -9   28.20    3.45
  -1  12   8    0.70    1.20
   1 -12  -8    1.62    1.95
  -1  12   7    2.09    1.29
   1 -12  -7    2.47    2.12
   1 -12  -6  194.74    7.66
  -1  12   6  192.13    6.36
  -1  12   5   85.12    4.23
  -1  12   4    3.71    1.58
  -1  12   4    0.18    1.10
  -1  12   3    6.23    1.76
  -1  12   3    6.01    1.27
  -1  12   2  154.17    6.05
  -1  12   2  161.10    5.12
  -1  12   1   31.94    3.02
  -1  12   1   30.26    2.08
  -1  12   0    9.74    2.17
  -1  12   0    8.71    1.18
  -1  12  -1   43.20    3.51
  -1  12  -1   45.44    2.97
  -1  12  -1   47.63    2.13
  -1  12  -2   35.71    3.31
  -1  12  -3   48.01    3.84
  -1  12  -4  161.46    6.93
  -1  12  -5   49.54    4.02
  -1  12  -6   61.97    4.59
  -1  12  -7   76.67    5.11
  -1  12  -8    4.23    2.18
  -1  12  -9    2.03    2.10
  -1  12 -10    4.79    2.20
   1 -11 -11   44.10    4.33
   1 -11 -10    2.78    2.19
   1 -11  -9   47.51    4.15
   1 -11  -8    1.67    2.01
  -1  11   8    5.84    1.34
  -1  11   7  189.08    5.81
   1 -11  -7  198.79    7.62
   1 -11  -6    9.46    2.19
  -1  11   6   10.06    1.60
  -1  11   5   22.23    2.35
  -1  11   4  149.38    5.42
  -1  11   4  139.18    5.20
  -1  11   3  645.23   13.59
  -1  11   3  666.75   12.93
  -1  11   2   13.37    2.08
  -1  11   2   15.80    1.72
  -1  11   1   18.61    2.36
  -1  11   1   19.19    1.65
  -1  11   0    1.00    1.43
  -1  11   0    3.24    0.87
  -1  11  -1   13.86    2.37
  -1  11  -1   14.57    1.23
  -1  11  -2   57.59    3.27
  -1  11  -2   50.63    3.66
  -1  11  -3   24.49    2.31
  -1  11  -3   26.28    2.80
  -1  11  -4  142.29    6.24
  -1  11  -5    1.58    1.62
  -1  11  -6  278.83    9.23
  -1  11  -7    7.01    2.20
  -1  11  -8   14.26    2.67
  -1  11  -9    0.64    1.93
  -1  11 -10    3.40    2.04
  -1  11 -11    8.88    2.44
   1 -10 -12   32.38    3.91
   1 -10 -11    2.86    2.28
   1 -10 -10   85.81    5.33
  -1  10   9   10.78    1.28
   1 -10  -9   10.14    2.29
   1 -10  -8    0.25    1.87
  -1  10   8    0.61    0.99
  -1  10   7   82.49    3.50
   1 -10  -7   76.68    4.64
   1 -10  -6   37.17    3.26
  -1  10   6   37.38    2.51
  -1  10   5   30.81    2.34
  -1  10   5   31.03    2.49
  -1  10   4    9.60    1.69
  -1  10   4    8.71    1.51
  -1  10   3    5.87    1.48
  -1  10   3    6.77    1.34
  -1  10   2    0.26    1.27
  -1  10   2    0.05    0.84
  -1  10   1    0.91    1.24
  -1  10   1    1.15    0.76
  -1  10   0    0.25    1.34
  -1  10   0   -0.31    0.68
  -1  10  -1    1.61    1.55
  -1  10  -1    0.03    0.64
  -1  10  -2   13.67    2.20
   1 -10   2   11.56    1.02
  -1  10  -2   10.91    1.55
  -1  10  -2   12.82    1.03
   1 -10   3   93.13    2.46
  -1  10  -3   91.37    4.07
  -1  10  -3   95.26    4.71
   1 -10   4    0.26    0.50
  -1  10  -4    1.55    1.30
  -1  10  -4   -2.35    1.74
   1 -10   5   51.47    1.51
  -1  10  -5   55.04    3.83
   1 -10   6   99.03    2.28
  -1  10  -6  102.69    5.24
   1 -10   7   57.05    1.77
  -1  10  -7   63.22    4.30
  -1  10  -8   -0.47    1.72
  -1  10  -9   12.48    2.45
  -1  10 -10    1.85    1.75
  -1  10 -11   35.29    3.62
  -1  10 -12   94.80    5.66
  -1  10 -13    3.12    2.11
   1  -9 -12    7.04    2.56
   1  -9 -11    0.19    1.99
   1  -9 -10   32.27    3.47
  -1   9   9   31.22    1.73
   1  -9  -9   29.70    3.35
  -1   9   8  583.73   10.57
   1  -9  -8  594.16   13.93
   1  -9  -8  585.83    9.81
   1  -9  -7  481.40   11.93
  -1   9   7  476.86    9.38
   1  -9  -6  156.47    6.03
  -1   9   6  148.81    4.64
  -1   9   5   12.93    1.55
  -1   9   5   13.15    1.69
  -1   9   4  258.13    6.76
  -1   9   4  274.62    7.16
  -1   9   3   40.27    2.58
  -1   9   3   40.63    2.47
  -1   9   2    0.90    1.20
  -1   9   2    2.46    0.97
  -1   9   1   74.31    3.64
  -1   9   1   73.26    2.88
  -1   9   0   67.29    3.54
  -1   9   0   61.61    2.44
   1  -9   0   64.10    2.51
  -1   9  -1  189.09    6.17
   1  -9   1  194.41    4.41
  -1   9  -1  190.54    4.36
  -1   9  -2   99.62    4.41
   1  -9   2   98.17    2.69
  -1   9  -2   92.83    3.76
  -1   9  -2   93.39    2.66
  -1   9  -3   16.37    2.14
   1  -9   3   19.27    1.13
  -1   9  -3   23.04    2.09
  -1   9  -4    5.67    1.79
   1  -9   4    4.37    0.68
  -1   9  -4    9.43    1.57
  -1   9  -5  485.61   11.73
   1  -9   5  495.12    7.95
  -1   9  -5  525.68   11.36
  -1   9  -6  156.79    6.13
   1  -9   6  148.01    3.37
  -1   9  -7    6.81    1.93
   1  -9   7    3.95    0.78
  -1   9  -8    9.50    2.13
   1  -9   8    7.56    1.00
  -1   9  -9   15.21    2.42
   1  -9   9   16.20    1.45
  -1   9 -10    1.56    1.79
  -1   9 -11   44.78    3.81
  -1   9 -12    1.59    1.98
  -1   9 -13   29.02    3.32
   1  -8 -13    1.49    2.14
   1  -8 -12   12.06    2.85
   1  -8 -11   93.87    5.59
   1  -8 -10   62.62    4.41
  -1   8   9  252.43    4.92
   1  -8  -9  252.16    8.46
   1  -8  -8   37.93    3.26
  -1   8   8   39.09    1.91
   1  -8  -8   35.12    1.45
  -1   8   7  100.12    3.33
   1  -8  -7   99.89    4.84
   1  -8  -7  104.25    3.05
  -1   8   6  393.99    8.02
   1  -8  -6  405.57   10.02
  -1   8   6  399.33    9.69
  -1   8   5  519.88   10.04
   1  -8  -5  532.20   11.69
  -1   8   5  535.36   11.25
  -1   8   4   21.83    1.79
  -1   8   4   17.43    1.80
  -1   8   3   37.93    2.38
  -1   8   3   39.02    2.31
  -1   8   2  446.41    9.43
  -1   8   2  452.73    8.90
  -1   8   1  260.46    6.77
  -1   8   1  262.39    5.85
  -1   8   0  192.24    5.78
   1  -8   0  194.98    4.54
  -1   8   0  185.87    4.45
  -1   8  -1  105.18    4.26
   1  -8   1  106.38    2.95
  -1   8  -1  106.91    2.94
  -1   8  -2    2.53    1.41
   1  -8   2    1.20    0.65
  -1   8  -2    1.74    1.01
  -1   8  -2    1.20    0.57
  -1   8  -3   61.12    3.39
   1  -8   3   58.47    1.89
  -1   8  -3   60.94    3.02
  -1   8  -4  549.55   11.84
  -1   8  -4  562.72   11.24
   1  -8   4  535.38    8.58
  -1   8  -5   15.18    2.04
  -1   8  -5   17.96    1.99
   1  -8   5   16.20    1.10
  -1   8  -6  207.92    6.83
   1  -8   6  206.23    4.43
  -1   8  -7   74.24    4.15
   1  -8   7   80.79    2.67
  -1   8  -8    3.64    1.65
   1  -8   8    3.88    1.00
  -1   8  -9   26.20    2.77
   1  -8   9   23.48    1.74
  -1   8 -10   11.05    2.19
   1  -8  10   17.61    1.79
  -1   8 -11   16.02    2.50
  -1   8 -12    5.32    2.01
  -1   8 -13   77.08    4.78
   1  -7 -13   14.00    3.01
   1  -7 -12  146.91    7.10
   1  -7 -11    1.18    2.01
   1  -7 -10    7.47    2.28
  -1   7   9    3.26    0.58
   1  -7  -9    3.53    1.92
   1  -7  -8    9.37    2.00
  -1   7   8   11.80    1.03
   1  -7  -8    9.87    0.60
  -1   7   7  676.33   11.26
   1  -7  -7  696.90   14.33
   1  -7  -7  697.42   10.67
   1  -7  -6  569.34   12.24
  -1   7   6  565.72   10.00
  -1   7   6  596.13   12.23
   1  -7  -5   36.64    2.75
  -1   7   5   33.18    1.94
  -1   7   5   41.34    2.65
  -1   7   4   23.13    1.76
  -1   7   4   24.20    1.96
  -1   7   3  583.64   10.81
  -1   7   3  597.49   11.05
  -1   7   2  234.72    5.91
  -1   7   2  229.17    5.53
  -1   7   1  237.50    6.05
   1  -7  -1  238.57    5.35
  -1   7   1  237.63    5.31
  -1   7   0    4.33    1.25
   1  -7   0    7.92    1.01
  -1   7   0    6.24    0.87
  -1   7  -1    5.84    1.37
   1  -7   1    6.48    0.88
  -1   7  -1    7.91    0.83
  -1   7  -2   38.59    2.57
  -1   7  -2   37.49    2.15
   1  -7   2   34.58    1.47
  -1   7  -2   32.73    1.41
  -1   7  -3  583.87   11.83
  -1   7  -3  610.45   11.34
   1  -7   3  590.29    9.24
  -1   7  -4   14.44    1.85
  -1   7  -4   16.59    1.72
   1  -7   4   14.70    1.01
   1  -7   5   12.15    1.83
  -1   7  -5   15.55    1.96
  -1   7  -5   12.44    1.69
   1  -7   5   11.44    1.02
  -1   7  -6  266.52    7.57
   1  -7   6  289.74    8.03
   1  -7   6  280.04    5.60
  -1   7  -7   68.69    3.75
   1  -7   7   74.49    2.68
  -1   7  -8    0.25    1.31
   1  -7   8    1.83    1.46
   1  -7   8    0.67    0.82
   1  -7   9   13.17    2.28
  -1   7  -9    9.58    1.86
   1  -7  10   31.02    3.16
  -1   7 -10   32.85    2.93
   1  -7  11   17.92    2.70
  -1   7 -11   14.89    2.35
   1  -7  12  156.14    7.14
  -1   7 -12  158.01    6.36
   1  -7  13   12.61    2.73
  -1   7 -13   11.77    2.27
   1  -6 -14   74.40    5.56
   1  -6 -13  101.82    6.10
   1  -6 -12    5.76    2.40
   1  -6 -11    8.32    2.26
   1  -6 -10   86.18    4.89
   1  -6  -9    0.10    1.57
  -1   6   8  450.75    7.18
   1  -6  -8  456.23   11.00
   1  -6  -7   44.35    3.13
  -1   6   7   49.13    1.82
  -1   6   7   46.88    3.05
   1  -6  -7   43.44    1.38
   1  -6  -6  198.63    6.20
  -1   6   6  196.59    4.47
  -1   6   6  209.34    6.20
   1  -6  -6  203.88    4.13
   1  -6  -5    3.95    1.37
  -1   6   5    2.86    0.85
  -1   6   5    4.01    1.18
  -1   6   4   67.42    2.58
   1  -6  -4   71.86    3.30
  -1   6   4   70.22    3.12
  -1   6   3   11.50    1.30
  -1   6   3   12.45    1.40
  -1   6   2    0.42    0.91
   1  -6  -2    0.77    0.96
  -1   6   2    0.64    0.76
  -1   6   1    1.75    1.17
  -1   6   1    1.92    0.88
   1  -6  -1    0.82    0.81
  -1   6   0  149.32    4.39
  -1   6   0  144.58    3.52
   1  -6   0  142.84    3.51
  -1   6  -1  882.35   15.06
   1  -6   1  878.97   13.22
  -1   6  -1  905.45   13.25
  -1   6  -2  310.60    7.22
  -1   6  -2  310.19    6.68
   1  -6   2  313.55    5.47
  -1   6  -2  309.52    5.49
  -1   6  -3  300.98    7.20
  -1   6  -3  300.18    6.80
   1  -6   3  299.82    5.31
  -1   6  -4    5.16    1.32
  -1   6  -4    5.98    1.26
   1  -6   4    3.94    0.70
  -1   6  -5 1267.86   20.98
   1  -6   5 1303.75   21.33
   1  -6   5 1268.80   18.53
  -1   6  -6    0.37    1.19
   1  -6   6    1.60    1.23
   1  -6   6    1.26    0.81
   1  -6   7   30.00    2.58
  -1   6  -7   28.03    2.65
   1  -6   8   -0.40    1.31
  -1   6  -8    0.02    1.28
   1  -6   9   21.53    2.59
  -1   6  -9   20.01    2.20
   1  -6  10    3.28    1.84
  -1   6 -10    2.95    1.44
   1  -6  11   26.33    3.07
  -1   6 -11   23.79    2.49
   1  -6  12   86.82    5.27
  -1   6 -12   80.46    4.28
   1  -6  13   67.69    4.94
  -1   6 -13   65.56    3.95
   1  -5 -14   35.46    4.04
   1  -5 -13   55.45    4.60
   1  -5 -12    6.49    2.34
   1  -5 -11   37.32    3.57
   1  -5 -10    1.50    1.86
   1  -5  -9  113.21    5.19
   1  -5  -8   20.49    2.37
  -1   5   8   20.47    0.82
   1  -5  -7  324.49    8.34
  -1   5   7  311.31    5.42
  -1   5   7  336.11    8.42
   1  -5  -6   36.98    2.72
  -1   5   6   39.23    2.54
   1  -5  -6   35.91    1.27
   1  -5  -5   17.90    1.93
  -1   5   5   18.61    1.73
   1  -5  -4   48.87    2.63
  -1   5   4   49.96    2.53
  -1   5   3  152.95    4.29
  -1   5   2   78.28    2.75
   1  -5  -2   79.03    2.78
  -1   5   1    1.72    0.98
  -1   5   1    3.65    0.82
   1  -5  -1    2.15    0.83
  -1   5   0   60.07    2.65
   1  -5   0   62.32    2.10
  -1   5   0   52.85    1.95
  -1   5  -1    1.79    1.11
   1  -5   1    1.48    0.65
  -1   5  -1    1.33    0.60
  -1   5  -2  646.26   11.39
  -1   5  -2  639.07   10.83
   1  -5   2  631.86    9.57
  -1   5  -2  625.43    9.57
  -1   5  -3   16.84    1.63
  -1   5  -3   23.28    1.71
   1  -5   3   19.84    1.10
   1  -5   4  271.69    6.50
  -1   5  -4  262.02    6.37
  -1   5  -4  258.94    6.21
   1  -5   4  252.01    4.90
   1  -5   5  292.07    7.20
   1  -5   5  287.87    6.94
  -1   5  -5  285.24    6.89
   1  -5   6  927.62   16.42
   1  -5   6  887.54   15.88
  -1   5  -6  884.87   15.61
   1  -5   7   10.38    1.65
   1  -5   7    7.21    1.57
  -1   5  -7    9.19    1.54
   1  -5   8   58.87    3.50
  -1   5  -8   54.43    3.10
   1  -5   9    5.05    1.73
  -1   5  -9    4.45    1.35
   1  -5  10   -0.98    1.66
  -1   5 -10    1.75    1.32
   1  -5  11  121.20    5.76
  -1   5 -11  113.07    4.71
   1  -5  12   18.56    2.86
  -1   5 -12   18.60    2.22
   1  -5  13   67.14    4.85
  -1   5 -13   69.20    3.80
   1  -5  14   30.24    3.73
   1  -4 -14  110.39    6.41
   1  -4 -13    2.83    2.18
   1  -4 -12    3.43    1.95
   1  -4 -11   33.27    3.22
   1  -4 -10  102.58    5.08
   1  -4  -9   92.09    4.61
   1  -4  -8   17.27    2.23
  -1   4   8   17.04    2.02
  -1   4   8   16.26    2.04
   1  -4  -7  232.11    6.81
  -1   4   7  236.63    6.78
  -1   4   7  249.77    6.92
   1  -4  -6    0.78    0.33
   1  -4  -6    0.45    1.18
  -1   4   6    0.37    1.06
  -1   4   6    1.86    1.20
   1  -4  -5  215.66    5.85
  -1   4   5  230.40    5.93
   1  -4  -5  215.13    3.83
   1  -4  -4   88.71    3.38
  -1   4   4   94.73    3.37
   1  -4  -3  149.76    4.18
  -1   4   3  146.23    4.04
  -1   4   2   52.87    2.13
   1  -4  -2   48.85    2.17
  -1   4   1  218.76    4.48
   1  -4  -1  219.19    4.55
   1  -4   0  368.83    6.24
  -1   4   0  364.74    6.24
  -1   4  -1   20.46    1.64
   1  -4   1   19.85    1.09
  -1   4  -1   20.50    1.05
  -1   4  -2  368.84    7.24
   1  -4   2  361.25    5.90
  -1   4  -2  358.68    6.81
  -1   4  -3   16.80    1.57
  -1   4  -3   15.56    1.40
   1  -4   3   15.74    1.01
   1  -4   4  390.99    8.07
   1  -4   4  402.04    7.94
  -1   4  -4  386.54    7.91
  -1   4  -4  392.33    7.89
   1  -4   5  185.88    5.30
   1  -4   5  187.16    5.20
  -1   4  -5  183.35    4.93
   1  -4   6  253.84    6.73
   1  -4   6  247.84    6.52
  -1   4  -6  246.53    6.10
   1  -4   7   57.56    3.25
   1  -4   7   50.53    3.03
  -1   4  -7   50.08    2.65
   1  -4   8   47.34    3.11
   1  -4   8   40.71    2.90
  -1   4  -8   40.99    2.46
  -1   4  -9   30.07    2.74
   1  -4   9   24.23    2.48
  -1   4  -9   29.61    2.20
  -1   4 -10   58.55    3.81
   1  -4  10   61.64    3.96
  -1   4 -10   62.59    3.18
  -1   4 -11    7.85    2.16
   1  -4  11    8.35    2.17
  -1   4 -11    9.84    1.60
  -1   4 -12   21.51    2.93
   1  -4  12   18.30    2.77
  -1   4 -12   21.00    2.15
  -1   4 -13  170.97    7.61
   1  -4  13  183.84    7.78
  -1   4 -13  187.64    5.92
   1  -4  14  106.09    6.19
   1  -3 -14    1.16    2.14
   1  -3 -13    0.56    2.00
   1  -3 -12   22.23    2.97
   1  -3 -11   17.84    2.58
   1  -3 -10    5.34    1.87
   1  -3  -9   60.58    3.69
  -1   3   8  463.13   10.50
   1  -3  -8  429.94   10.31
  -1   3   8  463.15   10.45
   1  -3  -7   27.03    2.43
  -1   3   7   27.36    2.27
  -1   3   7   30.67    2.37
  -1   3   7   27.66    0.94
   1  -3  -6  794.41   14.50
  -1   3   6  828.82   14.58
  -1   3   6  820.59   14.58
   1  -3  -5   52.58    2.70
  -1   3   5   49.20    2.52
  -1   3   5   51.12    2.57
   1  -3  -5   49.52    1.26
   1  -3  -4   70.28    2.91
  -1   3   4   76.17    2.91
  -1   3   4   73.98    2.89
   1  -3  -4   73.82    1.77
   1  -3  -3  300.86    6.24
  -1   3   3  309.35    6.26
   1  -3  -2  676.71   10.90
  -1   3   2  682.09   10.86
   1  -3  -1  225.73    4.41
  -1   3   1  221.01    4.37
   1  -3   0  293.57    4.99
  -1   3   0  284.50    4.98
   1  -3   1  277.51    4.68
  -1   3  -1  280.22    4.67
  -1   3  -2  149.21    3.75
  -1   3  -2  149.69    3.59
   1  -3   2  152.41    3.01
   1  -3   3  332.28    6.46
  -1   3  -3  320.48    6.38
   1  -3   3  326.81    6.44
  -1   3  -3  331.29    6.46
   1  -3   4   13.27    1.37
   1  -3   4   12.01    1.47
  -1   3  -4   14.60    1.39
   1  -3   5   16.32    1.60
  -1   3  -5   15.44    1.66
   1  -3   5   13.96    1.63
  -1   3  -5   15.42    1.45
   1  -3   6   93.78    3.72
  -1   3  -6   92.94    3.70
   1  -3   6   88.84    3.65
  -1   3  -6   88.00    3.11
  -1   3  -7  110.79    4.28
   1  -3   7  116.86    4.42
   1  -3   7  108.55    4.26
  -1   3  -7  108.35    3.60
   1  -3   8  100.03    4.35
  -1   3  -8   93.42    4.16
   1  -3   8   87.15    4.03
  -1   3  -8   84.93    3.24
  -1   3  -9  110.53    4.82
   1  -3   9   97.42    4.58
  -1   3  -9  105.26    3.70
  -1   3 -10    5.75    1.81
   1  -3  10    2.48    1.66
  -1   3 -10    4.12    1.08
  -1   3 -11   16.13    2.51
   1  -3  11   11.06    2.20
  -1   3 -11   12.16    1.49
  -1   3 -12  132.66    6.27
   1  -3  12  131.29    6.23
  -1   3 -12  130.28    4.46
  -1   3 -13   62.11    4.63
   1  -3  13   61.82    4.55
  -1   3 -13   64.86    3.17
  -1   3 -14   90.87    5.77
   1  -3  14   88.94    5.65
   1  -2 -14    3.82    2.30
   1  -2 -13   83.60    5.33
   1  -2 -12   42.61    3.90
   1  -2 -11   63.13    4.24
   1  -2 -10   27.35    2.88
   1  -2  -9  122.82    5.19
  -1   2   9  114.90    2.30
   1  -2  -8  387.01    9.45
  -1   2   8  406.89    9.55
  -1   2   8  389.50    6.03
  -1   2   8  411.73    9.42
  -1   2   8  378.64    5.95
   1  -2  -7  343.02    8.34
  -1   2   7  364.82    8.48
  -1   2   7  352.39    5.57
  -1   2   7  362.60    8.36
  -1   2   7  344.89    5.46
   1  -2  -6  118.78    4.21
  -1   2   6  118.02    4.14
  -1   2   6  116.88    2.41
  -1   2   6  117.84    4.09
  -1   2   6  113.55    2.31
   1  -2  -5   31.25    2.10
  -1   2   5   30.22    2.00
  -1   2   5   33.71    2.07
  -1   2   5   32.18    1.07
   1  -2  -4  235.23    5.48
  -1   2   4  242.89    5.47
  -1   2   4  239.15    5.48
   1  -2  -4  235.20    3.83
   1  -2  -3  506.28    8.69
  -1   2   3  509.87    8.66
  -1   2   3  504.56    8.71
   1  -2  -3  490.31    7.29
   1  -2  -2  127.10    3.15
   1  -2  -2  130.74    3.26
  -1   2   2  135.26    3.20
   1  -2  -2  125.01    2.52
   1  -2  -1   60.94    1.90
  -1   2   1   62.51    1.86
  -1   2   0  526.03    7.94
   1  -2   0  537.39    7.97
  -1   2  -1  221.27    3.78
   1  -2   1  224.80    3.79
   1  -2   2 1290.15   18.41
  -1   2  -2 1314.68   18.52
  -1   2  -3   97.25    2.87
   1  -2   3  102.84    2.90
   1  -2   3  103.23    3.00
  -1   2  -3  101.12    2.89
  -1   2  -3  100.66    2.76
  -1   2  -4  441.94    8.29
   1  -2   4  456.55    8.34
   1  -2   4  441.17    8.26
  -1   2  -4  454.04    7.79
   1  -2   5   38.59    2.19
  -1   2  -5   36.98    2.19
   1  -2   5   38.17    2.24
  -1   2  -5   37.60    1.79
   1  -2   6  144.17    4.58
  -1   2  -6  145.39    4.59
   1  -2   6  143.83    4.54
  -1   2  -6  142.02    3.75
  -1   2  -7   73.26    3.41
   1  -2   7   82.05    3.61
   1  -2   7   79.60    3.56
  -1   2  -7   69.98    2.60
  -1   2  -8   61.17    3.38
   1  -2   8   62.75    3.40
   1  -2   8   59.50    3.32
  -1   2  -8   59.18    2.45
  -1   2  -9  165.18    5.94
   1  -2   9  177.77    6.13
   1  -2   9  170.60    5.98
  -1   2  -9  168.29    4.48
  -1   2 -10    3.24    1.60
   1  -2  10    2.74    1.59
  -1   2 -10    3.82    0.95
  -1   2 -11  110.08    5.35
   1  -2  11   99.90    5.08
  -1   2 -11  100.97    3.50
  -1   2 -12   24.41    2.99
   1  -2  12   24.99    2.39
  -1   2 -12   23.21    1.75
  -1   2 -13  166.12    7.30
   1  -2  13  163.72    7.20
  -1   2 -13  159.84    4.63
  -1   2 -14   21.62    3.16
   1  -2  14   22.63    3.18
   1  -1 -14   82.35    5.53
   1  -1 -13    1.20    2.01
   1  -1 -12    6.02    2.11
   1  -1 -11   12.39    2.37
  -1   1  11   12.38    1.01
   1  -1 -10    1.09    1.60
  -1   1  10    1.64    0.65
   1  -1  -9  399.45   10.09
  -1   1   9  412.09    6.86
  -1   1   9  411.01    9.80
  -1   1   9  402.60    6.93
  -1   1   8   53.78    3.23
   1  -1  -8   47.83    3.12
  -1   1   8   59.24    1.85
  -1   1   8   59.34    3.18
  -1   1   8   56.35    1.87
   1  -1  -7  638.36   12.60
  -1   1   7  677.03   12.76
  -1   1   7  635.83    9.81
  -1   1   7  667.46   12.46
  -1   1   7  643.78    9.86
   1  -1  -6   31.32    2.28
  -1   1   6   37.67    2.36
  -1   1   6   35.55    1.33
  -1   1   6   39.35    2.32
  -1   1   6   34.86    1.32
   1  -1  -5  259.92    6.17
  -1   1   5  263.88    6.14
  -1   1   5  257.47    4.46
  -1   1   5  257.02    5.96
  -1   1   5  254.68    4.42
   1  -1  -4   88.11    3.05
  -1   1   4   93.50    3.06
  -1   1   4   86.11    2.02
  -1   1   4   92.01    3.01
  -1   1   4   89.19    2.01
   1  -1  -3    2.25    0.99
  -1   1   3    0.36    0.82
  -1   1   3    1.02    0.76
  -1   1   3    0.18    0.52
   1  -1  -2   16.80    1.18
  -1   1   2   15.63    1.07
   1  -1  -2   17.86    1.24
  -1   1   2   18.89    1.18
   1  -1  -2   15.14    0.74
  -1   1   2   15.40    0.76
   1  -1  -1    5.45    0.65
  -1   1   1    7.03    0.66
  -1   1   1    7.15    0.69
   1  -1  -1    5.54    0.75
   1  -1  -1    6.08    0.57
  -1   1   1    8.71    0.67
   1  -1   0  251.57    4.03
  -1   1   0  246.98    4.02
   1  -1   1  122.46    2.30
  -1   1  -1  121.05    2.30
  -1   1  -2  387.26    6.14
   1  -1   2  382.65    6.14
   1  -1   2  373.81    6.22
  -1   1  -2  379.84    6.23
   1  -1   3 2297.61   31.03
  -1   1  -3 2226.81   30.96
   1  -1   3 2234.94   31.01
   1  -1   4 1193.46   17.88
  -1   1  -4 1199.34   17.90
   1  -1   4 1194.72   17.90
  -1   1  -4 1185.54   16.92
   1  -1   5   49.90    2.41
  -1   1  -5   46.08    2.39
  -1   1  -5   53.71    1.82
  -1   1  -6  513.32   10.09
   1  -1   6  546.57   10.26
  -1   1  -6  514.93    8.55
  -1   1  -7    5.62    1.40
   1  -1   7    9.05    1.48
  -1   1  -7    7.46    0.88
  -1   1  -8  278.73    7.45
   1  -1   8  290.13    7.63
  -1   1  -8  278.98    5.59
  -1   1  -9   12.37    1.96
   1  -1   9    8.65    1.64
  -1   1  -9   10.54    1.04
  -1   1 -10    2.80    1.58
  -1   1 -10    1.45    0.71
  -1   1 -11  123.45    5.61
  -1   1 -11  122.40    3.48
  -1   1 -12   94.51    5.25
   1  -1  12  100.48    5.27
  -1   1 -13   71.52    4.81
   1  -1  13   72.78    4.79
  -1   1 -14   16.05    2.88
   1  -1  14   20.64    3.04
  -1   1 -15   44.97    4.41
   1  -1  15   43.93    4.33
   1   0 -14   30.34    3.70
   1   0 -13    0.98    1.97
   1   0 -12    0.66    1.75
  -1   0  12    2.17    0.93
   1   0 -11    0.62    1.71
  -1   0  11   -0.04    0.85
   1   0 -10   78.64    4.42
  -1   0  10   79.96    2.72
   1   0  -9   61.92    3.74
  -1   0   9   60.82    2.27
  -1   0   9   59.73    3.35
  -1   0   9   65.18    2.39
   1   0  -8  630.27   13.07
  -1   0   8  674.68   13.35
  -1   0   8  635.69   10.36
  -1   0   8  638.44   12.53
  -1   0   8  632.80   10.43
   1   0  -7   14.46    1.88
  -1   0   7   16.50    1.86
  -1   0   7   14.65    1.11
  -1   0   7   15.56    1.72
  -1   0   7   16.70    1.24
   1   0  -6  128.17    4.37
  -1   0   6  130.73    4.37
  -1   0   6  123.32    4.05
  -1   0   6  128.61    3.09
   1   0  -5   29.01    2.06
  -1   0   5   27.93    1.94
  -1   0   5   29.68    1.85
  -1   0   5   26.61    1.27
  -1   0   4  252.29    5.57
   1   0  -4  247.67    5.57
  -1   0   4  249.65    5.32
  -1   0   4  244.25    4.45
   1   0  -3   49.53    2.08
  -1   0   3   50.66    2.01
  -1   0   3   51.42    1.54
  -1   0   3   55.80    1.98
   1   0  -2  425.07    7.01
  -1   0   2  419.19    6.99
  -1   0   2  424.13    6.53
  -1   0   2  438.57    6.97
   1   0  -2  444.65    6.98
  -1   0   2  439.74    6.54
  -1   0   1  638.80    9.20
   1   0  -1  651.22    9.22
  -1   0   1  655.79    9.30
   1   0  -1  650.29    9.31
  -1   0   1  644.43    9.12
   1   0  -1  642.92    9.12
  -1   0  -1 2321.69   30.57
   1   0   2  217.45    3.88
  -1   0  -2  224.35    3.92
   1   0   2  226.68    3.93
  -1   0  -3 1101.99   16.02
   1   0   3 1107.58   16.02
  -1   0  -4 1988.07   28.03
   1   0   4 1977.85   27.97
  -1   0  -4 1976.33   26.48
  -1   0  -5 1260.81   19.52
   1   0   5 1295.23   19.60
  -1   0  -5 1283.32   17.64
  -1   0  -6  136.99    4.33
   1   0   6  138.97    4.33
  -1   0  -6  139.00    2.87
   1   0   7   42.17    2.57
  -1   0  -7   36.94    2.51
  -1   0  -7   41.54    1.48
   1   0   8   11.10    1.69
  -1   0  -8    9.43    1.78
  -1   0  -8   10.89    0.85
   1   0   9    9.29    1.78
  -1   0  -9    8.48    1.79
  -1   0  -9    9.57    0.84
  -1   0 -10  117.11    5.16
  -1   0 -10  118.40    2.91
  -1   0 -11   47.47    3.60
  -1   0 -12  106.53    5.50
  -1   0 -13    7.97    2.43
  -1   0 -14  186.59    8.00
   1   0  14  180.18    7.78
  -1   0 -15    5.98    2.38
   1   0  15    3.17    2.05
   1   1 -14    4.02    2.37
   1   1 -13    0.30    2.04
  -1  -1  12   21.80    1.76
   1   1 -12   19.21    2.87
  -1  -1  11    1.67    1.01
   1   1 -11    3.13    1.75
   1   1 -10    4.43    1.82
   1   1  -9  248.24    7.65
  -1  -1   9  269.76    7.29
  -1  -1   9  267.99    5.90
   1   1  -8   96.14    4.36
  -1  -1   8  106.90    4.57
  -1  -1   8  105.26    4.06
  -1  -1   8   99.38    3.17
   1   1  -7    2.24    1.28
  -1  -1   7    4.64    1.33
  -1  -1   7    5.06    1.23
   1   1  -7    3.17    0.85
  -1  -1   7    4.48    0.89
  -1  -1   6  404.68    8.73
   1   1  -6  397.74    8.67
  -1  -1   6  391.63    8.04
  -1  -1   6  399.81    7.24
   1   1  -6  391.94    7.21
   1   1  -5   82.19    3.24
  -1  -1   5   83.00    3.22
  -1  -1   5   78.50    2.82
  -1  -1   5   78.69    2.46
   1   1  -5   80.15    2.49
   1   1  -4   19.90    1.71
  -1  -1   4   22.50    1.67
  -1  -1   4   21.65    1.39
   1   1  -4   19.69    1.26
  -1  -1   4   19.14    1.20
  -1  -1   3  158.77    3.88
   1   1  -3  164.08    3.97
  -1  -1   3  156.23    3.44
   1   1  -3  159.96    3.43
  -1  -1   3  155.27    3.36
   1   1  -2 1262.96   17.73
  -1  -1   2 1251.37   17.75
  -1  -1   2 1237.33   17.21
   1   1  -2 1231.23   17.39
  -1  -1   2 1234.96   17.40
  -1  -1   1   76.56    1.87
   1   1  -1   77.02    1.90
  -1  -1   1   74.36    1.86
   1   1  -1   76.29    1.90
  -1  -1   1   75.56    1.57
   1   1  -1   78.28    1.60
   1   1   0 1178.38   16.05
  -1  -1   0 1171.14   16.05
  -1  -1  -1   79.51    1.59
  -1  -1  -1   80.52    1.61
   1   1   1   74.09    1.56
   1   1   2  338.61    5.51
  -1  -1  -2  338.18    5.53
  -1  -1  -3  971.34   14.29
   1   1   3  966.18   14.29
  -1  -1  -4  709.76   11.48
   1   1   4  699.76   11.40
   1   1   5   53.12    2.44
  -1  -1  -5   55.24    2.58
  -1  -1  -6   26.86    2.12
   1   1   6   24.72    1.89
  -1  -1  -7  402.21    5.88
   1   1   7  423.53    8.97
  -1  -1  -7  403.05    8.88
  -1  -1  -8   23.32    2.20
   1   1   8   27.21    2.29
   1   1   9  319.07    8.42
  -1  -1  -9  309.06    8.36
  -1  -1 -10    2.06    1.53
  -1  -1 -11   84.68    4.69
   1   1  11   85.28    2.15
  -1  -1 -12   73.62    4.65
   1   1  12   61.34    1.63
  -1  -1 -13  263.66    9.28
  -1  -1 -14   30.78    3.61
  -1  -1 -15    0.01    2.18
   1   2 -14   -1.47    2.25
  -1  -2  14   -4.60    2.26
   1   2 -13   78.77    5.23
   1   2 -12   34.99    3.61
  -1  -2  12   39.21    2.45
   1   2 -11   65.28    4.37
   1   2 -10   57.38    3.90
  -1  -2  10   53.20    3.21
   1   2  -9  155.31    5.99
  -1  -2   9  163.13    5.37
  -1  -2   9  160.46    4.63
   1   2  -9  164.55    4.68
  -1  -2   8    3.68    1.38
   1   2  -8    3.43    1.56
  -1  -2   8    2.15    1.01
  -1  -2   8    1.39    0.79
   1   2  -8    1.23    0.86
  -1  -2   7  626.27   12.36
   1   2  -7  577.81   11.94
  -1  -2   7  584.31   10.99
  -1  -2   7  592.16   10.52
   1   2  -7  578.81   10.41
   1   2  -6   78.29    3.46
  -1  -2   6   83.02    3.56
  -1  -2   6   76.28    2.91
   1   2  -6   73.37    2.71
  -1  -2   6   79.02    2.82
  -1  -2   5  276.30    6.57
   1   2  -5  275.13    6.54
  -1  -2   5  269.86    5.67
  -1  -2   5  279.08    5.73
   1   2  -5  264.05    5.65
   1   2  -4  404.03    8.08
  -1  -2   4  431.99    8.26
  -1  -2   4  404.23    7.18
   1   2  -4  417.37    7.51
  -1  -2   4  416.11    7.49
   1   2  -3 1350.99   20.11
  -1  -2   3 1392.31   20.23
  -1  -2   3 1344.33   19.07
   1   2  -3 1363.59   19.74
  -1  -2   3 1380.68   19.75
  -1  -2   2   25.97    1.48
   1   2  -2   25.63    1.43
  -1  -2   2   26.62    1.40
  -1  -2   2   26.32    0.97
  -1  -2   1    6.92    0.83
   1   2  -1    6.76    0.94
   1   2   0 1361.43   18.78
  -1  -2   0 1340.98   18.76
   1   2   1  209.93    3.73
  -1  -2  -1  213.53    3.73
   1   2   2 2694.00   35.47
  -1  -2  -2 2680.41   35.48
   1   2   3  726.88   10.11
  -1  -2  -3  735.11   10.11
   1   2   3  749.04   11.52
  -1  -2  -3  751.45   11.58
  -1  -2  -3  751.05   10.10
  -1  -2  -4   44.25    2.21
   1   2   4   46.53    2.08
   1   2   5  144.62    4.16
  -1  -2  -5  144.03    4.22
  -1  -2  -6  420.74    8.75
   1   2   6  425.42    8.71
  -1  -2  -7   52.65    2.88
   1   2   7   49.37    2.71
   1   2   8  187.25    5.82
  -1  -2  -8  167.01    5.61
  -1  -2  -9   40.99    3.02
   1   2   9   38.98    2.83
  -1  -2 -10   -0.15    1.57
  -1  -2 -11  214.96    7.47
  -1  -2 -12   89.32    5.08
  -1  -2 -13   94.94    5.59
  -1  -2 -14   12.87    2.76
  -1  -2 -15   87.39    5.89
   1   3 -14   50.21    4.56
  -1  -3  14   39.91    4.17
   1   3 -13   22.04    3.19
  -1  -3  13   21.64    2.23
  -1  -3  13   25.17    3.30
   1   3 -12    6.50    2.34
  -1  -3  12    6.29    2.25
   1   3 -11    3.85    1.96
   1   3 -11    0.54    1.06
   1   3 -10   36.86    3.25
  -1  -3  10   45.07    2.86
   1   3 -10   42.10    2.54
   1   3  -9  170.18    6.27
  -1  -3   9  167.60    5.34
   1   3  -9  172.62    5.09
  -1  -3   9  162.46    4.99
  -1  -3   8  213.54    6.79
   1   3  -8  194.24    6.46
  -1  -3   8  204.61    5.62
  -1  -3   8  196.93    5.44
   1   3  -8  197.36    5.41
  -1  -3   7   16.64    1.98
   1   3  -7   13.85    1.94
  -1  -3   7   12.69    1.30
   1   3  -7   14.32    1.48
  -1  -3   7   12.23    1.35
  -1  -3   6    1.62    1.15
   1   3  -6    0.23    1.23
  -1  -3   6    0.67    0.67
   1   3  -6    1.24    0.99
  -1  -3   6   -1.06    0.94
   1   3  -5  121.61    4.13
  -1  -3   5  129.75    4.34
  -1  -3   5  121.81    3.31
  -1  -3   5  124.65    3.76
   1   3  -5  122.43    3.76
  -1  -3   4  409.45    8.18
  -1  -3   4  387.14    6.76
   1   3  -4  403.28    7.67
  -1  -3   4  395.56    7.64
  -1  -3   3    9.50    1.24
  -1  -3   3    6.71    1.03
   1   3  -3    8.76    1.27
  -1  -3   3    7.42    0.72
   1   3  -2   14.81    1.42
  -1  -3   2   16.60    1.30
  -1  -3   2   14.00    0.63
  -1  -3   2   13.03    1.01
   1   3  -1  409.76    7.22
  -1  -3   1  413.72    7.23
  -1  -3   1  396.62    6.45
   1   3   0  220.98    4.47
  -1  -3   0  220.26    4.45
   1   3   0  215.49    3.61
   1   3   1  359.82    6.17
  -1  -3  -1  364.07    6.19
   1   3   2  244.08    4.36
  -1  -3  -2  238.72    4.36
   1   3   3    3.99    0.64
  -1  -3  -3    5.04    0.62
  -1  -3  -3    4.99    1.16
  -1  -3  -4    8.12    1.38
   1   3   4    7.52    0.56
  -1  -3  -4    8.47    0.54
  -1  -3  -5   31.98    2.26
   1   3   5   37.33    2.16
  -1  -3  -6   44.44    2.56
   1   3   6   48.69    2.60
  -1  -3  -7   14.94    1.85
   1   3   7   13.17    1.68
   1   3   8  436.98    9.85
  -1  -3  -8  411.88    9.68
  -1  -3  -9    0.86    1.45
   1   3   9   -0.63    1.21
  -1  -3 -10   26.37    2.67
  -1  -3 -11   32.21    3.15
  -1  -3 -12  308.25    9.68
  -1  -3 -13   11.57    2.48
  -1  -3 -14   50.97    4.47
  -1  -3 -15   17.76    3.20
  -1  -4  13    7.81    2.46
  -1  -4  12   -0.49    2.01
   1   4 -12    1.39    1.19
   1   4 -11    1.70    1.78
  -1  -4  11    3.99    1.96
   1   4 -11    3.82    1.32
   1   4 -10    2.91    1.75
  -1  -4  10    1.15    0.98
  -1  -4  10    1.46    1.63
   1   4 -10    4.57    1.41
   1   4  -9  115.90    5.27
  -1  -4   9  115.15    5.15
  -1  -4   9  117.06    4.25
   1   4  -9  117.50    4.43
  -1  -4   9  120.98    4.49
  -1  -4   8  209.47    5.59
  -1  -4   8  209.82    6.71
  -1  -4   8  215.54    6.04
   1   4  -8  207.95    5.94
  -1  -4   7   62.35    3.45
  -1  -4   7   52.86    3.14
  -1  -4   7   53.32    2.44
  -1  -4   7   57.23    2.94
   1   4  -7   51.82    2.78
  -1  -4   6  113.39    4.39
  -1  -4   6   98.42    3.98
  -1  -4   6  100.10    3.13
  -1  -4   6  106.13    3.85
   1   4  -6  103.31    3.82
  -1  -4   5    0.99    1.11
  -1  -4   5   -1.06    1.15
  -1  -4   5    0.57    0.59
  -1  -4   5    2.22    0.98
   1   4  -5   -0.42    0.96
  -1  -4   4   98.03    3.63
  -1  -4   4   90.89    2.38
  -1  -4   4   96.30    3.32
  -1  -4   4  100.72    3.47
   1   4  -4   94.71    3.42
  -1  -4   3    0.19    0.89
  -1  -4   3    0.03    0.88
  -1  -4   3    1.29    0.44
   1   4  -3    0.83    1.08
  -1  -4   3    0.79    0.86
  -1  -4   2   14.21    1.15
  -1  -4   2   14.56    1.38
   1   4  -2   15.40    1.49
   1   4  -1   72.70    2.13
  -1  -4   1   75.68    2.69
   1   4  -1   77.07    2.79
   1   4   0 1682.81   22.68
   1   4   0 1773.16   24.63
  -1  -4   0 1787.78   24.64
   1   4   1   46.05    2.01
  -1  -4  -1   48.29    1.94
  -1  -4  -2  141.88    3.33
   1   4   2  138.27    3.31
  -1  -4  -3   16.78    1.09
   1   4   3   15.60    1.10
   1   4   4   27.53    1.20
  -1  -4  -4   28.83    2.02
  -1  -4  -5   37.33    2.28
   1   4   5   36.08    1.20
  -1  -4  -6   47.75    2.74
  -1  -4  -7  164.76    5.36
   1   4   7  171.95    5.43
  -1  -4  -8   37.30    2.81
   1   4   8   40.40    2.79
  -1  -4  -9  108.44    4.85
   1   4   9  110.73    4.77
  -1  -4 -10   41.61    3.28
  -1  -4 -11  315.72    9.47
  -1  -4 -12   -1.91    2.03
  -1  -4 -13   11.42    2.58
  -1  -4 -14  173.36    7.81
  -1  -4 -15   14.66    2.95
  -1  -5  13   -2.75    2.12
  -1  -5  12    0.05    1.99
   1   5 -12   -1.31    1.43
  -1  -5  11  112.12    5.72
   1   5 -11  114.38    4.82
  -1  -5  10    5.35    1.28
  -1  -5  10    5.80    2.07
   1   5 -10    1.80    1.24
  -1  -5   9  285.35    8.50
  -1  -5   9  282.86    6.98
   1   5  -9  284.67    7.66
  -1  -5   8    2.86    1.46
  -1  -5   8    4.50    1.07
  -1  -5   8    6.91    1.54
   1   5  -8    3.24    1.40
  -1  -5   7  157.39    4.26
  -1  -5   7  151.10    5.40
   1   5  -7  150.66    5.09
  -1  -5   7  174.92    5.49
  -1  -5   6   50.64    3.12
  -1  -5   6   47.04    2.88
  -1  -5   6   49.63    2.04
   1   5  -6   46.78    2.74
  -1  -5   6   50.20    2.84
  -1  -5   5  240.26    6.59
  -1  -5   5  224.13    4.55
  -1  -5   5  235.04    6.11
   1   5  -5  228.74    6.12
  -1  -5   5  243.07    6.31
  -1  -5   4   15.20    1.71
  -1  -5   4   11.04    1.46
   1   5  -4   14.01    1.63
  -1  -5   4   17.04    1.64
  -1  -5   4   12.68    0.81
   1   5  -3    9.89    1.48
  -1  -5   3   12.86    1.51
  -1  -5   3    8.78    0.50
  -1  -5   3   11.40    1.35
  -1  -5   2    8.47    1.26
   1   5  -2   10.06    1.42
  -1  -5   1    3.52    1.01
   1   5  -1    4.73    1.25
   1   5  -1    2.66    0.70
  -1  -5   0 3995.93   52.41
   1   5   0 3912.81   52.29
   1   5   0 3741.22   49.89
  -1  -5  -1  965.70   15.02
   1   5   1  955.84   14.94
   1   5   1  938.88   13.65
  -1  -5  -2  183.27    4.34
   1   5   2  179.11    4.30
  -1  -5  -3  117.88    3.17
   1   5   3  115.17    3.13
   1   5   4  188.10    4.04
   1   5   5   73.12    2.13
  -1  -5  -5   76.75    3.30
   1   5   6  147.29    3.01
  -1  -5  -6  155.16    5.05
  -1  -5  -6  149.41    2.74
  -1  -5  -7   46.77    2.94
  -1  -5  -8    2.67    1.45
  -1  -5  -9  343.28    9.26
  -1  -5 -10   15.47    2.32
  -1  -5 -11   37.82    3.36
  -1  -5 -12    8.94    2.14
  -1  -5 -13  189.26    7.93
  -1  -5 -14   13.47    2.84
  -1  -6  13   -2.69    2.14
  -1  -6  12    2.31    2.09
   1   6 -12    2.27    1.60
  -1  -6  11   48.06    4.00
   1   6 -11   52.17    3.52
  -1  -6  10   92.71    5.01
  -1  -6  10   90.41    3.75
   1   6 -10   85.21    4.34
  -1  -6   9   42.40    2.43
  -1  -6   9   45.86    3.44
   1   6  -9   39.97    3.00
  -1  -6   8   48.88    2.37
  -1  -6   8   46.31    3.28
   1   6  -8   47.26    3.13
  -1  -6   8   51.81    3.25
  -1  -6   7  242.22    7.13
  -1  -6   7  229.76    5.26
  -1  -6   7  259.61    7.22
   1   6  -7  251.54    7.09
  -1  -6   6  160.51    5.66
  -1  -6   6  135.58    4.87
  -1  -6   6  134.01    3.40
   1   6  -6  136.33    4.99
  -1  -6   6  153.91    5.27
  -1  -6   5    2.86    1.22
  -1  -6   5    1.97    1.16
   1   6  -5    1.52    1.22
  -1  -6   5    4.85    1.34
  -1  -6   5    3.21    0.62
  -1  -6   4   30.91    2.29
  -1  -6   4   31.88    2.27
   1   6  -4   28.68    2.24
  -1  -6   4   36.45    2.23
  -1  -6   4   27.62    0.96
  -1  -6   4   30.28    0.98
  -1  -6   3  122.82    4.32
   1   6  -3  118.27    4.26
  -1  -6   2  187.31    5.31
   1   6  -2  182.04    5.25
   1   6  -2  179.94    4.47
  -1  -6   1 2106.57   30.36
   1   6  -1 2020.53   30.15
   1   6  -1 2012.72   28.67
   1   6   0    5.53    1.29
  -1  -6   0    3.80    1.22
   1   6   0    3.16    0.49
   1   6   1  509.97    9.56
  -1  -6  -1  520.05    9.65
   1   6   1  504.20    8.09
  -1  -6  -2 1401.54   21.10
   1   6   2 1397.07   20.99
   1   6   2 1383.95   20.18
  -1  -6  -3 1071.96   16.75
   1   6   3 1072.31   16.68
   1   6   3 1102.16   16.76
   1   6   4   11.60    1.19
   1   6   4   10.56    1.33
  -1  -6  -5   81.46    3.65
   1   6   5   78.09    2.51
  -1  -6  -6  247.43    6.84
   1   6   6  245.40    4.83
   1   6   7   34.33    1.33
  -1  -6  -7   32.41    2.63
  -1  -6  -7   34.90    1.09
  -1  -6  -8  400.22    9.94
   1   6   8  401.95    9.75
  -1  -6  -9    0.67    1.52
  -1  -6 -10   14.12    2.36
  -1  -6 -11  126.28    5.98
  -1  -6 -12  261.57    9.15
  -1  -6 -13   -0.96    2.14
  -1  -6 -14    7.50    2.51
   1   7 -12   32.60    3.15
  -1  -7  12   32.84    3.60
   1   7 -11   52.15    3.73
  -1  -7  11   56.26    4.26
   1   7 -10    1.00    1.49
  -1  -7  10    6.16    1.99
   1   7  -9   14.35    2.28
  -1  -7   9   14.76    2.43
  -1  -7   9   11.47    1.35
   1   7  -8  417.93   10.43
  -1  -7   8  414.70    7.95
  -1  -7   8  431.52   10.63
   1   7  -7   42.89    3.10
  -1  -7   7   40.59    1.79
  -1  -7   7   41.63    2.95
   1   7  -6    4.06    1.48
  -1  -7   6    4.55    1.49
  -1  -7   6    4.94    0.70
  -1  -7   6    5.60    1.49
  -1  -7   5  168.42    5.82
   1   7  -5  164.91    5.60
  -1  -7   5  171.62    5.77
  -1  -7   5  162.38    5.15
  -1  -7   5  156.90    2.92
  -1  -7   5  156.42    2.91
  -1  -7   4  198.78    6.13
   1   7  -4  186.48    5.95
  -1  -7   4  203.86    6.23
  -1  -7   3  123.53    4.63
   1   7  -3  121.86    4.55
   1   7  -2  157.67    4.31
  -1  -7   2  166.96    5.29
   1   7  -2  161.47    5.20
   1   7  -1  250.73    5.50
   1   7  -1  251.70    6.58
  -1  -7   1  264.73    6.75
   1   7   0   36.12    1.26
   1   7   0   41.84    2.51
  -1  -7   0   40.99    2.44
   1   7   1 1521.16   21.62
  -1  -7  -1 1570.81   23.83
   1   7   1 1536.15   23.66
   1   7   2  212.40    4.74
  -1  -7  -2  220.26    5.60
   1   7   2  220.33    5.58
   1   7   3   69.52    2.69
   1   7   3   65.53    2.83
   1   7   4   50.14    2.47
   1   7   4   51.32    2.35
   1   7   5  243.74    6.30
   1   7   5  243.10    5.46
   1   7   6   24.38    2.08
  -1  -7  -6   21.90    2.27
   1   7   6   22.51    1.43
  -1  -7  -7  175.91    6.13
   1   7   7  194.41    6.03
   1   7   7  171.31    3.97
  -1  -7  -8    0.71    0.33
   1   7   8    0.66    0.53
  -1  -7  -8   -1.72    1.66
  -1  -7  -9   58.89    3.90
  -1  -7 -10   55.99    3.99
  -1  -7 -11  178.28    7.31
  -1  -7 -12   36.37    3.76
  -1  -7 -13    2.77    2.09
  -1  -7 -14   37.60    4.14
   1   8 -12   10.62    2.36
  -1  -8  12   12.17    2.64
   1   8 -11    5.86    1.95
  -1  -8  11    7.99    2.29
   1   8 -10    1.27    1.64
  -1  -8  10    1.75    1.74
   1   8  -9  129.24    5.77
  -1  -8   9  134.26    5.86
   1   8  -8    6.12    1.82
  -1  -8   8    6.13    1.75
  -1  -8   8    4.74    0.85
   1   8  -7  113.14    5.14
  -1  -8   7  115.89    2.80
  -1  -8   7  122.48    5.06
  -1  -8   7  120.71    2.84
   1   8  -6   38.05    3.07
  -1  -8   6   33.27    1.06
  -1  -8   6   32.50    1.04
   1   8  -5   87.18    4.31
  -1  -8   4   94.15    4.35
   1   8  -4   88.32    4.23
   1   8  -3    2.21    1.40
  -1  -8   3    2.66    1.25
   1   8  -2   14.48    1.42
   1   8  -2   11.71    1.74
  -1  -8   2   13.75    1.84
   1   8  -1   15.66    1.37
  -1  -8   1   15.02    1.76
   1   8  -1   15.51    1.90
   1   8   0 1831.23   25.41
  -1  -8   0 1971.16   29.14
   1   8   0 1882.89   28.83
   1   8   1   12.55    0.98
   1   8   1   15.99    1.82
  -1  -8  -1   14.77    1.72
   1   8   2  350.65    6.86
   1   8   2  361.37    8.06
   1   8   3   80.70    3.02
   1   8   3   87.43    3.45
   1   8   4   28.06    1.97
   1   8   4   27.25    1.92
   1   8   5    3.61    1.05
   1   8   5    4.13    1.00
   1   8   6   27.72    2.22
  -1  -8  -6   26.13    2.60
   1   8   6   25.54    1.75
   1   8   7   26.11    2.35
   1   8   7   26.73    1.63
  -1  -8  -7   24.78    2.59
   1   8   8   30.16    1.58
  -1  -8  -8   30.47    2.89
  -1  -8  -9  343.37    9.87
   1   8   9  324.99    5.64
  -1  -8 -10   45.46    3.70
  -1  -8 -11  113.71    5.95
  -1  -8 -12    0.88    2.10
  -1  -8 -13  124.77    6.76
  -1  -8 -14    5.68    2.36
  -1  -9  12   13.26    2.62
   1   9 -12   10.90    2.61
  -1  -9  11   22.43    3.10
   1   9 -11   11.72    2.41
  -1  -9  10    9.70    2.36
   1   9 -10    9.63    2.41
   1   9  -9   65.57    4.32
   1   9  -8   -0.29    1.57
   1   9  -7   42.50    3.42
   1   9  -6    0.33    1.48
   1   9  -5   29.44    2.78
   1   9  -4    5.97    1.72
   1   9  -3   11.29    1.90
   1   9  -2    0.15    0.79
  -1  -9   2   -0.12    1.20
   1   9  -2   -0.42    1.30
   1   9  -1  115.95    3.77
  -1  -9   1  117.35    4.77
   1   9  -1  117.41    4.76
   1   9   0  409.67    8.01
   1   9   0  400.39    6.62
   1   9   0  403.24    9.50
   1   9   1  362.51    6.66
   1   9   1  359.69    8.68
   1   9   2   65.72    2.53
   1   9   2   62.98    3.25
   1   9   3    0.45    0.72
   1   9   3    0.00    1.03
   1   9   4   61.48    2.93
   1   9   4   62.85    3.06
   1   9   5    5.73    1.24
   1   9   5    5.97    1.25
   1   9   6  128.94    4.87
  -1  -9  -6  129.31    5.42
   1   9   6  127.47    4.10
   1   9   7    5.90    1.13
  -1  -9  -7    6.76    1.78
   1   9   8  116.30    3.55
  -1  -9  -8  118.99    5.54
   1   9   9  316.53    5.97
  -1  -9  -9  334.24    9.77
  -1  -9  -9  282.52    5.02
  -1  -9 -10   40.68    3.75
  -1  -9 -11  249.66    9.08
  -1  -9 -12  116.43    6.39
  -1  -9 -13  101.50    6.26
   1  10 -12    3.16    2.18
   1  10 -11   -3.48    2.07
   1  10 -10   84.70    5.27
   1  10  -9   24.27    3.06
   1  10  -8   97.25    5.37
   1  10  -7    4.72    1.98
   1  10  -6   44.54    3.69
   1  10  -5   -0.74    1.55
   1  10  -4   10.06    2.04
   1  10  -3    4.18    1.77
   1  10  -2    3.24    1.53
   1  10  -2    4.78    1.23
   1  10  -1  172.04    6.18
   1  10  -1  185.05    5.15
   1  10   0  177.53    6.13
   1  10   0  177.95    3.66
   1  10   0  182.37    4.95
   1  10   1  123.48    4.95
   1  10   1  131.95    3.44
   1  10   2   38.81    2.78
   1  10   2   41.71    2.06
   1  10   3   82.50    3.80
   1  10   3   84.54    3.25
   1  10   4   53.26    3.02
   1  10   4   56.07    2.86
   1  10   5  105.81    4.15
   1  10   5  103.54    4.21
   1  10   6   97.19    3.83
   1  10   6  101.16    4.36
   1  10   7   19.48    1.79
  -1 -10  -7   20.55    2.64
   1  10   8  153.19    4.50
  -1 -10  -8  152.10    6.48
   1  10   9  144.67    4.05
  -1 -10  -9  155.79    6.76
  -1 -10  -9  137.58    3.46
  -1 -10 -10   26.24    3.30
  -1 -10 -11   15.59    2.69
  -1 -10 -12   80.98    5.53
   1  11 -11   85.80    5.65
   1  11 -10   -1.95    2.19
   1  11  -9   16.75    2.82
   1  11  -8  118.97    6.22
   1  11  -7  100.32    5.58
   1  11  -6    5.02    2.02
   1  11  -5   27.80    3.08
   1  11  -4   73.56    4.49
   1  11  -3   22.91    2.77
   1  11  -2  298.93    8.96
   1  11  -2  309.32    7.60
   1  11  -1  138.84    5.80
   1  11  -1  139.13    4.62
   1  11   0  298.04    8.57
   1  11   0  292.64    6.94
   1  11   0  287.87    5.21
   1  11   1  265.82    5.53
   1  11   1  257.69    7.81
   1  11   2  378.94    7.61
   1  11   2  359.21    9.40
   1  11   3   21.85    1.78
   1  11   3   23.81    2.35
   1  11   4   78.89    3.48
   1  11   4   80.52    3.93
   1  11   5   52.96    3.06
   1  11   5   52.50    3.11
   1  11   6   44.95    3.06
   1  11   6   45.16    2.81
   1  11   7  356.07    8.36
  -1 -11  -7  353.67   10.49
  -1 -11  -8   81.33    5.01
   1  11   8   79.52    3.44
  -1 -11  -9   60.46    4.50
   1  11   9   56.56    2.69
  -1 -11 -10    4.92    2.39
  -1 -11 -11   76.33    5.39
  -1 -11 -12    4.57    2.46
   1  12  -9   87.32    5.70
   1  12  -8   21.98    3.12
   1  12  -7   19.07    3.00
   1  12  -6    7.96    2.32
   1  12  -5   22.47    3.07
   1  12  -4    1.72    1.90
   1  12  -3   42.22    4.56
   1  12  -2    0.89    1.67
   1  12  -2    0.21    1.11
   1  12  -1   29.52    3.13
   1  12  -1   31.41    2.35
   1  12   0  520.76   12.63
   1  12   0  544.86   10.73
   1  12   0  513.45    8.21
   1  12   1  198.10    4.60
   1  12   1  193.67    7.01
   1  12   2    5.05    0.99
   1  12   2    3.88    1.63
   1  12   3   38.10    2.34
   1  12   3   34.40    2.87
   1  12   4   17.59    1.81
   1  12   4   17.57    2.19
   1  12   5    3.25    1.13
   1  12   5    4.95    1.51
   1  12   6   63.47    3.54
  -1 -12  -7    2.86    2.04
   1  12   7    0.20    1.23
  -1 -12  -8   61.48    4.60
   1  12   8   54.91    3.09
  -1 -12  -9  106.95    6.04
  -1 -12 -10   15.96    3.08
  -1 -12 -11   21.95    3.32
   1  13  -7   28.33    3.65
   1  13  -6    2.05    2.35
   1  13  -5    3.26    2.03
   1  13  -4    1.52    1.93
   1  13  -3   22.46    2.96
   1  13  -2    5.14    1.41
   1  13  -2    6.34    2.11
   1  13  -1  387.58    9.12
   1  13  -1  387.08   11.13
   1  13   0    6.35    1.98
   1  13   0    5.00    2.10
   1  13   1  386.60    8.80
   1  13   1  369.31   10.59
   1  13   2   16.15    2.44
   1  13   3    8.59    1.34
   1  13   3    8.91    2.04
   1  13   4   47.72    2.87
   1  13   4   47.36    3.46
   1  13   5    3.76    1.49
   1  13   6   53.82    3.49
   1  13   7   67.18    3.78
  -1 -13  -7   66.33    4.77
   1  13   8   64.51    3.51
  -1 -13  -8   64.88    4.85
  -1 -13  -9   -0.39    2.31
  -1 -13 -10   41.31    4.31
   1  14  -5    3.36    2.14
   1  14  -4   18.90    3.07
   1  14  -3   -2.34    1.86
   1  14  -2   35.79    3.64
   1  14  -1   37.66    3.69
   1  14   0  303.54    9.95
   1  14   1   46.38    3.85
   1  14   2    2.13    1.68
   1  14   3   37.96    3.45
   1  14   4    7.33    1.95
   1  14   5   40.29    3.42
   1  14   6   12.00    2.27
   1  14   7   50.35    3.49
  -1 -14  -7   49.51    4.42
   1  14   8   15.83    2.20
  -1 -14  -8   16.58    3.13
   1  15  -3   -2.02    2.17
   1  15  -2  101.23    6.06
   1  15  -1  163.38    7.55
   1  15   0   56.13    4.44
   1  15   1   12.29    2.65
   1  15   2  104.09    5.73
   1  15   3   17.79    2.82
   1  15   4   21.07    2.73
   1  15   5    4.94    2.03
   1  15   6    6.94    2.22
   1  15   7  130.42    5.83
   1  16   0   69.45    5.20
   1  16   1  145.78    7.27
   1  16   2    2.76    2.13
   1  16   3   24.04    3.28
   1  16   4   29.89    3.37
   1  16   5    4.26    1.97
   1  16   6   34.44    3.51
   1  17   3    5.26    2.39
   1  17   4    6.64    2.38
   1  17   5   29.33    3.57
   1  17   6    4.98    2.20
  -2  17   4   26.68    3.58
  -2  16   5   10.39    2.50
  -2  16   4   18.27    3.00
  -2  16   3    3.16    1.90
  -2  16   2   28.73    3.49
  -2  16   1   66.33    5.00
  -2  16   0    7.24    2.39
  -2  15   6   50.94    3.89
  -2  15   5    4.35    2.01
  -2  15   4    2.47    1.91
  -2  15   3  157.14    7.06
  -2  15   2   87.77    5.39
  -2  15   1   21.92    3.14
  -2  15   0    4.37    2.26
  -2  15  -1   93.91    5.83
  -2  15  -2   18.00    3.06
  -2  15  -3   17.87    3.22
   2 -14  -7   -2.95    2.11
  -2  14   7   -0.13    1.49
   2 -14  -6   18.12    3.07
  -2  14   6   14.95    2.45
  -2  14   5    2.38    1.87
  -2  14   4  114.57    5.61
  -2  14   3    5.68    2.08
  -2  14   2  142.26    6.48
  -2  14   1   28.29    3.17
  -2  14   0  122.82    6.20
  -2  14  -1    5.99    2.22
  -2  14  -2   16.30    2.79
  -2  14  -3   10.75    2.70
  -2  14  -4    5.10    2.33
  -2  14  -5   20.71    3.31
  -2  14  -6   10.68    2.79
   2 -13  -9   67.29    5.23
   2 -13  -8    5.90    2.39
   2 -13  -7    2.60    2.21
  -2  13   7    0.25    1.54
  -2  13   6   -0.57    1.58
   2 -13  -6    1.25    1.99
  -2  13   5   31.80    2.96
  -2  13   4   50.78    3.64
  -2  13   3  174.31    6.72
  -2  13   2  128.28    4.95
  -2  13   2  118.44    5.67
  -2  13   1   92.81    3.95
  -2  13   1   91.92    5.09
  -2  13   0  122.93    5.94
  -2  13  -1   33.05    3.37
  -2  13  -2    5.49    2.35
  -2  13  -3    9.40    2.37
  -2  13  -4    7.12    2.37
  -2  13  -5   37.53    3.70
  -2  13  -6  263.30    9.69
  -2  13  -7   10.17    2.67
  -2  13  -8   34.40    3.85
   2 -12 -10  176.00    8.15
   2 -12  -9    3.84    2.21
  -2  12   8    3.87    1.35
   2 -12  -8    3.40    2.08
   2 -12  -7   11.37    2.51
  -2  12   7    9.78    1.70
  -2  12   6   -0.17    1.43
   2 -12  -6    0.81    1.89
  -2  12   5   89.80    4.41
  -2  12   4   57.88    3.68
  -2  12   3   78.69    4.30
  -2  12   3   79.67    3.96
  -2  12   2    8.84    1.92
  -2  12   2    5.50    1.31
  -2  12   1  419.84   10.96
  -2  12   1  423.04    9.36
  -2  12   0  121.09    5.61
  -2  12   0  122.36    4.21
  -2  12  -1   17.96    2.62
  -2  12  -1   14.40    1.47
  -2  12  -2   59.36    4.12
  -2  12  -2   62.86    2.62
   2 -12   3   23.63    1.53
  -2  12  -3   25.29    3.06
   2 -12   4   33.44    1.62
  -2  12  -4   35.81    3.50
  -2  12  -5  142.34    6.63
  -2  12  -6   10.30    2.58
  -2  12  -7   11.47    2.68
  -2  12  -8  112.15    6.22
  -2  12  -9   56.88    4.61
  -2  12 -10    3.33    2.08
   2 -11 -11  215.85    9.09
   2 -11 -10    6.34    2.30
   2 -11  -9    0.70    2.12
   2 -11  -8   86.68    5.21
  -2  11   8   91.17    3.84
   2 -11  -7   56.00    4.23
  -2  11   7   57.99    3.21
   2 -11  -6   88.70    4.99
  -2  11   6   82.92    3.96
  -2  11   5   58.38    3.40
  -2  11   4   15.64    2.13
  -2  11   3   17.18    2.18
  -2  11   3   15.45    1.90
  -2  11   2  333.28    9.04
  -2  11   2  333.22    8.21
  -2  11   1    7.73    1.84
  -2  11   1   10.27    1.46
  -2  11   0    7.68    1.91
  -2  11   0    9.93    1.36
  -2  11  -1  191.66    6.86
   2 -11   1  186.09    4.98
  -2  11  -1  187.94    5.01
  -2  11  -2  127.17    5.61
  -2  11  -2  135.23    5.13
   2 -11   2  131.14    3.84
  -2  11  -2  126.43    3.83
   2 -11   3   74.10    2.64
  -2  11  -3   77.65    4.48
   2 -11   4   30.70    1.62
  -2  11  -4   31.89    3.11
   2 -11   5   61.05    2.16
  -2  11  -5   66.18    4.33
   2 -11   6   14.48    1.14
  -2  11  -6   14.08    2.70
  -2  11  -7  320.20   10.16
  -2  11  -8    5.93    2.22
  -2  11  -9    8.34    2.21
  -2  11 -10    7.28    2.64
  -2  11 -11    8.62    2.55
  -2  11 -12    3.18    2.21
   2 -10 -11   19.53    3.08
   2 -10 -10   11.98    2.77
   2 -10  -9   84.89    5.27
   2 -10  -8    3.34    1.84
  -2  10   8    2.47    1.10
  -2  10   7   -0.19    1.05
   2 -10  -7   -1.00    1.92
   2 -10  -7    0.46    1.00
  -2  10   6    4.54    1.27
   2 -10  -6    4.56    1.99
   2 -10  -5    1.40    1.49
  -2  10   5    2.61    1.34
  -2  10   4    3.33    1.46
  -2  10   4    2.50    1.36
  -2  10   3    3.21    1.45
  -2  10   3    2.18    1.03
  -2  10   2    8.60    1.72
  -2  10   2    9.55    1.46
   2 -10  -1   -1.11    1.07
  -2  10   1   -0.28    0.87
  -2  10   0   66.84    3.83
   2 -10   0   75.15    3.07
  -2  10   0   70.98    3.01
  -2  10  -1    5.64    1.71
   2 -10   1    4.98    1.05
  -2  10  -1    4.68    1.01
  -2  10  -2   11.74    1.88
   2 -10   2   12.14    1.26
  -2  10  -2   11.98    1.21
   2 -10   3    6.03    0.98
  -2  10  -3    6.39    1.40
  -2  10  -3    6.80    1.87
   2 -10   4    2.52    0.79
  -2  10  -4    1.25    1.43
   2 -10   5   19.86    1.33
  -2  10  -5   20.33    2.57
   2 -10   6  301.41    5.99
  -2  10  -6  308.87    9.35
   2 -10   7   68.33    2.46
  -2  10  -7   74.64    4.58
   2 -10   8   70.49    2.60
  -2  10  -8   69.18    4.53
  -2  10  -9    7.35    2.17
  -2  10 -10    1.03    1.91
  -2  10 -11    2.54    1.91
  -2  10 -12    1.98    2.02
  -2  10 -13    6.93    2.24
   2  -9 -12   72.95    5.26
   2  -9 -11   13.10    2.80
   2  -9 -10   24.58    3.13
  -2   9   9   27.59    1.79
   2  -9  -9   22.26    3.02
  -2   9   8   22.13    1.71
   2  -9  -8   20.00    2.63
   2  -9  -8   22.80    1.46
  -2   9   7   16.30    1.68
   2  -9  -7   18.09    2.56
   2  -9  -7   17.00    1.48
  -2   9   6   94.34    3.75
   2  -9  -6   91.11    4.70
  -2   9   5  235.74    6.39
   2  -9  -5  241.99    7.57
  -2   9   5  239.80    7.17
  -2   9   4    4.05    1.35
  -2   9   4    3.65    1.27
  -2   9   3 1110.43   19.33
  -2   9   3 1162.80   19.45
  -2   9   2   13.74    1.91
   2  -9  -2   12.87    1.57
  -2   9   2   10.06    1.36
  -2   9   1  181.00    5.85
  -2   9   1  181.44    5.14
   2  -9  -1  181.10    5.13
  -2   9   0   20.76    2.17
  -2   9   0   19.78    1.64
   2  -9   0   21.86    1.76
  -2   9  -1   21.23    2.30
   2  -9   1   21.22    1.59
  -2   9  -1   22.65    1.59
  -2   9  -2    1.64    1.32
   2  -9   2    2.00    0.80
  -2   9  -2    2.58    0.79
  -2   9  -3   13.18    2.03
  -2   9  -3    9.24    1.54
   2  -9   3   11.35    1.14
  -2   9  -4   17.33    2.25
   2  -9   4   17.46    1.28
  -2   9  -4   15.62    1.94
  -2   9  -5   21.70    2.51
   2  -9   5   20.97    1.39
  -2   9  -5   19.99    2.15
  -2   9  -6  198.25    7.02
   2  -9   6  202.54    4.68
  -2   9  -7   56.44    3.83
   2  -9   7   55.99    2.35
  -2   9  -8   23.76    2.72
   2  -9   8   25.27    1.73
  -2   9  -9    5.41    2.00
   2  -9   9    2.11    0.95
  -2   9 -10   20.87    2.81
  -2   9 -11   -0.66    1.88
  -2   9 -12   11.69    2.51
  -2   9 -13   -2.07    1.96
   2  -8 -12   40.97    4.05
   2  -8 -11    5.26    2.18
   2  -8 -10  123.21    6.19
  -2   8   9   20.77    1.40
   2  -8  -9   15.90    2.47
   2  -8  -8   19.69    2.70
  -2   8   8   19.36    1.57
   2  -8  -8   18.94    1.24
  -2   8   7    4.08    1.05
   2  -8  -7    4.30    1.78
   2  -8  -7    7.01    1.02
   2  -8  -6  152.93    5.79
  -2   8   6  154.83    4.59
  -2   8   5  137.40    4.43
   2  -8  -5  138.79    5.34
  -2   8   5  143.86    5.24
  -2   8   4  386.18    8.47
  -2   8   4  393.12    9.13
  -2   8   3    1.92    1.14
  -2   8   3    1.38    0.95
  -2   8   2   34.49    2.40
   2  -8  -2   39.20    2.37
  -2   8   2   35.21    2.22
  -2   8   1  322.80    7.88
  -2   8   1  323.65    7.20
   2  -8  -1  333.42    7.24
  -2   8   0  106.33    4.27
  -2   8   0  103.43    3.43
   2  -8   0  105.13    3.43
  -2   8  -1    2.50    1.41
   2  -8   1    2.96    0.90
  -2   8  -1    3.39    0.79
  -2   8  -2   -0.30    1.20
   2  -8   2    1.68    0.80
  -2   8  -2    1.79    0.71
  -2   8  -3   17.40    1.83
   2  -8   3   16.37    1.30
  -2   8  -3   15.26    2.02
  -2   8  -4   27.60    2.24
   2  -8   4   22.75    1.46
  -2   8  -4   26.87    2.45
   2  -8   5  485.76   11.00
  -2   8  -5  475.11   11.08
  -2   8  -5  491.01   10.78
   2  -8   5  476.43    8.51
  -2   8  -6    1.66    1.56
  -2   8  -6    4.75    1.50
   2  -8   6    1.69    0.77
  -2   8  -7    7.97    1.90
   2  -8   7    7.64    1.09
  -2   8  -8  105.74    5.02
   2  -8   8  106.47    3.58
  -2   8  -9   72.80    4.20
   2  -8   9   71.95    3.08
  -2   8 -10   14.38    2.41
   2  -8  10   14.79    1.67
  -2   8 -11    5.51    1.83
   2  -8  11    1.57    1.24
  -2   8 -12    3.44    2.02
  -2   8 -13    5.29    1.79
   2  -7 -13   22.73    3.45
   2  -7 -12   -0.99    1.95
   2  -7 -11  393.91   11.76
   2  -7 -10   23.97    2.94
  -2   7   9   14.54    1.08
   2  -7  -9   12.73    2.43
   2  -7  -8   18.36    2.44
  -2   7   8   17.14    1.33
   2  -7  -8   18.64    1.02
   2  -7  -7    8.72    1.97
  -2   7   7    9.39    1.18
   2  -7  -7   10.22    1.02
   2  -7  -6  451.70   10.59
  -2   7   6  461.82   10.65
   2  -7  -6  444.77    8.17
   2  -7  -5  608.99   12.51
  -2   7   5  604.51   12.42
   2  -7  -4    8.66    1.68
  -2   7   4    9.00    1.41
   2  -7  -3    0.01    1.06
  -2   7   3    0.26    0.88
   2  -7  -2  602.82   11.22
  -2   7   2  605.45   11.25
  -2   7   1   63.26    2.68
   2  -7  -1   65.55    2.75
  -2   7   0    1.34    1.18
   2  -7   0    1.47    0.84
  -2   7   0    0.23    0.71
  -2   7  -1  239.05    6.45
   2  -7   1  248.49    5.36
  -2   7  -1  239.79    5.29
  -2   7  -2  250.83    6.73
   2  -7   2  250.28    5.27
  -2   7  -2  247.80    5.24
  -2   7  -3  202.77    6.06
   2  -7   3  198.15    4.47
  -2   7  -3  204.36    5.66
  -2   7  -4  338.22    8.51
  -2   7  -4  361.83    8.32
   2  -7   4  359.34    6.72
   2  -7   5   18.32    1.97
  -2   7  -5   16.00    2.02
  -2   7  -5   21.06    2.05
   2  -7   5   18.76    1.37
   2  -7   6  167.27    5.76
  -2   7  -6  152.81    5.54
  -2   7  -6  167.26    5.67
   2  -7   6  156.33    4.14
  -2   7  -7  483.55   11.13
   2  -7   7  501.26    9.26
  -2   7  -8  294.83    8.35
   2  -7   8  305.16    6.85
  -2   7  -9   31.99    2.81
   2  -7   9   33.67    2.23
  -2   7 -10   26.68    2.70
  -2   7 -11   22.59    2.57
   2  -7  12    2.61    1.88
  -2   7 -12    3.80    1.75
   2  -7  13   68.10    4.93
  -2   7 -13   59.85    3.96
   2  -6 -13   32.47    3.88
   2  -6 -12  159.21    7.35
   2  -6 -11   10.35    2.43
   2  -6 -10    4.14    2.03
  -2   6   9  124.40    2.85
   2  -6  -9  122.78    5.62
   2  -6  -8   35.33    3.10
   2  -6  -7  262.00    7.71
   2  -6  -7  264.70    4.94
   2  -6  -6  171.81    5.83
  -2   6   6  179.89    5.90
   2  -6  -6  171.97    3.96
   2  -6  -5  115.20    4.48
  -2   6   5  118.05    4.50
   2  -6  -5  120.88    3.35
   2  -6  -4  215.78    6.03
  -2   6   4  217.49    6.03
   2  -6  -3 1231.47   19.74
  -2   6   3 1225.74   19.73
  -2   6   2    3.72    1.02
   2  -6  -2    4.20    1.20
  -2   6   1    5.01    0.96
   2  -6  -1    5.90    1.07
  -2   6   0  216.34    4.97
   2  -6   0  214.43    4.96
  -2   6  -1  202.18    4.57
   2  -6   1  200.90    4.55
  -2   6  -2  353.62    7.96
   2  -6   2  360.82    6.64
  -2   6  -2  353.96    6.63
  -2   6  -3  238.39    6.40
   2  -6   3  248.23    5.08
  -2   6  -3  250.83    6.17
  -2   6  -4  238.16    6.41
  -2   6  -4  232.68    6.14
   2  -6   4  228.53    4.91
   2  -6   5    3.23    1.17
  -2   6  -5    4.81    1.39
  -2   6  -5    3.75    1.30
   2  -6   5    4.82    0.94
   2  -6   6 1752.92   27.35
  -2   6  -6 1662.60   26.78
  -2   6  -6 1722.77   27.07
   2  -6   6 1672.15   24.76
  -2   6  -7    5.09    1.46
   2  -6   7    3.86    1.44
   2  -6   7    4.89    1.09
  -2   6  -8  185.97    6.04
   2  -6   9   38.76    3.16
  -2   6  -9   32.57    2.66
   2  -6  10   24.70    2.84
  -2   6 -10   24.81    2.46
   2  -6  11   -0.08    1.75
  -2   6 -11   -0.89    1.52
   2  -6  12   42.56    3.87
  -2   6 -12   48.03    3.39
   2  -6  13   22.26    3.24
  -2   6 -13   22.09    2.45
   2  -5 -13   51.66    4.49
   2  -5 -12   37.97    3.77
   2  -5 -11    0.75    1.89
   2  -5 -10  342.72   10.05
   2  -5  -9   29.22    2.96
  -2   5   9   32.54    1.19
   2  -5  -8   21.54    2.44
   2  -5  -7   10.22    1.84
   2  -5  -7    9.77    0.74
  -2   5   7    8.68    1.69
   2  -5  -6   32.61    2.54
  -2   5   6   36.70    2.64
   2  -5  -6   35.97    1.49
   2  -5  -5  272.87    7.01
  -2   5   5  286.80    7.25
   2  -5  -5  276.56    5.38
   2  -5  -4  316.07    7.37
  -2   5   4  319.55    7.46
   2  -5  -4  322.14    6.15
   2  -5  -3   -0.09    1.41
   2  -5  -3    8.85    1.42
  -2   5   3   10.59    1.34
  -2   5   2    0.40    0.91
   2  -5  -2    1.39    1.01
   2  -5  -1  311.82    6.32
  -2   5   1  291.22    6.21
  -2   5   0   88.94    2.82
   2  -5   0   91.32    2.85
   2  -5   1  189.47    4.24
  -2   5  -1  189.36    4.24
   2  -5   2    7.10    0.92
  -2   5  -2   10.16    0.96
  -2   5  -3   12.63    1.63
  -2   5  -3    9.51    1.32
   2  -5   3   11.63    1.06
   2  -5   4    7.24    1.31
  -2   5  -4    7.16    1.47
  -2   5  -4    8.61    1.36
   2  -5   4    4.96    0.87
   2  -5   5  629.26   11.84
  -2   5  -5  617.02   11.68
  -2   5  -5  617.46   11.78
   2  -5   5  602.86   10.32
   2  -5   6  312.65    7.71
  -2   5  -6  298.19    7.32
   2  -5   7  321.24    8.18
   2  -5   7  302.04    7.89
  -2   5  -7  299.25    7.46
   2  -5   8   77.35    4.05
   2  -5   8   79.36    3.99
  -2   5  -8   72.40    3.52
   2  -5   9   66.82    3.90
  -2   5  -9   59.44    3.28
   2  -5  10    7.80    2.02
  -2   5 -10    3.34    1.30
   2  -5  11    5.50    1.93
  -2   5 -11    6.32    1.62
   2  -5  12   58.77    4.34
  -2   5 -12   59.97    3.47
   2  -5  13    5.46    2.13
  -2   5 -13    5.15    1.55
   2  -5  14   96.48    5.96
   2  -4 -14   14.16    2.98
   2  -4 -13   21.36    3.20
   2  -4 -12   26.04    3.34
   2  -4 -11  204.81    7.80
   2  -4 -10    4.32    1.89
   2  -4  -9    1.13    1.62
  -2   4   9    2.62    0.54
   2  -4  -8    0.10    1.42
  -2   4   8   -0.77    1.25
  -2   4   8    0.36    0.56
   2  -4  -7   35.52    2.73
  -2   4   7   31.79    2.49
  -2   4   7   38.68    2.73
   2  -4  -6  290.50    7.48
  -2   4   6  299.22    7.52
  -2   4   6  303.45    7.65
   2  -4  -6  291.67    5.15
   2  -4  -5   41.69    2.55
  -2   4   5   45.16    2.61
   2  -4  -5   41.33    1.59
   2  -4  -4  157.16    4.64
  -2   4   4  160.22    4.72
   2  -4  -4  152.91    3.52
   2  -4  -3    8.51    1.33
   2  -4  -3    9.93    1.44
  -2   4   3   10.55    1.35
   2  -4  -2  222.83    5.24
  -2   4   2  220.82    5.19
   2  -4  -1    3.29    1.10
  -2   4   1    2.77    0.84
   2  -4   0    2.57    1.00
  -2   4   0    2.15    0.81
   2  -4   1    1.90    0.88
  -2   4  -1    2.11    0.72
  -2   4  -2    4.92    0.82
   2  -4   2    5.69    0.90
  -2   4  -3    4.37    1.14
   2  -4   3    3.71    0.85
   2  -4   4   41.55    2.19
  -2   4  -4   42.91    2.30
  -2   4  -4   44.24    2.33
   2  -4   4   41.18    1.84
   2  -4   5  515.39   10.03
  -2   4  -5  517.56   10.07
  -2   4  -5  494.12    9.69
   2  -4   6  755.21   13.53
   2  -4   6  707.19   13.28
  -2   4  -6  710.35   12.79
   2  -4   7  177.73    5.62
   2  -4   7  163.99    5.42
  -2   4  -7  159.88    4.88
   2  -4   8    8.30    1.52
   2  -4   8    9.98    1.76
  -2   4  -8    8.53    1.38
  -2   4  -9   36.40    2.92
   2  -4   9   42.23    3.17
  -2   4  -9   35.95    2.42
  -2   4 -10   18.99    2.40
   2  -4  10   15.95    2.38
  -2   4 -10   16.72    1.84
  -2   4 -11   26.37    2.81
   2  -4  11   34.55    3.24
  -2   4 -11   29.79    2.30
  -2   4 -12    3.56    2.11
   2  -4  12    4.89    1.97
  -2   4 -12    4.15    1.31
  -2   4 -13   12.64    2.57
   2  -4  13   19.14    3.03
  -2   4 -13   15.28    1.85
   2  -4  14   32.68    3.74
   2  -3 -14   38.94    4.13
   2  -3 -13   16.40    3.09
   2  -3 -12   25.29    3.22
   2  -3 -11  154.80    6.70
   2  -3 -10   33.72    3.23
  -2   3  10   37.20    1.18
   2  -3  -9  105.12    4.96
  -2   3   9  106.50    2.49
  -2   3   8  188.01    6.21
   2  -3  -8  178.94    6.14
  -2   3   8  173.55    6.00
  -2   3   8  176.71    3.65
  -2   3   7   98.15    4.17
   2  -3  -7   96.98    4.19
  -2   3   7  101.95    4.24
  -2   3   7   93.86    2.52
   2  -3  -6    8.23    1.63
  -2   3   6    7.99    1.50
  -2   3   6    9.25    1.49
   2  -3  -5 1209.61   19.50
  -2   3   5 1247.59   19.58
  -2   3   5 1247.41   19.78
   2  -3  -5 1190.87   17.14
   2  -3  -4   22.79    1.82
  -2   3   4   22.21    1.73
  -2   3   4   27.47    1.88
   2  -3  -4   22.82    1.19
   2  -3  -3  352.50    7.04
  -2   3   3  360.98    7.31
   2  -3  -3  371.52    7.41
   2  -3  -3  350.18    6.17
   2  -3  -2  201.72    4.54
   2  -3  -2  207.27    4.82
  -2   3   2  200.83    4.73
   2  -3  -1  245.91    5.19
  -2   3   1  256.60    5.21
   2  -3   0   92.56    2.68
  -2   3   0   88.47    2.57
   2  -3   1   57.47    2.02
  -2   3  -1   60.28    1.96
  -2   3  -2  243.96    4.69
   2  -3   2  238.43    4.66
   2  -3   3   28.97    1.62
  -2   3  -3   28.53    1.69
   2  -3   3   31.00    1.55
   2  -3   4  256.25    5.67
  -2   3  -4  256.64    5.83
   2  -3   5  291.79    6.56
  -2   3  -5  296.61    6.69
   2  -3   5  277.97    6.54
  -2   3  -5  285.43    6.20
   2  -3   6  446.94    9.26
  -2   3  -6  435.92    9.08
   2  -3   6  450.56    9.28
  -2   3  -6  434.77    8.50
  -2   3  -7   32.67    2.39
   2  -3   7   31.99    2.41
   2  -3   7   31.36    2.44
  -2   3  -7   33.89    2.04
  -2   3  -8  143.51    5.13
   2  -3   8  147.98    5.23
   2  -3   8  145.00    5.20
  -2   3  -8  137.76    4.28
  -2   3  -9   10.63    1.91
   2  -3   9    8.89    1.74
   2  -3   9    7.59    1.64
  -2   3  -9   12.41    1.49
  -2   3 -10  109.60    5.03
   2  -3  10  111.90    5.07
  -2   3 -10  107.78    3.87
  -2   3 -11   53.63    3.77
   2  -3  11   55.15    3.82
  -2   3 -11   56.19    2.84
  -2   3 -12   11.11    2.31
   2  -3  12   12.20    2.38
  -2   3 -12   10.35    1.45
  -2   3 -13   58.34    4.45
   2  -3  13   69.13    4.77
  -2   3 -13   68.23    3.20
  -2   3 -14   25.81    3.34
   2  -3  14   25.90    3.36
  -2   3 -15   31.89    3.81
   2  -2 -14   24.75    3.38
   2  -2 -13   11.29    2.51
   2  -2 -12  182.12    7.63
   2  -2 -11   37.83    3.50
  -2   2  10   44.86    1.66
   2  -2 -10   44.95    3.52
  -2   2  10   42.80    1.60
  -2   2   9   47.40    1.76
   2  -2  -9   46.37    3.36
  -2   2   9   44.70    1.68
   2  -2  -8    8.41    1.77
  -2   2   8    9.22    0.87
  -2   2   8    7.52    1.53
  -2   2   8    9.27    1.57
  -2   2   8    7.98    0.86
  -2   2   7  603.46   12.03
   2  -2  -7  579.25   11.94
  -2   2   7  581.36    9.29
  -2   2   7  603.65   12.01
  -2   2   7  569.40    9.15
   2  -2  -6  507.76   10.47
  -2   2   6  530.36   10.59
  -2   2   6  519.01    8.44
  -2   2   6  532.60   10.65
  -2   2   6  517.75    8.33
  -2   2   5   92.92    3.48
   2  -2  -5   98.98    3.77
  -2   2   5   97.47    3.62
  -2   2   5   93.02    2.47
  -2   2   4   21.00    1.60
   2  -2  -4   22.70    1.76
  -2   2   4   19.55    1.61
   2  -2  -4   21.06    1.12
  -2   2   4   17.89    1.07
   2  -2  -3  893.70   14.00
  -2   2   3  908.29   14.00
   2  -2  -3  914.49   14.35
  -2   2   3  921.93   14.35
   2  -2  -3  886.71   13.03
  -2   2   3  863.02   13.01
   2  -2  -2  298.69    5.60
  -2   2   2  296.08    5.56
  -2   2   2  306.05    5.95
   2  -2  -2  299.17    5.94
   2  -2  -2  284.51    5.20
   2  -2  -1  100.58    2.50
   2  -2  -1   99.11    2.82
  -2   2   1  102.77    2.81
   2  -2  -1  100.59    2.57
  -2   2   0  584.12    9.24
   2  -2   0  595.23    9.27
   2  -2   1  598.02    9.09
  -2   2  -1  572.14    9.05
  -2   2  -2  446.77    7.35
   2  -2   2  449.51    7.36
   2  -2   3    4.96    0.89
  -2   2  -3    5.77    1.00
  -2   2  -4  184.66    4.45
   2  -2   4  187.86    4.46
   2  -2   4  187.14    4.65
  -2   2  -4  188.15    4.59
   2  -2   5    7.33    1.26
  -2   2  -5    7.56    1.37
   2  -2   5    6.12    1.44
   2  -2   6 1039.10   16.88
  -2   2  -6 1015.47   16.75
   2  -2   6  992.84   16.81
  -2   2  -6 1030.15   15.78
  -2   2  -7    7.02    1.53
   2  -2   7    6.35    1.35
   2  -2   7    3.98    1.39
  -2   2  -7    4.30    0.94
   2  -2   8    9.62    1.58
  -2   2  -8   10.57    1.68
   2  -2   8    7.96    1.57
  -2   2  -8    9.42    1.13
   2  -2   9    6.52    1.54
  -2   2  -9    5.54    1.68
   2  -2   9    6.19    1.58
  -2   2  -9    6.11    1.02
  -2   2 -10    0.53    1.52
   2  -2  10    2.66    1.68
  -2   2 -10    3.23    0.94
  -2   2 -11   13.38    2.29
   2  -2  11   10.63    2.11
  -2   2 -11   12.23    1.35
  -2   2 -12  154.13    6.58
   2  -2  12  154.02    6.49
  -2   2 -12  150.99    4.44
  -2   2 -13   10.33    2.41
   2  -2  13    7.70    2.20
  -2   2 -13    7.77    1.16
  -2   2 -14   61.43    4.71
   2  -2  14   56.37    4.50
  -2   2 -15   35.89    3.92
   2  -2  15   47.82    4.44
   2  -1 -14   11.47    2.79
   2  -1 -13  248.67    9.33
   2  -1 -12    4.38    2.15
   2  -1 -11   18.63    2.73
  -2   1  11   24.88    1.50
  -2   1  10  118.00    3.25
   2  -1 -10  119.08    5.50
  -2   1  10  118.94    3.29
  -2   1   9    9.07    0.98
   2  -1  -9    5.91    1.80
  -2   1   9    8.54    1.05
  -2   1   8  237.31    7.07
   2  -1  -8  236.32    7.10
  -2   1   8  238.18    4.99
  -2   1   8  248.62    6.98
  -2   1   8  240.72    5.03
   2  -1  -7  323.53    8.22
  -2   1   7  359.40    8.51
  -2   1   7  339.89    6.29
  -2   1   7  347.96    8.22
  -2   1   7  338.37    6.32
  -2   1   6  747.02   13.44
   2  -1  -6  704.45   13.32
  -2   1   6  726.01   11.36
  -2   1   6  740.69   13.29
  -2   1   6  727.08   11.33
   2  -1  -5   76.05    3.16
  -2   1   5   79.25    3.18
  -2   1   5   75.97    2.28
  -2   1   5   75.44    3.07
  -2   1   5   73.10    2.26
  -2   1   4  294.28    6.24
   2  -1  -4  278.06    6.22
  -2   1   4  292.80    6.31
  -2   1   4  281.30    5.20
  -2   1   3   20.15    1.37
   2  -1  -3   22.48    1.62
   2  -1  -3   20.66    1.65
  -2   1   3   22.31    1.60
   2  -1  -3   19.58    1.10
  -2   1   3   20.75    1.19
   2  -1  -2   50.15    1.90
  -2   1   2   45.40    1.70
   2  -1  -2   53.94    2.18
  -2   1   2   52.80    2.04
  -2   1   2   43.08    1.53
   2  -1  -2   48.58    1.66
  -2   1   1  348.54    5.72
   2  -1  -1  357.24    5.75
   2  -1  -1  371.55    6.32
  -2   1   1  374.22    6.31
   2  -1  -1  352.58    5.96
  -2   1   1  375.83    6.08
   2  -1   0   69.11    2.00
  -2   1   0   62.06    1.87
  -2   1   0   61.65    1.99
   2  -1   0   61.73    1.86
  -2   1  -1   74.51    2.02
   2  -1   1   78.27    2.10
   2  -1   2  135.02    2.71
  -2   1  -2  139.96    2.71
   2  -1   2  139.84    3.09
   2  -1   3  252.94    4.78
  -2   1  -3  255.50    4.75
   2  -1   3  249.69    5.03
  -2   1  -3  254.54    5.02
  -2   1  -4  356.73    6.67
   2  -1   4  357.74    6.66
   2  -1   4  349.03    6.83
   2  -1   5 1116.37   17.18
  -2   1  -5 1095.20   17.07
   2  -1   5 1091.28   17.19
   2  -1   6  547.74   10.19
  -2   1  -6  535.35   10.11
   2  -1   6  535.20   10.14
  -2   1  -6  526.51    8.84
   2  -1   7  123.93    4.33
  -2   1  -7  120.44    4.27
   2  -1   7  117.26    4.22
  -2   1  -7  118.63    3.18
  -2   1  -8    8.91    1.73
   2  -1   8    5.78    1.42
   2  -1   8    4.70    1.37
  -2   1  -8    6.67    0.91
   2  -1   9    1.90    1.32
  -2   1  -9    3.62    1.52
   2  -1   9    0.80    1.35
  -2   1  -9    1.08    0.67
  -2   1 -10   18.36    2.30
   2  -1  10   14.76    2.15
  -2   1 -10   16.52    1.31
  -2   1 -11   58.97    3.87
   2  -1  11   57.30    3.75
  -2   1 -11   57.32    2.30
  -2   1 -12   24.44    2.98
   2  -1  12   19.41    2.58
  -2   1 -12   20.98    1.46
  -2   1 -13   63.10    4.43
   2  -1  13   68.45    4.58
  -2   1 -13   68.32    2.52
  -2   1 -14  112.66    6.17
   2  -1  14  109.23    5.99
  -2   1 -15   52.11    4.58
   2  -1  15   54.73    4.53
   2   0 -14   60.03    4.92
   2   0 -13   15.07    2.79
   2   0 -12    1.37    1.91
  -2   0  11  137.91    3.93
   2   0 -11  142.41    6.37
  -2   0  11  140.17    4.03
  -2   0  10   11.22    1.20
   2   0 -10   10.68    2.07
  -2   0  10    8.21    1.17
   2   0  -9  150.25    5.86
  -2   0   9  156.12    4.09
  -2   0   9  160.33    5.62
  -2   0   9  153.68    4.14
  -2   0   8    2.05    0.81
   2   0  -8    2.64    1.53
  -2   0   8    1.65    1.28
  -2   0   8    1.42    0.75
  -2   0   8    2.95    1.17
  -2   0   7  390.54    9.06
   2   0  -7  369.55    8.92
  -2   0   7  372.54    7.09
  -2   0   7  386.38    8.62
  -2   0   7  377.56    7.16
  -2   0   6  217.60    5.98
   2   0  -6  214.10    5.97
  -2   0   6  203.70    4.57
  -2   0   6  210.59    5.61
  -2   0   6  205.91    4.61
  -2   0   5  798.28   13.70
   2   0  -5  759.16   13.55
  -2   0   5  787.14   12.27
  -2   0   5  795.75   13.37
  -2   0   5  795.04   12.27
   2   0  -4   34.83    2.05
  -2   0   4   35.52    1.99
  -2   0   4   32.24    1.51
  -2   0   4   34.22    1.90
  -2   0   4   33.94    1.58
   2   0  -3  266.89    5.52
  -2   0   3  262.26    5.45
  -2   0   3  258.72    4.99
   2   0  -3  272.57    5.51
  -2   0   3  265.33    5.43
  -2   0   3  264.18    4.98
   2   0  -2  506.36    8.27
  -2   0   2  517.15    8.28
   2   0  -2  520.10    8.44
  -2   0   2  514.25    8.41
  -2   0   2  508.77    8.12
   2   0  -2  511.25    8.10
   2   0  -1   30.37    1.16
  -2   0   1   30.77    1.16
  -2   0   1   28.77    1.31
   2   0  -1   31.04    1.39
  -2   0   1   30.59    1.34
   2   0  -1   30.49    1.31
  -2   0   0 2072.92   28.26
   2   0   0 2143.40   28.27
  -2   0   0 2076.31   28.36
   2   0   0 2078.78   28.35
   2   0   1   25.86    1.15
  -2   0  -1   25.32    1.10
  -2   0  -1   24.59    1.24
   2   0   1   22.94    1.11
  -2   0  -2  504.63    7.47
   2   0   2  510.46    7.47
  -2   0  -2  521.25    7.79
   2   0   2  508.45    7.84
   2   0   3 1157.25   16.73
  -2   0  -3 1169.27   16.74
  -2   0  -3 1196.72   16.89
   2   0   3 1195.59   16.91
   2   0   4 9869.24  130.07
  -2   0  -4 9894.57  130.08
   2   0   4 9999.00  130.14
  -2   0  -5   41.30    2.21
   2   0   5   36.99    2.06
   2   0   5   36.03    2.06
  -2   0  -6 2438.50   34.89
   2   0   6 2497.63   34.98
  -2   0  -6 2392.81   32.79
   2   0   7  288.53    6.96
  -2   0  -7  281.44    6.87
  -2   0  -7  279.71    5.07
  -2   0  -8  103.52    4.27
   2   0   8  110.72    4.30
  -2   0  -8  107.41    2.68
  -2   0  -9   45.07    3.08
   2   0   9   50.73    3.13
  -2   0  -9   47.24    1.70
  -2   0 -10    9.10    1.98
  -2   0 -10    5.14    0.76
  -2   0 -11   50.96    3.62
  -2   0 -11   53.63    1.92
  -2   0 -12   13.91    2.51
   2   0  12    7.81    1.94
  -2   0 -13  123.68    6.14
   2   0  13  126.81    6.08
  -2   0 -14    1.30    1.96
   2   0  14    0.75    2.12
  -2   0 -15  134.77    7.04
   2   0  15  137.34    6.98
   2   1 -14   26.34    3.49
   2   1 -13   -0.22    2.08
   2   1 -12   38.23    3.76
  -2  -1  12   37.73    2.25
  -2  -1  11    4.48    1.15
   2   1 -11    8.13    2.20
  -2  -1  11    4.85    1.18
  -2  -1  10  184.42    5.00
   2   1 -10  178.34    6.85
  -2  -1  10  184.90    5.05
   2   1  -9   25.28    2.71
  -2  -1   9   22.93    1.69
  -2  -1   9   20.92    2.11
  -2  -1   9   25.56    1.85
  -2  -1   8  136.24    5.29
   2   1  -8  126.51    5.10
  -2  -1   8  137.26    3.99
  -2  -1   8  143.27    4.91
  -2  -1   8  140.42    4.08
  -2  -1   7  250.81    6.98
   2   1  -7  239.29    6.83
  -2  -1   7  243.44    5.56
  -2  -1   7  243.13    6.33
  -2  -1   7  243.24    5.61
   2   1  -6  106.29    4.13
  -2  -1   6  118.45    4.29
  -2  -1   6  109.15    3.77
  -2  -1   6  114.92    3.38
   2   1  -5  310.04    7.12
  -2  -1   5  321.76    7.21
  -2  -1   5  311.89    6.64
  -2  -1   5  311.55    6.22
  -2  -1   4    0.87    0.87
   2   1  -4    0.75    1.08
  -2  -1   4    0.00    0.69
  -2  -1   4    1.08    0.70
  -2  -1   3   80.81    2.69
   2   1  -3   76.87    2.72
  -2  -1   3   80.54    2.47
  -2  -1   3   81.76    2.48
  -2  -1   2   85.56    2.48
   2   1  -2   89.71    2.59
  -2  -1   2   85.41    2.44
   2   1  -2   83.06    2.33
  -2  -1   2   84.15    2.28
  -2  -1   2   86.42    2.46
   2   1  -1    2.19    0.70
  -2  -1   1    2.40    0.63
  -2  -1   1    1.58    0.81
  -2  -1   1    2.94    0.73
   2   1  -1    2.33    0.69
  -2  -1   1    0.81    0.51
   2   1   0  119.93    2.49
  -2  -1   0  117.82    2.45
  -2  -1   0  126.44    2.83
   2   1   0  122.73    2.76
   2   1   1   47.20    1.55
   2   1   1   50.40    1.52
  -2  -1  -1   48.89    1.62
  -2  -1  -2  161.29    3.07
   2   1   2  167.86    2.94
  -2  -1  -2  164.60    2.94
  -2  -1  -2  161.89    3.22
   2   1   2  161.54    3.18
   2   1   3   88.56    2.40
  -2  -1  -3   97.39    2.51
   2   1   3   95.73    2.37
   2   1   3   91.49    2.14
  -2  -1  -3   92.04    2.18
  -2  -1  -4   36.79    1.85
   2   1   4   38.15    1.83
   2   1   4   38.01    1.33
  -2  -1  -5 1148.47   17.43
   2   1   5 1141.38   17.38
   2   1   5 1113.05   15.75
  -2  -1  -6  871.97   14.49
   2   1   6  874.31   14.51
   2   1   6  852.56   12.40
  -2  -1  -7    4.18    0.49
   2   1   7    2.92    1.00
  -2  -1  -7    5.74    1.38
  -2  -1  -8  302.07    4.81
   2   1   8  327.82    7.86
  -2  -1  -8  300.80    7.68
  -2  -1  -9   17.56    0.75
   2   1   9   21.11    2.18
  -2  -1  -9   17.85    2.15
  -2  -1 -10   13.02    2.10
   2   1  10   15.20    1.04
  -2  -1 -11   20.49    2.60
   2   1  11   19.28    1.15
  -2  -1 -12   52.38    3.94
   2   1  12   46.42    1.60
  -2  -1 -13   79.69    4.97
  -2  -1 -14  167.14    7.51
   2   1  14  173.77    7.44
  -2  -1 -15   19.31    3.14
   2   1  15   19.86    3.17
   2   2 -13   24.94    3.55
   2   2 -12   69.73    4.81
  -2  -2  12   70.36    3.38
  -2  -2  11   74.50    3.35
   2   2 -11   74.17    4.65
  -2  -2  11   76.43    3.42
  -2  -2  10   64.38    3.07
   2   2 -10   67.92    4.33
  -2  -2  10   67.89    3.21
   2   2  -9   32.21    2.98
  -2  -2   9   33.41    2.50
  -2  -2   9   33.43    2.19
  -2  -2   8    6.53    1.66
   2   2  -8    8.99    1.89
  -2  -2   8    6.88    1.28
  -2  -2   8    6.73    1.22
  -2  -2   7    3.72    1.41
   2   2  -7    3.48    1.45
  -2  -2   7    6.31    1.20
   2   2  -7    5.99    1.17
  -2  -2   7    6.70    1.21
  -2  -2   6 1096.08   18.23
   2   2  -6 1019.04   17.86
  -2  -2   6 1047.49   16.90
   2   2  -6 1044.53   16.71
  -2  -2   6 1056.88   16.74
   2   2  -5   35.40    2.33
  -2  -2   5   39.52    2.42
  -2  -2   5   39.39    1.98
   2   2  -5   34.61    1.87
  -2  -2   5   38.25    1.98
   2   2  -4   26.40    1.89
  -2  -2   4   29.32    1.96
  -2  -2   4   25.55    1.44
   2   2  -4   26.56    1.70
  -2  -2   4   25.36    1.57
   2   2  -3  241.22    5.39
  -2  -2   3  238.57    5.36
  -2  -2   3  240.02    4.66
   2   2  -3  242.30    5.20
  -2  -2   3  232.29    5.10
  -2  -2   2  509.93    8.56
  -2  -2   2  505.88    8.57
   2   2  -2  498.48    8.59
   2   2  -2  503.49    7.77
  -2  -2   2  490.27    7.77
  -2  -2   1   92.43    2.63
   2   2  -1   90.68    2.67
   2   2  -1   82.92    1.94
  -2  -2   1   85.13    1.94
   2   2   0 1358.94   18.95
  -2  -2   0 1348.48   18.91
   2   2   0 1308.68   17.97
  -2  -2   0 1315.65   17.98
  -2  -2  -1  585.84    9.08
   2   2   1  589.90    9.13
  -2  -2  -1  585.91    9.10
  -2  -2  -2  271.72    4.77
   2   2   2  272.36    4.13
  -2  -2  -2  276.30    4.80
  -2  -2  -3  869.51   12.54
  -2  -2  -3  896.20   13.30
  -2  -2  -3  895.45   12.61
   2   2   3  881.67   12.57
  -2  -2  -4  180.99    3.23
   2   2   4  187.66    4.33
  -2  -2  -4  187.43    4.41
  -2  -2  -4  181.96    3.34
   2   2   4  184.75    3.31
  -2  -2  -5   63.65    1.46
  -2  -2  -5   71.14    2.88
   2   2   5   63.96    2.65
   2   2   5   68.62    1.63
   2   2   6  145.10    4.37
  -2  -2  -6  143.73    4.41
   2   2   6  142.97    2.62
  -2  -2  -7  500.96   10.20
   2   2   7  524.81   10.24
   2   2   7  493.12    7.21
  -2  -2  -8   28.88    2.39
   2   2   8   27.07    2.25
   2   2   8   27.31    0.88
  -2  -2  -9   60.30    3.54
   2   2   9   65.70    3.53
  -2  -2 -10   29.81    2.75
  -2  -2 -11    9.18    2.05
  -2  -2 -12  136.26    6.12
  -2  -2 -13  161.57    7.03
  -2  -2 -14  100.80    5.87
  -2  -2 -15   21.08    3.30
   2   3 -13  104.81    6.05
  -2  -3  13   98.94    5.89
  -2  -3  12    9.89    1.76
   2   3 -12   11.67    2.39
   2   3 -11    5.38    2.32
  -2  -3  11    9.68    1.74
  -2  -3  11    1.88    1.17
   2   3 -10   65.54    4.29
  -2  -3  10   60.39    3.38
  -2  -3  10   62.84    3.20
   2   3  -9   11.80    2.14
  -2  -3   9   13.49    1.66
   2   3  -9   12.02    1.55
  -2  -3   9   15.03    1.71
   2   3  -8  233.51    7.25
  -2  -3   8  240.41    6.32
   2   3  -8  244.16    6.35
  -2  -3   8  235.10    6.23
  -2  -3   7  547.21   11.56
   2   3  -7  495.42   11.08
  -2  -3   7  505.28    9.87
   2   3  -7  508.87   10.08
  -2  -3   7  508.36   10.06
   2   3  -6    2.76    1.30
  -2  -3   6    2.39    1.31
  -2  -3   6    3.62    0.95
  -2  -3   6    2.67    0.83
   2   3  -6    2.20    1.07
  -2  -3   5   71.12    3.25
   2   3  -5   67.75    3.13
  -2  -3   5   69.57    2.49
   2   3  -5   68.61    2.87
  -2  -3   5   64.45    2.74
  -2  -3   4  118.28    3.94
  -2  -3   4  112.94    2.99
  -2  -3   4  119.22    3.71
   2   3  -4  113.62    3.66
  -2  -3   3  128.88    3.84
  -2  -3   3  124.14    2.85
   2   3  -3  127.55    3.74
  -2  -3   3  125.55    3.70
  -2  -3   2  120.30    3.39
   2   3  -2  119.48    3.48
  -2  -3   2  118.77    3.43
  -2  -3   2  113.35    2.40
   2   3  -1  154.19    3.96
  -2  -3   1  159.94    3.91
   2   3  -1  150.35    2.65
  -2  -3   1  156.29    2.66
  -2  -3   0  166.27    3.88
   2   3   0  162.19    3.91
  -2  -3   0  163.88    2.79
   2   3   0  159.25    2.78
   2   3   1  196.65    4.22
  -2  -3  -1  198.01    4.19
   2   3   2  143.41    3.26
  -2  -3  -2  142.49    3.23
   2   3   3  186.23    3.74
  -2  -3  -3  185.97    3.69
  -2  -3  -3  189.01    3.72
  -2  -3  -4   41.44    2.14
  -2  -3  -4   42.21    1.38
  -2  -3  -4   42.85    1.42
  -2  -3  -5  319.29    5.02
  -2  -3  -5  332.09    6.96
  -2  -3  -5  320.23    5.10
  -2  -3  -6  739.23   13.04
   2   3   6  730.65   12.99
  -2  -3  -7    0.28    1.19
   2   3   7    1.31    1.03
  -2  -3  -8   64.31    3.40
   2   3   8   68.83    3.42
  -2  -3  -9    8.02    1.73
   2   3   9    8.10    1.69
  -2  -3 -10    4.44    1.78
  -2  -3 -11  228.39    7.68
  -2  -3 -12   -0.39    1.71
  -2  -3 -13  177.03    7.40
  -2  -3 -14   20.19    3.17
  -2  -3 -15   84.14    5.67
  -2  -4  13   -1.14    2.05
  -2  -4  12    4.81    1.77
  -2  -4  12    1.10    1.93
  -2  -4  11   43.81    3.75
  -2  -4  10  131.57    4.92
  -2  -4  10  142.47    5.14
   2   4 -10  133.50    5.02
  -2  -4   9  273.02    7.09
  -2  -4   9  278.22    7.41
   2   4  -9  281.49    7.45
  -2  -4   8  371.73    8.27
   2   4  -8  379.93    8.80
  -2  -4   8  402.60    9.03
  -2  -4   7  111.07    4.76
  -2  -4   7  106.23    3.60
  -2  -4   7  106.80    4.10
   2   4  -7  107.30    4.14
  -2  -4   6    0.80    1.06
  -2  -4   6   -0.03    0.67
  -2  -4   6   -0.26    0.89
   2   4  -6   -0.17    1.00
  -2  -4   5  421.27    9.19
  -2  -4   5  389.69    7.24
  -2  -4   5  407.53    8.60
   2   4  -5  405.78    8.60
  -2  -4   4   74.72    3.20
  -2  -4   4   64.40    2.04
   2   4  -4   65.99    2.95
  -2  -4   4   69.11    2.99
  -2  -4   3   15.15    1.55
  -2  -4   3   17.47    1.62
   2   4  -3   16.23    1.60
  -2  -4   3   15.19    0.85
   2   4  -2   28.97    1.96
  -2  -4   2   28.81    1.86
  -2  -4   2   31.29    1.62
  -2  -4   2   26.02    0.85
   2   4  -1  200.32    4.89
  -2  -4   1  195.96    4.84
  -2  -4   1  194.60    3.88
   2   4   0  873.93   13.73
  -2  -4   0  886.77   13.74
   2   4   0  847.20   11.70
  -2  -4  -1   20.27    1.48
   2   4   1   18.85    1.50
   2   4   1   18.48    0.68
   2   4   2   23.21    1.49
  -2  -4  -2   21.35    1.35
  -2  -4  -3    0.31    0.63
   2   4   3    0.63    0.71
  -2  -4  -4   40.89    2.24
  -2  -4  -4   42.60    1.58
   2   4   4   40.64    1.58
  -2  -4  -5   75.52    2.01
  -2  -4  -5   78.01    3.16
  -2  -4  -5   78.39    2.01
  -2  -4  -6  254.52    4.30
  -2  -4  -6  267.78    6.60
  -2  -4  -6  268.07    4.29
  -2  -4  -7   15.31    1.92
  -2  -4  -8    4.37    1.44
   2   4   8    4.52    1.24
  -2  -4  -9   -1.21    1.59
   2   4   9   -1.18    1.21
  -2  -4 -10    7.18    1.85
  -2  -4 -11   33.53    3.15
  -2  -4 -12   75.10    4.78
  -2  -4 -13   95.69    5.45
  -2  -4 -14  109.53    6.15
  -2  -4 -15   70.98    5.30
  -2  -5  13    1.30    2.12
  -2  -5  12   29.62    3.42
  -2  -5  11   35.25    3.53
   2   5 -11   34.24    2.88
  -2  -5  10   15.57    1.81
  -2  -5  10   14.26    2.39
   2   5 -10   14.20    2.09
  -2  -5   9    3.35    1.60
  -2  -5   9    3.59    1.19
  -2  -5   9    3.06    1.30
   2   5  -9    1.69    1.32
  -2  -5   8  230.00    7.23
  -2  -5   8  227.82    5.81
   2   5  -8  220.39    6.67
  -2  -5   8  239.43    6.89
  -2  -5   7   39.97    2.11
  -2  -5   7   42.14    2.89
   2   5  -7   38.58    2.72
  -2  -5   7   39.62    2.71
  -2  -5   6  495.82   10.93
  -2  -5   6  451.21    8.32
  -2  -5   6  459.46   10.07
  -2  -5   6  497.39   10.32
   2   5  -6  459.74   10.02
  -2  -5   5   37.97    2.63
  -2  -5   5   32.26    1.50
  -2  -5   5   33.93    2.29
   2   5  -5   34.30    2.45
  -2  -5   5   36.26    2.45
  -2  -5   4   16.14    1.79
  -2  -5   4   11.92    1.29
  -2  -5   4   14.91    0.91
  -2  -5   4   14.65    1.63
   2   5  -4   15.74    1.75
  -2  -5   3   81.95    3.33
   2   5  -3   75.31    3.25
  -2  -5   3   78.78    3.26
  -2  -5   3   77.31    2.77
  -2  -5   3   75.71    1.64
   2   5  -2   80.50    3.22
  -2  -5   2   83.64    3.27
  -2  -5   2   72.86    2.48
   2   5  -1    5.40    1.34
  -2  -5   1    2.39    1.04
   2   5   0   41.33    2.22
  -2  -5   0   44.96    2.22
   2   5   0   39.57    1.37
   2   5   1   49.48    2.32
  -2  -5  -1   50.39    2.29
  -2  -5  -2    1.99    0.80
   2   5   2    0.66    0.89
  -2  -5  -3    3.81    0.80
   2   5   3    3.85    0.96
   2   5   4   58.36    2.11
  -2  -5  -4   54.59    2.05
  -2  -5  -5  532.77    8.82
   2   5   5  547.25    8.82
  -2  -5  -5  565.62   10.69
   2   5   6   19.86    1.12
  -2  -5  -6   21.83    1.14
  -2  -5  -6   24.49    2.22
  -2  -5  -6   21.24    1.05
  -2  -5  -7   44.90    2.85
  -2  -5  -7   44.22    1.21
  -2  -5  -8    6.61    1.69
  -2  -5  -9    6.04    1.80
  -2  -5 -10   31.39    2.92
  -2  -5 -11   62.85    4.14
  -2  -5 -12   80.04    4.92
  -2  -5 -13    5.26    2.24
  -2  -5 -14  176.08    7.88
  -2  -5 -15    1.79    2.68
  -2  -6  13   19.10    3.14
  -2  -6  12    7.41    2.47
   2   6 -12    9.10    2.03
  -2  -6  11    2.57    1.91
   2   6 -11    2.63    1.60
  -2  -6  10    3.22    1.85
   2   6 -10    0.05    1.37
  -2  -6   9   91.36    4.79
  -2  -6   9   99.34    3.72
   2   6  -9  104.52    4.76
  -2  -6   8   54.63    3.56
  -2  -6   8   53.42    2.50
   2   6  -8   53.78    3.35
  -2  -6   7   94.60    4.31
  -2  -6   7   91.37    3.00
   2   6  -7   94.36    4.31
  -2  -6   7   96.29    4.40
  -2  -6   6  378.07    6.97
  -2  -6   6  399.68    9.18
   2   6  -6  398.97    9.42
  -2  -6   6  415.70    9.62
  -2  -6   5  140.31    5.13
  -2  -6   5  126.08    2.90
  -2  -6   5  133.69    4.52
  -2  -6   5  135.16    4.93
   2   6  -5  135.49    4.92
  -2  -6   4   88.18    3.83
  -2  -6   4   85.70    3.74
   2   6  -4   81.14    3.67
  -2  -6   4   77.94    1.72
  -2  -6   4   85.66    3.32
  -2  -6   3   16.54    1.78
   2   6  -3   15.68    1.77
  -2  -6   3   14.22    1.36
  -2  -6   2  163.86    5.01
   2   6  -2  154.59    4.93
   2   6  -1   83.31    3.42
  -2  -6   1   83.23    3.37
   2   6   0 1858.41   26.93
  -2  -6   0 1880.43   27.01
   2   6   0 1755.53   23.66
   2   6   0 1796.96   24.73
  -2  -6  -1   48.76    2.46
   2   6   1   50.43    2.53
   2   6   2  396.07    7.99
  -2  -6  -2  413.78    8.11
  -2  -6  -3 1339.72   20.35
   2   6   3 1344.17   20.25
   2   6   4 1452.70   21.46
  -2  -6  -4 1456.00   21.52
   2   6   5  199.58    4.54
  -2  -6  -5  198.96    4.58
  -2  -6  -6   64.88    3.38
   2   6   6   58.49    2.10
  -2  -6  -6   62.62    2.03
   2   6   7  473.33    7.70
  -2  -6  -7  482.32   10.60
  -2  -6  -7  465.64    7.43
  -2  -6  -8   63.47    3.67
  -2  -6  -9  196.28    6.79
  -2  -6 -10   98.58    4.93
  -2  -6 -11   33.10    3.22
  -2  -6 -12   81.54    5.01
  -2  -6 -13  295.95   10.13
  -2  -6 -14   -0.96    2.09
  -2  -6 -15    1.94    2.26
  -2  -7  12   30.24    3.55
   2   7 -12   22.96    2.94
  -2  -7  11    3.65    2.11
   2   7 -11    5.59    1.93
  -2  -7  10    6.22    2.06
   2   7 -10    9.36    1.99
  -2  -7   9   45.28    3.54
   2   7  -9   43.25    3.37
  -2  -7   8    0.75    0.78
  -2  -7   8    2.42    1.57
   2   7  -8   -0.49    1.41
  -2  -7   7  517.22   11.52
  -2  -7   7  496.88    8.60
   2   7  -7  524.78   11.88
  -2  -7   6   16.05    1.94
  -2  -7   6   16.81    1.03
   2   7  -6   16.81    2.23
  -2  -7   5   35.87    1.07
  -2  -7   5   40.80    2.64
  -2  -7   5   43.73    2.98
   2   7  -5   40.58    2.92
  -2  -7   4   42.45    2.83
   2   7  -4   40.59    2.80
  -2  -7   4   37.83    2.73
  -2  -7   4   43.06    2.48
  -2  -7   3  379.34    8.98
   2   7  -3  355.01    8.70
   2   7  -2   18.62    1.98
  -2  -7   2   23.03    2.14
   2   7  -1    5.67    1.30
  -2  -7   1    4.85    1.23
   2   7   0  470.78    9.60
  -2  -7   0  487.34    9.76
   2   7   0  441.91    6.52
   2   7   0  461.43    7.77
   2   7   1    7.27    1.38
  -2  -7  -1    9.28    1.42
   2   7   1    7.21    0.73
  -2  -7  -2  344.20    7.56
   2   7   2  332.87    7.44
   2   7   2  336.40    6.30
  -2  -7  -3  620.10   11.22
   2   7   3  604.14   11.07
   2   7   4   53.22    2.43
  -2  -7  -4   49.78    2.42
   2   7   5   30.21    1.85
  -2  -7  -5   30.76    1.82
  -2  -7  -6 1118.50   19.20
   2   7   6 1071.02   16.62
   2   7   7   56.73    2.14
  -2  -7  -7   59.61    3.51
  -2  -7  -7   57.70    2.00
  -2  -7  -8   90.01    4.43
  -2  -7  -8   86.65    2.15
  -2  -7  -9   44.28    3.40
  -2  -7 -10   37.60    3.30
  -2  -7 -11  244.05    8.53
  -2  -7 -12  122.99    6.23
  -2  -7 -13   53.66    4.47
  -2  -7 -14   -0.67    2.08
  -2  -8  12    9.65    2.59
   2   8 -12    8.76    2.38
  -2  -8  11    3.00    1.94
   2   8 -11    1.18    1.80
  -2  -8  10   46.68    3.91
   2   8 -10   45.54    3.76
  -2  -8   9    4.66    1.80
   2   8  -9    5.14    1.86
  -2  -8   8  200.89    6.98
   2   8  -8  202.60    7.26
  -2  -8   7    0.89    0.54
  -2  -8   7    3.81    1.60
   2   8  -7    1.54    1.71
  -2  -8   6  116.13    4.72
   2   8  -6  109.78    5.03
  -2  -8   5  155.10    5.13
   2   8  -5  152.91    5.81
   2   8  -4  183.11    6.24
  -2  -8   3    8.26    1.71
   2   8  -3    6.05    1.72
  -2  -8   2    2.14    1.22
   2   8  -2    1.56    1.22
   2   8  -1   67.05    2.52
  -2  -8   1   74.16    3.61
   2   8  -1   74.32    3.66
   2   8   0   59.96    1.39
   2   8   0   62.96    2.28
  -2  -8   0   66.34    3.37
   2   8   0   67.70    3.34
   2   8   1  481.28    7.85
  -2  -8  -1  514.02   10.48
   2   8   1  486.16   10.23
   2   8   2   88.36    2.71
   2   8   2   89.36    3.65
  -2  -8  -2   95.46    3.80
   2   8   3   20.36    1.50
   2   8   3   20.25    1.85
  -2  -8  -3   21.57    1.85
   2   8   4  219.45    5.55
  -2  -8  -4  220.01    5.77
   2   8   4  212.82    5.64
   2   8   5  643.96   12.01
   2   8   5  621.49   11.39
   2   8   6    2.63    1.14
  -2  -8  -6    2.80    1.62
   2   8   6    1.19    0.87
   2   8   7    7.19    1.44
   2   8   7    7.22    1.08
  -2  -8  -7    9.39    1.96
  -2  -8  -8   14.72    2.16
   2   8   8   13.12    1.18
  -2  -8  -8   14.58    1.07
  -2  -8  -9   13.52    2.27
  -2  -8  -9   11.49    0.71
  -2  -8 -10   22.35    2.83
  -2  -8 -11    9.66    2.46
  -2  -8 -12  144.87    6.89
  -2  -8 -13   -0.88    2.25
  -2  -8 -14  376.94   12.39
   2   9 -12    8.59    2.41
  -2  -9  11   33.22    3.63
   2   9 -11   23.23    3.09
  -2  -9  10    4.06    2.00
   2   9 -10   -0.30    1.88
  -2  -9   9    1.93    1.81
   2   9  -9    3.07    1.82
  -2  -9   8   51.16    3.63
   2   9  -8   48.74    3.81
   2   9  -7   16.47    2.52
   2   9  -6   50.64    3.68
   2   9  -5   17.43    2.37
   2   9  -4    5.52    1.68
   2   9  -3   98.87    4.65
   2   9  -2   53.48    3.39
   2   9  -1   25.72    1.68
   2   9  -1   26.73    2.47
  -2  -9   1   28.69    2.59
   2   9   0  384.26    7.15
  -2  -9   0  392.56    9.28
   2   9   0  379.46    9.04
   2   9   1   88.64    2.42
   2   9   1   88.96    2.84
  -2  -9  -1   99.39    4.22
   2   9   1   89.28    4.02
   2   9   2    0.06    0.65
   2   9   2    1.90    1.18
  -2  -9  -2   -0.92    1.21
   2   9   3  233.49    5.49
  -2  -9  -3  236.41    6.53
   2   9   3  231.83    6.44
   2   9   4  171.96    4.91
   2   9   4  162.86    5.13
   2   9   5   40.23    2.45
   2   9   5   36.28    2.32
   2   9   6    2.45    1.18
   2   9   6    0.08    0.93
   2   9   7   18.78    2.19
  -2  -9  -7   14.46    2.30
   2   9   7   14.38    1.49
  -2  -9  -8    1.41    1.69
   2   9   8    1.89    0.81
  -2  -9  -8    1.27    0.71
   2   9   9   97.81    3.00
  -2  -9  -9   99.96    5.25
  -2  -9  -9   94.09    2.62
  -2  -9 -10   15.31    2.61
  -2  -9 -11  275.32    9.49
  -2  -9 -12   96.91    5.83
  -2  -9 -13   88.30    5.77
   2  10 -12    3.17    2.42
   2  10 -11    6.71    2.38
   2  10 -10   42.12    4.01
   2  10  -9   34.23    3.56
   2  10  -8   12.95    2.54
   2  10  -7  195.55    7.61
   2  10  -6   -0.87    1.62
   2  10  -5   51.62    3.82
   2  10  -4    1.96    1.63
   2  10  -3   36.49    3.07
   2  10  -2    7.76    1.92
   2  10  -1    0.34    1.44
   2  10  -1    2.88    0.93
   2  10   0  243.54    7.44
   2  10   0  255.06    5.81
  -2 -10  -1   34.41    2.76
   2  10   1   32.10    2.70
   2  10   1   29.86    1.38
   2  10   1   30.83    1.79
  -2 -10  -2   29.43    2.52
   2  10   2   24.15    2.35
   2  10   2   24.53    1.50
   2  10   3    1.04    1.21
   2  10   3    2.92    0.86
   2  10   4  102.03    4.20
   2  10   4  107.17    3.83
   2  10   5    6.71    1.31
   2  10   5    8.89    1.47
   2  10   6   12.74    1.66
   2  10   6   11.89    1.68
  -2 -10  -7   72.29    4.37
   2  10   7   73.20    3.22
  -2 -10  -8    2.69    1.82
   2  10   8    1.46    0.97
   2  10   9   95.87    3.28
  -2 -10  -9  100.95    5.43
  -2 -10  -9   92.36    2.88
  -2 -10 -10   64.41    4.62
  -2 -10 -11    2.20    2.12
  -2 -10 -12   -0.35    2.07
  -2 -10 -13  199.84    8.75
   2  11 -10    8.56    2.62
   2  11  -9   28.27    3.38
   2  11  -8   36.52    3.79
   2  11  -7  145.29    6.83
   2  11  -6   89.35    5.32
   2  11  -5   22.91    3.01
   2  11  -4    1.60    1.75
   2  11  -3   54.60    3.89
   2  11  -2   54.02    3.78
   2  11  -1    6.64    1.79
   2  11  -1    5.17    1.10
   2  11   0   24.78    2.58
   2  11   0   27.16    1.85
   2  11   1   65.60    3.89
   2  11   1   66.08    2.10
   2  11   1   69.79    2.80
   2  11   2  106.27    4.79
   2  11   2  113.36    3.36
   2  11   3  386.93    9.73
   2  11   3  399.55    8.14
   2  11   4    7.01    1.65
   2  11   4    3.93    1.18
   2  11   5    0.34    1.18
   2  11   5    1.17    1.10
   2  11   6  177.48    5.69
   2  11   6  168.67    5.74
   2  11   7   33.76    2.45
  -2 -11  -7   38.82    3.49
  -2 -11  -8   49.34    2.71
   2  11   8   55.83    2.90
  -2 -11  -9   24.59    3.12
   2  11   9   25.82    1.93
  -2 -11  -9   24.69    1.68
  -2 -11 -10    8.55    2.35
  -2 -11 -11  155.94    7.40
  -2 -11 -12  187.32    8.45
   2  12  -8  213.07    8.80
   2  12  -7   21.39    3.06
   2  12  -6   22.43    3.03
   2  12  -5   16.29    2.80
   2  12  -4   84.41    5.09
   2  12  -3    1.14    1.82
   2  12  -2    6.03    2.14
   2  12  -1    1.03    0.93
   2  12  -1    0.80    1.62
   2  12   0   11.43    1.43
   2  12   0   11.28    2.23
   2  12   1  227.14    5.71
   2  12   1  218.45    4.39
   2  12   1  220.73    7.55
   2  12   2  204.87    4.88
   2  12   2  206.33    7.10
   2  12   3    0.98    0.84
   2  12   3    1.26    1.38
   2  12   4    3.22    1.09
   2  12   4    1.90    1.54
   2  12   5  131.70    4.81
   2  12   5  130.91    5.23
   2  12   6   25.71    2.40
   2  12   6   25.85    2.33
  -2 -12  -7   16.50    2.73
   2  12   7   12.33    1.78
  -2 -12  -8    5.71    2.24
   2  12   8    8.58    1.51
   2  12   9   27.42    2.20
  -2 -12  -9   30.27    3.51
  -2 -12 -10   13.77    2.86
  -2 -12 -11  108.41    6.38
   2  13  -7   52.10    4.65
   2  13  -6   20.55    3.19
   2  13  -5   91.49    5.66
   2  13  -4   -0.13    1.98
   2  13  -3   -0.13    1.95
   2  13  -2    1.74    1.90
   2  13  -1    1.73    1.78
   2  13   0  471.42   12.44
   2  13   1  104.74    3.84
   2  13   1   94.81    5.18
   2  13   2  139.45    4.44
   2  13   2  140.06    6.08
   2  13   3   38.37    3.31
   2  13   4  254.51    6.64
   2  13   4  239.93    7.89
   2  13   5    2.17    1.12
   2  13   5    2.68    1.61
   2  13   6    4.35    1.82
   2  13   7   37.56    2.94
   2  13   8   -1.14    1.24
  -2 -13  -8    0.29    2.05
  -2 -13  -9  227.95    9.09
  -2 -13 -10   44.99    4.30
   2  14  -5    0.47    2.06
   2  14  -4    0.23    2.02
   2  14  -3   11.17    2.68
   2  14  -2    3.36    1.88
   2  14  -1   19.84    3.08
   2  14   0   44.89    4.05
   2  14   1  122.13    6.08
   2  14   2   38.43    3.52
   2  14   3   83.58    4.91
   2  14   4   37.14    3.39
   2  14   5    1.93    1.63
   2  14   6   57.21    3.85
   2  14   7   -0.58    1.43
  -2 -14  -8   45.42    4.25
   2  14   8   42.75    3.11
  -2 -14  -9    2.27    2.23
   2  15  -2    3.66    2.28
   2  15  -1   19.40    3.19
   2  15   0   24.99    3.33
   2  15   1   54.69    4.37
   2  15   2    6.90    2.26
   2  15   3   84.02    5.23
   2  15   4    5.88    2.14
   2  15   5    4.24    1.87
   2  15   6   16.06    2.56
   2  15   7    3.88    1.75
   2  16   0   30.24    3.66
   2  16   1   18.80    3.23
   2  16   2  107.39    6.12
   2  16   3    9.10    2.51
   2  16   4   -3.51    1.99
   2  16   5   51.13    4.15
   2  16   6   28.86    3.32
   2  16   7   18.71    2.74
   2  17   4   92.62    5.85
   2  17   5   32.85    3.76
   2  17   6   22.45    3.08
  -3  16   5   21.90    3.04
  -3  16   4    7.93    2.48
  -3  16   3    4.40    3.22
  -3  16   2    5.32    2.41
  -3  16   1   17.48    3.01
  -3  15   6    6.04    2.16
   3 -15  -5    4.19    2.15
  -3  15   5    1.06    1.76
  -3  15   4    4.02    2.08
  -3  15   3    1.54    2.06
  -3  15   2  137.06    6.68
  -3  15   1   84.23    5.42
  -3  15   0   31.86    3.61
  -3  15  -1    2.36    2.28
  -3  15  -2  182.51    8.20
  -3  15  -3   18.83    3.16
   3 -14  -7    1.00    2.26
   3 -14  -6   -1.26    2.11
  -3  14   6    2.37    1.97
  -3  14   5   16.92    2.73
   3 -14  -5   22.58    3.32
  -3  14   4   12.14    2.37
  -3  14   3  128.34    6.10
  -3  14   2   41.65    3.78
  -3  14   1   72.82    4.86
  -3  14   0   47.73    4.02
  -3  14  -1  342.22   10.90
  -3  14  -2   14.96    2.71
  -3  14  -3    0.88    2.09
  -3  14  -4   25.98    3.48
  -3  14  -5    5.43    2.32
  -3  14  -6   19.12    3.29
   3 -13  -8    3.81    2.35
   3 -13  -7    4.89    2.44
  -3  13   7    1.61    1.56
  -3  13   6   67.55    4.04
   3 -13  -6   71.04    4.94
  -3  13   5   19.89    2.57
   3 -13  -5   24.11    3.14
  -3  13   4   18.93    2.50
  -3  13   3    5.71    1.81
  -3  13   2   51.63    3.91
  -3  13   1  132.02    6.10
  -3  13   0  171.99    7.14
  -3  13  -1   46.05    3.92
   3 -13   2   53.17    2.75
  -3  13  -2   51.71    4.05
   3 -13   3   39.72    2.28
  -3  13  -3   40.99    3.90
  -3  13  -4    0.51    1.91
  -3  13  -5   -2.90    2.09
  -3  13  -6   -1.59    2.09
  -3  13  -7   39.02    3.96
  -3  13  -8   37.49    4.11
   3 -12  -9   95.51    5.98
   3 -12  -8   29.51    3.65
   3 -12  -7   68.09    4.87
  -3  12   7   63.67    3.65
   3 -12  -6   36.58    3.65
  -3  12   6   35.39    2.96
   3 -12  -5   10.38    2.46
  -3  12   5   12.59    2.23
  -3  12   4    1.14    1.48
  -3  12   3   25.65    2.75
  -3  12   2   50.63    3.64
  -3  12   2   51.06    3.21
  -3  12   1    8.53    2.04
  -3  12   1    8.80    1.45
  -3  12   0  149.91    6.35
   3 -12   0  157.76    5.19
  -3  12   0  149.88    5.10
  -3  12  -1    2.07    1.80
   3 -12   1    0.94    1.05
  -3  12  -1    0.17    0.98
  -3  12  -2  150.49    6.61
   3 -12   2  161.39    4.84
  -3  12  -2  149.67    4.69
   3 -12   3   23.78    1.82
  -3  12  -3   22.76    2.84
   3 -12   4   56.54    2.56
  -3  12  -4   58.86    4.34
   3 -12   5    0.71    0.89
  -3  12  -5   -0.02    1.77
  -3  12  -6   28.15    3.34
  -3  12  -7    1.53    1.89
  -3  12  -8    9.36    2.55
  -3  12  -9  128.06    6.72
  -3  12 -10   53.80    4.65
   3 -11 -10  113.20    6.48
   3 -11  -9   26.04    3.48
  -3  11   8    1.82    1.21
   3 -11  -8   -1.92    2.18
   3 -11  -7  257.11    8.90
  -3  11   7  245.53    7.11
   3 -11  -6   53.94    4.07
  -3  11   6   53.09    3.25
  -3  11   5   35.79    2.80
   3 -11  -5   41.74    3.54
  -3  11   4   15.25    2.08
  -3  11   3    6.35    1.75
  -3  11   2   63.84    3.88
  -3  11   2   69.33    3.61
  -3  11   1  229.24    7.55
  -3  11   1  231.93    6.68
   3 -11  -1  236.00    6.66
  -3  11   0   76.24    4.43
   3 -11   0   77.99    3.50
  -3  11   0   78.50    3.52
  -3  11  -1  233.83    7.82
   3 -11   1  243.30    6.28
  -3  11  -1  229.56    6.16
  -3  11  -2   45.04    3.62
   3 -11   2   50.36    2.60
  -3  11  -2   53.77    2.68
   3 -11   3   16.65    1.55
  -3  11  -3   18.92    2.61
   3 -11   4    4.78    1.05
  -3  11  -4    1.92    1.75
   3 -11   5   12.34    1.32
  -3  11  -5   10.83    2.22
   3 -11   6    8.16    1.16
  -3  11  -6   11.04    2.43
   3 -11   7   17.98    1.51
  -3  11  -7   12.67    2.55
  -3  11  -8  142.87    6.76
  -3  11  -9    3.09    2.06
  -3  11 -10   43.95    4.07
  -3  11 -11   12.09    2.74
  -3  11 -12   17.09    3.02
   3 -10 -11   56.46    4.74
   3 -10 -10   30.87    3.66
   3 -10  -9   -0.39    2.14
  -3  10   8  144.15    4.82
   3 -10  -8  148.33    6.74
   3 -10  -7   15.47    2.72
  -3  10   7   16.91    1.91
   3 -10  -6   25.63    2.89
  -3  10   6   24.79    2.37
   3 -10  -6   23.02    1.99
   3 -10  -5   22.34    2.36
  -3  10   5   26.73    2.43
  -3  10   4  292.24    7.93
  -3  10   3   25.29    2.48
  -3  10   3   26.89    2.41
  -3  10   2   64.15    3.69
   3 -10  -2   60.53    3.29
  -3  10   2   59.19    3.28
  -3  10   1    1.12    1.36
   3 -10  -1    2.09    1.08
  -3  10   1    2.12    1.03
  -3  10   0   25.73    2.60
   3 -10   0   27.64    2.14
  -3  10   0   26.73    2.04
  -3  10  -1    4.44    1.70
   3 -10   1    7.81    1.35
  -3  10  -1    4.10    1.00
  -3  10  -2   91.07    4.66
   3 -10   2  101.48    3.59
  -3  10  -2   99.51    3.60
  -3  10  -3    2.56    1.60
   3 -10   3    2.71    0.96
  -3  10  -3    3.00    0.96
  -3  10  -4   39.30    3.29
   3 -10   4   33.08    2.01
  -3  10  -5    4.52    1.69
   3 -10   5    4.92    1.04
  -3  10  -6   38.83    3.41
   3 -10   6   36.20    2.04
  -3  10  -7  139.86    6.30
   3 -10   7  152.35    4.34
  -3  10  -8    4.96    2.09
   3 -10   8    4.63    1.12
  -3  10  -9   14.33    2.62
  -3  10 -10   80.17    5.00
  -3  10 -11   29.50    3.38
  -3  10 -12    4.17    2.14
  -3  10 -13    2.03    2.01
   3  -9 -12   13.21    2.86
   3  -9 -11   31.80    3.74
   3  -9 -10   29.75    3.47
   3  -9  -9  237.83    8.59
   3  -9  -8    4.54    1.94
  -3   9   8    5.93    1.32
  -3   9   7    2.55    1.21
   3  -9  -7    1.94    1.68
   3  -9  -7    3.85    1.03
  -3   9   6   40.14    2.62
   3  -9  -6   45.70    3.56
   3  -9  -6   40.10    2.38
   3  -9  -5    8.43    1.90
  -3   9   5    8.71    1.54
  -3   9   4  389.56    9.16
  -3   9   4  407.64    9.87
  -3   9   3  279.97    7.53
   3  -9  -3  296.81    7.80
  -3   9   3  287.79    7.76
  -3   9   2  150.95    5.42
  -3   9   2  165.65    5.37
   3  -9  -2  157.53    5.23
  -3   9   1    8.30    1.69
   3  -9  -1    5.05    1.37
  -3   9   1    7.83    1.40
  -3   9   0  537.79   11.82
   3  -9   0  547.95   10.71
  -3   9   0  562.03   10.87
  -3   9  -1    3.76    1.50
   3  -9   1    3.54    1.13
  -3   9  -1    1.14    0.86
  -3   9  -2   88.12    4.29
   3  -9   2   89.33    3.29
  -3   9  -2   85.98    3.23
  -3   9  -3  106.53    4.86
   3  -9   3  111.59    3.62
  -3   9  -3  108.19    3.60
  -3   9  -4   62.31    3.79
   3  -9   4   56.84    2.53
  -3   9  -4   63.39    3.54
  -3   9  -5   42.10    3.32
   3  -9   5   44.17    2.25
  -3   9  -6   83.01    4.55
   3  -9   6   86.26    3.15
  -3   9  -7   29.26    2.94
   3  -9   7   29.69    1.98
  -3   9  -8    3.27    1.75
   3  -9   8    1.80    0.97
  -3   9  -9  166.41    6.77
   3  -9   9  160.94    4.88
  -3   9 -10    1.73    1.83
   3  -9  10    6.40    1.37
  -3   9 -11   20.73    2.88
  -3   9 -12    7.28    2.25
  -3   9 -13    8.12    2.37
   3  -8 -12   21.30    3.24
   3  -8 -11  108.00    6.09
   3  -8 -10  147.69    6.84
  -3   8   9   15.82    1.53
   3  -8  -9   21.37    2.92
  -3   8   8   16.84    1.59
   3  -8  -8   17.80    2.61
   3  -8  -8   19.74    1.40
   3  -8  -7   48.41    3.61
   3  -8  -7   40.78    2.11
   3  -8  -6    7.60    1.80
   3  -8  -6    5.36    1.10
   3  -8  -5    2.55    1.50
   3  -8  -5    0.75    1.01
   3  -8  -4    5.58    1.60
  -3   8   4    5.96    1.45
   3  -8  -3  247.78    6.91
  -3   8   3  252.97    6.97
   3  -8  -2  227.49    6.31
  -3   8   2  229.84    6.34
   3  -8  -1  458.74    9.54
  -3   8   1  470.13    9.66
  -3   8   0   99.76    3.71
   3  -8   0  103.81    3.71
  -3   8  -1  115.40    4.59
   3  -8   1  115.17    3.79
  -3   8  -1  107.57    3.68
  -3   8  -2  367.48    9.14
   3  -8   2  389.67    7.81
  -3   8  -2  388.17    7.86
  -3   8  -3   21.05    2.29
   3  -8   3   19.70    1.55
  -3   8  -3   18.97    1.51
  -3   8  -4   19.60    2.28
  -3   8  -4   19.34    2.08
   3  -8   4   14.97    1.39
   3  -8   5    0.40    1.10
  -3   8  -5    1.24    1.42
  -3   8  -5    2.04    1.29
   3  -8   5    2.15    0.98
  -3   8  -6  152.22    5.82
   3  -8   6  154.61    4.38
  -3   8  -7    6.38    1.79
   3  -8   7    6.77    1.26
  -3   8  -8   84.32    4.49
   3  -8   8   89.24    3.45
  -3   8  -9   40.10    3.28
   3  -8   9   34.58    2.31
  -3   8 -10   72.54    4.40
   3  -8  10   70.92    3.38
  -3   8 -11    1.21    1.62
   3  -8  11    1.24    1.23
  -3   8 -12   21.34    2.84
  -3   8 -13   12.22    2.66
   3  -7 -12  127.34    6.73
   3  -7 -11   55.01    4.38
   3  -7 -10  122.55    6.07
  -3   7   9    1.39    0.89
   3  -7  -9   -0.35    1.69
   3  -7  -8   32.57    3.10
   3  -7  -8   34.60    1.63
   3  -7  -7   37.12    3.07
   3  -7  -7   40.57    1.95
   3  -7  -6   34.52    2.84
   3  -7  -6   34.99    1.94
   3  -7  -5   56.46    3.34
  -3   7   5   52.96    3.23
   3  -7  -5   57.33    2.56
   3  -7  -4   18.74    2.04
   3  -7  -4   23.11    2.19
  -3   7   4   21.26    2.05
   3  -7  -3  206.97    6.06
  -3   7   3  212.98    6.15
   3  -7  -2   81.01    3.47
  -3   7   2   81.71    3.48
   3  -7  -1  888.17   15.27
  -3   7   1  903.11   15.37
   3  -7   0  172.91    4.81
  -3   7   0  169.25    4.80
   3  -7   1   84.93    3.12
  -3   7  -1   84.44    3.09
   3  -7   2   -0.17    0.84
  -3   7  -2    0.76    0.75
  -3   7  -3   64.02    3.36
   3  -7   3   66.97    2.63
  -3   7  -3   65.75    2.60
  -3   7  -4   42.75    2.71
   3  -7   4   44.31    2.16
  -3   7  -4   45.62    2.90
   3  -7   5  161.95    5.40
  -3   7  -5  156.18    5.54
   3  -7   5  157.45    4.31
  -3   7  -5  161.67    5.46
   3  -7   6    1.47    1.10
  -3   7  -6    1.17    1.41
  -3   7  -6    0.05    1.09
   3  -7   6    2.69    0.98
  -3   7  -7   59.24    3.58
   3  -7   7   64.87    2.83
  -3   7  -8  121.35    5.10
   3  -7   8  125.32    4.19
  -3   7  -9   71.90    4.05
   3  -7   9   72.58    3.32
  -3   7 -10    7.17    1.86
   3  -7  10    4.53    1.33
  -3   7 -11    7.11    1.94
   3  -7  11    4.56    1.46
  -3   7 -12   12.40    2.25
   3  -7  12   11.61    1.86
  -3   7 -13   18.16    2.53
   3  -6 -13    3.40    2.30
   3  -6 -12   15.93    2.97
   3  -6 -11  136.58    6.58
   3  -6 -10   27.38    3.19
   3  -6  -9   11.43    2.27
   3  -6  -8  136.19    5.76
   3  -6  -8  137.04    3.24
   3  -6  -7   90.22    4.42
   3  -6  -7   91.12    2.76
   3  -6  -6   31.24    2.63
   3  -6  -6   35.84    1.83
   3  -6  -5   55.73    3.18
  -3   6   5   64.88    3.45
   3  -6  -5   60.05    2.47
   3  -6  -4    4.97    1.34
   3  -6  -4    5.09    1.52
  -3   6   4    3.09    1.16
   3  -6  -4    3.33    0.94
   3  -6  -3   36.54    2.37
  -3   6   3   39.11    2.50
   3  -6  -3   37.70    2.50
   3  -6  -2  885.01   15.21
  -3   6   2  889.32   15.29
   3  -6  -1   89.26    3.41
  -3   6   1   92.69    3.43
  -3   6   0   68.33    2.78
   3  -6   0   68.50    2.80
  -3   6  -1  343.76    7.12
   3  -6   1  353.29    7.16
   3  -6   2  484.97    8.93
  -3   6  -2  489.73    8.96
   3  -6   3   20.78    1.53
  -3   6  -3   21.73    1.52
   3  -6   4  124.21    3.65
  -3   6  -4  129.93    4.45
   3  -6   5  161.31    5.14
  -3   6  -5  149.67    5.13
  -3   6  -5  162.55    5.26
   3  -6   5  154.65    4.25
   3  -6   6   25.31    2.27
  -3   6  -6   19.59    2.12
  -3   6  -6   20.23    2.03
   3  -6   6   23.29    1.76
   3  -6   7  804.14   15.31
  -3   6  -7  749.99   14.79
  -3   6  -7  798.49   15.40
   3  -6   7  781.37   13.55
  -3   6  -8    5.47    1.66
   3  -6   8    9.57    1.49
  -3   6  -9  189.15    6.26
  -3   6 -10   45.90    3.19
  -3   6 -11   81.42    4.20
   3  -6  12    1.62    2.11
  -3   6 -12   -0.69    1.52
   3  -6  13    6.18    2.27
  -3   6 -13    0.28    1.40
   3  -6  14    3.44    2.47
   3  -5 -13   16.94    4.15
   3  -5 -12  124.55    6.58
   3  -5 -11    8.23    2.29
   3  -5 -10    2.23    1.76
  -3   5   9  487.58    8.29
   3  -5  -9  460.35   11.79
   3  -5  -8   50.43    3.52
   3  -5  -7    3.37    1.60
   3  -5  -7    1.04    0.60
   3  -5  -6  138.95    5.09
  -3   5   6  152.59    5.41
   3  -5  -6  142.40    3.65
   3  -5  -5  122.35    4.51
  -3   5   5  125.74    4.72
   3  -5  -5  124.63    3.46
   3  -5  -4   57.46    2.94
  -3   5   4   63.84    3.14
   3  -5  -4   57.94    3.08
   3  -5  -4   62.06    2.42
   3  -5  -3  815.02   14.07
   3  -5  -3  824.82   14.55
  -3   5   3  840.87   14.61
   3  -5  -3  818.19   13.40
  -3   5   2    5.69    1.21
   3  -5  -2    6.63    1.40
  -3   5   1    2.73    0.99
   3  -5  -1    1.64    1.05
   3  -5   0 1106.36   17.15
  -3   5   0 1089.06   17.18
   3  -5   1  293.71    6.18
  -3   5  -1  290.08    6.15
   3  -5   2   94.78    3.03
  -3   5  -2   90.98    2.97
   3  -5   3   67.24    2.53
  -3   5  -3   67.64    2.52
   3  -5   4   68.97    2.93
  -3   5  -4   71.31    3.12
   3  -5   4   69.59    2.64
   3  -5   5   56.22    2.81
  -3   5  -5   59.67    3.01
   3  -5   5   49.18    2.31
   3  -5   6 1173.19   19.43
  -3   5  -6 1124.71   19.21
  -3   5  -6 1190.72   19.76
   3  -5   6 1141.22   18.17
  -3   5  -7    0.35    1.19
   3  -5   7    0.54    1.12
   3  -5   7    1.57    1.09
   3  -5   8  223.03    6.87
  -3   5  -8  212.79    6.28
   3  -5   9  166.86    6.16
  -3   5  -9  174.94    5.67
   3  -5  10  102.77    5.04
  -3   5 -10   94.41    4.20
   3  -5  11   17.28    2.54
  -3   5 -11   21.71    2.28
   3  -5  12   21.20    2.92
  -3   5 -12   19.68    2.18
   3  -5  13   11.57    2.51
  -3   5 -13   11.84    1.88
   3  -5  14    2.64    2.06
   3  -4 -13   47.17    4.29
   3  -4 -12    9.41    2.56
   3  -4 -11   55.22    4.24
  -3   4  10  452.98    7.52
   3  -4 -10  450.21   11.89
  -3   4   9    4.27    0.80
   3  -4  -9    5.07    1.97
  -3   4   8    2.03    0.75
   3  -4  -8   -0.28    1.53
  -3   4   7   92.94    4.20
   3  -4  -7   81.71    4.07
   3  -4  -6  162.05    5.36
  -3   4   6  158.77    5.20
  -3   4   6  154.67    5.39
   3  -4  -6  153.63    3.69
   3  -4  -5    4.20    1.39
   3  -4  -5    4.66    0.82
  -3   4   5    4.99    1.26
   3  -4  -4   36.32    2.28
  -3   4   4   37.77    2.44
   3  -4  -4   41.48    2.57
   3  -4  -4   38.67    1.82
   3  -4  -3  103.30    3.52
   3  -4  -3   99.29    3.71
  -3   4   3  107.42    3.78
   3  -4  -3  102.87    3.12
   3  -4  -2   36.14    1.99
  -3   4   2   39.38    2.19
   3  -4  -2   37.77    2.25
   3  -4  -2   36.07    1.86
  -3   4   1  319.11    6.79
   3  -4  -1  332.05    6.85
   3  -4   0  195.27    4.71
  -3   4   0  189.18    4.67
   3  -4   1    5.88    1.14
  -3   4  -1    5.16    0.94
   3  -4   2  134.85    3.65
  -3   4  -2  134.70    3.61
   3  -4   3  128.89    3.58
  -3   4  -3  136.71    3.61
   3  -4   4   44.08    2.17
  -3   4  -4   49.03    2.49
   3  -4   4   41.84    2.06
   3  -4   5   99.80    3.54
  -3   4  -5  100.27    3.78
   3  -4   5   95.87    3.23
   3  -4   6   86.33    3.51
  -3   4  -6   76.85    3.48
  -3   4  -6   79.68    3.31
   3  -4   7    1.25    1.07
   3  -4   7    2.46    1.45
  -3   4  -7    0.78    1.02
   3  -4   8  302.82    7.97
   3  -4   8  291.89    7.95
  -3   4  -8  297.89    7.27
   3  -4   9    2.40    1.49
  -3   4  -9    0.69    1.06
  -3   4 -10   56.07    3.64
   3  -4  10   54.17    3.64
  -3   4 -10   60.48    3.16
  -3   4 -11    3.87    1.80
   3  -4  11    1.83    1.79
  -3   4 -11   -0.50    1.19
  -3   4 -12    8.59    2.18
   3  -4  12    4.13    1.92
  -3   4 -12    5.73    1.46
  -3   4 -13   -1.54    1.91
   3  -4  13   -1.27    2.03
  -3   4 -13    2.54    1.31
   3  -4  14    5.26    2.24
   3  -3 -13   11.88    2.69
   3  -3 -12   39.91    3.93
   3  -3 -11  134.65    6.34
   3  -3 -10   80.91    4.70
  -3   3  10   80.60    2.49
   3  -3  -9   29.87    2.91
  -3   3   9   26.36    1.48
   3  -3  -8   12.51    1.98
  -3   3   8   14.70    1.17
   3  -3  -7    0.73    1.41
  -3   3   7    1.84    1.30
  -3   3   7    0.72    0.72
  -3   3   7   -0.06    1.19
   3  -3  -6   57.78    3.12
  -3   3   6   58.08    3.03
  -3   3   6   55.97    3.11
   3  -3  -6   56.87    2.05
   3  -3  -5   13.04    1.07
   3  -3  -5   14.14    1.70
  -3   3   5   15.81    1.66
  -3   3   5   14.99    1.73
   3  -3  -4  208.88    5.45
  -3   3   4  220.06    5.49
   3  -3  -4  226.31    5.94
  -3   3   4  225.31    5.93
   3  -3  -4  216.96    4.68
   3  -3  -3    2.43    1.05
  -3   3   3    2.67    0.93
   3  -3  -3    2.96    1.20
   3  -3  -3    2.92    0.80
   3  -3  -2  436.24    7.97
   3  -3  -2  461.05    8.68
  -3   3   2  451.19    8.63
   3  -3  -2  441.02    7.92
   3  -3  -1  270.48    5.83
  -3   3   1  264.22    5.78
   3  -3  -1  263.95    5.53
   3  -3   0  519.70    9.04
  -3   3   0  509.64    9.01
   3  -3   1  119.91    3.37
  -3   3  -1  121.85    3.33
   3  -3   2   85.24    2.78
  -3   3  -2   86.62    2.74
   3  -3   3   62.96    2.21
   3  -3   3   64.85    2.40
   3  -3   4   85.35    2.86
  -3   3  -4   86.62    3.15
   3  -3   4   82.49    2.85
   3  -3   5  199.18    5.06
  -3   3  -5  199.85    5.34
  -3   3  -6   25.73    1.94
   3  -3   6   26.44    1.97
  -3   3  -6   28.45    2.12
   3  -3   6   27.76    2.21
  -3   3  -7  156.00    4.95
   3  -3   7  163.95    5.12
   3  -3   7  161.60    5.21
  -3   3  -7  150.29    4.54
  -3   3  -8  161.84    5.45
   3  -3   8  177.59    5.68
   3  -3   8  169.30    5.66
  -3   3  -8  169.79    4.88
   3  -3   9  188.61    6.22
  -3   3  -9  166.49    5.83
   3  -3   9  179.33    6.16
  -3   3  -9  183.42    5.17
  -3   3 -10    5.10    1.76
   3  -3  10    4.20    1.70
  -3   3 -10    2.36    1.05
  -3   3 -11   31.88    3.05
   3  -3  11   27.96    2.89
  -3   3 -11   30.39    2.15
  -3   3 -12   -2.36    1.85
   3  -3  12   -1.47    1.79
  -3   3 -12    0.23    0.96
  -3   3 -13    3.65    2.07
   3  -3  13    1.32    1.89
  -3   3 -13    1.56    1.13
  -3   3 -14   38.21    3.79
   3  -3  14   35.67    3.68
  -3   3 -15   30.40    3.60
   3  -3  15   32.59    3.69
   3  -2 -13   41.57    4.15
   3  -2 -12    4.28    1.98
   3  -2 -11  279.55    9.28
  -3   2  10    4.30    0.93
   3  -2 -10    5.36    2.01
  -3   2  10    4.29    0.88
  -3   2   9   13.96    1.23
   3  -2  -9   14.44    2.33
  -3   2   9   13.09    1.23
  -3   2   8    1.47    0.67
  -3   2   8    1.39    1.31
   3  -2  -8    0.59    1.39
  -3   2   8    0.63    0.76
   3  -2  -7    2.69    1.41
  -3   2   7    4.37    1.42
  -3   2   7    2.33    0.76
  -3   2   7    4.32    1.27
  -3   2   7    2.93    0.86
  -3   2   6   27.73    2.18
   3  -2  -6   27.05    2.27
  -3   2   6   28.42    1.59
  -3   2   6   29.76    2.32
  -3   2   6   24.77    1.50
   3  -2  -5  221.57    5.88
  -3   2   5  237.37    6.02
  -3   2   5  240.40    6.22
   3  -2  -5  226.30    4.79
  -3   2   5  227.87    4.89
   3  -2  -4    5.69    0.82
   3  -2  -4    7.37    1.28
  -3   2   4    4.16    0.95
  -3   2   4    7.16    1.23
   3  -2  -4    7.50    1.42
  -3   2   4    4.25    0.74
   3  -2  -3   51.59    2.28
  -3   2   3   50.00    2.18
   3  -2  -3   56.14    2.64
  -3   2   3   57.36    2.55
   3  -2  -3   48.40    1.97
  -3   2   3   47.82    1.96
   3  -2  -2  613.51   10.16
  -3   2   2  638.20   10.18
   3  -2  -2  644.93   10.98
  -3   2   2  645.71   11.01
  -3   2   2  642.05   10.30
   3  -2  -2  622.94   10.19
   3  -2  -1  600.43    9.40
  -3   2   1  620.38   10.36
   3  -2  -1  621.08   10.36
   3  -2  -1  608.27    9.98
   3  -2   0  485.26    8.49
  -3   2   0  501.59    8.53
   3  -2   0  482.78    8.41
   3  -2   1    3.29    1.12
  -3   2  -1    2.57    0.88
   3  -2   2 1350.85   19.72
  -3   2  -2 1367.72   19.74
   3  -2   3   13.61    1.06
   3  -2   3   14.44    1.37
   3  -2   4   37.63    1.81
  -3   2  -4   37.75    1.81
  -3   2  -4   40.52    2.08
   3  -2   5    1.34    0.94
  -3   2  -5    0.57    0.98
  -3   2  -5    1.18    0.94
   3  -2   5    0.64    1.10
  -3   2  -6  255.54    6.10
   3  -2   6  259.76    6.15
   3  -2   6  250.19    6.30
   3  -2   7  707.18   12.82
  -3   2  -7  685.11   12.66
   3  -2   7  664.76   12.79
   3  -2   8  825.95   14.99
  -3   2  -8  794.05   14.74
   3  -2   8  800.10   14.93
  -3   2  -8  791.39   13.38
   3  -2   9   18.91    2.07
  -3   2  -9   14.32    1.97
   3  -2   9   14.15    2.08
  -3   2  -9   16.73    1.47
  -3   2 -10   56.30    3.62
   3  -2  10   56.70    3.61
  -3   2 -10   51.97    2.49
  -3   2 -11   14.34    2.26
   3  -2  11   12.05    2.26
  -3   2 -11   16.16    1.54
  -3   2 -12    9.16    2.18
   3  -2  12    6.19    1.99
  -3   2 -12    6.57    1.19
  -3   2 -13   54.01    4.22
   3  -2  13   51.49    4.08
  -3   2 -13   53.26    2.56
  -3   2 -14    2.41    2.15
   3  -2  14    0.30    1.86
  -3   2 -15   -0.28    2.00
   3  -2  15    1.50    2.23
   3  -1 -13    5.41    2.47
   3  -1 -12  188.58    7.81
   3  -1 -11    7.75    2.18
  -3   1  11    8.15    1.20
  -3   1  10  160.72    4.27
   3  -1 -10  149.13    6.29
  -3   1  10  152.15    4.16
  -3   1   9  102.92    3.29
   3  -1  -9  100.26    4.91
  -3   1   9   97.42    3.23
  -3   1   8   49.45    3.23
   3  -1  -8   41.65    3.08
  -3   1   8   45.75    2.14
  -3   1   8   46.94    3.00
  -3   1   8   43.55    2.13
   3  -1  -7   86.34    3.99
  -3   1   7   84.45    3.94
  -3   1   7   87.58    2.91
  -3   1   7   92.15    4.00
  -3   1   7   88.66    2.96
  -3   1   6  187.01    5.55
   3  -1  -6  173.21    5.41
  -3   1   6  176.07    4.38
  -3   1   6  194.25    5.63
  -3   1   6  185.46    4.43
   3  -1  -5    7.75    1.48
  -3   1   5    8.92    1.38
  -3   1   5    6.76    0.97
  -3   1   5    7.95    1.30
  -3   1   5    7.43    1.10
  -3   1   4   37.66    2.03
   3  -1  -4   37.18    2.14
   3  -1  -4   36.72    2.26
  -3   1   4   41.43    2.25
  -3   1   4   34.91    1.77
   3  -1  -4   36.65    1.71
   3  -1  -3 2301.09   32.55
  -3   1   3 2300.51   32.51
  -3   1   3 2376.28   33.14
   3  -1  -3 2387.78   33.12
  -3   1   3 2300.99   32.12
   3  -1  -3 2285.81   32.09
   3  -1  -2  162.93    3.74
  -3   1   2  165.57    3.72
  -3   1   2  169.36    4.27
   3  -1  -2  170.73    4.28
   3  -1  -2  160.17    3.78
  -3   1   2  171.26    3.90
  -3   1   1   95.79    2.31
   3  -1  -1  102.14    2.39
   3  -1  -1  104.95    3.05
  -3   1   1  103.33    2.97
   3  -1  -1   94.85    2.78
  -3   1   1  103.30    2.92
   3  -1   0   58.38    1.41
   3  -1   0   61.42    2.24
  -3   1   0   61.19    2.16
   3  -1   0   57.42    2.10
  -3   1   0   63.63    2.29
   3  -1   1  216.94    4.48
  -3   1  -1  208.18    4.41
   3  -1   1  208.02    4.45
   3  -1   2  189.37    3.25
   3  -1   2  190.66    4.20
   3  -1   2  183.72    4.17
  -3   1  -2  199.14    4.22
  -3   1  -3   26.52    1.26
   3  -1   3   27.47    1.24
  -3   1  -3   27.80    1.54
   3  -1   3   26.30    1.69
  -3   1  -4  568.52    9.38
   3  -1   4  572.37    9.41
  -3   1  -4  588.96    9.91
  -3   1  -5   21.30    1.61
   3  -1   5   19.36    1.47
  -3   1  -5   19.82    1.54
   3  -1   5   18.19    1.67
   3  -1   6 1953.36   28.43
  -3   1  -6 1910.69   28.34
   3  -1   6 1941.93   28.63
   3  -1   7 1298.66   20.61
  -3   1  -7 1278.78   20.50
   3  -1   7 1278.82   20.66
   3  -1   8  176.00    5.46
  -3   1  -8  175.73    5.43
   3  -1   8  164.52    5.35
  -3   1  -8  164.37    4.16
  -3   1  -9   47.25    3.07
   3  -1   9   50.77    3.08
   3  -1   9   45.55    3.00
  -3   1  -9   46.37    2.08
  -3   1 -10   78.69    4.12
   3  -1  10   75.88    4.00
  -3   1 -10   74.89    2.71
  -3   1 -11   73.12    4.27
   3  -1  11   70.57    4.11
  -3   1 -11   71.10    2.63
  -3   1 -12  108.51    5.37
   3  -1  12  105.62    5.32
  -3   1 -12  102.01    3.22
  -3   1 -13    6.25    2.29
   3  -1  13    5.22    2.10
  -3   1 -13    3.08    0.82
  -3   1 -14    7.24    2.45
   3  -1  14    2.14    2.07
  -3   1 -15   93.37    5.85
   3  -1  15   92.06    5.74
   3   0 -13   21.99    3.30
   3   0 -12   12.98    2.58
   3   0 -11    7.95    2.14
  -3   0  11    9.74    1.46
  -3   0  10  399.11    8.19
   3   0 -10  381.96   10.69
  -3   0  10  414.55    8.35
  -3   0   9   81.43    3.09
   3   0  -9   72.67    4.20
  -3   0   9   82.29    3.15
   3   0  -8   14.59    2.19
  -3   0   8   20.27    2.26
  -3   0   8   17.20    1.56
  -3   0   8   20.52    1.61
  -3   0   8   15.05    1.84
  -3   0   7   82.30    3.84
   3   0  -7   82.21    3.88
  -3   0   7   79.69    2.92
  -3   0   7   75.63    3.55
  -3   0   7   79.21    2.92
   3   0  -6    5.79    1.47
  -3   0   6    5.97    1.31
  -3   0   6    6.05    1.11
  -3   0   6    5.34    0.98
  -3   0   6    7.51    1.35
  -3   0   5  256.12    6.34
   3   0  -5  248.96    6.27
  -3   0   5  245.25    5.47
  -3   0   5  259.68    6.26
  -3   0   5  249.96    5.48
  -3   0   4  409.10    8.07
   3   0  -4  393.24    8.00
  -3   0   4  392.77    7.45
   3   0  -4  401.98    8.05
  -3   0   4  412.14    8.09
  -3   0   4  402.61    7.46
  -3   0   3   40.25    1.92
   3   0  -3   40.33    2.03
  -3   0   3   41.86    2.05
   3   0  -3   42.76    2.14
  -3   0   3   38.63    1.84
   3   0  -2   54.38    2.03
  -3   0   2   57.39    2.03
  -3   0   2   55.33    2.20
   3   0  -2   54.79    2.25
   3   0  -2   53.77    2.07
  -3   0   2   42.36    1.78
   3   0  -1  762.06   11.09
  -3   0   1  758.18   11.11
   3   0  -1  769.02   11.89
  -3   0   1  762.97   11.87
  -3   0   1  767.47   11.88
   3   0  -1  751.42   11.80
  -3   0   0  908.19   12.40
   3   0   0  898.42   12.38
   3   0   0  937.89   13.68
  -3   0   0  926.96   13.66
   3   0   0  917.18   13.74
  -3   0   0  929.01   13.76
  -3   0  -1   63.93    2.24
   3   0   1   61.81    2.14
   3   0   1   62.75    2.10
  -3   0  -1   66.98    2.10
   3   0   2 1253.47   17.12
  -3   0  -2 1280.32   17.12
   3   0   2 1325.27   18.51
  -3   0  -2 1300.46   18.40
   3   0   2 1264.51   18.37
  -3   0  -3  193.97    3.70
   3   0   3  192.41    3.69
  -3   0  -3  198.76    4.09
   3   0   3  192.76    4.18
   3   0   4  858.46   12.98
  -3   0  -4  859.84   12.99
  -3   0  -4  844.34   13.25
   3   0   4  859.90   13.26
   3   0   4  852.27   12.99
   3   0   5 2512.00   35.14
  -3   0  -5 2538.26   35.13
   3   0   5 2497.40   35.34
   3   0   5 2514.58   34.58
   3   0   6   30.51    1.98
  -3   0  -6   31.96    2.01
   3   0   6   34.27    2.21
  -3   0  -7  383.26    8.26
   3   0   7  383.41    8.28
   3   0   7  385.55    8.30
   3   0   8 1356.23   21.88
  -3   0  -8 1330.11   21.82
   3   0   8 1335.00   21.71
  -3   0  -8 1336.82   19.33
   3   0   9  285.77    7.59
  -3   0  -9  273.19    7.48
   3   0   9  261.24    7.26
  -3   0  -9  264.54    5.26
   3   0  10    1.56    1.32
  -3   0 -10   -0.45    1.40
   3   0  10    0.08    1.41
  -3   0 -10   -0.01    0.58
  -3   0 -11    0.32    1.62
   3   0  11   -0.80    1.60
  -3   0 -11    0.66    0.62
  -3   0 -12    6.93    1.90
   3   0  12    2.86    1.75
  -3   0 -12    3.19    0.65
  -3   0 -13    1.99    1.83
   3   0  13    3.06    1.80
  -3   0 -13    2.31    0.58
  -3   0 -14   60.05    4.51
   3   0  14   65.98    4.59
  -3   0 -15    1.03    2.08
   3   0  15    7.81    2.64
   3   1 -13   14.59    2.95
   3   1 -12   -3.25    2.19
   3   1 -11  282.25    9.35
  -3  -1  11  289.44    7.09
  -3  -1  10    6.36    1.37
  -3  -1  10    5.20    1.29
   3   1 -10    1.90    1.76
  -3  -1   9    6.99    1.33
   3   1  -9    9.61    2.05
  -3  -1   9    7.02    1.36
   3   1  -8   56.16    3.56
  -3  -1   8   59.19    2.74
  -3  -1   8   59.63    3.28
  -3  -1   8   62.77    2.87
   3   1  -7    9.59    1.75
  -3  -1   7   11.22    1.70
  -3  -1   7   10.70    1.40
  -3  -1   7    8.54    1.21
  -3  -1   7    8.76    1.45
  -3  -1   6  111.29    4.22
   3   1  -6  108.36    4.19
  -3  -1   6  105.35    3.51
  -3  -1   6  111.10    3.94
  -3  -1   6  109.82    3.58
  -3  -1   5  145.88    4.59
   3   1  -5  140.74    4.56
  -3  -1   5  145.75    4.07
  -3  -1   5  150.51    4.39
  -3  -1   5  145.88    4.08
  -3  -1   4    4.58    0.94
   3   1  -4    4.89    1.16
  -3  -1   4    7.36    1.14
  -3  -1   4    6.88    1.02
   3   1  -4    5.09    1.08
  -3  -1   4    8.12    1.14
  -3  -1   3   21.83    1.50
   3   1  -3   21.65    1.58
  -3  -1   3   19.60    1.38
  -3  -1   3   20.50    1.41
   3   1  -3   22.71    1.58
  -3  -1   3   19.64    1.43
   3   1  -2  674.30   10.87
  -3  -1   2  697.79   10.95
  -3  -1   2  695.04   11.29
  -3  -1   2  684.68   10.97
   3   1  -2  686.22   10.97
  -3  -1   2  695.05   11.23
   3   1  -1   73.04    2.11
  -3  -1   1   78.84    2.16
   3   1  -1   79.86    2.39
  -3  -1   1   71.97    2.25
  -3  -1   1   82.67    2.64
   3   1  -1   77.84    2.53
  -3  -1   0   28.31    1.05
   3   1   0   31.14    1.46
   3   1   0   28.28    1.53
  -3  -1   0   26.76    1.66
  -3  -1   0   27.67    1.35
  -3  -1  -1  180.61    4.04
   3   1   1  177.07    3.95
  -3  -1  -1  186.25    3.80
   3   1   1  182.61    3.82
  -3  -1  -2  772.34   11.00
  -3  -1  -2  791.22   11.96
   3   1   2  794.13   11.93
   3   1   2  777.77   11.90
  -3  -1  -3  366.04    6.11
   3   1   3  359.96    6.10
  -3  -1  -3  373.39    6.14
  -3  -1  -3  369.68    6.45
   3   1   3  366.26    6.41
  -3  -1  -4    3.17    0.99
   3   1   4    2.54    0.81
   3   1   4    3.34    1.01
   3   1   4    3.76    0.83
  -3  -1  -4    3.14    0.94
  -3  -1  -5  381.55    7.27
   3   1   5  380.87    7.28
   3   1   5  382.96    7.20
   3   1   5  368.07    6.49
  -3  -1  -6 1467.02   22.10
   3   1   6 1460.10   22.09
   3   1   6 1448.69   21.87
   3   1   6 1448.99   20.62
  -3  -1  -7  558.38   10.67
   3   1   7  553.59   10.66
   3   1   7  548.98   10.45
   3   1   7  547.53    8.91
   3   1   8  331.65    7.90
  -3  -1  -8  327.55    7.90
   3   1   8  323.71    7.69
   3   1   8  323.30    5.98
   3   1   9  212.30    6.33
  -3  -1  -9  193.39    6.11
  -3  -1  -9  194.30    3.72
   3   1   9  191.39    5.94
   3   1   9  192.03    4.20
  -3  -1 -10    0.09    1.44
  -3  -1 -10    0.45    0.44
   3   1  10    0.88    1.30
   3   1  10    1.46    1.33
   3   1  10   -0.41    0.67
  -3  -1 -11   71.96    4.14
  -3  -1 -11   69.55    1.65
   3   1  11   68.08    3.96
   3   1  11   70.11    2.30
  -3  -1 -12    2.15    1.63
   3   1  12   -0.58    1.69
   3   1  12    3.44    0.78
  -3  -1 -13    0.59    1.85
   3   1  13    0.41    1.67
  -3  -1 -14   24.66    3.22
   3   1  14   22.55    3.04
  -3  -1 -15   38.28    4.02
   3   1  15   38.68    3.88
   3   1  16   -1.40    2.16
   3   2 -13   15.47    2.96
   3   2 -12  109.26    6.06
  -3  -2  12  120.36    4.57
   3   2 -11   29.57    3.39
  -3  -2  11   30.42    2.43
  -3  -2  10  114.55    4.30
   3   2 -10  109.23    5.47
  -3  -2  10  116.11    4.35
   3   2  -9   52.86    3.69
  -3  -2   9   55.89    2.89
  -3  -2   9   58.44    3.36
  -3  -2   9   57.60    3.01
  -3  -2   8   11.90    1.60
   3   2  -8   10.03    2.01
  -3  -2   8   10.15    1.54
  -3  -2   8   16.45    1.68
  -3  -2   7    3.22    1.19
  -3  -2   7    5.24    1.41
   3   2  -7    5.16    1.45
  -3  -2   7    3.78    1.11
  -3  -2   7    4.94    1.14
   3   2  -6    1.37    1.29
  -3  -2   6    2.48    1.10
  -3  -2   6    2.37    1.12
  -3  -2   6    2.44    0.96
  -3  -2   6    0.44    0.79
   3   2  -5  392.59    8.62
  -3  -2   5  417.03    8.85
  -3  -2   5  390.81    8.09
  -3  -2   5  396.91    7.96
  -3  -2   5  409.26    8.21
  -3  -2   4  102.60    3.57
   3   2  -4  100.78    3.56
  -3  -2   4   94.08    3.25
  -3  -2   4   99.28    3.13
  -3  -2   4  102.02    3.39
   3   2  -3  322.65    6.64
  -3  -2   3  331.56    6.78
  -3  -2   3  313.01    6.61
  -3  -2   3  322.92    6.16
   3   2  -3  313.00    6.11
  -3  -2   3  322.68    6.66
  -3  -2   2   50.25    2.09
  -3  -2   2   46.86    2.16
   3   2  -2   47.64    1.84
  -3  -2   2   45.34    1.74
  -3  -2   2   47.96    2.26
  -3  -2   1 1060.13   15.37
  -3  -2   1 1051.38   15.95
   3   2  -1 1018.90   15.02
  -3  -2   1 1034.02   15.06
  -3  -2   1 1065.56   15.99
  -3  -2   0  193.70    4.39
   3   2   0  183.36    3.72
  -3  -2   0  199.99    4.45
  -3  -2   0  186.56    3.74
  -3  -2  -1  221.85    4.67
   3   2   1  219.43    4.25
   3   2   1  221.99    4.66
  -3  -2  -1  228.04    4.75
  -3  -2  -2   17.39    1.33
  -3  -2  -2   19.73    0.76
   3   2   2   17.05    1.25
  -3  -2  -3  468.36    7.71
   3   2   3  464.55    7.15
   3   2   3  467.30    7.73
  -3  -2  -3  465.95    7.75
   3   2   4    9.07    0.93
  -3  -2  -4    8.63    1.20
   3   2   4    9.11    1.01
  -3  -2  -4    8.22    1.00
  -3  -2  -5  104.63    3.29
   3   2   5  102.80    3.22
   3   2   5  104.70    2.99
  -3  -2  -5  101.99    2.63
   3   2   5   99.46    2.55
  -3  -2  -6 1950.93   28.13
   3   2   6 1912.64   28.07
   3   2   6 1885.34   26.16
   3   2   7    4.69    1.13
  -3  -2  -7    4.47    1.42
   3   2   7    5.72    0.76
  -3  -2  -8  278.87    7.17
   3   2   8  287.70    7.22
   3   2   8  270.04    4.87
   3   2   9    3.11    1.29
  -3  -2  -9    0.15    1.31
   3   2   9    0.79    0.51
   3   2  10   -0.52    1.22
   3   2  10   -0.21    0.51
  -3  -2 -10   -0.53    1.40
  -3  -2 -11   18.25    2.42
   3   2  11   18.40    0.85
  -3  -2 -12   15.62    2.42
  -3  -2 -13   50.10    3.99
   3   2  13   52.67    3.86
  -3  -2 -14   53.45    4.36
   3   2  14   52.54    4.09
  -3  -2 -15   34.26    3.77
   3   2  15   41.48    3.89
   3   2  16   -0.14    1.94
   3   3 -13   28.28    3.57
   3   3 -12   49.94    4.35
  -3  -3  12   42.96    3.01
   3   3 -11   11.07    2.52
  -3  -3  11   14.66    1.93
  -3  -3  10  192.76    6.03
   3   3 -10  182.21    7.17
  -3  -3  10  191.84    6.05
   3   3  -9    3.56    1.83
  -3  -3   9   -0.71    1.23
  -3  -3   9    0.55    0.94
  -3  -3   9    2.63    1.27
   3   3  -8   59.44    3.73
  -3  -3   8   70.75    3.32
  -3  -3   8   69.38    3.33
   3   3  -7   56.33    3.39
  -3  -3   7   67.14    3.69
  -3  -3   7   57.60    2.80
  -3  -3   7   61.91    3.05
  -3  -3   6  123.02    4.69
   3   3  -6  110.56    4.40
  -3  -3   6  115.89    3.77
   3   3  -6  115.98    4.12
  -3  -3   6  114.47    4.07
   3   3  -5   13.86    1.68
  -3  -3   5   15.22    1.76
  -3  -3   5   13.08    1.26
  -3  -3   5   12.91    1.43
   3   3  -5   13.72    1.62
  -3  -3   4   93.02    3.51
  -3  -3   4   86.73    2.76
   3   3  -4   89.36    3.38
  -3  -3   4   86.05    3.30
  -3  -3   3  326.63    6.97
  -3  -3   3  319.46    5.94
   3   3  -3  320.68    5.97
   3   3  -3  333.00    7.08
  -3  -3   3  325.91    7.04
  -3  -3   2   80.48    2.78
   3   3  -2   85.04    3.10
  -3  -3   2   84.57    3.02
  -3  -3   2   80.81    2.25
   3   3  -2   79.57    2.23
   3   3  -1    4.64    1.28
  -3  -3   1    5.10    0.99
   3   3  -1    3.94    0.66
  -3  -3   1    2.86    0.48
   3   3   0    4.08    1.21
  -3  -3   0    1.44    0.91
   3   3   0    2.85    0.67
  -3  -3   0    2.16    0.65
   3   3   1  494.16    8.72
  -3  -3  -1  497.12    8.62
   3   3   1  495.19    7.81
  -3  -3  -1  488.92    8.62
  -3  -3  -2    4.34    1.07
  -3  -3  -2    4.75    0.90
  -3  -3  -3    9.47    1.13
  -3  -3  -3    9.27    0.99
   3   3   3    9.79    0.66
  -3  -3  -4   43.20    2.11
  -3  -3  -4   44.59    1.70
  -3  -3  -4   48.03    1.85
  -3  -3  -5   27.87    1.25
  -3  -3  -5   29.15    1.91
  -3  -3  -5   29.05    1.37
  -3  -3  -6  430.93    6.89
   3   3   6  448.42    8.85
  -3  -3  -6  455.69    8.91
  -3  -3  -6  434.01    7.10
   3   3   6  434.87    7.03
  -3  -3  -7  399.43    6.18
   3   3   7  416.48    8.82
  -3  -3  -7  418.51    8.85
   3   3   7  403.94    6.45
  -3  -3  -8   10.43    1.70
   3   3   8   12.87    1.76
  -3  -3  -9   11.35    1.89
   3   3   9   11.31    1.76
  -3  -3 -10   54.45    3.52
  -3  -3 -11   46.57    3.49
  -3  -3 -12  142.75    6.24
  -3  -3 -13   -0.31    1.90
  -3  -3 -14   42.63    4.05
  -3  -3 -15   45.18    4.24
   3   3  15   38.07    3.77
   3   3  16   44.13    4.12
  -3  -4  13  114.73    6.49
  -3  -4  12    9.47    1.92
  -3  -4  12    4.20    2.04
  -3  -4  11   20.42    2.39
  -3  -4  10  217.57    6.75
  -3  -4  10  206.33    6.51
  -3  -4  10  223.84    6.91
  -3  -4   9   15.58    1.78
  -3  -4   9   15.98    1.84
  -3  -4   8   23.22    2.05
  -3  -4   8   22.14    2.05
   3   4  -8   24.24    2.27
  -3  -4   7  131.48    4.18
   3   4  -7  127.74    4.72
  -3  -4   7  129.41    4.68
  -3  -4   6   31.24    2.53
  -3  -4   6   26.54    1.74
   3   4  -6   29.45    2.33
  -3  -4   6   25.98    2.08
  -3  -4   5    0.73    1.06
  -3  -4   5    3.37    0.86
   3   4  -5    0.56    1.04
  -3  -4   5    4.14    1.22
  -3  -4   4  425.17    9.03
  -3  -4   4  407.84    7.30
   3   4  -4  407.33    8.76
  -3  -4   4  430.30    8.92
  -3  -4   3  183.39    5.06
  -3  -4   3  173.54    3.67
   3   4  -3  179.77    5.07
  -3  -4   3  174.28    5.01
  -3  -4   2  150.09    4.21
   3   4  -2  150.21    4.44
  -3  -4   2  151.79    4.45
  -3  -4   2  139.44    2.95
   3   4  -2  146.27    2.97
   3   4  -1  290.35    6.50
  -3  -4   1  295.47    6.48
   3   4  -1  290.55    4.72
  -3  -4   1  282.89    4.71
   3   4   0  331.60    6.93
  -3  -4   0  333.08    6.88
   3   4   0  323.80    5.28
  -3  -4   0  328.98    5.19
  -3  -4  -1    4.64    0.96
   3   4   1    4.24    1.19
   3   4   2   37.06    1.94
  -3  -4  -2   37.62    1.87
   3   4   3  119.25    3.35
  -3  -4  -3  119.91    3.28
  -3  -4  -3  125.31    3.35
  -3  -4  -4   77.21    2.46
  -3  -4  -4   78.98    2.49
  -3  -4  -5  487.13    8.07
  -3  -4  -5  498.47    9.46
  -3  -4  -5  487.24    8.10
  -3  -4  -6  563.40    8.90
  -3  -4  -6  585.53   10.98
  -3  -4  -6  580.49    9.03
  -3  -4  -7   67.29    1.78
  -3  -4  -7   75.52    3.42
  -3  -4  -7   68.40    1.92
  -3  -4  -8   19.70    2.12
  -3  -4  -9   76.40    3.90
   3   4   9   80.21    3.91
  -3  -4 -10   77.04    4.18
  -3  -4 -11   39.53    3.34
  -3  -4 -12   12.50    2.26
  -3  -4 -13   19.85    2.94
  -3  -4 -14   87.52    5.47
  -3  -4 -15  103.49    6.12
   3   4  16    5.04    2.19
  -3  -5  12    3.22    2.07
  -3  -5  12    2.95    2.12
  -3  -5  11  124.90    6.21
  -3  -5  11  136.08    5.65
  -3  -5  10   64.36    4.33
  -3  -5   9   10.98    2.07
  -3  -5   9   10.13    1.50
   3   5  -9   15.99    2.16
  -3  -5   8   13.97    1.58
   3   5  -8   16.70    2.14
  -3  -5   8   10.58    1.70
  -3  -5   7   47.96    2.35
   3   5  -7   47.09    3.02
  -3  -5   7   49.28    3.05
  -3  -5   6   47.09    3.14
  -3  -5   6   40.24    1.99
   3   5  -6   42.40    2.83
  -3  -5   6   43.22    2.80
  -3  -5   5  728.78   13.79
  -3  -5   5  665.47   11.01
   3   5  -5  678.89   13.18
  -3  -5   5  704.05   13.36
  -3  -5   4    8.66    1.42
  -3  -5   4    6.69    0.76
   3   5  -4    6.75    1.46
  -3  -5   4    9.74    1.53
  -3  -5   3  129.41    4.33
  -3  -5   3  128.19    4.39
   3   5  -3  128.07    4.41
  -3  -5   3  122.77    3.69
  -3  -5   3  115.30    2.59
   3   5  -2  274.84    6.66
  -3  -5   2  278.38    6.72
  -3  -5   2  268.20    5.51
  -3  -5   2  261.67    4.25
  -3  -5   1  555.28   10.27
   3   5  -1  540.16   10.18
  -3  -5   1  528.66    8.46
   3   5  -1  507.74    7.42
   3   5   0   76.69    3.15
  -3  -5   0   83.07    3.19
   3   5   0   78.33    1.81
  -3  -5  -1   10.30    1.28
   3   5   1   11.87    1.41
   3   5   2   32.22    1.94
  -3  -5  -2   33.57    1.92
   3   5   3   83.45    2.87
  -3  -5  -3   80.43    2.81
   3   5   4  271.38    5.67
  -3  -5  -4  274.55    5.65
  -3  -5  -4  269.73    5.60
  -3  -5  -5  212.71    4.64
  -3  -5  -5  225.03    5.81
  -3  -5  -5  209.01    4.58
  -3  -5  -6  751.58   11.76
  -3  -5  -6  781.57   13.93
  -3  -5  -6  766.65   11.76
  -3  -5  -7    8.36    1.61
  -3  -5  -7    6.87    0.72
  -3  -5  -7    8.22    0.79
  -3  -5  -8  119.94    4.80
  -3  -5  -9   14.01    2.06
  -3  -5 -10    6.17    1.75
  -3  -5 -11    4.06    1.94
  -3  -5 -12    0.41    1.77
  -3  -5 -13   53.71    4.15
  -3  -5 -14    4.50    2.15
  -3  -5 -15   71.03    5.33
  -3  -6  12   83.69    5.41
  -3  -6  12   72.24    4.54
  -3  -6  11    3.44    2.06
  -3  -6  10   74.79    4.69
   3   6 -10   73.82    4.28
  -3  -6   9    8.11    1.97
  -3  -6   9    8.39    1.41
   3   6  -9   10.43    2.03
  -3  -6   8    2.61    0.94
  -3  -6   8    0.37    1.45
   3   6  -8    0.26    1.39
  -3  -6   7   74.02    3.90
  -3  -6   7   75.66    2.80
   3   6  -7   78.36    4.04
  -3  -6   6  313.54    7.98
  -3  -6   6  308.08    6.10
   3   6  -6  317.34    8.39
  -3  -6   6  319.85    8.42
  -3  -6   5  133.82    5.10
  -3  -6   5  125.42    4.42
  -3  -6   5  125.41    3.04
  -3  -6   5  126.11    4.87
   3   6  -5  122.23    4.83
  -3  -6   4   53.74    3.13
  -3  -6   4   49.66    1.52
  -3  -6   4   52.03    2.59
   3   6  -4   54.52    3.14
  -3  -6   4   53.92    3.06
  -3  -6   3  241.17    6.51
   3   6  -3  232.41    6.56
  -3  -6   3  242.37    6.69
  -3  -6   3  236.45    5.61
   3   6  -2   46.37    2.81
  -3  -6   2   44.21    2.70
  -3  -6   2   40.02    1.93
   3   6  -1  122.28    4.34
  -3  -6   1  127.05    4.40
  -3  -6   0    8.66    1.39
   3   6   0    6.48    1.42
   3   6   0    6.56    0.51
  -3  -6  -1   19.00    1.70
   3   6   1   15.24    1.66
   3   6   2  191.29    5.08
  -3  -6  -2  190.50    5.09
   3   6   2  187.34    3.09
   3   6   3  591.05   10.72
  -3  -6  -3  605.68   10.82
   3   6   4   26.08    1.73
  -3  -6  -4   26.82    1.72
   3   6   5  416.62    7.87
  -3  -6  -5  416.22    7.87
  -3  -6  -5  426.83    7.84
   3   6   6 1131.63   17.15
  -3  -6  -6 1127.44   17.13
  -3  -6  -6 1178.81   19.38
  -3  -6  -6 1137.80   17.01
  -3  -6  -7  200.09    4.43
  -3  -6  -7  213.88    6.45
  -3  -6  -7  220.61    4.46
  -3  -6  -8  243.30    7.16
  -3  -6  -8  236.30    4.42
  -3  -6  -9   10.26    1.89
  -3  -6 -10    8.56    2.02
  -3  -6 -11    9.28    2.13
  -3  -6 -12    6.13    2.12
  -3  -6 -13   28.84    3.32
  -3  -6 -14  124.99    6.63
  -3  -6 -15    6.67    2.52
  -3  -7  12   11.99    2.72
   3   7 -11   13.31    2.64
  -3  -7  11   20.22    3.07
   3   7 -10   99.89    5.22
  -3  -7  10  105.95    5.55
   3   7  -9    0.48    1.62
  -3  -7   9   -0.64    1.59
   3   7  -8   20.31    2.46
  -3  -7   8   19.05    1.49
  -3  -7   8   19.84    2.39
   3   7  -7   30.00    2.82
  -3  -7   7   31.24    2.68
  -3  -7   7   27.35    1.53
   3   7  -6  165.37    6.08
  -3  -7   6  165.24    3.59
  -3  -7   6  159.22    5.53
   3   7  -5    1.07    1.44
  -3  -7   5    3.04    1.16
  -3  -7   5    2.45    0.48
  -3  -7   4  190.53    6.19
  -3  -7   4  180.27    5.18
   3   7  -4  181.97    6.11
  -3  -7   4  186.63    6.16
  -3  -7   3   31.13    1.91
   3   7  -3   34.59    2.65
  -3  -7   3   34.31    2.59
  -3  -7   2  285.38    7.53
   3   7  -2  275.68    7.43
  -3  -7   1   79.01    3.66
   3   7  -1   78.66    3.66
   3   7   0   13.25    0.56
   3   7   0   13.61    0.57
   3   7   0   16.18    1.84
  -3  -7   0   15.65    1.68
   3   7   1  128.87    4.45
  -3  -7  -1  132.97    4.49
   3   7   2   10.71    0.69
   3   7   2    9.96    1.48
  -3  -7  -2   12.30    1.50
  -3  -7  -3    8.54    1.24
   3   7   3    8.37    1.35
  -3  -7  -4   42.31    2.23
   3   7   4   36.44    2.17
   3   7   5  245.26    5.80
  -3  -7  -5  254.78    5.90
   3   7   6    2.85    0.97
  -3  -7  -6    1.54    1.34
  -3  -7  -6    1.48    0.86
  -3  -7  -6    0.51    0.77
  -3  -7  -7  858.82   13.92
  -3  -7  -7  904.33   16.65
  -3  -7  -7  892.21   13.77
  -3  -7  -8   30.91    2.73
  -3  -7  -8   31.95    1.51
  -3  -7  -9    5.87    1.81
  -3  -7  -9    6.75    0.67
  -3  -7 -10   63.43    4.08
  -3  -7 -11    6.43    2.05
  -3  -7 -12    9.45    2.45
  -3  -7 -13   41.18    3.88
  -3  -7 -14   37.50    3.96
  -3  -8  12   21.15    3.29
  -3  -8  11   25.33    3.26
   3   8 -11   22.05    3.06
  -3  -8  10   20.55    2.93
   3   8 -10   15.66    2.70
  -3  -8   9   40.16    3.47
   3   8  -9   33.70    3.30
  -3  -8   8   10.80    2.12
   3   8  -8   -0.48    1.74
  -3  -8   7  113.88    2.69
  -3  -8   7  135.45    5.32
   3   8  -7  124.20    5.58
  -3  -8   6    5.63    1.63
   3   8  -6    3.81    1.73
  -3  -8   5   89.63    3.83
   3   8  -5   87.64    4.49
  -3  -8   4  131.99    4.45
   3   8  -4  136.79    5.49
   3   8  -3  433.89   10.40
   3   8  -2   70.07    3.77
  -3  -8   2   75.46    3.85
  -3  -8   1    5.22    1.52
   3   8  -1    4.66    1.46
  -3  -8   0  111.50    4.53
   3   8   0   94.40    4.15
   3   8   1   92.51    2.40
   3   8   1   86.18    2.21
  -3  -8  -1   96.32    4.00
   3   8   1   89.19    3.85
   3   8   2  147.89    3.12
   3   8   2  143.73    4.85
  -3  -8  -2  152.48    4.98
   3   8   3   47.96    2.71
  -3  -8  -3   48.52    2.69
  -3  -8  -4    8.11    1.30
   3   8   4    9.67    1.50
  -3  -8  -5  271.83    6.50
   3   8   5  262.96    6.40
  -3  -8  -6 1248.22   19.82
   3   8   6 1281.46   19.85
  -3  -8  -7    4.86    1.74
   3   8   7    4.11    0.96
  -3  -8  -7    3.80    0.93
  -3  -8  -8    1.95    1.59
  -3  -8  -8    1.12    0.74
  -3  -8  -9   50.36    3.66
  -3  -8  -9   52.70    1.87
  -3  -8 -10   61.74    4.18
  -3  -8 -11   61.12    4.36
  -3  -8 -12   37.09    3.76
  -3  -8 -13   53.08    4.51
  -3  -8 -14    1.15    2.07
   3   9 -12   16.58    2.95
   3   9 -11   17.80    2.87
  -3  -9  11   21.52    3.52
   3   9 -10  229.89    8.63
  -3  -9  10  231.73    8.50
   3   9  -9  116.72    6.01
  -3  -9   9  119.13    5.75
   3   9  -8   39.26    3.62
  -3  -9   8   35.54    3.20
   3   9  -7   27.40    3.10
  -3  -9   7   29.68    2.73
   3   9  -6   84.69    4.79
  -3  -9   6   89.12    4.21
   3   9  -5  204.41    7.25
   3   9  -4   13.58    2.26
   3   9  -3   29.24    2.75
   3   9  -2   78.27    4.14
   3   9  -1  282.95    8.02
   3   9   0  235.24    7.12
  -3  -9   0  257.30    7.40
  -3  -9  -1   29.93    2.67
   3   9   1   29.62    2.45
   3   9   1   29.35    1.43
   3   9   1   26.84    1.16
   3   9   2   19.33    2.04
  -3  -9  -2   19.62    2.06
   3   9   2   17.37    1.21
   3   9   2   17.81    1.09
  -3  -9  -3   53.42    3.03
   3   9   3   50.19    2.97
   3   9   3   47.94    2.21
  -3  -9  -4  276.37    7.13
   3   9   4  261.84    6.95
   3   9   4  269.89    6.35
  -3  -9  -5  326.16    7.68
   3   9   5  308.31    7.51
  -3  -9  -6  182.76    5.29
   3   9   6  187.77    5.34
  -3  -9  -7    1.24    1.62
   3   9   7    1.88    1.12
   3   9   8  158.76    4.56
  -3  -9  -8  171.44    6.57
  -3  -9  -8  168.08    4.37
  -3  -9  -9   41.04    3.47
  -3  -9  -9   38.78    1.82
  -3  -9 -10   11.46    2.39
  -3  -9 -10   14.43    0.87
  -3  -9 -11    3.82    2.26
  -3  -9 -12   15.36    2.90
  -3  -9 -13  105.41    6.18
  -3  -9 -14   67.16    5.30
   3  10 -11   57.97    4.78
  -3 -10  11   66.48    4.88
   3  10 -10    6.16    2.38
  -3 -10  10    8.22    2.32
   3  10  -9   51.93    4.30
   3  10  -8    0.82    1.77
   3  10  -7    2.66    1.90
   3  10  -6  332.05   10.16
   3  10  -5   24.49    3.00
   3  10  -4   92.28    4.98
   3  10  -3   48.18    3.65
   3  10  -2  141.25    5.87
   3  10  -1    2.33    1.45
   3  10   0   48.89    3.32
   3  10   1   21.83    2.37
   3  10   1   26.51    1.48
   3  10   1   24.48    1.09
  -3 -10  -2   42.93    3.01
   3  10   2   37.44    2.83
   3  10   2   36.52    1.70
   3  10   2   37.50    1.69
  -3 -10  -3  169.89    5.78
   3  10   3  167.81    5.71
   3  10   3  158.06    4.32
  -3 -10  -4   68.27    3.53
   3  10   4   65.33    3.43
   3  10   4   67.56    2.92
  -3 -10  -5   96.08    4.05
   3  10   5   93.48    4.02
   3  10   5   93.83    3.75
   3  10   6   10.59    1.60
   3  10   6   11.01    1.63
   3  10   7  165.68    5.16
  -3 -10  -7  175.22    6.70
   3  10   7  167.20    5.82
   3  10   8   19.50    1.77
  -3 -10  -8   25.37    3.00
  -3 -10  -8   21.73    1.75
  -3 -10  -9    6.10    1.07
  -3 -10  -9    1.25    1.81
  -3 -10 -10   70.50    4.69
  -3 -10 -11    1.94    1.96
  -3 -10 -12   14.73    2.90
  -3 -10 -13   32.23    3.73
   3  11  -9    0.04    1.96
   3  11  -8   40.59    4.25
   3  11  -7  122.86    6.40
   3  11  -6   37.12    3.74
   3  11  -5   47.20    3.95
   3  11  -4   87.24    5.08
   3  11  -3   83.76    4.93
   3  11  -2   49.95    3.77
   3  11  -1   10.11    2.02
   3  11   0   12.05    2.05
   3  11   1    1.61    0.72
   3  11   1    1.87    0.48
   3  11   1    0.81    1.56
   3  11   2   81.20    2.60
   3  11   2   86.15    2.76
   3  11   2   81.92    4.26
   3  11   3    1.19    0.80
   3  11   3   -0.04    1.33
   3  11   4   76.82    3.21
   3  11   4   77.25    3.97
   3  11   5   54.82    2.96
   3  11   5   54.88    3.28
   3  11   6  169.05    5.64
   3  11   6  164.76    5.57
   3  11   7   87.96    3.90
  -3 -11  -8   -2.42    2.09
   3  11   8   -0.40    1.10
  -3 -11  -8    1.09    1.03
  -3 -11  -9    9.78    2.56
   3  11   9    7.25    1.27
  -3 -11  -9    8.80    1.27
  -3 -11 -10   -0.06    1.91
  -3 -11 -11   27.65    3.62
  -3 -11 -12    4.04    2.33
   3  12  -8   19.91    3.15
   3  12  -7   88.06    5.72
   3  12  -6   20.83    3.07
   3  12  -5  113.82    6.20
   3  12  -4    2.62    1.99
   3  12  -3   60.28    4.37
   3  12  -2   -1.80    1.85
   3  12  -1    2.24    1.74
   3  12   0    5.19    1.85
   3  12   1    0.58    1.61
   3  12   1   -0.76    0.78
   3  12   1   -0.04    0.27
   3  12   2   16.19    1.19
   3  12   2   17.32    1.46
   3  12   2   19.86    2.48
   3  12   3   23.30    1.65
   3  12   3   22.37    1.59
   3  12   3   19.68    2.43
   3  12   4   23.28    1.84
   3  12   4   28.81    2.72
   3  12   5    5.29    1.26
   3  12   5    5.38    1.64
   3  12   6  204.23    6.36
   3  12   6  199.60    6.58
   3  12   7   36.06    2.77
  -3 -12  -8    0.98    1.98
   3  12   8    6.06    1.31
  -3 -12  -9   18.96    1.82
  -3 -12  -9   18.65    2.98
   3  12   9   18.27    1.95
  -3 -12 -10   49.52    4.46
  -3 -12 -11  101.77    6.21
   3  13  -6   34.88    3.97
   3  13  -5   88.17    5.66
   3  13  -4  153.10    7.30
   3  13  -3    3.57    1.98
   3  13  -2    1.30    1.74
   3  13  -1  148.35    6.78
   3  13   0   45.03    3.82
   3  13   1   96.23    5.23
   3  13   2   10.89    2.21
   3  13   3   76.80    4.54
   3  13   4   36.02    3.12
   3  13   5  488.90   11.92
   3  13   6   -1.95    1.52
   3  13   7    3.40    1.46
   3  13   8  114.21    4.85
  -3 -13  -8  124.03    6.55
  -3 -13  -9   71.36    5.16
  -3 -13 -10   13.30    2.98
   3  14  -4   16.85    3.01
   3  14  -3   -0.30    1.89
   3  14  -2  133.66    6.83
   3  14  -1    9.00    2.44
   3  14   0   93.69    5.50
   3  14   1   17.14    2.73
   3  14   2    2.69    2.08
   3  14   3  134.69    6.22
   3  14   4  229.83    8.15
   3  14   5    7.29    1.99
   3  14   6    2.65    1.76
   3  14   7  167.19    6.40
  -3 -14  -8   24.52    3.38
   3  14   8   21.96    2.39
  -3 -14  -9   20.78    3.27
   3  15  -2   -0.53    2.02
   3  15  -1   10.95    2.67
   3  15   0    7.41    2.44
   3  15   1    1.06    1.94
   3  15   2   68.17    4.80
   3  15   3   32.96    3.48
   3  15   4   38.86    3.60
   3  15   5    0.18    1.70
   3  15   6  115.07    5.66
   3  15   7    2.97    1.82
   3  16   1   16.14    3.07
   3  16   2    1.28    2.01
   3  16   3   35.86    3.74
   3  16   4    1.92    1.93
   3  16   5   34.64    3.61
   3  16   6   25.80    3.21
   3  16   7   24.28    3.08
   3  17   4    1.50    2.20
   3  17   5  102.39    5.98
   3  17   6   14.60    2.79
  -4  16   5   39.04    3.93
  -4  16   4    4.00    2.30
  -4  16   3   73.32    5.42
  -4  16   2    2.74    2.10
  -4  15   5   -1.44    1.98
  -4  15   4   16.07    2.66
  -4  15   3   10.00    2.50
  -4  15   2    1.82    1.95
  -4  15   1    8.90    2.55
  -4  15   0   48.68    4.37
  -4  15  -1   42.67    4.14
  -4  15  -2    1.47    2.78
   4 -14  -6    4.34    2.30
  -4  14   6   -0.80    1.80
   4 -14  -5    2.81    2.27
  -4  14   5   -1.81    1.91
  -4  14   4  155.33    6.79
  -4  14   3   43.77    3.90
  -4  14   2   83.31    5.18
  -4  14   1   29.22    3.29
  -4  14   0   24.65    3.27
  -4  14  -1   37.51    3.83
  -4  14  -2  249.92    9.39
  -4  14  -3   -2.85    2.10
  -4  14  -4   26.18    3.45
  -4  14  -5   67.97    5.14
   4 -13  -8   66.40    5.13
   4 -13  -7    3.32    2.19
   4 -13  -6   25.76    3.43
  -4  13   6   15.77    2.49
   4 -13  -5  310.84   10.22
  -4  13   5  292.84    9.13
  -4  13   4   37.99    3.44
  -4  13   3   -1.13    1.75
  -4  13   2   44.35    3.69
  -4  13   1    1.40    1.81
   4 -13   0  122.50    4.96
  -4  13   0  125.24    6.14
   4 -13   1  225.27    6.66
  -4  13  -1  215.88    8.29
   4 -13   2   64.25    3.33
  -4  13  -2   65.09    4.69
   4 -13   3    5.07    1.32
  -4  13  -3    4.85    2.24
  -4  13  -4  211.92    8.49
  -4  13  -5   78.65    5.33
  -4  13  -6    2.39    2.03
  -4  13  -7    8.55    2.88
  -4  13  -8   18.81    3.25
   4 -12  -9   39.37    4.13
   4 -12  -8   25.38    3.44
   4 -12  -7   24.10    3.29
  -4  12   7   23.88    2.53
   4 -12  -6  287.13    9.64
  -4  12   6  282.20    8.40
   4 -12  -5   -0.96    1.87
  -4  12   5    0.53    1.68
  -4  12   4   19.87    2.60
  -4  12   3   27.08    2.93
  -4  12   2    0.67    1.63
  -4  12   1   80.05    4.72
   4 -12  -1   74.29    3.92
  -4  12   0   49.86    3.90
   4 -12   0   51.72    3.18
  -4  12   0   48.05    3.08
  -4  12  -1  122.11    5.92
   4 -12   1  133.00    4.88
  -4  12  -1  133.03    4.89
  -4  12  -2    3.69    1.99
   4 -12   2    5.59    1.41
  -4  12  -2    3.27    1.72
  -4  12  -3  242.20    8.64
   4 -12   3  245.73    6.57
  -4  12  -3  247.21    6.61
   4 -12   4   53.92    2.82
  -4  12  -4   52.63    4.15
   4 -12   5    5.63    1.28
  -4  12  -5    5.39    2.30
  -4  12  -6   49.43    4.15
  -4  12  -7    6.21    2.20
  -4  12  -8    0.93    1.93
  -4  12  -9   53.41    5.41
  -4  12 -10   16.83    3.20
   4 -11 -10    2.01    2.24
   4 -11  -9   14.73    2.91
   4 -11  -8   48.83    4.18
   4 -11  -7  271.46    9.31
  -4  11   7  267.99    7.70
   4 -11  -6   85.71    5.06
  -4  11   6   84.04    4.24
  -4  11   5   24.40    2.61
   4 -11  -5   20.94    2.80
  -4  11   4  155.81    6.02
   4 -11  -4  164.72    6.58
  -4  11   3    5.49    1.68
  -4  11   2    8.32    1.88
   4 -11  -2   10.84    1.91
  -4  11   1    0.53    1.54
   4 -11  -1    2.51    1.49
  -4  11   1    1.22    1.27
  -4  11   0  203.05    7.29
   4 -11   0  216.22    6.45
  -4  11   0  211.88    6.45
  -4  11  -1   39.75    3.38
   4 -11   1   45.20    2.82
  -4  11  -1   40.18    2.65
  -4  11  -2  164.40    6.68
   4 -11   2  175.39    5.39
  -4  11  -2  170.06    5.35
  -4  11  -3   24.21    2.91
   4 -11   3   18.43    1.84
  -4  11  -3   19.55    1.86
   4 -11   4   20.00    1.84
  -4  11  -4   23.13    2.87
   4 -11   5  107.00    3.90
  -4  11  -5   99.85    5.40
   4 -11   6    0.88    0.96
  -4  11  -6    2.53    1.97
   4 -11   7    7.32    1.25
  -4  11  -7    7.67    2.34
  -4  11  -8   11.82    2.62
  -4  11  -9   63.42    4.74
  -4  11 -10   -0.53    2.10
  -4  11 -11   72.57    5.26
  -4  11 -12   18.61    3.25
   4 -10 -11    2.30    2.22
   4 -10 -10   10.10    2.62
   4 -10  -9   29.76    3.49
  -4  10   8    5.36    1.42
   4 -10  -8    8.65    2.32
  -4  10   7  210.35    6.41
   4 -10  -7  206.91    7.78
   4 -10  -6    4.16    1.86
  -4  10   6    6.05    1.71
   4 -10  -6   11.41    1.70
  -4  10   5  101.81    4.54
   4 -10  -5   97.58    4.95
   4 -10  -5  103.38    4.31
   4 -10  -4  125.82    5.49
   4 -10  -3  172.51    6.19
   4 -10  -2    0.20    1.35
  -4  10   2    2.59    1.30
  -4  10   1   51.00    3.45
  -4  10   1   51.95    3.15
   4 -10  -1   55.21    3.22
  -4  10   0  107.44    4.99
  -4  10   0  108.87    4.39
   4 -10   0  116.79    4.49
  -4  10  -1   18.51    2.44
   4 -10   1   21.04    1.95
  -4  10  -1   19.60    1.88
  -4  10  -2  107.65    5.14
   4 -10   2  119.12    4.28
  -4  10  -2  115.04    4.24
  -4  10  -3   43.80    3.42
   4 -10   3   49.18    2.68
  -4  10  -3   51.73    2.78
  -4  10  -4    1.63    1.74
   4 -10   4    0.33    0.98
  -4  10  -5    8.84    2.30
   4 -10   5    3.56    1.11
  -4  10  -6   61.55    4.19
   4 -10   6   64.51    2.97
  -4  10  -7    8.77    2.23
   4 -10   7    8.12    1.42
  -4  10  -8    1.51    1.85
   4 -10   8    6.06    1.28
  -4  10  -9    8.36    2.38
   4 -10   9    6.64    1.39
  -4  10 -10   34.98    3.62
  -4  10 -11  103.27    5.86
  -4  10 -12   87.67    5.55
  -4  10 -13   18.09    3.09
   4  -9 -11    7.05    2.44
   4  -9 -10    1.84    2.07
   4  -9  -9    7.47    2.28
  -4   9   8  211.29    6.00
   4  -9  -8  206.46    7.81
   4  -9  -7   10.26    2.08
   4  -9  -6    4.39    1.85
   4  -9  -6    5.89    1.27
   4  -9  -5  275.25    8.32
   4  -9  -5  282.70    7.27
   4  -9  -4  142.16    5.59
   4  -9  -4  142.17    5.63
   4  -9  -3   52.11    3.33
  -4   9   2  192.60    6.18
   4  -9  -2  186.41    6.08
  -4   9   1  109.78    4.41
   4  -9  -1  113.77    4.47
   4  -9   0  167.61    5.34
  -4   9   0  169.55    5.38
   4  -9   1 1064.83   17.94
  -4   9  -1 1051.62   17.94
  -4   9  -2   86.32    4.35
   4  -9   2   85.56    3.52
  -4   9  -2   84.27    3.50
  -4   9  -3    1.79    1.53
   4  -9   3    2.52    1.07
  -4   9  -3    2.01    1.02
  -4   9  -4   96.19    4.77
   4  -9   4   95.53    3.61
  -4   9  -5  128.45    5.62
   4  -9   5  136.58    4.37
  -4   9  -6   20.24    2.52
   4  -9   6   18.83    1.78
  -4   9  -7   46.18    3.64
   4  -9   7   51.87    2.73
  -4   9  -8    7.78    2.07
   4  -9   8   10.85    1.64
  -4   9  -9    0.77    1.68
   4  -9   9    5.78    1.43
  -4   9 -10  125.18    6.04
   4  -9  10  127.99    4.69
  -4   9 -11   68.83    4.67
   4  -9  11   59.92    3.37
  -4   9 -12   47.70    4.05
  -4   9 -13    9.48    2.39
  -4   9 -14   28.99    3.53
   4  -8 -12    4.64    2.63
   4  -8 -11    6.39    2.40
   4  -8 -10  102.47    5.82
   4  -8  -9  144.81    6.56
   4  -8  -8    1.54    1.64
   4  -8  -7    2.11    1.73
   4  -8  -7    1.72    0.96
   4  -8  -6  378.73    9.98
   4  -8  -6  380.65    8.24
   4  -8  -5   44.23    3.15
   4  -8  -5   43.25    2.55
   4  -8  -4   -0.99    1.28
   4  -8  -4   -0.23    1.33
   4  -8  -4    1.54    1.10
  -4   8   3   13.38    1.87
   4  -8  -3   12.40    1.92
  -4   8   2    9.85    1.58
   4  -8  -2   10.30    1.67
  -4   8   1  207.44    6.08
   4  -8  -1  202.62    5.99
   4  -8   0  880.42   15.63
  -4   8   0  893.53   15.74
   4  -8   1   18.22    1.77
  -4   8  -1   19.08    1.74
   4  -8   2   88.09    3.52
  -4   8  -2   87.39    3.46
   4  -8   3  237.75    6.00
  -4   8  -3  227.34    5.94
  -4   8  -4   89.54    4.40
   4  -8   4   89.54    3.44
  -4   8  -5   35.10    2.94
   4  -8   5   31.46    2.10
  -4   8  -6   26.95    2.75
   4  -8   6   26.87    1.98
  -4   8  -7   23.19    2.56
   4  -8   7   19.80    1.87
  -4   8  -8    4.10    2.18
   4  -8   8    5.27    1.26
  -4   8  -9  142.25    6.03
   4  -8   9  142.54    4.90
  -4   8 -10    3.56    1.76
   4  -8  10    3.31    1.36
  -4   8 -11   34.29    3.31
   4  -8  11   34.87    2.72
  -4   8 -12   65.40    4.38
   4  -8  12   63.84    3.67
  -4   8 -13   64.04    4.37
  -4   8 -14    4.79    1.98
   4  -7 -12   -0.46    2.10
   4  -7 -11   50.00    4.26
   4  -7 -10   64.78    4.66
   4  -7  -9   95.98    5.26
   4  -7  -8   13.80    1.31
   4  -7  -8   15.08    2.48
   4  -7  -7  616.89   13.73
   4  -7  -7  622.23   11.09
   4  -7  -6    0.72    1.47
   4  -7  -6   -0.06    0.86
   4  -7  -5   44.21    3.07
   4  -7  -5   46.75    2.49
   4  -7  -4  123.63    4.79
  -4   7   4  128.44    5.02
   4  -7  -4  124.78    4.98
   4  -7  -4  124.05    4.19
   4  -7  -3    1.77    1.23
  -4   7   3   -0.01    1.18
   4  -7  -3    0.38    1.27
   4  -7  -2  321.82    7.98
  -4   7   2  332.58    8.14
  -4   7   1  360.51    8.32
   4  -7  -1  353.17    8.22
   4  -7   0  424.96    9.03
  -4   7   0  422.78    9.07
   4  -7   1   -0.05    1.04
  -4   7  -1    2.25    0.94
   4  -7   2  591.84   11.04
  -4   7  -2  590.04   11.06
   4  -7   3    0.29    0.90
  -4   7  -3    0.06    0.83
   4  -7   4  222.23    5.65
   4  -7   5   64.75    3.29
  -4   7  -5   65.99    3.49
   4  -7   5   62.75    2.84
  -4   7  -6   25.30    2.50
   4  -7   6   28.56    2.37
   4  -7   6   23.10    1.87
  -4   7  -7    4.34    1.70
   4  -7   7    5.13    1.55
   4  -7   7    4.67    1.23
  -4   7  -8   28.69    2.79
   4  -7   8   27.33    2.17
  -4   7  -9    3.60    1.67
   4  -7   9    4.09    1.33
  -4   7 -10  112.79    5.19
   4  -7  10  116.05    4.58
  -4   7 -11  139.15    5.93
   4  -7  11  141.06    5.30
  -4   7 -12   25.31    2.82
   4  -7  12   17.04    2.22
  -4   7 -13   40.78    3.45
   4  -7  13   38.50    3.16
  -4   7 -14   -0.84    1.65
   4  -6 -12    6.48    2.42
   4  -6 -11    5.65    2.31
   4  -6 -10   28.02    3.17
   4  -6  -9   14.08    2.38
   4  -6  -8   87.30    4.70
   4  -6  -8   91.40    2.90
   4  -6  -7  160.72    6.06
   4  -6  -7  166.15    4.36
   4  -6  -6   45.76    3.18
   4  -6  -6   48.75    2.31
   4  -6  -5  164.10    5.58
   4  -6  -5  168.98    5.97
   4  -6  -5  165.43    4.61
   4  -6  -4   38.46    2.61
   4  -6  -4   41.76    2.89
  -4   6   4   45.45    2.95
   4  -6  -4   40.12    2.25
   4  -6  -3    0.30    1.11
  -4   6   3    2.09    1.01
   4  -6  -3    1.02    1.26
   4  -6  -3    0.79    0.90
  -4   6   2    1.44    0.97
   4  -6  -2    2.64    1.23
  -4   6   1  945.94   16.28
   4  -6  -1  945.49   16.23
   4  -6   0   48.46    2.59
  -4   6   0   47.43    2.57
   4  -6   1  431.45    8.74
  -4   6  -1  422.17    8.69
   4  -6   2  110.64    3.73
  -4   6  -2  105.67    3.66
   4  -6   3   95.78    3.42
  -4   6  -3   96.97    3.46
   4  -6   4   15.39    1.55
   4  -6   5   30.89    2.21
  -4   6  -5   28.57    2.27
   4  -6   5   27.77    1.96
   4  -6   6    5.79    1.39
  -4   6  -6    4.83    1.45
   4  -6   6    6.19    1.17
  -4   6  -7    2.65    1.28
   4  -6   7    4.20    1.43
   4  -6   7    2.73    1.03
  -4   6  -8  192.13    6.33
   4  -6   8  191.04    5.62
  -4   6  -9    6.32    1.66
   4  -6   9    6.61    1.53
  -4   6 -10  141.41    5.55
   4  -6  10  140.03    5.15
  -4   6 -11   30.81    2.84
   4  -6  11   30.13    2.65
  -4   6 -12  162.18    6.21
  -4   6 -13   17.68    2.36
  -4   6 -14    1.03    1.48
   4  -5 -13   23.76    3.48
   4  -5 -12   28.69    3.61
   4  -5 -11   45.47    4.03
   4  -5 -10   -0.88    1.79
  -4   5   9    9.09    1.18
   4  -5  -9   13.48    2.35
   4  -5  -8  250.57    7.93
   4  -5  -7  118.99    5.03
   4  -5  -7  115.21    3.42
   4  -5  -6   78.60    3.91
   4  -5  -6   74.75    2.79
   4  -5  -5   67.68    3.43
   4  -5  -5   69.24    3.66
  -4   5   5   70.92    3.66
   4  -5  -5   67.17    2.73
   4  -5  -4  346.63    8.05
  -4   5   4  364.27    8.73
   4  -5  -4  345.69    8.56
   4  -5  -4  347.80    7.29
   4  -5  -3  100.50    3.66
  -4   5   3  103.79    4.09
   4  -5  -3   94.77    3.94
   4  -5  -3  100.54    3.47
   4  -5  -2  242.20    5.85
  -4   5   2  247.48    6.44
   4  -5  -2  248.86    6.46
   4  -5  -2  249.02    6.00
  -4   5   1  192.32    5.37
   4  -5  -1  196.41    5.42
  -4   5   0  329.29    7.34
   4  -5   0  332.99    7.33
   4  -5   1  280.94    6.41
  -4   5  -1  276.26    6.39
   4  -5   2  320.64    6.94
  -4   5  -2  321.29    6.95
   4  -5   3   27.53    1.90
  -4   5  -3   26.26    1.81
   4  -5   4   34.54    2.05
   4  -5   5  101.78    3.70
  -4   5  -5   96.99    3.94
   4  -5   5   94.67    3.43
   4  -5   6   53.30    2.89
  -4   5  -6   52.24    2.99
   4  -5   6   50.51    2.58
   4  -5   7  249.13    6.84
  -4   5  -7  231.97    6.63
  -4   5  -7  252.65    7.18
   4  -5   7  236.99    6.22
  -4   5  -8   25.60    2.35
   4  -5   8   24.86    2.35
   4  -5   8   22.99    2.04
  -4   5  -9   72.61    3.77
  -4   5 -10  346.59    8.84
  -4   5 -11  338.22    8.79
   4  -5  12   65.52    4.50
  -4   5 -12   67.46    3.80
   4  -5  13   21.15    3.06
  -4   5 -13   21.72    2.36
   4  -5  14   54.36    4.47
  -4   5 -14   58.14    3.58
   4  -4 -13    7.26    2.62
   4  -4 -12   47.04    4.23
   4  -4 -11    4.13    2.07
   4  -4 -10    4.15    1.87
  -4   4   9  279.92    6.11
   4  -4  -9  280.99    8.75
  -4   4   8    5.85    1.03
   4  -4  -8    5.54    1.78
  -4   4   7   67.89    3.66
   4  -4  -7   58.67    3.53
   4  -4  -6  231.22    6.72
  -4   4   6  235.71    7.08
   4  -4  -6  235.37    5.33
   4  -4  -5  277.58    7.11
   4  -4  -5  278.94    7.56
  -4   4   5  288.41    7.62
   4  -4  -5  270.56    5.98
   4  -4  -4   30.13    2.20
  -4   4   4   30.11    2.36
   4  -4  -4   30.45    2.42
   4  -4  -4   28.21    1.77
   4  -4  -3  142.41    4.22
  -4   4   3  144.25    4.75
   4  -4  -3  137.23    4.64
   4  -4  -3  130.01    3.90
   4  -4  -2   11.42    1.29
   4  -4  -2    7.68    1.42
  -4   4   2   12.70    1.50
   4  -4  -2   13.21    1.41
   4  -4  -1   20.00    1.84
  -4   4   1   16.25    1.58
   4  -4  -1   18.13    1.61
   4  -4   0  163.55    4.60
  -4   4   0  159.84    4.55
   4  -4   1    3.81    1.21
  -4   4  -1    3.05    0.95
   4  -4   2  160.30    4.37
  -4   4  -2  157.25    4.35
   4  -4   3   44.59    2.26
  -4   4  -3   44.65    2.22
   4  -4   4  408.51    7.89
   4  -4   4  402.36    8.07
   4  -4   5    1.72    0.96
  -4   4  -5    1.36    1.02
   4  -4   5    1.92    1.02
   4  -4   6  149.79    4.69
  -4   4  -6  151.12    5.06
   4  -4   6  150.53    4.56
   4  -4   7    2.99    1.26
  -4   4  -7    0.99    1.27
   4  -4   7    2.24    1.11
   4  -4   8   31.16    2.48
  -4   4  -8   23.32    2.10
   4  -4   9  227.31    6.96
  -4   4  -9  208.25    6.14
   4  -4  10  128.83    5.57
  -4   4 -10  138.60    4.94
   4  -4  11  230.00    7.89
  -4   4 -11  231.32    6.64
   4  -4  12    5.35    2.17
  -4   4 -12    4.26    1.42
   4  -4  13  132.10    6.42
  -4   4 -13  129.84    4.94
   4  -4  14   -1.07    2.08
   4  -4  15    5.70    2.35
   4  -3 -13   14.29    2.92
   4  -3 -12    0.65    1.98
   4  -3 -11   15.88    2.70
   4  -3 -10   98.47    5.21
  -4   3   9    2.76    0.94
   4  -3  -9    3.56    1.78
  -4   3   8    7.56    1.18
   4  -3  -8    6.70    1.77
  -4   3   7  475.80   10.59
   4  -3  -7  427.75   10.39
   4  -3  -6   45.46    2.88
  -4   3   6   48.11    2.87
  -4   3   6   56.75    3.23
   4  -3  -6   50.88    2.21
   4  -3  -5    4.61    0.89
   4  -3  -5    4.39    1.29
  -4   3   5    3.63    1.17
  -4   3   5    2.51    1.07
   4  -3  -5    6.13    1.56
   4  -3  -4  164.49    4.82
  -4   3   4  175.09    4.87
   4  -3  -4  177.96    5.44
  -4   3   4  173.69    5.35
   4  -3  -4  165.18    4.31
   4  -3  -3   -0.12    1.45
   4  -3  -3    0.94    1.13
  -4   3   3   -0.37    0.98
   4  -3  -3    0.87    0.80
   4  -3  -2   92.71    2.99
  -4   3   2  100.19    3.59
   4  -3  -2   94.88    3.55
   4  -3  -2   95.78    3.17
   4  -3  -1 1467.69   21.40
  -4   3   1 1551.93   22.88
   4  -3  -1 1530.58   22.80
   4  -3  -1 1471.39   22.30
  -4   3   0  227.73    5.48
   4  -3   0  228.70    5.50
   4  -3   0  227.94    5.41
   4  -3   1   69.30    2.78
  -4   3  -1   75.19    2.82
   4  -3   2  331.75    6.81
  -4   3  -2  326.37    6.76
   4  -3   3  130.12    3.23
  -4   3  -3  129.58    3.81
   4  -3   3  131.40    3.83
   4  -3   4    2.13    0.84
   4  -3   4    2.30    1.05
   4  -3   5   10.88    1.24
  -4   3  -5    9.82    1.33
   4  -3   5   10.13    1.36
   4  -3   6    3.00    1.13
  -4   3  -6    1.16    1.03
  -4   3  -7   -0.83    1.17
   4  -3   7    1.62    1.11
  -4   3  -7    0.85    1.04
  -4   3  -8  131.17    4.72
   4  -3   8  141.77    4.92
   4  -3   8  134.30    5.01
  -4   3  -9   14.88    2.01
   4  -3   9   17.96    2.07
   4  -3   9   15.13    2.09
  -4   3  -9   16.74    1.74
  -4   3 -10  136.86    5.43
   4  -3  10  143.07    5.69
  -4   3 -10  139.47    4.66
  -4   3 -11    8.49    1.95
   4  -3  11   12.93    2.40
  -4   3 -11   12.37    1.59
  -4   3 -12    8.58    2.12
   4  -3  12    7.93    2.07
  -4   3 -12    4.26    1.24
  -4   3 -13   44.04    3.80
   4  -3  13   46.04    3.90
  -4   3 -13   47.22    2.76
  -4   3 -14    1.30    2.18
   4  -3  14   -1.51    2.21
  -4   3 -15    1.75    2.13
   4  -3  15   -1.74    2.20
   4  -2 -13   10.23    2.68
   4  -2 -12  162.41    7.33
   4  -2 -11   52.78    4.20
   4  -2 -10    5.88    2.01
  -4   2  10    5.05    1.09
  -4   2   9   43.24    2.23
   4  -2  -9   39.50    3.28
  -4   2   9   40.84    2.19
  -4   2   8  271.27    6.20
   4  -2  -8  262.50    7.90
  -4   2   8  280.39    6.18
   4  -2  -7    0.58    2.66
  -4   2   7    7.89    1.57
  -4   2   7    8.72    1.19
  -4   2   7    6.71    1.56
  -4   2   7    5.46    1.09
   4  -2  -6    6.62    1.45
  -4   2   6    5.94    1.36
  -4   2   6    5.72    1.38
  -4   2   6    3.90    0.99
  -4   2   5   88.13    3.51
   4  -2  -5   84.59    3.54
  -4   2   5   89.70    3.80
   4  -2  -5   85.83    3.77
  -4   2   5   83.97    2.98
   4  -2  -5   84.69    2.92
  -4   2   4  267.13    6.21
   4  -2  -4  258.51    6.15
  -4   2   4  272.02    6.79
   4  -2  -4  259.54    6.69
   4  -2  -4  258.64    5.71
  -4   2   4  258.90    5.76
   4  -2  -3  238.30    5.46
  -4   2   3  241.95    5.43
  -4   2   3  247.15    6.17
   4  -2  -3  247.13    6.15
   4  -2  -3  239.59    5.38
  -4   2   3  241.65    5.47
   4  -2  -2   65.30    2.34
  -4   2   2   70.42    2.37
  -4   2   2   67.56    2.91
   4  -2  -2   64.95    2.87
   4  -2  -2   63.48    2.54
  -4   2   2   65.33    2.64
   4  -2  -1  746.22   11.49
   4  -2  -1  764.63   12.86
  -4   2   1  781.63   12.95
   4  -2  -1  767.01   12.54
  -4   2   1  771.78   12.62
   4  -2   0  112.43    2.48
   4  -2   0  112.67    3.56
  -4   2   0  115.87    3.51
   4  -2   0  109.38    3.41
   4  -2   1  316.34    6.53
  -4   2  -1  318.16    6.50
   4  -2   1  316.22    6.55
  -4   2  -2   39.01    1.96
   4  -2   2   40.80    2.11
   4  -2   2   41.05    2.12
   4  -2   3   71.78    2.08
  -4   2  -3   71.39    2.68
   4  -2   3   75.22    2.83
   4  -2   4  110.08    3.04
  -4   2  -4  112.54    3.57
   4  -2   4  113.53    3.58
  -4   2  -5   42.63    2.04
   4  -2   5   42.92    2.04
  -4   2  -5   40.95    2.28
   4  -2   5   45.09    2.35
  -4   2  -6    0.97    1.03
   4  -2   6    1.20    0.91
  -4   2  -6   -0.40    1.04
  -4   2  -7    7.17    1.38
   4  -2   7    7.83    1.34
   4  -2   7    7.45    1.50
  -4   2  -8   70.52    3.34
   4  -2   8   68.78    3.36
   4  -2   8   63.64    3.37
  -4   2  -9   35.75    2.61
   4  -2   9   32.57    2.50
   4  -2   9   30.72    2.72
  -4   2  -9   32.64    2.07
  -4   2 -10   48.76    3.26
   4  -2  10   46.06    3.31
  -4   2 -10   43.35    2.42
  -4   2 -11   16.90    2.34
   4  -2  11   14.75    2.33
  -4   2 -11   14.98    1.53
  -4   2 -12  163.17    6.54
   4  -2  12  149.16    6.38
  -4   2 -12  164.15    4.83
  -4   2 -13   23.67    3.01
   4  -2  13   24.77    2.97
  -4   2 -13   27.49    1.95
  -4   2 -14    9.46    2.51
   4  -2  14    6.49    2.20
  -4   2 -15    6.23    2.46
   4  -2  15    6.66    2.42
   4  -1 -13   26.45    3.43
   4  -1 -12   45.62    4.02
   4  -1 -11   71.82    4.72
  -4   1  10   13.17    1.50
   4  -1 -10   15.19    2.53
  -4   1  10   12.76    1.50
  -4   1   9  374.10    7.92
   4  -1  -9  363.00   10.05
  -4   1   9  384.95    7.95
  -4   1   8   91.47    3.35
   4  -1  -8   86.23    4.39
  -4   1   8   92.87    3.37
  -4   1   7  179.39    5.91
   4  -1  -7  171.70    6.01
  -4   1   7  175.52    4.78
  -4   1   7  169.83    5.78
  -4   1   7  171.42    4.71
   4  -1  -6    4.23    1.41
  -4   1   6    2.65    0.88
  -4   1   6    3.72    1.22
  -4   1   6    4.29    1.29
  -4   1   6    4.05    1.24
   4  -1  -5   11.92    1.59
  -4   1   5   11.09    1.25
  -4   1   5   13.19    1.46
  -4   1   5   13.77    1.59
   4  -1  -5   11.96    1.68
  -4   1   5   12.11    1.33
  -4   1   4   88.81    3.23
   4  -1  -4   95.56    3.39
  -4   1   4   97.90    3.69
   4  -1  -4   94.12    3.66
   4  -1  -4   96.22    3.15
  -4   1   4   90.78    3.12
   4  -1  -3    3.10    0.89
   4  -1  -3    2.77    0.97
  -4   1   3    1.05    0.70
   4  -1  -3    1.10    1.11
  -4   1   3    2.10    1.05
  -4   1   3    1.94    0.90
  -4   1   2 1635.91   23.28
   4  -1  -2 1603.76   23.27
   4  -1  -2 1684.77   24.49
  -4   1   2 1713.49   24.55
  -4   1   2 1635.80   23.95
   4  -1  -2 1604.65   23.86
   4  -1  -1   10.32    1.31
   4  -1  -1    8.02    0.86
  -4   1   1    9.38    0.86
   4  -1  -1    7.55    1.29
  -4   1   1   10.95    1.49
  -4   1   1    6.55    1.11
   4  -1   0  919.69   12.87
  -4   1   0  956.20   14.74
   4  -1   0  950.15   14.74
  -4   1   0  944.12   14.69
   4  -1   0  924.12   14.63
   4  -1   1  177.73    4.39
   4  -1   1  172.71    4.32
  -4   1  -1  174.80    4.28
  -4   1  -1  172.96    4.43
   4  -1   2 1491.10   20.08
  -4   1  -2 1533.66   22.13
   4  -1   2 1543.77   22.14
   4  -1   2 1528.21   22.20
  -4   1  -3   18.17    0.98
   4  -1   3   18.71    0.97
   4  -1   3   20.20    1.56
   4  -1   3   19.66    1.65
  -4   1  -4   19.34    1.25
   4  -1   4   16.78    1.15
  -4   1  -4   16.88    1.40
   4  -1   4   19.53    1.58
   4  -1   4   16.66    1.57
   4  -1   5  285.09    5.95
  -4   1  -5  296.87    5.95
  -4   1  -5  311.34    6.58
   4  -1   6   36.59    2.02
  -4   1  -6   38.55    2.10
  -4   1  -6   33.42    2.16
   4  -1   6   35.32    2.26
   4  -1   7   27.01    2.00
  -4   1  -7   27.99    2.04
   4  -1   7   33.72    2.30
   4  -1   8  270.12    6.92
  -4   1  -8  260.12    6.73
   4  -1   8  252.67    6.83
  -4   1  -9   63.76    3.38
   4  -1   9   63.33    3.37
   4  -1   9   59.74    3.39
   4  -1  10    1.50    1.39
  -4   1 -10    2.43    1.48
   4  -1  10    4.06    1.66
  -4   1 -10    4.02    0.99
  -4   1 -11  465.17   11.33
   4  -1  11  483.75   11.58
  -4   1 -11  468.52    8.91
  -4   1 -12   58.60    3.97
   4  -1  12   54.82    3.82
  -4   1 -12   59.35    2.57
   4  -1  13    1.53    1.71
  -4   1 -13    0.62    0.81
  -4   1 -14   13.02    2.55
   4  -1  14   10.91    2.48
  -4   1 -15    0.31    2.11
   4  -1  15   -0.75    1.94
  -4   1 -16   36.74    4.02
   4   0 -13    6.53    2.48
   4   0 -12    5.44    2.19
   4   0 -11   36.32    3.55
  -4   0  11   40.28    2.49
  -4   0  10   12.50    1.59
   4   0 -10    9.33    2.13
  -4   0  10   12.84    1.67
  -4   0   9  157.32    4.80
   4   0  -9  148.80    6.04
  -4   0   9  160.49    4.84
  -4   0   8   87.51    3.40
   4   0  -8   81.68    4.29
  -4   0   8   84.15    3.40
  -4   0   7   32.72    2.65
   4   0  -7   25.85    2.44
  -4   0   7   29.41    1.98
  -4   0   7   26.99    2.34
  -4   0   7   30.27    2.07
   4   0  -6   91.40    3.94
  -4   0   6  104.65    4.17
  -4   0   6   96.68    3.45
  -4   0   6   99.19    4.03
  -4   0   6  104.81    3.63
   4   0  -5  143.75    4.68
  -4   0   5  149.05    4.72
  -4   0   5  152.79    4.36
  -4   0   5  153.82    4.79
   4   0  -5  153.07    4.86
  -4   0   5  160.97    4.51
  -4   0   4  132.36    4.07
   4   0  -4  129.34    4.05
  -4   0   4  134.89    4.04
  -4   0   4  141.45    4.39
   4   0  -4  137.98    4.37
  -4   0   4  143.17    4.09
   4   0  -3  921.88   14.81
  -4   0   3  921.88   14.81
  -4   0   3  961.78   15.43
   4   0  -3  955.51   15.39
  -4   0   3  953.20   15.10
   4   0  -3  938.29   14.99
  -4   0   2    2.16    1.05
  -4   0   2    5.59    0.93
   4   0  -2    4.51    0.91
   4   0  -2    2.68    0.91
   4   0  -2    2.80    1.04
  -4   0   2    4.90    0.99
   4   0  -1  557.24    8.58
  -4   0   1  541.73    8.58
   4   0  -1  568.09    9.74
  -4   0   1  563.74    9.74
   4   0  -1  548.23    9.66
  -4   0   1  566.48    9.76
   4   0   0 1759.94   23.44
  -4   0   0 1739.74   23.47
  -4   0   0 1772.43   25.20
   4   0   0 1785.83   25.24
  -4   0   0 1757.15   25.35
   4   0   0 1758.22   25.32
   4   0   1  745.94   11.92
  -4   0  -1  743.48   11.92
  -4   0  -1  747.30   12.09
   4   0   1  728.43   12.01
   4   0   2   21.69    1.67
  -4   0  -2   22.17    1.48
  -4   0  -2   19.54    1.67
   4   0   2   19.39    1.47
   4   0   3    6.02    0.65
  -4   0  -3    4.70    0.64
   4   0   3    5.62    1.28
  -4   0  -3    6.13    1.30
   4   0   3    8.83    1.19
   4   0   4  165.04    3.57
  -4   0  -4  165.41    3.58
  -4   0  -4  161.92    4.01
   4   0   4  160.45    4.07
   4   0   5   78.15    2.64
  -4   0  -5   85.60    2.74
  -4   0  -5   84.73    2.91
   4   0   5   82.03    2.79
   4   0   6 1344.81   20.35
  -4   0  -6 1341.53   20.30
   4   0   6 1327.36   20.57
   4   0   6 1334.11   19.96
   4   0   7  189.80    5.21
  -4   0  -7  190.96    5.24
   4   0   7  195.03    5.35
   4   0   7  193.20    4.71
  -4   0  -8 1127.74   19.05
   4   0   8 1167.59   19.20
   4   0   8 1143.64   19.17
   4   0   8 1153.87   17.74
  -4   0  -9  324.17    8.10
   4   0   9  320.33    8.08
   4   0   9  300.98    7.91
   4   0   9  309.98    6.60
   4   0  10  410.79    9.84
  -4   0 -10  382.54    9.62
  -4   0 -10  397.16    7.39
   4   0  10  374.35    9.47
   4   0  10  387.94    7.80
  -4   0 -11   95.64    4.67
  -4   0 -11   97.24    2.94
   4   0  11   99.25    4.73
   4   0  11   96.01    3.34
  -4   0 -12   12.24    2.20
  -4   0 -12   16.61    1.22
   4   0  12   14.00    2.28
   4   0  12   15.59    1.50
  -4   0 -13  128.35    6.08
  -4   0 -13  126.84    3.22
   4   0  13  124.59    5.88
   4   0  13  123.90    3.88
  -4   0 -14    5.69    2.39
   4   0  14    6.00    2.18
  -4   0 -15   41.22    3.98
   4   0  15   42.93    3.87
  -4   0 -16   -0.22    2.51
   4   0  16    1.51    2.01
   4   1 -13   31.71    3.75
   4   1 -12    1.06    2.03
   4   1 -11   -0.59    1.86
  -4  -1  11    2.50    1.30
  -4  -1  10  187.22    5.63
   4   1 -10  175.16    7.08
  -4  -1  10  189.57    5.69
  -4  -1   9   55.21    2.93
   4   1  -9   52.01    4.19
  -4  -1   9   52.76    2.92
  -4  -1   8    8.68    1.47
   4   1  -8    6.14    1.83
  -4  -1   8    5.93    1.31
  -4  -1   8    6.66    1.37
  -4  -1   7  170.24    5.81
   4   1  -7  162.59    5.75
  -4  -1   7  168.19    4.98
  -4  -1   7  172.35    5.54
  -4  -1   7  167.58    5.00
  -4  -1   6  182.70    5.65
   4   1  -6  165.44    5.42
  -4  -1   6  169.07    4.89
  -4  -1   6  167.49    5.22
  -4  -1   6  166.06    4.89
  -4  -1   5   91.65    3.61
   4   1  -5   86.22    3.56
  -4  -1   5   87.62    3.34
  -4  -1   5   94.13    3.57
  -4  -1   5   92.63    3.41
  -4  -1   4   57.20    2.65
   4   1  -4   56.96    2.68
  -4  -1   4   57.93    2.60
   4   1  -4   55.75    2.64
  -4  -1   4   60.64    2.72
  -4  -1   4   57.30    2.58
   4   1  -3   43.41    2.16
  -4  -1   3   46.18    2.21
  -4  -1   3   42.18    2.13
  -4  -1   3   46.93    2.26
   4   1  -3   42.72    2.21
  -4  -1   3   44.36    2.24
   4   1  -2    4.49    0.98
  -4  -1   2    6.41    0.97
  -4  -1   2    7.40    1.32
  -4  -1   2    7.76    1.22
   4   1  -2    6.31    1.12
  -4  -1   2    4.88    0.95
  -4  -1   1 1148.66   16.54
   4   1  -1 1149.16   17.24
  -4  -1   1 1133.93   17.25
   4   1  -1 1137.28   17.58
  -4  -1   1 1171.20   17.67
  -4  -1   0  103.06    2.28
   4   1   0  102.41    3.08
  -4  -1   0  103.49    3.32
  -4  -1   0  103.29    3.01
   4   1   0  100.96    3.16
  -4  -1  -1   20.61    1.73
  -4  -1  -1   16.95    1.33
   4   1   1   18.02    1.43
   4   1   1   19.95    1.54
  -4  -1  -2   87.83    1.84
  -4  -1  -2   85.23    2.91
   4   1   2   90.05    2.85
   4   1   2   82.59    2.78
  -4  -1  -3  116.74    2.59
  -4  -1  -3  116.71    2.86
   4   1   3  116.92    3.32
  -4  -1  -3  119.78    3.38
   4   1   3  122.37    3.49
  -4  -1  -4   17.35    1.25
   4   1   4   18.38    1.18
  -4  -1  -4   19.58    1.27
  -4  -1  -4   19.80    1.51
   4   1   4   17.09    1.32
  -4  -1  -5   99.38    3.00
   4   1   5   95.26    2.95
   4   1   5   98.78    3.04
   4   1   5  101.37    2.97
  -4  -1  -6   32.91    1.99
   4   1   6   30.34    1.87
   4   1   6   30.28    1.97
   4   1   6   30.60    1.67
  -4  -1  -7  112.38    3.90
   4   1   7  110.85    3.87
   4   1   7  115.19    3.88
   4   1   7  112.38    3.20
   4   1   8  537.73   10.72
  -4  -1  -8  521.64   10.60
   4   1   8  523.96   10.50
   4   1   8  521.72    9.10
   4   1   9  426.55    9.68
  -4  -1  -9  427.07    9.65
   4   1   9  417.21    9.48
   4   1   9  419.34    7.75
   4   1  10  155.67    5.67
  -4  -1 -10  145.28    5.52
  -4  -1 -10  153.25    3.53
   4   1  10  153.07    5.49
   4   1  10  151.51    3.92
  -4  -1 -11    5.57    1.68
  -4  -1 -11    9.29    0.83
   4   1  11    7.72    1.82
   4   1  11    7.49    1.04
  -4  -1 -12  193.09    7.14
  -4  -1 -12  183.87    3.56
   4   1  12  182.86    6.73
   4   1  12  181.95    4.37
  -4  -1 -13    2.02    1.87
   4   1  13    2.85    1.96
  -4  -1 -14   -0.24    1.89
   4   1  14   -3.40    1.99
  -4  -1 -15    1.15    2.11
   4   1  15    4.65    2.35
  -4  -1 -16    6.23    2.84
   4   1  16    2.74    2.09
   4   2 -13    3.08    2.29
   4   2 -12   36.61    3.82
   4   2 -11  210.39    8.11
  -4  -2  11  210.73    6.46
  -4  -2  10    3.34    1.30
  -4  -2  10    2.12    1.27
   4   2 -10    1.90    1.84
  -4  -2   9    1.98    1.19
   4   2  -9   -2.27    2.13
  -4  -2   9    2.72    1.28
   4   2  -8  321.22    9.00
  -4  -2   8  333.05    7.98
  -4  -2   8  329.89    8.38
  -4  -2   8  328.93    7.99
   4   2  -7  102.76    4.53
  -4  -2   7  108.08    4.67
  -4  -2   7  112.29    4.12
  -4  -2   7  104.70    4.12
  -4  -2   7  105.74    4.07
  -4  -2   6    5.89    1.32
  -4  -2   6    6.18    1.36
   4   2  -6    3.53    1.39
  -4  -2   6    6.66    1.28
  -4  -2   6    1.23    0.86
   4   2  -5   82.45    3.54
  -4  -2   5   84.42    3.59
  -4  -2   5   85.06    3.40
  -4  -2   5   82.50    3.23
  -4  -2   5   84.28    3.42
   4   2  -4  312.63    7.14
  -4  -2   4  324.61    7.27
  -4  -2   4  321.67    7.21
  -4  -2   4  322.19    6.82
   4   2  -4  309.67    6.75
  -4  -2   4  320.03    7.17
  -4  -2   3   79.95    2.97
   4   2  -3   73.91    2.86
  -4  -2   3   76.98    3.06
   4   2  -3   72.44    2.72
  -4  -2   3   79.42    2.76
  -4  -2   3   76.91    3.05
  -4  -2   2 1229.49   18.35
  -4  -2   2 1212.38   18.96
  -4  -2   2 1202.88   18.16
   4   2  -2 1216.42   18.15
  -4  -2   2 1226.43   18.94
  -4  -2   1   37.45    1.71
  -4  -2   1   39.62    2.13
  -4  -2   1   37.04    1.75
   4   2  -1   37.94    1.81
  -4  -2   1   39.75    2.22
  -4  -2   0  590.01   10.39
   4   2   0  582.50    9.60
  -4  -2   0  595.27   10.35
  -4  -2   0  595.94    9.63
   4   2   1  353.27    6.48
  -4  -2  -1  353.12    6.44
  -4  -2  -1  353.07    6.97
   4   2   1  348.88    6.92
   4   2   2  954.73   14.87
   4   2   2  951.74   14.62
  -4  -2  -2  967.45   14.97
  -4  -2  -3  121.72    2.94
  -4  -2  -3  125.19    2.72
   4   2   3  126.86    3.46
  -4  -2  -3  125.66    3.57
  -4  -2  -4  202.49    4.37
   4   2   4  197.78    4.49
  -4  -2  -4  202.83    4.57
  -4  -2  -5   57.78    2.40
   4   2   5   60.44    2.41
   4   2   5   65.22    2.30
   4   2   5   64.92    2.29
  -4  -2  -5   66.09    2.39
  -4  -2  -6   20.81    1.74
   4   2   6   15.03    1.57
   4   2   6   19.83    1.54
   4   2   6   15.91    1.23
  -4  -2  -7  728.72   12.88
   4   2   7  716.75   12.84
   4   2   7  719.93   12.47
   4   2   7  709.96   11.38
  -4  -2  -8   79.78    3.56
   4   2   8   79.31    3.48
   4   2   8   78.52    3.36
   4   2   8   81.56    2.52
   4   2   9  210.17    6.30
  -4  -2  -9  212.67    6.33
   4   2   9  209.73    6.04
   4   2   9  205.86    4.44
  -4  -2 -10   34.69    2.86
   4   2  10   38.25    2.80
  -4  -2 -10   39.74    1.36
   4   2  10   36.09    2.73
   4   2  10   34.62    1.61
  -4  -2 -11  226.90    7.28
   4   2  11  229.64    7.06
   4   2  11  226.27    4.44
  -4  -2 -12    7.14    2.09
   4   2  12    7.70    0.80
   4   2  12    7.55    1.89
  -4  -2 -13   12.89    2.52
   4   2  13   13.02    2.32
  -4  -2 -14    1.00    1.93
   4   2  14   -0.01    1.75
  -4  -2 -15   13.07    2.67
   4   2  15    5.92    2.14
  -4  -2 -16    4.42    2.52
   4   2  16   -4.07    3.52
   4   3 -12   42.98    4.04
   4   3 -11   26.88    3.21
  -4  -3  11   27.28    2.54
   4   3 -10    3.51    1.87
  -4  -3  10    5.04    1.61
   4   3  -9  156.80    6.39
  -4  -3   9  171.47    5.69
  -4  -3   9  159.96    5.60
  -4  -3   9  157.08    5.54
   4   3  -8    1.76    1.62
  -4  -3   8    1.93    1.38
  -4  -3   8    1.59    1.19
  -4  -3   8    1.11    0.95
   4   3  -7   54.05    3.39
  -4  -3   7   57.46    3.08
  -4  -3   7   59.13    2.97
  -4  -3   7   61.05    3.27
  -4  -3   6   43.28    2.91
   4   3  -6   36.74    2.68
  -4  -3   6   39.94    2.51
  -4  -3   6   40.66    2.31
  -4  -3   6   46.17    2.73
  -4  -3   5  245.60    6.62
  -4  -3   5  232.08    6.22
  -4  -3   5  231.18    5.69
  -4  -3   5  234.57    6.27
  -4  -3   4    9.70    1.40
  -4  -3   4   11.73    1.44
  -4  -3   4   11.04    1.45
  -4  -3   4    8.95    1.06
  -4  -3   3   81.33    3.16
  -4  -3   3   83.61    3.34
  -4  -3   3   81.82    2.70
   4   3  -3   79.13    2.69
  -4  -3   3   79.68    3.28
  -4  -3   2    0.87    1.15
  -4  -3   2    0.08    0.80
  -4  -3   2   -0.84    0.92
   4   3  -2    0.42    0.70
  -4  -3   2   -0.24    0.55
  -4  -3   1   28.63    1.69
  -4  -3   1   32.46    2.05
   4   3  -1   29.33    1.51
  -4  -3   1   24.66    1.36
  -4  -3   1   35.13    2.16
  -4  -3   0  114.31    3.65
   4   3   0  109.15    2.90
  -4  -3   0  122.45    3.79
  -4  -3   0  113.95    2.91
  -4  -3  -1   58.35    2.46
  -4  -3  -1   61.94    2.64
   4   3   1   56.00    2.05
  -4  -3  -2  188.95    4.62
  -4  -3  -2  196.89    4.73
   4   3   2  185.62    4.27
  -4  -3  -3   23.20    1.56
   4   3   3   22.46    1.54
  -4  -3  -3   23.47    1.67
  -4  -3  -4  143.58    3.72
  -4  -3  -4  145.73    3.79
   4   3   4  142.23    3.05
  -4  -3  -4  144.63    3.76
   4   3   4  143.72    3.71
   4   3   5    7.21    0.98
  -4  -3  -5    8.08    1.21
  -4  -3  -5    6.07    0.90
   4   3   5    6.92    0.93
  -4  -3  -5    5.41    0.95
  -4  -3  -6  454.13    8.87
  -4  -3  -6  437.05    7.64
   4   3   6  452.11    8.16
  -4  -3  -6  445.36    7.85
   4   3   6  443.33    7.73
  -4  -3  -7   13.36    1.60
   4   3   7   16.29    1.68
  -4  -3  -7   12.33    0.98
   4   3   7   13.85    1.40
   4   3   7   15.12    1.10
  -4  -3  -8  509.55   10.53
  -4  -3  -8  495.97    7.96
   4   3   8  517.24   10.52
   4   3   8  500.86    9.88
   4   3   8  490.62    8.21
  -4  -3  -9   32.78    2.61
  -4  -3  -9   34.47    1.23
   4   3   9   39.86    2.72
   4   3   9   35.35    2.44
   4   3   9   36.58    1.50
  -4  -3 -10   -1.66    1.51
   4   3  10    0.24    0.53
   4   3  10    0.05    1.54
   4   3  10    0.31    1.14
  -4  -3 -11  112.19    5.17
   4   3  11  106.53    4.69
  -4  -3 -12    3.76    1.90
   4   3  12    2.29    1.66
  -4  -3 -13   -1.62    1.84
   4   3  13   -2.21    1.77
  -4  -3 -14   10.59    2.62
   4   3  14    9.35    2.17
  -4  -3 -15   14.76    2.95
   4   3  15   17.99    2.78
  -4  -3 -16   57.71    4.92
   4   3  16   51.89    4.42
  -4  -4  12   61.63    3.87
  -4  -4  11    0.47    1.55
  -4  -4  10  140.68    5.55
  -4  -4   9    7.02    1.82
  -4  -4   9    4.03    1.20
  -4  -4   8   84.20    4.03
  -4  -4   8   81.62    3.61
  -4  -4   8   85.84    4.14
  -4  -4   7   17.11    2.02
  -4  -4   7   13.96    1.54
  -4  -4   7   12.52    1.67
  -4  -4   6    0.82    1.21
  -4  -4   6    3.24    0.98
  -4  -4   6    2.83    1.08
  -4  -4   5   20.26    2.08
  -4  -4   5   19.73    1.52
   4   4  -5   17.64    1.90
  -4  -4   5   18.41    1.89
  -4  -4   4    6.54    1.33
  -4  -4   4    8.17    1.06
  -4  -4   4    5.70    1.28
   4   4  -4    6.34    1.42
  -4  -4   3  457.36    9.16
   4   4  -3  432.47    7.68
  -4  -4   3  432.83    7.71
   4   4  -3  439.55    9.34
  -4  -4   3  451.38    9.40
  -4  -4   2   73.99    2.93
   4   4  -2   76.03    3.30
  -4  -4   2   75.54    3.24
   4   4  -2   72.59    2.25
  -4  -4   2   71.55    2.21
   4   4  -1   86.16    3.44
  -4  -4   1   87.54    3.43
   4   4  -1   87.73    2.39
  -4  -4   1   84.99    2.34
   4   4   0   58.32    2.79
  -4  -4   0   63.69    2.78
   4   4   0   61.46    1.96
  -4  -4   0   61.95    2.86
   4   4   1  315.10    6.84
  -4  -4  -1  309.64    6.77
   4   4   1  303.97    5.66
  -4  -4  -1  320.09    6.82
  -4  -4  -2    1.33    0.83
  -4  -4  -2    2.03    1.10
  -4  -4  -3    6.26    1.10
  -4  -4  -3    4.52    1.11
  -4  -4  -4  114.35    3.34
   4   4   4  109.97    2.40
  -4  -4  -4  113.79    3.39
  -4  -4  -5   63.26    2.31
  -4  -4  -5   64.48    2.81
   4   4   5   66.76    2.09
  -4  -4  -5   64.64    2.41
  -4  -4  -6  651.82   10.61
  -4  -4  -6  673.36   12.02
  -4  -4  -6  658.85   10.77
  -4  -4  -7  262.93    5.12
  -4  -4  -7  271.05    6.84
  -4  -4  -7  269.74    5.35
  -4  -4  -8   19.26    2.07
  -4  -4  -8   15.80    0.99
  -4  -4  -9   43.71    3.06
  -4  -4  -9   42.18    1.30
  -4  -4 -10  137.46    5.49
  -4  -4 -11   -0.45    1.51
  -4  -4 -12   25.75    2.98
  -4  -4 -13   30.59    3.28
  -4  -4 -14    1.14    2.05
   4   4  14    1.18    1.67
  -4  -4 -15   60.94    4.82
   4   4  15   60.33    4.50
  -4  -4 -16   30.78    3.84
   4   4  16   38.50    3.84
  -4  -5  12    1.09    1.76
  -4  -5  12   -1.30    2.19
  -4  -5  11   51.85    4.27
  -4  -5  11   53.35    3.76
  -4  -5  10  139.17    5.76
  -4  -5   9   41.31    2.70
  -4  -5   9   46.82    3.36
  -4  -5   8   10.19    1.48
  -4  -5   7   17.24    1.64
   4   5  -7   17.52    2.24
  -4  -5   6   11.28    1.25
   4   5  -6   10.36    1.74
  -4  -5   6   11.62    1.80
  -4  -5   5   51.99    3.10
  -4  -5   5   47.69    2.13
   4   5  -5   40.26    2.81
  -4  -5   5   47.07    2.96
  -4  -5   4  169.58    5.36
   4   5  -4  155.86    5.34
  -4  -5   4  162.95    5.36
  -4  -5   4  150.44    3.72
  -4  -5   3    2.46    1.19
   4   5  -3    1.53    1.18
  -4  -5   3    0.93    1.02
  -4  -5   3    1.55    0.58
  -4  -5   2  178.01    4.97
   4   5  -2  165.96    5.21
  -4  -5   2  174.13    5.26
   4   5  -2  160.36    3.40
  -4  -5   2  164.21    3.43
   4   5  -1  544.83   10.68
  -4  -5   1  556.31   10.70
   4   5  -1  523.97    8.23
   4   5   0  312.80    7.20
  -4  -5   0  303.73    7.12
   4   5   0  303.34    5.30
  -4  -5   0  301.37    5.06
   4   5   1  106.82    3.79
  -4  -5  -1  110.71    3.83
   4   5   1  110.64    2.79
   4   5   2    2.28    1.11
  -4  -5  -2    2.52    1.04
  -4  -5  -2    2.13    1.12
   4   5   3  439.27    8.59
  -4  -5  -3  443.92    8.53
  -4  -5  -3  433.22    8.49
  -4  -5  -4   58.42    2.47
   4   5   4   57.40    1.48
  -4  -5  -4   57.51    2.49
  -4  -5  -5  310.61    6.40
  -4  -5  -5  328.41    7.29
  -4  -5  -5  312.80    6.46
  -4  -5  -6  189.06    4.47
  -4  -5  -6  207.59    5.68
  -4  -5  -6  196.58    4.60
  -4  -5  -7    3.31    1.28
  -4  -5  -7    3.44    0.72
  -4  -5  -7    5.99    0.94
  -4  -5  -8  215.63    4.36
  -4  -5  -8  224.28    6.60
  -4  -5  -8  213.73    4.53
  -4  -5  -9  429.01   10.06
  -4  -5  -9  403.65    6.49
  -4  -5 -10   11.90    2.06
  -4  -5 -11   -0.81    1.67
  -4  -5 -12   32.75    3.22
  -4  -5 -13   11.83    2.55
  -4  -5 -14   60.29    4.64
  -4  -5 -15   12.10    2.65
   4   5  15    9.70    2.32
   4   5  16   -2.33    2.06
  -4  -6  12    0.95    1.81
  -4  -6  12    1.81    2.05
  -4  -6  11   88.15    5.43
  -4  -6  11   99.30    5.31
  -4  -6  10   11.37    2.24
  -4  -6  10    7.32    2.02
  -4  -6   9    3.80    1.76
  -4  -6   8  127.58    5.49
  -4  -6   8  125.03    4.15
   4   6  -8  125.81    5.47
  -4  -6   7   58.89    3.53
  -4  -6   7   61.66    2.65
   4   6  -7   64.92    3.89
  -4  -6   6   73.30    3.66
  -4  -6   6   78.67    2.76
   4   6  -6   75.53    4.00
  -4  -6   5  109.93    4.22
  -4  -6   5  109.43    3.04
   4   6  -5  102.96    4.61
  -4  -6   5  119.23    4.88
  -4  -6   4   15.88    1.86
   4   6  -4   13.71    1.94
  -4  -6   4   11.71    1.81
  -4  -6   4   12.48    0.95
  -4  -6   4   14.70    1.61
  -4  -6   3    2.88    1.21
   4   6  -3    1.87    1.37
  -4  -6   3    1.71    1.14
  -4  -6   3    3.89    1.04
  -4  -6   3    3.95    0.59
   4   6  -2  940.87   16.78
  -4  -6   2  969.83   16.95
  -4  -6   2  924.56   14.71
   4   6  -1  379.13    8.66
  -4  -6   1  388.45    8.77
   4   6  -1  367.13    5.78
  -4  -6   1  369.28    6.62
   4   6   0  133.45    4.58
  -4  -6   0  140.23    4.65
   4   6   0  129.65    2.77
   4   6   1   54.70    2.83
  -4  -6  -1   53.73    2.77
   4   6   1   54.72    1.82
   4   6   2  577.81   11.10
  -4  -6  -2  600.69   11.21
   4   6   3  130.45    4.23
  -4  -6  -3  139.33    4.27
   4   6   4  183.97    4.96
  -4  -6  -4  181.51    4.86
  -4  -6  -4  184.69    4.89
  -4  -6  -5    1.23    0.76
  -4  -6  -5    2.26    1.00
  -4  -6  -6  297.97    6.31
  -4  -6  -6  308.75    7.56
  -4  -6  -6  295.47    6.27
  -4  -6  -7 1000.99   15.67
  -4  -6  -7 1044.23   18.01
  -4  -6  -7 1019.83   15.73
  -4  -6  -8  582.92    9.78
  -4  -6  -8  616.23   12.64
  -4  -6  -8  605.81    9.92
  -4  -6  -9  189.90    3.96
  -4  -6  -9  199.52    6.65
  -4  -6  -9  204.26    4.14
  -4  -6 -10   11.44    2.16
  -4  -6 -11  158.04    6.51
  -4  -6 -12   17.08    2.63
  -4  -6 -13   10.74    2.56
  -4  -6 -14   -0.73    1.96
  -4  -6 -15   19.45    3.23
   4   6  16   22.81    3.23
  -4  -7  12   60.76    4.45
  -4  -7  11    4.01    1.92
  -4  -7  11   -2.63    2.09
  -4  -7  10   40.04    3.77
   4   7  -9   39.65    3.52
  -4  -7   9   35.03    3.31
   4   7  -8   56.91    3.96
  -4  -7   8   51.19    3.57
   4   7  -7    5.75    1.82
  -4  -7   7    2.68    1.39
  -4  -7   7    3.92    0.86
   4   7  -6   13.54    2.23
  -4  -7   6   13.86    1.13
  -4  -7   6   10.54    1.61
   4   7  -5   23.76    2.47
  -4  -7   5   25.05    1.20
  -4  -7   5   25.00    2.11
   4   7  -4    2.35    1.37
  -4  -7   4    2.50    1.10
  -4  -7   4    2.45    0.45
  -4  -7   3  528.09   11.26
   4   7  -3  497.47   11.30
  -4  -7   3  520.45   11.51
  -4  -7   3  495.76    9.58
   4   7  -2    2.02    1.40
  -4  -7   2    1.88    1.16
  -4  -7   2    2.89    0.92
   4   7  -1  127.36    4.81
  -4  -7   1  134.30    4.97
   4   7   0   40.57    2.72
  -4  -7   0   42.10    2.73
   4   7   0   41.07    1.24
   4   7   1  517.57   10.71
  -4  -7  -1  535.79   10.84
   4   7   1  508.18    8.18
  -4  -7  -2   10.15    1.51
   4   7   2    5.27    1.31
   4   7   3   19.95    1.86
  -4  -7  -3   18.65    1.77
   4   7   4    7.39    1.37
  -4  -7  -4    5.43    1.16
   4   7   5   11.99    1.47
  -4  -7  -5   12.01    1.38
  -4  -7  -5   10.49    1.32
  -4  -7  -6  803.61   14.89
  -4  -7  -6  774.43   13.32
  -4  -7  -6  788.28   13.26
  -4  -7  -7  185.47    6.08
  -4  -7  -7  175.34    4.57
  -4  -7  -7  184.02    4.64
  -4  -7  -8  414.88    7.82
  -4  -7  -8  415.31   10.18
  -4  -7  -8  422.68    7.82
  -4  -7  -9   10.78    1.03
  -4  -7  -9    7.97    1.90
  -4  -7  -9   11.45    1.07
  -4  -7 -10  165.54    6.46
  -4  -7 -11    6.73    2.06
  -4  -7 -12    5.36    2.08
  -4  -7 -13   -0.70    1.96
  -4  -7 -14    5.01    2.18
  -4  -7 -15   36.45    4.02
  -4  -8  12   14.81    2.97
  -4  -8  11   22.00    3.02
  -4  -8  11   22.06    2.98
   4   8 -10  184.12    7.56
  -4  -8  10  180.25    7.50
   4   8  -9   18.87    2.87
  -4  -8   9   21.04    2.70
   4   8  -8   44.09    3.70
  -4  -8   8   39.90    3.29
   4   8  -7    4.01    1.83
  -4  -8   7    2.57    1.42
   4   8  -6   29.11    2.91
  -4  -8   6   25.09    2.29
  -4  -8   6   21.75    0.89
   4   8  -5   25.82    2.82
  -4  -8   5   30.06    2.30
   4   8  -4   13.31    2.02
  -4  -8   4   13.95    1.58
   4   8  -3  150.12    5.79
  -4  -8   3  146.97    4.39
   4   8  -2  527.58   11.85
   4   8  -1  173.16    5.97
  -4  -8   1  183.84    6.15
   4   8   0   30.82    2.61
  -4  -8   0   35.44    2.67
   4   8   1  448.38   10.11
  -4  -8  -1  477.00   10.36
   4   8   1  445.37    7.23
   4   8   2   75.60    3.60
  -4  -8  -2   77.75    3.60
   4   8   3    0.23    1.14
  -4  -8  -3   -0.34    1.06
   4   8   4   18.34    1.86
  -4  -8  -4   18.23    1.83
   4   8   5  154.60    4.82
  -4  -8  -5  153.55    4.79
   4   8   6   93.62    3.60
  -4  -8  -6   97.38    3.61
  -4  -8  -6  100.64    3.64
  -4  -8  -7  448.69    8.99
  -4  -8  -7  463.07   10.89
  -4  -8  -7  461.42    8.91
  -4  -8  -8   44.67    2.24
  -4  -8  -8   44.27    3.28
  -4  -8  -8   49.25    2.27
  -4  -8  -9   84.28    4.54
  -4  -8  -9   83.39    2.76
  -4  -8 -10   56.73    4.03
  -4  -8 -10   57.60    2.01
  -4  -8 -11   22.51    2.94
  -4  -8 -12   13.25    2.60
  -4  -8 -13   35.45    3.70
  -4  -8 -14    3.01    2.33
  -4  -9  11   49.39    4.23
   4   9 -10   24.26    3.23
  -4  -9  10   23.76    3.09
   4   9  -9   50.58    4.19
  -4  -9   9   61.35    4.24
   4   9  -8    2.50    1.90
  -4  -9   8    7.16    1.97
   4   9  -7   -0.36    1.76
  -4  -9   7    2.01    1.57
   4   9  -6   55.92    4.03
  -4  -9   6   53.16    3.28
   4   9  -5  155.33    6.43
  -4  -9   5  155.93    5.30
   4   9  -4   33.83    3.17
   4   9  -3   19.46    2.46
   4   9  -2    8.84    1.95
   4   9  -1   10.52    1.99
   4   9   0   40.19    2.99
  -4  -9  -1    3.51    1.36
   4   9   1    4.56    1.59
   4   9   1    3.20    0.53
   4   9   1    4.05    0.57
  -4  -9  -2    2.03    1.15
   4   9   2    0.86    1.30
   4   9   3   34.98    2.61
  -4  -9  -3   39.21    2.73
   4   9   3   36.90    1.12
  -4  -9  -4    7.15    1.36
   4   9   4    6.93    1.51
   4   9   5   38.00    2.53
  -4  -9  -5   40.02    2.53
  -4  -9  -6  314.55    7.60
   4   9   6  318.86    7.62
  -4  -9  -6  315.70    7.45
  -4  -9  -7   54.40    2.79
   4   9   7   55.76    2.83
  -4  -9  -7   56.54    3.70
  -4  -9  -7   55.27    2.74
  -4  -9  -8    2.41    1.75
  -4  -9  -8    3.44    1.09
  -4  -9  -8    1.70    0.99
  -4  -9  -9  191.92    7.24
  -4  -9  -9  195.81    4.89
  -4  -9 -10   16.45    2.65
  -4  -9 -10   16.16    1.29
  -4  -9 -11   28.14    3.23
  -4  -9 -12   22.17    3.16
  -4  -9 -13    7.09    2.58
  -4  -9 -14  103.62    6.30
  -4 -10  11   25.00    3.48
   4  10 -10   47.51    4.38
  -4 -10  10   53.72    4.28
   4  10  -9    3.57    2.18
  -4 -10   9    9.23    2.34
   4  10  -8   13.54    2.78
  -4 -10   8   14.37    2.38
   4  10  -7   10.72    2.40
  -4 -10   7   16.05    2.27
   4  10  -6    6.04    2.06
   4  10  -5  161.44    6.87
   4  10  -4   88.05    4.94
   4  10  -3   24.65    2.85
   4  10  -2  121.55    5.55
   4  10  -1  229.88    7.62
   4  10   0   62.86    3.84
   4  10   1    1.39    1.45
   4  10   1    1.98    0.45
   4  10   1    1.37    0.44
   4  10   2  142.79    5.51
   4  10   2  141.80    3.49
   4  10   3   44.88    3.06
  -4 -10  -3   46.65    3.12
   4  10   3   43.18    2.07
   4  10   3   45.52    1.42
   4  10   4   63.63    3.52
  -4 -10  -4   69.22    3.66
  -4 -10  -5   73.87    3.67
   4  10   5   68.87    3.57
  -4 -10  -6   49.60    2.98
   4  10   6   49.85    2.95
  -4 -10  -7   59.36    3.13
   4  10   7   61.12    3.18
  -4 -10  -7   55.47    2.93
   4  10   8  306.49    7.47
  -4 -10  -8  312.56    9.45
  -4 -10  -8  317.17    7.30
  -4 -10  -9    5.72    1.08
  -4 -10  -9    5.80    2.01
  -4 -10 -10    5.34    1.05
  -4 -10 -10    8.69    2.39
  -4 -10 -11   38.47    3.74
  -4 -10 -12   18.30    3.05
  -4 -10 -13   27.41    3.78
   4  11  -8    5.31    2.22
   4  11  -7   17.25    2.91
   4  11  -6   73.57    5.03
   4  11  -5   -1.97    2.06
   4  11  -4    1.69    1.88
   4  11  -3  255.61    8.73
   4  11  -2  186.42    7.23
   4  11  -1   41.97    3.45
   4  11   0   22.90    2.71
   4  11   1  370.34   10.05
   4  11   2   40.60    3.23
   4  11   2   44.07    1.77
   4  11   3    5.72    1.72
   4  11   3    5.43    0.63
   4  11   3    5.62    0.97
   4  11   4   -0.13    1.48
   4  11   4    1.41    0.87
   4  11   4    1.54    0.56
   4  11   5   17.75    2.20
   4  11   5   15.85    1.66
  -4 -11  -6  426.01   10.07
   4  11   6  415.20    9.95
   4  11   6  431.11    9.77
   4  11   7  375.14    9.07
   4  11   7  385.64    9.53
  -4 -11  -7  375.84    8.86
  -4 -11  -8   30.69    3.18
   4  11   8   31.50    2.50
  -4 -11  -8   28.24    2.17
  -4 -11  -9    1.89    1.04
  -4 -11  -9    0.31    1.83
  -4 -11 -10  100.57    5.70
  -4 -11 -11    1.77    2.03
  -4 -11 -12    2.71    2.15
   4  12  -7   15.15    2.93
   4  12  -6    5.16    2.32
   4  12  -5    0.86    2.12
   4  12  -4  171.76    7.53
   4  12  -3    9.97    2.54
   4  12  -2  165.44    7.08
   4  12  -1   13.96    2.46
   4  12   0   42.86    3.70
   4  12   1   48.66    3.66
   4  12   2   24.54    1.26
   4  12   2   25.44    2.80
   4  12   3    6.80    0.75
   4  12   3    8.35    1.06
   4  12   3    5.99    1.88
   4  12   4    2.47    0.97
   4  12   4    4.46    0.71
   4  12   4    4.32    1.79
   4  12   5   85.68    3.68
   4  12   5   90.86    4.56
   4  12   6   81.73    3.86
   4  12   6   75.35    4.04
   4  12   7  110.79    4.77
  -4 -12  -8    9.47    2.39
   4  12   8    7.34    1.59
  -4 -12  -8   10.01    1.67
  -4 -12  -9    9.82    2.48
  -4 -12  -9    9.40    1.49
  -4 -12 -10    4.23    2.48
  -4 -12 -11    1.11    2.01
  -4 -12 -12   18.23    3.31
   4  13  -5   62.24    5.03
   4  13  -4   21.33    3.52
   4  13  -3  159.29    7.37
   4  13  -2   16.01    2.98
   4  13  -1   36.49    3.77
   4  13   0   10.50    2.32
   4  13   1   14.32    2.53
   4  13   2    6.10    1.90
   4  13   3   14.16    2.46
   4  13   4   30.00    3.02
   4  13   5   15.48    2.22
   4  13   6  485.40   11.80
   4  13   7    3.17    1.52
  -4 -13  -8   29.10    3.47
   4  13   8   32.87    2.89
  -4 -13  -8   28.88    2.57
   4  13   9   52.61    3.30
  -4 -13  -9   59.98    4.74
  -4 -13 -10   30.44    3.74
   4  14  -3   13.83    2.84
   4  14  -2    1.37    2.00
   4  14  -1  149.19    7.18
   4  14   0   43.31    4.04
   4  14   1   -3.99    2.20
   4  14   2   38.54    3.65
   4  14   3   15.80    2.66
   4  14   4   96.35    5.28
   4  14   5  219.13    7.88
   4  14   6   41.08    3.44
   4  14   7   19.60    2.49
   4  14   8  165.23    6.30
  -4 -14  -8  156.46    7.58
  -4 -14  -8  163.42    6.02
  -4 -14  -9   20.57    3.30
   4  15  -1   -0.10    2.04
   4  15   0   15.11    2.89
   4  15   1   94.23    5.77
   4  15   2   35.44    3.70
   4  15   3   71.24    4.95
   4  15   4   41.67    3.77
   4  15   5   21.60    2.86
   4  15   6    4.78    1.89
   4  15   7  223.17    7.98
   4  15   8   10.31    2.12
   4  16   2   11.17    2.81
   4  16   3    2.94    2.12
   4  16   4    5.17    2.10
   4  16   5   23.08    3.21
   4  16   6  103.99    5.75
   4  16   7    4.45    1.92
   4  17   5   20.54    3.24
   4  17   6   95.85    5.78
  -5  16   4   19.32    3.36
  -5  15   5   17.11    2.86
   5 -15  -4   -0.83    2.01
  -5  15   4    3.48    2.12
  -5  15   3   61.49    4.58
  -5  15   2    6.32    2.36
  -5  15   1   55.02    4.66
  -5  15   0    1.07    2.15
  -5  15  -1    0.44    2.08
   5 -14  -6   45.16    4.28
   5 -14  -5    6.21    2.66
  -5  14   5    7.31    2.40
   5 -14  -4   41.29    3.98
  -5  14   4   39.94    3.79
  -5  14   3   57.54    4.46
  -5  14   2   36.66    3.69
  -5  14   1    4.28    2.34
   5 -14   0    5.43    1.73
  -5  14   0    5.35    2.24
   5 -14   1   10.34    1.91
  -5  14  -1   10.06    2.70
   5 -14   2    2.99    1.51
  -5  14  -2    5.13    2.38
  -5  14  -3   97.39    5.93
  -5  14  -4    0.24    2.14
   5 -13  -7    8.06    2.72
   5 -13  -6    3.03    2.30
  -5  13   6    4.33    1.89
   5 -13  -5    0.83    1.98
  -5  13   5    2.68    2.56
  -5  13   4  122.97    5.97
   5 -13  -4  127.53    6.32
  -5  13   3   51.94    4.14
  -5  13   2    0.83    1.79
   5 -13  -1    3.80    1.62
  -5  13   1    2.00    1.82
   5 -13   0    2.06    1.46
  -5  13   0    4.47    2.17
   5 -13   1    6.57    1.60
  -5  13  -1    7.35    2.16
   5 -13   2   85.04    4.09
  -5  13  -2   85.04    5.38
   5 -13   3   18.69    2.07
  -5  13  -3   17.40    2.96
   5 -13   4   25.14    2.34
  -5  13  -4   24.46    3.30
  -5  13  -5  148.26    7.24
  -5  13  -6   50.54    4.58
  -5  13  -7   15.93    2.92
   5 -12  -9   13.64    2.99
   5 -12  -8    7.99    2.60
  -5  12   7   28.65    2.88
   5 -12  -7   24.02    3.28
   5 -12  -6    4.65    2.13
  -5  12   6    5.84    1.82
  -5  12   5  216.30    7.60
   5 -12  -5  225.32    8.32
   5 -12  -4    9.65    2.29
  -5  12   4    9.45    1.98
  -5  12   3   11.13    2.27
  -5  12   2  130.20    5.98
   5 -12  -2  130.08    5.66
  -5  12   1  131.12    6.16
   5 -12  -1  141.36    5.72
  -5  12   0   18.66    2.68
   5 -12   0   22.86    2.43
  -5  12  -1   65.36    4.54
   5 -12   1   68.33    3.75
  -5  12  -2    0.11    1.89
   5 -12   2   -0.73    1.24
  -5  12  -2    0.70    1.15
   5 -12   3    7.13    1.48
  -5  12  -3    5.36    2.18
   5 -12   4  188.77    5.90
  -5  12  -4  185.73    7.71
   5 -12   5    4.15    1.31
  -5  12  -5    3.80    2.15
   5 -12   6   69.34    3.37
  -5  12  -6   63.66    4.73
  -5  12  -7   48.63    4.41
  -5  12  -8  177.55    7.90
  -5  12  -9    3.80    2.26
   5 -11  -9    9.84    2.51
   5 -11  -8   21.18    3.03
   5 -11  -7   70.67    4.76
  -5  11   7   72.22    4.04
   5 -11  -6  135.83    6.40
  -5  11   6  144.75    5.78
   5 -11  -5    0.83    1.84
  -5  11   5   -1.39    1.47
   5 -11  -4    7.26    2.06
   5 -11  -3  402.41   10.72
   5 -11  -2   47.38    3.42
   5 -11  -1   75.00    4.09
  -5  11   0   18.60    2.71
   5 -11   0   16.73    2.14
  -5  11  -1   -3.09    1.84
   5 -11   1    0.66    1.33
  -5  11  -1   -0.25    1.17
  -5  11  -2   29.63    3.11
   5 -11   2   25.86    2.34
  -5  11  -2   25.60    2.24
  -5  11  -3   40.87    3.59
   5 -11   3   36.41    2.62
  -5  11  -3   36.19    2.71
   5 -11   4  130.89    4.78
  -5  11  -4  125.97    6.81
   5 -11   5  141.29    4.95
  -5  11  -5  148.11    6.70
   5 -11   6   42.00    2.70
  -5  11  -6   43.11    3.87
   5 -11   7   20.55    2.03
  -5  11  -7   22.09    3.02
   5 -11   8   16.61    1.91
  -5  11  -8   15.99    2.80
  -5  11  -9    8.73    2.47
  -5  11 -10    2.84    2.15
  -5  11 -11    6.83    2.64
   5 -10 -10   24.13    3.40
   5 -10  -9   29.08    3.42
   5 -10  -8   39.13    3.75
   5 -10  -7   49.95    3.99
   5 -10  -6   35.34    3.35
   5 -10  -5    2.45    1.68
   5 -10  -5    5.70    1.54
   5 -10  -4  189.63    6.88
   5 -10  -4  192.28    7.08
   5 -10  -4  197.40    6.48
   5 -10  -3   10.35    2.00
   5 -10  -2  158.25    6.00
   5 -10  -1   31.45    2.76
  -5  10   0   49.40    3.14
   5 -10   0   53.05    3.27
   5 -10   1   45.99    3.02
  -5  10  -1   47.69    2.95
   5 -10   2    2.61    1.32
  -5  10  -2    3.22    1.21
  -5  10  -3    2.70    1.61
   5 -10   3    2.71    1.22
  -5  10  -3    4.94    1.35
  -5  10  -4  146.47    6.31
   5 -10   4  149.32    5.07
  -5  10  -5    5.96    2.25
   5 -10   5    4.48    1.33
  -5  10  -6   -2.20    1.75
   5 -10   6    0.39    1.10
  -5  10  -7   60.73    4.29
   5 -10   7   63.37    3.26
  -5  10  -8    5.49    2.09
   5 -10   8    7.18    1.48
  -5  10  -9   13.48    2.61
   5 -10   9   13.49    1.88
  -5  10 -10    2.80    2.04
  -5  10 -11    1.01    1.94
  -5  10 -12   31.74    3.64
  -5  10 -13   79.55    5.37
   5  -9 -11   25.90    3.49
   5  -9 -10    1.54    2.15
   5  -9  -9    5.73    2.30
   5  -9  -8   10.86    2.47
   5  -9  -7  179.53    7.07
   5  -9  -6   -1.87    1.85
   5  -9  -6    1.36    1.18
   5  -9  -5  114.52    5.19
   5  -9  -5  115.85    4.56
   5  -9  -4  121.74    5.20
   5  -9  -4  111.49    5.19
   5  -9  -4  113.02    4.61
   5  -9  -3  168.22    5.97
   5  -9  -3  159.93    6.08
   5  -9  -2    0.67    1.41
   5  -9  -1    3.22    1.44
  -5   9   1    1.63    1.47
  -5   9   0   32.16    2.53
   5  -9   0   32.82    2.57
   5  -9   1   -0.17    1.16
  -5   9  -1    0.25    1.01
   5  -9   2  318.89    7.95
  -5   9  -2  323.33    8.04
   5  -9   3    1.01    1.08
  -5   9  -3   -1.82    1.08
   5  -9   4   46.44    2.77
  -5   9  -4   49.77    2.85
  -5   9  -5   92.30    4.82
   5  -9   5   85.02    3.71
  -5   9  -6  140.45    6.09
   5  -9   6  150.55    4.99
  -5   9  -7    2.00    1.87
   5  -9   7   -0.23    1.16
  -5   9  -8   56.68    4.07
   5  -9   8   62.67    3.29
  -5   9  -9    9.11    2.29
   5  -9   9    5.77    1.48
  -5   9 -10   12.58    2.50
   5  -9  10   13.54    1.88
  -5   9 -11   36.89    3.63
   5  -9  11   35.44    2.83
  -5   9 -12   29.07    3.45
  -5   9 -13   57.29    4.50
  -5   9 -14    4.33    2.10
   5  -8 -11    1.66    2.04
   5  -8 -10   16.67    2.89
   5  -8  -9   48.93    4.05
   5  -8  -8   17.23    2.68
   5  -8  -7   24.75    2.79
   5  -8  -6   26.44    2.75
   5  -8  -6   23.30    2.03
   5  -8  -5  190.70    6.60
   5  -8  -5  188.10    6.95
   5  -8  -5  201.65    5.90
   5  -8  -4  141.15    5.41
   5  -8  -4  138.47    5.70
   5  -8  -4  148.55    5.07
   5  -8  -3   20.05    2.14
   5  -8  -3   24.89    2.53
   5  -8  -3   24.48    2.24
   5  -8  -2   63.08    3.59
  -5   8   2   71.59    3.80
  -5   8   1  161.50    5.59
   5  -8  -1  151.27    5.41
  -5   8   0   58.74    3.22
   5  -8   0   57.82    3.25
   5  -8   1  422.56    9.54
  -5   8  -1  452.97    9.85
   5  -8   2    1.92    1.21
  -5   8  -2    2.57    1.07
   5  -8   3    5.44    1.27
  -5   8  -3    7.26    1.38
   5  -8   4  284.11    7.09
  -5   8  -4  276.94    6.93
   5  -8   5  258.56    6.75
   5  -8   6   57.31    3.37
  -5   8  -6   50.63    3.54
   5  -8   6   54.21    2.96
  -5   8  -7    1.99    1.67
   5  -8   7    1.42    1.08
  -5   8  -8  182.11    6.89
   5  -8   8  193.23    5.94
  -5   8  -9   36.78    3.32
   5  -8   9   36.04    2.65
  -5   8 -10   11.57    2.33
   5  -8  10   12.58    1.88
  -5   8 -11    5.59    2.00
   5  -8  11    8.03    1.68
  -5   8 -12   13.94    2.52
   5  -8  12   13.51    2.14
  -5   8 -13   40.97    3.65
  -5   8 -14   71.90    4.79
   5  -7 -12   35.05    3.95
   5  -7 -11   43.22    4.15
   5  -7 -10   42.39    3.86
   5  -7  -9   48.83    4.01
   5  -7  -8   18.41    2.64
   5  -7  -7    1.25    1.52
   5  -7  -7    3.93    1.13
   5  -7  -6  446.35   10.88
   5  -7  -6  454.83    9.42
   5  -7  -5   83.24    4.16
   5  -7  -5   88.83    4.56
   5  -7  -5   85.08    3.55
   5  -7  -4   48.80    3.05
   5  -7  -4   57.09    3.65
   5  -7  -4   51.38    2.84
   5  -7  -3  276.55    7.27
  -5   7   3  283.50    7.95
   5  -7  -3  272.12    7.79
   5  -7  -3  275.42    7.14
  -5   7   2  244.29    7.08
   5  -7  -2  234.85    6.95
   5  -7  -2  237.28    6.61
  -5   7   1  190.10    5.96
   5  -7  -1  178.35    5.77
   5  -7   0  313.88    7.85
  -5   7   0  326.29    8.00
   5  -7   1   68.44    3.29
  -5   7  -1   60.79    3.10
   5  -7   2   24.94    2.09
  -5   7  -2   21.95    1.91
   5  -7   3  483.21   10.02
  -5   7  -3  496.08   10.15
   5  -7   4  131.81    4.47
  -5   7  -4  126.64    4.42
   5  -7   5   51.72    2.93
   5  -7   5   53.19    2.86
   5  -7   6   49.84    3.20
   5  -7   6   48.81    2.79
  -5   7  -7  229.80    7.37
   5  -7   7  239.93    7.13
   5  -7   7  235.56    6.46
  -5   7  -8    7.75    1.89
   5  -7   8    7.22    1.50
  -5   7  -9   52.90    3.67
   5  -7   9   56.78    3.26
  -5   7 -10   15.71    2.43
   5  -7  10   13.15    1.92
  -5   7 -11    4.53    1.85
   5  -7  11    3.35    1.44
  -5   7 -12   56.05    3.92
   5  -7  12   53.03    3.57
  -5   7 -13  115.57    5.64
   5  -7  13  131.63    5.67
  -5   7 -14   45.81    3.75
   5  -7  14   44.35    3.58
   5  -6 -12   40.29    4.18
   5  -6 -11    4.05    2.13
   5  -6 -10    9.13    2.52
   5  -6  -9    3.32    1.87
   5  -6  -8   21.16    2.64
   5  -6  -7  306.72    8.85
   5  -6  -7  313.63    7.01
   5  -6  -6   -0.32    1.40
   5  -6  -6    0.71    0.93
   5  -6  -5   33.98    2.71
   5  -6  -5   33.48    2.91
   5  -6  -5   33.90    2.22
   5  -6  -4  422.97    9.53
   5  -6  -4  417.25   10.28
   5  -6  -4  434.00    9.10
   5  -6  -3   91.19    3.75
   5  -6  -3   95.60    4.32
  -5   6   3   98.30    4.35
   5  -6  -3   89.98    3.67
   5  -6  -2    0.38    1.02
   5  -6  -2   -0.65    1.27
  -5   6   2    0.27    1.02
   5  -6  -2    0.76    1.00
   5  -6  -1   93.11    3.98
  -5   6   1  103.12    4.15
   5  -6  -1   97.20    3.95
   5  -6   0   38.90    2.57
  -5   6   0   39.97    2.53
   5  -6   1   17.80    1.83
  -5   6  -1   17.77    1.77
   5  -6   2  908.32   15.66
  -5   6  -2  905.22   15.72
  -5   6  -3   15.60    1.60
   5  -6   3   17.11    1.77
   5  -6   4   63.56    3.06
  -5   6  -4   66.94    3.07
   5  -6   5  283.28    7.00
   5  -6   5  278.28    6.95
  -5   6  -5  295.29    7.75
   5  -6   6  213.63    6.14
  -5   6  -6  212.78    6.61
   5  -6   6  199.52    5.76
   5  -6   7    5.38    1.39
   5  -6   7    3.56    1.21
  -5   6  -8   35.92    2.85
   5  -6   8   41.58    3.04
   5  -6   8   40.69    2.68
  -5   6  -9   11.40    2.00
   5  -6   9    9.50    1.69
  -5   6 -10    3.62    1.61
   5  -6  10    1.79    1.32
  -5   6 -11   76.05    4.18
   5  -6  11   81.79    4.18
  -5   6 -12    4.47    1.87
   5  -6  12    0.46    1.44
  -5   6 -13  267.54    8.35
   5  -6  13  261.47    8.35
  -5   6 -14    5.51    1.85
   5  -6  14    3.24    1.88
   5  -6  15   17.13    2.58
   5  -5 -12    1.54    2.07
   5  -5 -11   42.14    4.00
   5  -5 -10   17.69    2.89
   5  -5  -9    8.26    2.25
   5  -5  -8   21.06    2.48
   5  -5  -7   28.92    2.78
   5  -5  -7   33.71    2.06
   5  -5  -6    9.40    1.83
   5  -5  -6    8.77    1.23
   5  -5  -5  562.84   11.66
   5  -5  -5  556.52   12.43
   5  -5  -5  569.24   10.76
   5  -5  -4   -0.02    1.12
  -5   5   4    1.22    1.11
   5  -5  -4    0.93    1.41
   5  -5  -4    0.48    0.95
   5  -5  -3  375.46    8.20
   5  -5  -3  376.15    9.11
  -5   5   3  401.92    9.34
   5  -5  -3  379.40    8.26
   5  -5  -2   77.10    3.06
  -5   5   2   80.04    3.66
   5  -5  -2   77.04    3.61
   5  -5  -2   78.66    3.32
   5  -5  -1    4.36    1.41
  -5   5   1    2.01    1.23
   5  -5  -1    2.55    1.14
   5  -5   0    8.97    1.49
  -5   5   0    8.34    1.36
   5  -5   0    9.85    1.51
   5  -5   1  208.93    5.71
  -5   5  -1  207.21    5.70
   5  -5   2  148.47    4.65
  -5   5  -2  153.26    4.67
   5  -5   3   14.37    1.67
  -5   5  -3   13.80    1.52
   5  -5   4  250.69    5.91
   5  -5   4  267.43    6.52
  -5   5  -4  266.58    6.50
   5  -5   5   70.06    3.05
  -5   5  -5   80.75    3.70
   5  -5   5   79.73    3.35
   5  -5   6  206.52    5.75
  -5   5  -6  220.64    6.50
   5  -5   6  205.92    5.79
   5  -5   7   12.65    1.68
  -5   5  -7   14.42    1.94
   5  -5   7   10.67    1.64
   5  -5   8   39.89    2.79
   5  -5   8   35.42    2.52
  -5   5  -9   -1.08    1.29
   5  -5   9   -0.76    1.17
  -5   5 -10   22.79    2.39
   5  -5  10   21.07    2.28
  -5   5 -11   11.07    1.86
  -5   5 -12  189.74    6.46
  -5   5 -13   79.29    4.23
  -5   5 -14   35.48    3.00
   5  -4 -12   11.98    2.83
   5  -4 -11   14.92    2.75
   5  -4 -10   -0.39    1.82
   5  -4  -9    0.00    1.63
  -5   4   8    9.52    1.41
   5  -4  -8    7.91    1.85
   5  -4  -7    3.88    1.09
   5  -4  -7    2.48    1.55
   5  -4  -6  236.58    6.90
   5  -4  -6  237.63    7.48
   5  -4  -6  238.51    5.83
   5  -4  -5  118.70    4.47
   5  -4  -5  131.79    5.19
   5  -4  -5  124.06    3.98
   5  -4  -4  541.45   10.74
  -5   4   4  585.91   12.00
   5  -4  -4  546.80   11.73
   5  -4  -4  538.55   10.37
   5  -4  -3   71.65    3.01
   5  -4  -3   79.51    3.71
  -5   4   3   79.28    3.66
   5  -4  -3   77.27    3.14
   5  -4  -2   46.12    2.23
  -5   4   2   52.31    2.90
   5  -4  -2   45.68    2.76
   5  -4  -2   45.27    2.46
   5  -4  -1  290.90    6.00
   5  -4  -1  285.00    7.07
  -5   4   1  298.01    7.21
   5  -4  -1  292.77    6.86
   5  -4   0   37.68    2.38
  -5   4   0   33.51    2.22
   5  -4   0   35.90    2.27
   5  -4   1  243.56    6.19
  -5   4  -1  253.57    6.26
   5  -4   1  254.19    6.37
   5  -4   2  116.81    3.97
  -5   4  -2  124.72    4.08
   5  -4   3   36.59    2.27
  -5   4  -3   37.63    2.25
   5  -4   4   10.63    1.14
   5  -4   4   10.54    1.52
   5  -4   5  200.71    5.12
  -5   4  -5  211.22    5.94
   5  -4   5  206.90    5.58
   5  -4   6    2.28    1.03
  -5   4  -6    2.81    1.15
   5  -4   6    2.54    1.10
   5  -4   7    8.09    1.42
  -5   4  -7   10.03    1.62
   5  -4   7    9.55    1.56
   5  -4   8   49.13    2.99
  -5   4  -8   52.80    3.26
   5  -4   8   50.36    2.94
   5  -4   9    7.73    1.60
  -5   4 -10   38.69    2.73
  -5   4 -11   61.56    3.43
  -5   4 -12   70.28    3.69
  -5   4 -13    5.04    1.68
   5  -4  14  231.83    8.83
  -5   4 -14  213.27    6.69
   5  -4  15    1.65    2.05
   5  -3 -12   -0.08    2.08
   5  -3 -11   27.25    3.26
   5  -3 -10   37.01    3.48
  -5   3   9  154.26    4.65
   5  -3  -9  145.01    6.12
  -5   3   8    9.69    1.41
   5  -3  -8   11.92    2.09
  -5   3   7   26.62    2.44
   5  -3  -7   25.73    2.56
   5  -3  -6  480.65   10.61
  -5   3   6  501.89   10.70
   5  -3  -6  486.51   11.27
   5  -3  -6  476.71    9.36
   5  -3  -5  535.97   11.09
  -5   3   5  577.13   11.27
  -5   3   5  594.86   12.28
   5  -3  -5  572.58   12.11
   5  -3  -5  551.28   10.42
   5  -3  -4   85.35    3.44
  -5   3   4   96.46    4.11
   5  -3  -4   94.01    4.11
   5  -3  -4   86.43    3.30
   5  -3  -3  169.24    4.60
   5  -3  -3  174.85    5.45
  -5   3   3  177.32    5.51
   5  -3  -3  167.36    4.77
   5  -3  -2  157.48    4.09
   5  -3  -2  157.90    5.00
  -5   3   2  169.55    5.12
   5  -3  -2  160.42    4.62
   5  -3  -1  292.32    5.72
   5  -3  -1  302.36    7.11
  -5   3   1  308.41    7.17
   5  -3  -1  293.03    6.73
   5  -3   0 1512.65   21.50
  -5   3   0 1567.78   23.66
   5  -3   0 1543.66   23.57
   5  -3   0 1525.77   23.42
   5  -3   1   49.70    2.54
  -5   3  -1   51.54    2.53
   5  -3   1   51.36    2.58
   5  -3   2  250.80    6.10
   5  -3   2  256.97    6.28
  -5   3  -2  248.06    6.05
   5  -3   3  275.21    5.21
  -5   3  -3  284.75    6.54
   5  -3   3  271.99    6.42
   5  -3   4  406.22    7.37
   5  -3   4  409.37    8.44
   5  -3   5   34.81    1.87
  -5   3  -5   36.27    2.28
   5  -3   5   39.35    2.35
   5  -3   6    2.08    0.96
  -5   3  -6    0.01    0.98
   5  -3   6    1.10    1.10
   5  -3   7  193.20    5.43
  -5   3  -7  194.95    5.97
   5  -3   7  193.95    5.69
  -5   3  -8  140.83    4.82
   5  -3   8  142.53    4.86
  -5   3  -8  147.00    5.31
  -5   3  -9   38.98    2.70
   5  -3   9   45.25    2.94
  -5   3 -10   56.41    3.42
  -5   3 -10   49.48    2.85
  -5   3 -11   33.37    2.92
   5  -3  11   32.42    3.06
  -5   3 -11   36.43    2.53
  -5   3 -12   77.78    4.47
   5  -3  12   72.35    4.53
  -5   3 -12   76.58    3.60
  -5   3 -13  450.72   12.18
   5  -3  13  461.71   12.50
  -5   3 -13  457.30   10.08
  -5   3 -14   11.47    2.47
   5  -3  14   16.52    2.83
  -5   3 -14   14.55    1.80
  -5   3 -15   17.51    2.94
   5  -3  15   23.20    3.26
   5  -2 -13    8.60    2.72
   5  -2 -12   13.54    2.87
   5  -2 -11   44.84    3.94
   5  -2 -10   53.02    4.01
  -5   2  10   59.47    2.85
  -5   2   9    4.70    1.36
   5  -2  -9    4.15    1.79
  -5   2   9    5.14    1.20
  -5   2   8   44.45    2.52
   5  -2  -8   40.87    3.22
  -5   2   8   44.69    2.53
  -5   2   7  742.14   13.28
  -5   2   7  751.09   14.74
   5  -2  -7  711.24   14.52
  -5   2   7  746.47   13.16
  -5   2   6  172.41    5.57
   5  -2  -6  165.74    5.49
  -5   2   6  175.06    5.98
  -5   2   6  162.53    4.78
  -5   2   5   68.07    3.20
   5  -2  -5   70.83    3.30
  -5   2   5   72.06    3.59
   5  -2  -5   70.04    3.60
  -5   2   5   64.88    2.87
   5  -2  -5   70.14    2.93
  -5   2   4  141.32    4.32
   5  -2  -4  139.39    4.36
  -5   2   4  147.11    5.01
   5  -2  -4  138.76    4.90
   5  -2  -4  140.53    4.23
  -5   2   4  146.32    4.39
   5  -2  -3  257.78    5.89
  -5   2   3  264.73    5.90
   5  -2  -3  271.01    6.88
  -5   2   3  281.58    6.99
  -5   2   3  265.82    6.28
   5  -2  -3  265.79    6.21
   5  -2  -2    0.48    0.75
   5  -2  -2    0.52    0.84
  -5   2   2    1.25    1.03
   5  -2  -2    2.82    1.31
  -5   2   2   -0.07    1.02
   5  -2  -1  621.80    9.93
   5  -2  -1  629.71   11.66
  -5   2   1  656.24   11.77
  -5   2   1  641.90   11.44
   5  -2  -1  642.65   11.43
   5  -2   0   13.72    0.87
   5  -2   0   15.06    1.70
   5  -2   0   14.04    1.52
  -5   2   0   16.77    1.56
  -5   2  -1   21.27    1.74
   5  -2   1   21.51    1.73
   5  -2   1   19.40    1.75
   5  -2   2  889.57   14.70
   5  -2   2  887.62   14.84
  -5   2  -2  887.73   14.75
   5  -2   3  132.71    2.87
   5  -2   3  136.10    4.22
  -5   2  -3  139.23    4.15
   5  -2   3  138.02    4.17
   5  -2   4   96.27    2.67
   5  -2   4   97.67    3.55
   5  -2   4  104.56    3.65
   5  -2   5   11.38    1.16
  -5   2  -5   10.58    1.43
   5  -2   5   10.09    1.55
  -5   2  -6  514.20    9.58
   5  -2   6  523.03    9.68
  -5   2  -6  550.92   10.64
   5  -2   6  531.92   10.44
   5  -2   7   14.75    1.55
  -5   2  -7   17.49    1.71
  -5   2  -7   18.15    1.95
   5  -2   8   11.21    1.48
  -5   2  -8   11.73    1.59
   5  -2   9   25.10    2.19
  -5   2  -9   24.09    2.19
   5  -2   9   22.76    2.35
  -5   2 -10   16.65    2.18
   5  -2  10   16.56    2.04
   5  -2  10   15.01    2.14
  -5   2 -11  130.43    5.47
   5  -2  11  129.41    5.59
  -5   2 -11  135.30    4.50
  -5   2 -12  162.81    6.51
   5  -2  12  171.13    6.80
  -5   2 -12  166.49    5.10
  -5   2 -13   96.63    5.26
   5  -2  13   97.48    5.37
  -5   2 -13   99.05    3.82
  -5   2 -14    4.09    2.15
   5  -2  14    0.73    1.86
  -5   2 -15   10.15    2.44
   5  -2  15    8.65    2.51
  -5   2 -16    4.09    2.33
   5  -1 -13    5.69    2.50
   5  -1 -12    2.42    2.06
   5  -1 -11   19.29    2.91
   5  -1 -10   14.03    2.51
  -5   1  10   16.46    1.84
  -5   1   9    7.22    1.38
   5  -1  -9    8.93    2.04
  -5   1   9    8.32    1.50
  -5   1   8  323.72    7.58
   5  -1  -8  312.33    8.88
  -5   1   8  323.48    7.53
  -5   1   7   11.03    1.48
  -5   1   7   15.08    1.97
   5  -1  -7   13.83    1.94
  -5   1   7   11.88    1.59
   5  -1  -6  258.30    7.18
  -5   1   6  282.41    7.39
  -5   1   6  271.09    6.68
  -5   1   6  282.70    7.70
  -5   1   6  276.68    6.63
   5  -1  -5  377.75    8.67
  -5   1   5  409.09    8.85
   5  -1  -5  399.79    9.27
  -5   1   5  412.86    9.41
  -5   1   5  403.90    8.40
   5  -1  -4  168.79    4.80
  -5   1   4  169.54    4.78
  -5   1   4  183.52    5.49
   5  -1  -4  172.33    5.35
  -5   1   4  161.40    4.71
   5  -1  -4  168.69    4.75
   5  -1  -3    4.58    1.03
   5  -1  -3    5.02    1.14
  -5   1   3    3.97    0.89
   5  -1  -3    3.89    1.33
  -5   1   3    3.38    1.02
  -5   1   3    5.98    1.28
  -5   1   2   30.72    1.61
   5  -1  -2   29.61    1.57
   5  -1  -2   29.81    2.16
  -5   1   2   31.70    2.12
  -5   1   2   30.23    2.04
   5  -1  -2   30.14    1.92
   5  -1  -1  259.58    4.81
  -5   1   1  251.84    4.79
  -5   1   1  280.28    6.34
   5  -1  -1  260.54    6.20
  -5   1   1  267.04    6.16
   5  -1  -1  258.90    6.08
   5  -1   0   32.15    1.07
  -5   1   0   31.85    2.00
   5  -1   0   33.48    2.20
   5  -1   0   29.18    1.93
  -5   1   0   31.47    2.10
   5  -1   1 1200.47   18.68
   5  -1   1 1192.19   18.70
  -5   1  -1 1207.57   18.69
  -5   1  -1 1196.35   18.72
  -5   1  -2   25.10    1.97
  -5   1  -2   30.08    1.89
   5  -1   2   28.69    2.01
   5  -1   2   29.08    1.94
   5  -1   3   26.08    0.97
   5  -1   3   29.02    1.97
   5  -1   3   28.60    2.11
  -5   1  -3   24.52    1.76
   5  -1   4    4.46    0.71
  -5   1  -4    4.08    0.74
   5  -1   4    4.64    1.19
   5  -1   4    3.45    1.16
  -5   1  -5  119.45    3.24
   5  -1   5  117.68    3.21
  -5   1  -5  123.35    3.89
   5  -1   5  125.10    4.09
   5  -1   5  120.84    3.95
   5  -1   6    4.28    0.91
  -5   1  -6    5.98    1.11
  -5   1  -6    5.98    1.22
   5  -1   6    4.32    1.14
   5  -1   7   18.77    1.65
  -5   1  -7   16.33    1.63
  -5   1  -7   18.65    1.87
   5  -1   7   17.41    1.65
  -5   1  -8  119.94    4.19
   5  -1   8  119.52    4.24
   5  -1   8  111.72    4.30
   5  -1   8  117.36    4.03
   5  -1   9    0.31    1.12
  -5   1  -9    1.26    1.37
   5  -1   9    1.49    1.32
   5  -1   9    1.72    1.14
  -5   1 -10   64.22    3.59
   5  -1  10   68.36    3.63
   5  -1  10   64.68    3.72
   5  -1  10   63.13    3.00
  -5   1 -11  289.50    8.30
  -5   1 -11  288.64    6.66
   5  -1  11  280.63    8.37
   5  -1  11  282.27    7.03
  -5   1 -12   36.89    3.25
  -5   1 -12   38.83    2.26
   5  -1  12   39.77    3.38
   5  -1  12   38.33    2.52
  -5   1 -13    4.67    1.89
  -5   1 -13    3.90    0.93
   5  -1  13    8.53    2.29
   5  -1  13    4.26    1.32
  -5   1 -14   92.07    5.39
   5  -1  14   92.55    5.40
  -5   1 -15    3.02    2.04
   5  -1  15    0.97    2.00
  -5   1 -16   -0.36    2.01
   5  -1  16    1.37    2.05
   5   0 -12   15.39    2.94
   5   0 -11    7.18    2.26
   5   0 -10    0.92    1.75
  -5   0  10    2.47    1.25
  -5   0   9    2.81    1.18
   5   0  -9    0.63    1.53
  -5   0   9    3.43    1.38
  -5   0   8   11.09    1.58
   5   0  -8   10.89    2.04
  -5   0   8   14.56    1.82
  -5   0   7    7.55    1.89
   5   0  -7    4.52    1.54
  -5   0   7    3.96    1.19
  -5   0   7    5.43    1.52
  -5   0   7    6.04    1.39
   5   0  -6  209.85    6.30
  -5   0   6  217.47    6.37
  -5   0   6  212.01    5.86
  -5   0   6  223.71    6.57
  -5   0   6  221.31    5.94
  -5   0   5    8.44    1.26
   5   0  -5    9.87    1.50
  -5   0   5   10.09    1.46
  -5   0   5    9.53    1.41
  -5   0   5   12.72    1.64
   5   0  -5   14.03    1.76
  -5   0   4  440.16    8.94
   5   0  -4  438.66    8.91
  -5   0   4  443.23    9.11
   5   0  -4  459.51    9.53
  -5   0   4  467.76    9.59
  -5   0   4  436.99    9.04
   5   0  -3   26.05    1.69
  -5   0   3   28.94    1.77
  -5   0   3   28.14    2.00
   5   0  -3   25.83    2.01
   5   0  -3   29.50    1.97
  -5   0   3   26.84    1.92
   5   0  -2   13.62    1.44
  -5   0   2   17.37    1.28
   5   0  -2   15.40    1.21
   5   0  -2   14.77    1.60
  -5   0   2   14.83    1.58
  -5   0   2   14.48    1.46
   5   0  -1    9.06    0.87
   5   0  -1    7.34    1.21
  -5   0   1    9.28    0.88
   5   0  -1   10.49    1.42
  -5   0   1    8.69    1.39
  -5   0   1   10.42    1.26
  -5   0   0  688.21    9.96
   5   0   0  707.86   11.99
  -5   0   0  706.47   12.14
  -5   0   0  712.50   11.99
   5   0   0  696.87   12.10
   5   0   1  607.31   10.66
   5   0   1  587.88   10.75
  -5   0  -1  617.61   10.68
  -5   0  -1  605.46   10.82
   5   0   2  834.04   13.98
  -5   0  -2  857.24   14.05
   5   0   2  847.68   13.86
  -5   0  -2  852.64   13.90
  -5   0  -3  182.53    3.11
   5   0   3  185.83    4.83
  -5   0  -3  188.33    4.89
   5   0   3  182.19    4.75
  -5   0  -4  126.25    2.86
   5   0   4  118.97    2.80
  -5   0  -4  123.92    3.50
   5   0   4  125.17    3.84
   5   0   4  131.40    4.01
   5   0   5  170.95    3.93
  -5   0  -5  167.03    3.92
  -5   0  -5  172.08    4.49
   5   0   5  167.25    4.52
  -5   0  -6    6.18    1.12
   5   0   6    4.86    0.97
  -5   0  -6    3.89    1.00
   5   0   6    4.42    1.10
  -5   0  -7   22.92    1.80
   5   0   7   19.44    1.65
   5   0   7   21.11    1.91
   5   0   7   22.39    1.74
   5   0   8   61.70    3.00
  -5   0  -8   62.83    3.04
   5   0   8   65.51    3.19
   5   0   8   65.70    2.80
   5   0   9   54.73    3.08
  -5   0  -9   61.78    3.25
   5   0   9   56.57    3.22
   5   0   9   59.31    2.72
   5   0  10   87.47    4.07
  -5   0 -10   77.41    3.88
   5   0  10   77.08    3.92
   5   0  10   79.27    3.18
  -5   0 -11  375.75    9.67
  -5   0 -11  374.23    7.46
   5   0  11  357.17    9.54
   5   0  11  369.08    7.91
  -5   0 -12  155.81    6.28
  -5   0 -12  169.56    4.37
   5   0  12  155.14    6.25
   5   0  12  160.03    4.75
  -5   0 -13  145.33    6.37
  -5   0 -13  146.02    3.94
   5   0  13  134.94    6.17
   5   0  13  150.53    4.58
  -5   0 -14  115.58    5.94
   5   0  14  105.68    5.71
  -5   0 -15   13.04    2.82
   5   0  15   11.10    2.59
  -5   0 -16    1.43    2.04
   5   0  16   -0.81    2.13
   5   1 -12   10.39    2.61
   5   1 -11   19.16    2.81
  -5  -1  11   18.91    2.17
   5   1 -10   -0.74    1.80
  -5  -1  10   -0.27    1.27
  -5  -1   9   77.57    3.68
   5   1  -9   83.25    4.63
  -5  -1   9   85.34    3.92
  -5  -1   8   70.68    3.44
   5   1  -8   67.85    4.04
  -5  -1   8   76.53    3.62
   5   1  -7  176.69    6.12
  -5  -1   7  187.07    6.26
  -5  -1   7  186.56    5.61
  -5  -1   7  179.46    5.97
  -5  -1   7  181.11    5.60
   5   1  -6  147.42    5.22
  -5  -1   6  160.04    5.38
  -5  -1   6  148.96    4.89
  -5  -1   6  157.47    5.28
  -5  -1   6  156.68    5.00
   5   1  -5  443.54    9.68
  -5  -1   5  471.05    9.89
  -5  -1   5  475.42    9.72
   5   1  -5  460.69    9.81
  -5  -1   5  471.22    9.86
  -5  -1   5  473.14    9.70
   5   1  -4   50.32    2.63
  -5  -1   4   53.89    2.65
  -5  -1   4   50.13    2.64
   5   1  -4   52.17    2.76
  -5  -1   4   55.44    2.79
  -5  -1   4   48.40    2.60
  -5  -1   3   28.85    1.84
   5   1  -3   24.94    1.73
  -5  -1   3   25.96    1.93
  -5  -1   3   24.94    1.85
   5   1  -3   23.50    1.83
  -5  -1   3   29.30    2.08
   5   1  -2  236.90    5.08
  -5  -1   2  235.46    5.13
  -5  -1   2  237.60    5.68
   5   1  -2  232.54    5.62
  -5  -1   2  240.21    5.95
   5   1  -2  234.63    5.85
  -5  -1   1    4.49    1.25
  -5  -1   1    4.10    0.76
   5   1  -1    2.80    1.09
   5   1  -1    4.29    1.14
  -5  -1   1    2.87    0.93
  -5  -1   0 1596.16   21.97
   5   1   0 1579.66   23.54
  -5  -1   0 1640.47   24.11
  -5  -1   0 1596.66   23.58
   5   1   0 1602.92   23.99
  -5  -1  -1  488.55    7.12
   5   1   1  482.41    8.93
  -5  -1  -1  500.55    8.99
   5   1   1  493.90    9.27
  -5  -1  -1  496.98    9.34
   5   1   2  385.66    7.76
  -5  -1  -2  385.24    7.81
   5   1   2  399.21    7.65
  -5  -1  -2  386.89    7.60
  -5  -1  -3    2.45    0.56
   5   1   3    0.60    0.90
   5   1   3    1.83    1.03
  -5  -1  -3    2.23    1.22
  -5  -1  -4  420.06    6.98
  -5  -1  -4  423.98    7.54
   5   1   4  417.47    8.11
   5   1   4  421.61    8.37
  -5  -1  -4  415.43    8.16
  -5  -1  -5   59.55    2.22
   5   1   5   60.10    2.20
  -5  -1  -5   64.09    2.46
   5   1   5   59.72    2.52
  -5  -1  -5   63.01    2.68
   5   1   6   26.11    1.65
  -5  -1  -6   25.81    1.75
   5   1   6   25.09    1.73
   5   1   7  406.75    8.29
  -5  -1  -7  412.73    8.35
   5   1   7  398.68    8.32
   5   1   7  402.25    7.89
   5   1   8   29.69    2.09
  -5  -1  -8   33.00    2.33
   5   1   8   35.23    2.33
   5   1   8   33.47    1.91
  -5  -1  -9  150.87    5.16
   5   1   9  164.23    5.35
   5   1   9  152.67    5.11
   5   1   9  152.00    4.22
  -5  -1 -10  451.83   10.46
   5   1  10  464.42   10.57
   5   1  10  443.33   10.29
   5   1  10  448.06    8.61
  -5  -1 -11  117.55    5.09
   5   1  11  114.76    4.96
   5   1  11  120.71    3.70
  -5  -1 -12   35.60    3.08
  -5  -1 -12   37.02    1.74
   5   1  12   35.31    3.10
   5   1  12   33.94    1.99
  -5  -1 -13  640.35   14.90
  -5  -1 -13  649.20   10.07
   5   1  13  629.07   14.59
   5   1  13  643.02   11.20
  -5  -1 -14    4.81    2.09
   5   1  14    5.83    2.07
  -5  -1 -15    7.38    2.33
   5   1  15   11.65    2.56
  -5  -1 -16   31.05    3.68
   5   1  16   37.57    4.52
   5   2 -12   31.10    3.66
   5   2 -11   29.23    3.35
  -5  -2  11   31.06    2.71
   5   2 -10   67.85    4.51
  -5  -2  10   65.83    3.65
  -5  -2   9   11.48    1.79
   5   2  -9    7.26    1.98
  -5  -2   9    8.40    1.68
  -5  -2   8   12.51    1.73
   5   2  -8   12.13    2.10
  -5  -2   8   12.25    1.83
   5   2  -7  247.10    7.47
  -5  -2   7  266.57    7.15
  -5  -2   7  265.48    7.29
  -5  -2   7  266.37    7.31
   5   2  -6  497.05   11.16
  -5  -2   6  562.11   11.70
  -5  -2   6  541.65   11.10
  -5  -2   6  542.39   11.06
  -5  -2   6  536.21   11.08
   5   2  -5  112.63    4.29
  -5  -2   5  117.33    4.36
  -5  -2   5  120.86    4.35
   5   2  -5  112.68    4.10
  -5  -2   5  119.50    4.20
  -5  -2   5  110.24    4.21
  -5  -2   4   27.32    2.04
   5   2  -4   21.25    1.85
  -5  -2   4   21.34    2.01
  -5  -2   4   21.90    1.92
  -5  -2   4   21.88    1.76
   5   2  -4   19.44    1.74
  -5  -2   3  282.90    6.47
  -5  -2   3  288.93    6.97
   5   2  -3  273.85    6.36
  -5  -2   3  292.51    6.50
  -5  -2   3  294.48    7.00
  -5  -2   2  230.21    5.29
  -5  -2   2  235.01    6.00
  -5  -2   2  232.98    5.49
   5   2  -2  234.68    5.45
  -5  -2   2  239.38    6.07
  -5  -2   1 2040.54   28.92
  -5  -2   1 2119.38   30.59
   5   2  -1 2041.37   29.49
  -5  -2   1 2106.83   30.47
  -5  -2   1 2049.87   29.53
  -5  -2   0  232.44    4.53
   5   2   0  231.01    5.18
   5   2   0  232.31    5.72
  -5  -2   0  229.36    5.75
  -5  -2   0  225.89    5.15
   5   2   1   43.70    2.10
   5   2   1   42.27    2.26
  -5  -2  -1   45.41    2.46
  -5  -2  -1   40.51    1.99
   5   2   2  968.91   15.22
  -5  -2  -2  968.92   15.64
   5   2   2  955.54   15.53
  -5  -2  -3  496.72    7.91
  -5  -2  -3  512.33    9.35
   5   2   3  489.26    9.19
   5   2   3  494.04    9.16
   5   2   4    1.84    0.92
  -5  -2  -4    1.46    0.75
  -5  -2  -4    1.31    0.70
  -5  -2  -4    2.03    1.16
  -5  -2  -5    2.48    0.89
   5   2   5    2.39    0.97
  -5  -2  -5    2.51    1.15
  -5  -2  -6  199.87    4.91
   5   2   6  191.84    4.82
   5   2   6  187.88    4.65
   5   2   6  188.06    4.70
  -5  -2  -6  191.26    4.79
  -5  -2  -7  275.63    6.42
   5   2   7  259.63    6.28
   5   2   7  256.64    6.10
   5   2   7  268.81    5.83
  -5  -2  -8   55.68    2.93
   5   2   8   58.82    2.90
   5   2   8   55.70    2.79
   5   2   8   53.47    2.31
   5   2   9   74.69    3.60
  -5  -2  -9   74.03    3.60
   5   2   9   69.30    3.36
   5   2   9   73.11    2.68
   5   2  10   49.97    3.17
  -5  -2 -10   49.92    3.21
   5   2  10   42.32    2.38
   5   2  10   48.99    2.15
   5   2  11    6.25    1.02
  -5  -2 -11    3.78    1.65
   5   2  11    5.54    1.66
  -5  -2 -12  302.92    9.04
  -5  -2 -12  300.49    5.18
   5   2  12  299.09    8.68
   5   2  12  306.37    6.12
  -5  -2 -13   14.67    2.51
   5   2  13   16.48    2.52
  -5  -2 -14   38.35    3.75
   5   2  14   39.35    3.54
  -5  -2 -15   56.91    4.55
   5   2  15   54.63    4.27
  -5  -2 -16    2.37    2.38
   5   2  16    3.48    2.12
  -5  -3  11   24.96    2.59
  -5  -3  10   -0.10    1.54
  -5  -3   9    0.34    1.34
  -5  -3   8  188.89    6.21
  -5  -3   8  185.70    6.06
  -5  -3   8  189.02    6.26
  -5  -3   7  111.11    4.57
  -5  -3   7  103.16    4.16
  -5  -3   7  110.53    4.57
  -5  -3   6   69.85    3.64
  -5  -3   6   69.82    3.47
  -5  -3   6   65.42    3.14
  -5  -3   6   63.53    3.36
  -5  -3   5  143.90    4.98
  -5  -3   5  140.00    4.90
  -5  -3   5  130.54    4.26
  -5  -3   5  133.22    4.81
  -5  -3   4  986.35   16.72
  -5  -3   4  991.33   16.96
  -5  -3   4  944.93   15.77
   5   3  -4  936.59   15.71
  -5  -3   4  979.12   16.88
  -5  -3   3   68.85    2.99
  -5  -3   3   65.48    3.15
   5   3  -3   67.50    2.71
  -5  -3   3   68.18    2.68
  -5  -3   3   70.72    3.28
  -5  -3   2   90.30    3.17
  -5  -3   2   82.14    3.49
  -5  -3   2   86.74    2.93
   5   3  -2   82.85    2.88
  -5  -3   2   85.85    3.57
  -5  -3   1  159.86    4.10
  -5  -3   1  163.29    4.88
   5   3  -1  152.16    3.97
  -5  -3   1  157.85    4.01
  -5  -3   1  160.62    4.83
  -5  -3   0    1.08    0.91
  -5  -3   0    2.81    1.30
   5   3   0    3.11    1.03
  -5  -3   0    1.68    0.81
  -5  -3  -1  382.37    8.01
  -5  -3  -1  379.57    7.15
  -5  -3  -1  379.16    7.95
   5   3   1  378.12    7.16
  -5  -3  -2   99.18    3.45
   5   3   2  101.54    3.16
   5   3   2  103.58    3.53
  -5  -3  -2  100.15    3.55
   5   3   3    7.33    1.17
  -5  -3  -3    7.28    1.37
  -5  -3  -3    8.60    1.26
  -5  -3  -3    7.35    0.67
   5   3   3    7.67    1.25
  -5  -3  -4    3.99    0.93
   5   3   4    4.85    1.08
  -5  -3  -4    3.89    1.17
  -5  -3  -5  396.05    7.66
  -5  -3  -5  408.67    7.87
   5   3   5  397.90    7.77
   5   3   6    0.43    0.78
  -5  -3  -6    0.29    0.95
   5   3   6    0.57    0.78
  -5  -3  -6    0.59    0.97
  -5  -3  -7   40.51    2.41
   5   3   7   36.80    2.05
  -5  -3  -7   36.21    2.01
   5   3   7   38.42    1.93
  -5  -3  -8   10.51    1.64
   5   3   8    8.71    1.06
   5   3   8    7.99    1.32
   5   3   8   10.92    1.53
  -5  -3  -9    7.54    1.56
   5   3   9   10.54    1.11
   5   3   9    9.61    1.57
   5   3   9   11.46    1.71
  -5  -3 -10   13.49    2.00
   5   3  10   13.60    1.16
   5   3  10   15.65    2.01
  -5  -3 -10   13.35    0.99
   5   3  10   11.05    1.75
  -5  -3 -11  240.14    7.57
  -5  -3 -11  235.23    4.24
   5   3  11  229.24    7.01
   5   3  11  240.56    4.93
  -5  -3 -12  108.79    5.31
   5   3  12  109.31    4.95
   5   3  12  109.53    2.81
  -5  -3 -13   48.63    3.81
   5   3  13   45.10    3.50
  -5  -3 -14   80.71    5.09
   5   3  14   80.85    4.82
  -5  -3 -15   -0.72    2.15
   5   3  15   -0.79    1.90
  -5  -3 -16   -2.40    2.35
   5   3  16   -1.12    2.00
  -5  -4  11    6.37    2.31
  -5  -4  10    6.68    1.74
  -5  -4   9  167.10    6.21
  -5  -4   8   18.40    2.29
  -5  -4   8   20.10    1.97
  -5  -4   7   47.60    2.73
  -5  -4   7   55.22    3.38
  -5  -4   6  299.26    8.00
  -5  -4   6  282.78    6.89
  -5  -4   6  288.90    7.89
  -5  -4   5  168.56    5.63
  -5  -4   5  168.15    5.62
  -5  -4   5  161.15    4.63
  -5  -4   5  157.04    5.50
  -5  -4   4  158.14    5.13
  -5  -4   4  156.72    5.24
   5   4  -4  147.80    4.17
  -5  -4   4  141.23    4.11
  -5  -4   4  142.95    5.14
  -5  -4   3   10.57    1.43
  -5  -4   3   10.53    1.70
  -5  -4   3   12.45    1.62
   5   4  -3   10.97    1.16
  -5  -4   3   10.56    1.07
  -5  -4   2    3.22    1.32
  -5  -4   2    0.15    0.92
  -5  -4   2    2.12    1.10
   5   4  -2    2.36    0.76
  -5  -4   2    0.74    0.65
  -5  -4   1   22.37    2.03
  -5  -4   1   23.19    1.67
  -5  -4   1   21.26    1.92
   5   4  -1   22.96    1.42
  -5  -4   1   22.55    1.39
  -5  -4   0  967.04   16.19
   5   4   0  914.92   14.39
  -5  -4   0  954.36   14.48
  -5  -4   0  970.17   16.13
  -5  -4  -1   18.36    1.71
  -5  -4  -1   22.79    1.96
   5   4   1   21.00    1.41
  -5  -4  -2  441.89    8.86
   5   4   2  433.42    7.99
  -5  -4  -2  435.61    8.81
  -5  -4  -3    9.60    1.26
  -5  -4  -3   10.50    1.55
  -5  -4  -4  367.24    7.58
  -5  -4  -4  378.07    7.69
  -5  -4  -5   19.08    1.64
  -5  -4  -5   16.61    1.43
  -5  -4  -5   17.67    1.59
  -5  -4  -6   26.37    1.93
  -5  -4  -6   25.55    1.62
   5   4   6   26.71    1.48
  -5  -4  -6   23.32    1.72
  -5  -4  -7   28.12    2.15
  -5  -4  -7   26.75    1.58
   5   4   7   28.43    1.73
  -5  -4  -7   28.59    1.79
  -5  -4  -8   12.79    1.78
  -5  -4  -8    9.08    1.00
   5   4   8   10.24    1.37
  -5  -4  -8    9.97    1.18
  -5  -4  -9    8.55    1.71
   5   4   9    7.68    1.41
  -5  -4  -9    7.03    0.85
  -5  -4 -10   11.78    1.95
   5   4  10   13.10    1.79
  -5  -4 -10   12.54    0.90
  -5  -4 -11  341.93    9.29
   5   4  11  334.10    8.59
  -5  -4 -11  322.43    4.98
  -5  -4 -12   23.25    2.73
   5   4  12   22.19    2.50
  -5  -4 -13  118.13    5.89
   5   4  13  108.32    5.21
  -5  -4 -14   20.08    3.02
   5   4  14   20.20    2.71
  -5  -4 -15    7.74    2.60
   5   4  15    2.66    1.88
  -5  -4 -16   -0.76    2.35
   5   4  16    5.19    2.29
  -5  -5  11    9.89    2.22
  -5  -5  10   68.84    4.25
  -5  -5   9    3.10    1.64
  -5  -5   8   64.82    3.25
  -5  -5   8   61.84    3.82
  -5  -5   7  184.34    5.36
  -5  -5   7  185.32    6.47
  -5  -5   6   11.03    1.85
  -5  -5   6   14.08    1.50
  -5  -5   5  225.05    6.86
  -5  -5   5  220.86    6.80
  -5  -5   5  212.80    5.27
  -5  -5   5  213.58    6.76
  -5  -5   4   11.44    1.82
  -5  -5   4   13.66    1.87
  -5  -5   4   12.87    1.65
  -5  -5   4   14.29    1.25
  -5  -5   3  111.82    4.17
  -5  -5   3  115.44    4.54
   5   5  -3  107.60    3.11
  -5  -5   3  111.87    4.52
  -5  -5   3  105.09    3.08
  -5  -5   2    3.08    1.00
  -5  -5   2    3.13    1.34
  -5  -5   2    1.69    1.03
   5   5  -2    2.42    0.70
  -5  -5   2    0.90    0.56
  -5  -5   1  530.25   10.79
   5   5  -1  499.60    8.55
  -5  -5   1  515.59    8.59
  -5  -5   1  529.14   10.76
  -5  -5   0  316.90    7.56
   5   5   0  298.75    5.74
  -5  -5   0  304.84    7.43
  -5  -5  -1  589.05   11.19
  -5  -5  -1  564.87    7.99
  -5  -5  -1  558.73   10.99
   5   5   1  560.15    9.42
  -5  -5  -2   82.56    3.39
  -5  -5  -2   79.88    3.34
   5   5   2   79.34    2.69
  -5  -5  -3   31.92    2.14
  -5  -5  -3   35.53    2.27
  -5  -5  -4  139.12    4.19
  -5  -5  -4  129.69    4.12
  -5  -5  -5  129.83    3.95
  -5  -5  -5  128.39    3.98
  -5  -5  -6   44.20    2.15
  -5  -5  -6   46.22    2.61
   5   5   6   44.43    1.83
  -5  -5  -6   43.04    2.25
  -5  -5  -7   35.25    2.47
  -5  -5  -7   35.72    1.88
   5   5   7   36.84    1.89
  -5  -5  -7   35.72    1.98
  -5  -5  -8   10.07    1.08
  -5  -5  -8   10.68    1.79
   5   5   8   12.18    1.36
  -5  -5  -8   10.73    1.21
  -5  -5  -9    1.42    1.38
  -5  -5  -9    0.87    0.60
   5   5   9   -0.26    1.04
  -5  -5  -9    0.53    0.75
  -5  -5 -10  321.90    8.85
   5   5  10  313.54    7.81
  -5  -5 -10  319.22    5.65
  -5  -5 -11   12.93    2.27
   5   5  11   15.35    2.02
  -5  -5 -12   16.39    2.55
   5   5  12   24.09    2.47
  -5  -5 -13  145.32    6.57
   5   5  13  136.14    5.74
  -5  -5 -14   42.57    4.00
   5   5  14   42.74    3.55
  -5  -5 -15   13.97    2.99
   5   5  15   12.19    2.47
  -5  -5 -16   17.36    3.24
   5   5  16   11.17    2.57
  -5  -6  11    1.91    1.88
  -5  -6  11    1.87    1.88
  -5  -6  10   45.20    3.86
  -5  -6  10   49.09    3.82
  -5  -6   9   14.48    2.34
  -5  -6   9    6.87    2.00
  -5  -6   8   23.78    2.63
  -5  -6   7   20.68    2.55
  -5  -6   7   23.02    1.80
  -5  -6   6  207.11    5.18
   5   6  -5    9.38    1.93
  -5  -6   5   10.31    1.15
   5   6  -4    5.05    1.65
  -5  -6   4    5.90    1.32
  -5  -6   4    4.26    0.78
   5   6  -3    1.70    1.28
  -5  -6   3   -0.23    1.15
  -5  -6   3   -0.68    1.07
  -5  -6   3    0.62    0.55
  -5  -6   2   62.83    3.08
   5   6  -2   72.91    3.72
  -5  -6   2   72.90    3.62
   5   6  -2   70.29    2.13
  -5  -6   2   65.20    2.05
   5   6  -1  750.73   14.37
  -5  -6   1  777.06   14.45
   5   6  -1  732.96   11.28
  -5  -6   1  748.23   11.71
   5   6   0  512.06   10.74
  -5  -6   0  523.17   10.74
   5   6   0  485.04    8.13
  -5  -6   0  494.25    7.76
   5   6   1  129.51    4.70
  -5  -6  -1  145.57    4.85
  -5  -6  -1  137.24    4.75
   5   6   1  133.68    3.37
   5   6   2   87.76    3.69
  -5  -6  -2   97.22    3.81
   5   6   2   87.17    2.82
  -5  -6  -2   89.85    3.70
  -5  -6  -3  549.94   10.69
  -5  -6  -3  530.68   10.58
  -5  -6  -4   61.97    2.88
  -5  -6  -4   57.81    2.83
  -5  -6  -5   25.55    1.83
   5   6   5   24.03    0.97
  -5  -6  -5   26.39    1.98
  -5  -6  -6    1.90    0.97
   5   6   6    2.12    0.66
  -5  -6  -6    1.09    0.78
  -5  -6  -6    2.20    1.35
  -5  -6  -7    9.09    1.27
  -5  -6  -7    6.66    1.61
  -5  -6  -7    6.51    1.04
   5   6   7    9.23    1.05
  -5  -6  -8  225.67    6.70
  -5  -6  -8  215.30    5.06
   5   6   8  213.85    5.36
  -5  -6  -8  221.45    5.24
  -5  -6  -9  314.97    6.28
  -5  -6  -9  326.59    8.74
  -5  -6  -9  325.00    6.50
  -5  -6 -10   36.16    3.07
  -5  -6 -10   32.17    1.46
  -5  -6 -11    6.76    2.04
  -5  -6 -12  385.65   10.93
  -5  -6 -13   36.25    3.58
   5   6  13   34.47    3.05
  -5  -6 -14    4.94    2.35
   5   6  14    0.19    1.70
  -5  -6 -15   35.52    3.91
   5   6  15   25.70    3.11
   5   6  16    6.02    2.31
  -5  -7  11   35.87    3.53
  -5  -7  11   38.10    3.81
  -5  -7  10    6.34    2.18
  -5  -7  10    1.90    1.79
  -5  -7   9    6.77    2.01
  -5  -7   9    2.81    1.67
  -5  -7   8   80.13    4.46
  -5  -7   8   87.34    4.90
  -5  -7   7  120.11    5.15
   5   7  -6   12.56    2.21
  -5  -7   6    6.19    1.58
  -5  -7   6   12.02    1.16
   5   7  -5   24.76    2.69
  -5  -7   5   28.59    2.36
  -5  -7   5   28.67    1.47
   5   7  -4  153.95    5.99
  -5  -7   4  153.74    4.87
  -5  -7   4  152.96    3.36
  -5  -7   3   15.21    1.91
   5   7  -3   12.68    2.05
  -5  -7   3   14.59    1.53
   5   7  -2  259.61    7.66
  -5  -7   2  270.19    5.85
   5   7  -1   64.74    3.59
  -5  -7   1   65.72    3.57
   5   7  -1   56.00    1.69
  -5  -7   1   64.63    2.21
   5   7   0  343.63    8.65
  -5  -7   0  362.09    8.77
   5   7   0  340.09    5.88
   5   7   1  198.11    6.13
  -5  -7  -1  213.44    6.26
   5   7   1  199.66    4.24
   5   7   2  466.58   10.17
  -5  -7  -2  483.26   10.25
   5   7   2  462.10    8.28
  -5  -7  -3    1.76    1.11
   5   7   3    1.08    1.16
  -5  -7  -3   -0.48    1.16
   5   7   4   32.18    2.31
  -5  -7  -4   31.61    2.24
  -5  -7  -4   28.65    2.22
  -5  -7  -5  250.63    6.30
   5   7   5  235.89    3.81
  -5  -7  -5  246.27    6.22
  -5  -7  -6    2.11    1.08
   5   7   6    2.44    0.61
  -5  -7  -6    3.00    0.94
  -5  -7  -7    5.98    1.54
  -5  -7  -7   10.65    1.28
  -5  -7  -7    7.36    1.28
  -5  -7  -8  156.24    4.35
  -5  -7  -8  154.95    5.68
  -5  -7  -8  159.56    4.46
  -5  -7  -9   27.57    1.65
  -5  -7  -9   29.52    2.73
  -5  -7  -9   28.77    1.76
  -5  -7 -10    3.07    0.82
  -5  -7 -10    1.03    1.75
  -5  -7 -10    4.60    0.88
  -5  -7 -11  652.22   14.87
  -5  -7 -12    3.22    2.15
  -5  -7 -13   59.34    4.48
  -5  -7 -14   72.41    5.10
   5   7  14   69.35    4.60
  -5  -7 -15    1.27    2.13
   5   7  15   -0.09    1.71
   5   7  16    3.03    1.99
  -5  -8  11   -0.56    2.00
  -5  -8  11    6.47    2.11
  -5  -8  10    0.78    1.68
  -5  -8  10   -0.10    1.76
  -5  -8   9   52.58    3.98
  -5  -8   9   53.90    4.22
  -5  -8   8   71.22    4.30
   5   8  -7   67.72    4.54
  -5  -8   7   61.29    3.74
   5   8  -6   53.47    3.92
  -5  -8   6   50.95    3.24
   5   8  -5  242.51    8.17
  -5  -8   5  252.14    6.98
   5   8  -4    0.88    1.66
  -5  -8   4    0.40    1.06
   5   8  -3  116.88    5.23
  -5  -8   3  114.98    3.84
   5   8  -2    5.55    1.74
  -5  -8   2    6.07    0.97
   5   8  -1  207.56    6.81
   5   8   0  382.93    9.53
  -5  -8   0  395.04    9.66
   5   8   0  374.77    5.99
   5   8   1  359.79    9.07
  -5  -8  -1  381.10    9.30
   5   8   1  362.61    6.34
   5   8   2  261.06    7.28
  -5  -8  -2  270.54    7.39
   5   8   2  255.02    5.34
   5   8   3    0.77    1.32
  -5  -8  -3    0.16    1.05
   5   8   4  375.87    8.81
  -5  -8  -4  375.12    8.77
  -5  -8  -4  371.98    8.67
   5   8   5   51.01    2.91
  -5  -8  -5   47.74    2.72
  -5  -8  -5   51.18    2.87
  -5  -8  -6   83.71    3.53
  -5  -8  -6   80.78    3.44
  -5  -8  -7   51.27    2.67
  -5  -8  -7   53.90    3.48
  -5  -8  -7   54.28    2.71
  -5  -8  -8   23.26    2.53
  -5  -8  -8   22.50    1.72
  -5  -8  -8   22.74    1.82
  -5  -8  -9   92.52    3.26
  -5  -8  -9   90.01    4.54
  -5  -8  -9   95.69    3.31
  -5  -8 -10  240.36    5.47
  -5  -8 -10  266.96    8.53
  -5  -8 -10  257.16    5.56
  -5  -8 -11  114.41    5.69
  -5  -8 -12   44.04    3.77
  -5  -8 -13   97.78    5.76
  -5  -8 -14    0.42    2.06
  -5  -8 -15    3.46    2.48
   5   8  15   -1.49    1.87
   5   8  16    0.22    1.79
  -5  -9  10  106.91    5.82
  -5  -9  10   99.14    5.85
  -5  -9   9   16.33    2.73
   5   9  -8   50.35    4.30
  -5  -9   8   50.18    3.70
   5   9  -7   78.65    5.09
  -5  -9   7   73.19    4.11
   5   9  -6  236.19    8.45
  -5  -9   6  220.23    6.90
   5   9  -5    2.68    1.80
  -5  -9   5   -1.14    1.32
   5   9  -4    6.37    2.00
  -5  -9   4    2.60    1.03
   5   9  -3   52.13    3.82
   5   9  -2    5.89    1.86
   5   9  -1   48.93    3.46
   5   9   0    6.68    1.68
   5   9   1   26.23    2.50
   5   9   1   28.61    1.23
   5   9   2    4.00    1.47
  -5  -9  -2    7.13    1.70
   5   9   2    6.38    0.91
   5   9   3  123.69    4.93
  -5  -9  -3  128.63    5.01
   5   9   4    3.76    1.47
  -5  -9  -4    2.94    1.36
   5   9   5    8.10    1.53
  -5  -9  -5    9.48    1.61
  -5  -9  -5    8.18    1.54
   5   9   6   25.79    2.21
  -5  -9  -6   26.34    2.16
  -5  -9  -6   24.42    2.13
  -5  -9  -7    6.58    1.77
  -5  -9  -7    7.51    1.39
  -5  -9  -7    6.90    1.39
  -5  -9  -8   63.69    3.95
  -5  -9  -8   65.12    3.05
  -5  -9  -8   68.58    3.10
  -5  -9  -9   35.59    3.25
  -5  -9  -9   38.92    2.33
  -5  -9  -9   38.72    2.27
  -5  -9 -10  225.18    8.02
  -5  -9 -10  227.36    5.42
  -5  -9 -11   37.28    3.60
  -5  -9 -12   67.73    4.77
  -5  -9 -13    9.84    2.60
  -5  -9 -14   10.37    2.90
   5   9  16   10.57    2.45
  -5 -10  10   17.65    2.87
   5  10  -9   49.24    4.45
  -5 -10   9   48.38    3.93
   5  10  -8   45.00    4.20
  -5 -10   8   45.49    3.60
   5  10  -7   25.40    3.42
  -5 -10   7   28.61    2.78
   5  10  -6   18.10    2.89
  -5 -10   6   15.58    2.06
   5  10  -5   18.23    2.73
   5  10  -4    7.03    2.25
   5  10  -3   -1.53    1.81
   5  10  -2   90.99    4.94
   5  10  -1   45.98    3.59
   5  10   0  417.11   10.86
   5  10   1   24.20    2.69
   5  10   1   23.03    0.96
   5  10   1   22.55    0.95
   5  10   2    5.25    1.64
   5  10   2    5.42    0.79
   5  10   3   86.35    4.31
   5  10   4  106.03    4.69
  -5 -10  -5   16.05    1.99
   5  10   5   14.69    1.97
   5  10   6   31.22    2.55
  -5 -10  -6   30.06    2.48
  -5 -10  -6   27.54    2.41
  -5 -10  -7    3.59    1.19
  -5 -10  -7    5.59    1.32
  -5 -10  -8   -0.74    1.71
  -5 -10  -8    2.06    1.19
  -5 -10  -8    1.31    1.10
  -5 -10  -9  270.94    6.93
  -5 -10  -9  289.90    9.24
  -5 -10  -9  286.04    6.88
  -5 -10 -10   44.00    3.75
  -5 -10 -10   35.53    2.13
  -5 -10 -11   36.83    3.78
  -5 -10 -12   38.91    3.90
  -5 -10 -13   46.03    4.45
   5  11  -7   61.77    4.85
   5  11  -6   -1.16    1.97
   5  11  -5   -1.12    2.02
   5  11  -4   29.34    3.27
   5  11  -3    1.08    1.91
   5  11  -2  239.30    8.49
   5  11  -1  223.69    8.02
   5  11   0    7.11    2.09
   5  11   1    4.22    1.67
   5  11   2  241.13    7.88
   5  11   2  230.04    4.66
   5  11   2  243.02    4.72
   5  11   3   39.16    1.96
   5  11   3   34.89    3.00
   5  11   4    0.43    1.39
   5  11   5   35.50    2.88
   5  11   6   24.72    2.51
  -5 -11  -6   26.63    2.49
   5  11   7   17.64    2.12
  -5 -11  -7   16.39    1.96
  -5 -11  -7   15.67    1.89
  -5 -11  -8  148.72    5.32
  -5 -11  -8  160.11    6.86
  -5 -11  -8  164.09    5.38
  -5 -11  -9    9.47    2.33
  -5 -11  -9   11.22    1.63
  -5 -11 -10   10.93    2.67
  -5 -11 -10    7.22    1.34
  -5 -11 -11  199.25    8.25
  -5 -11 -12    8.19    2.72
  -5 -11 -13    5.43    2.69
   5  12  -6   12.41    2.66
   5  12  -5    8.51    2.33
   5  12  -4    3.19    2.02
   5  12  -3  168.56    7.49
   5  12  -2   67.41    4.67
   5  12  -1  112.15    5.87
   5  12   0   35.56    3.49
   5  12   1  226.45    8.11
   5  12   2    0.56    1.59
   5  12   2    1.21    0.53
   5  12   3    5.90    1.89
   5  12   4   77.91    4.40
   5  12   4   72.73    3.00
   5  12   5   14.42    2.21
   5  12   5   11.59    1.62
   5  12   6   36.94    3.03
   5  12   6   36.40    2.58
   5  12   7   66.73    3.82
  -5 -12  -7   53.75    3.40
  -5 -12  -8   23.05    3.10
  -5 -12  -8   21.15    2.21
  -5 -12  -9    9.57    2.31
  -5 -12  -9    5.71    1.44
  -5 -12 -10  141.60    7.01
  -5 -12 -11    8.36    2.97
  -5 -12 -12    6.96    2.65
   5  13  -4   39.13    4.13
   5  13  -3    1.78    2.23
   5  13  -2   63.96    4.89
   5  13  -1  136.00    6.71
   5  13   0  151.19    6.98
   5  13   1   94.02    5.40
   5  13   2    3.63    1.89
   5  13   3  114.18    5.66
   5  13   4   11.83    2.14
   5  13   5   12.90    2.31
   5  13   6    6.37    1.92
   5  13   7  125.30    5.49
  -5 -13  -7  125.27    5.32
  -5 -13  -8    8.83    2.61
   5  13   8   10.40    2.07
  -5 -13  -8    6.67    1.76
  -5 -13  -9  189.89    8.17
  -5 -13 -10   42.39    4.23
  -5 -13 -11   12.12    2.94
   5  14  -2   52.63    4.53
   5  14  -1    8.52    2.34
   5  14   0   84.73    5.48
   5  14   1   -2.06    2.08
   5  14   2   71.65    4.97
   5  14   3    5.33    2.17
   5  14   4   24.50    3.06
   5  14   5    6.25    2.14
   5  14   6   89.72    5.04
   5  14   7   13.86    2.45
  -5 -14  -7   18.72    2.50
   5  14   8   49.95    3.63
  -5 -14  -8   58.88    4.76
  -5 -14  -8   51.11    3.50
  -5 -14  -9  113.65    6.67
   5  15   0   20.92    3.29
   5  15   1    0.34    1.97
   5  15   2   45.74    4.13
   5  15   3   35.58    3.72
   5  15   4    7.00    2.12
   5  15   5   20.80    3.01
   5  15   6   16.01    2.78
   5  15   7    2.47    1.91
  -5 -15  -7    0.78    1.73
   5  15   8  185.66    7.19
   5  16   3    9.85    2.61
   5  16   4   20.00    3.11
   5  16   5    3.74    2.13
   5  16   6   64.90    4.72
   5  16   7  197.02    8.00
  -5 -16  -7  188.75    7.54
   5  17   6   67.46    5.07
  -6  15   4    0.13    2.03
   6 -15  -3   40.87    4.12
  -6  15   3   33.48    3.71
  -6  15   2   95.99    6.08
  -6  15   1   13.73    2.97
   6 -14  -6    7.04    2.55
   6 -14  -5    0.87    2.15
  -6  14   5    1.11    1.92
  -6  14   4   84.25    5.36
   6 -14  -4   93.38    5.70
  -6  14   3  103.98    5.89
   6 -14  -3  103.79    5.91
  -6  14   2    5.15    2.42
   6 -14  -1   28.38    3.01
  -6  14   1   38.35    3.97
   6 -14   0   74.35    4.46
  -6  14   0   82.65    5.46
   6 -14   1   25.68    2.81
  -6  14  -1   19.94    3.11
   6 -14   2   -2.40    1.64
  -6  14  -2    2.81    2.06
  -6  14  -3    5.66    2.50
   6 -13  -7    1.39    2.11
  -6  13   6    8.62    2.26
   6 -13  -6    7.08    2.43
   6 -13  -5   13.17    2.77
  -6  13   5   14.31    2.64
   6 -13  -4   11.94    2.55
  -6  13   4   12.16    2.42
   6 -13  -3    6.52    2.30
  -6  13   3    1.27    1.83
   6 -13  -2   14.17    2.50
  -6  13   2   14.30    2.66
   6 -13  -1  212.66    7.70
  -6  13   1  219.71    8.45
   6 -13   0   -0.05    1.63
  -6  13   0    2.00    1.86
   6 -13   1   37.00    3.05
  -6  13  -1   38.99    3.91
   6 -13   2   -1.25    1.42
  -6  13  -2    3.75    2.30
   6 -13   3    0.24    1.36
  -6  13  -3    2.15    2.14
   6 -13   4    5.44    1.60
  -6  13  -4    9.48    2.68
  -6  13  -5   31.79    3.75
  -6  13  -6  145.83    7.47
   6 -12  -8   -4.14    2.26
   6 -12  -7   13.67    2.67
  -6  12   6   10.36    2.22
   6 -12  -6    8.57    2.35
   6 -12  -5   17.89    2.79
  -6  12   5   19.53    2.68
  -6  12   4   78.27    4.75
   6 -12  -4   76.87    4.80
   6 -12  -3   -1.89    1.82
   6 -12  -3   -1.81    1.96
  -6  12   3    0.39    1.87
   6 -12  -2    7.87    2.05
  -6  12   2    6.82    2.14
   6 -12  -1   70.65    4.27
  -6  12   1   71.86    4.70
   6 -12   0   85.94    4.54
  -6  12   0   79.53    4.92
   6 -12   1    4.98    1.69
  -6  12  -1    5.26    1.95
   6 -12   2    0.86    1.35
  -6  12  -2    1.90    1.97
   6 -12   3    5.90    1.70
  -6  12  -3    6.61    2.23
   6 -12   4    0.37    1.27
  -6  12  -4    3.25    2.00
   6 -12   5  169.33    5.86
  -6  12  -5  173.24    7.71
   6 -12   6    6.32    1.63
  -6  12  -6    7.66    2.45
  -6  12  -7  209.71    8.70
  -6  12  -8    6.00    2.52
  -6  12  -9    1.48    2.03
   6 -11  -9   19.52    3.12
   6 -11  -8    4.66    2.14
   6 -11  -7    9.45    2.35
   6 -11  -6   50.02    4.07
   6 -11  -5   41.52    3.56
   6 -11  -4    2.84    1.89
   6 -11  -4   -0.19    1.67
   6 -11  -3    3.72    1.71
   6 -11  -3    5.02    1.88
   6 -11  -2  223.99    7.76
   6 -11  -1  169.01    6.46
   6 -11   0   20.26    2.42
   6 -11   1    2.14    1.44
   6 -11   2   82.81    4.21
  -6  11  -3   24.48    3.06
   6 -11   3   28.49    2.50
  -6  11  -4  100.48    5.56
   6 -11   4  100.96    4.45
  -6  11  -4  102.09    4.52
   6 -11   5   35.49    2.73
  -6  11  -5   33.80    3.49
   6 -11   6   49.71    3.16
  -6  11  -6   49.37    4.17
   6 -11   7  109.03    4.61
  -6  11  -7  114.41    6.24
   6 -11   8   55.27    3.34
  -6  11  -8   58.61    4.57
  -6  11  -9   28.51    3.50
  -6  11 -10    7.30    2.35
  -6  11 -11   28.54    3.57
   6 -10 -10   10.45    2.77
   6 -10  -9   49.91    4.35
   6 -10  -8   22.45    3.04
   6 -10  -7   86.38    5.18
   6 -10  -6   17.02    2.67
   6 -10  -5    1.40    1.81
   6 -10  -4   12.28    2.14
   6 -10  -4    8.31    2.13
   6 -10  -3  165.89    6.27
   6 -10  -3  180.33    6.91
   6 -10  -2   23.02    2.60
   6 -10  -1  191.38    6.76
   6 -10   0  142.28    5.64
   6 -10   1  183.98    6.35
   6 -10   2   27.08    2.47
   6 -10   3    1.17    1.30
  -6  10  -3    1.36    1.22
   6 -10   4  123.80    4.87
  -6  10  -4  116.62    4.78
  -6  10  -5    5.46    2.23
   6 -10   5    5.11    1.51
  -6  10  -6   98.90    5.41
   6 -10   6  102.78    4.43
  -6  10  -7   45.96    3.90
   6 -10   7   46.91    3.02
  -6  10  -8   42.66    3.85
   6 -10   8   41.99    2.95
  -6  10  -9    5.88    2.14
   6 -10   9    4.12    1.46
  -6  10 -10   23.46    3.19
   6 -10  10   29.44    2.64
  -6  10 -11    3.01    2.12
  -6  10 -12   -0.72    1.95
  -6  10 -13    2.29    2.16
   6  -9 -10   79.66    5.37
   6  -9  -9   20.67    3.12
   6  -9  -8    8.62    2.48
   6  -9  -7    3.51    1.94
   6  -9  -6    2.60    1.77
   6  -9  -5   55.47    3.75
   6  -9  -5   55.95    4.00
   6  -9  -5   57.84    3.37
   6  -9  -4  182.19    6.47
   6  -9  -4  175.50    6.89
   6  -9  -4  182.82    6.22
   6  -9  -3    8.67    1.89
   6  -9  -3    7.59    1.89
   6  -9  -2   18.17    2.36
   6  -9  -1  139.35    5.61
   6  -9   0   70.87    3.91
   6  -9   1    1.26    1.38
  -6   9  -1    1.78    1.29
   6  -9   2    0.79    1.30
  -6   9  -2    0.42    1.07
   6  -9   3    4.26    1.46
  -6   9  -3    6.13    1.46
   6  -9   4   36.22    2.73
  -6   9  -4   38.80    2.76
   6  -9   5  263.35    7.31
   6  -9   6    8.44    1.74
  -6   9  -7   74.84    4.63
   6  -9   7   70.77    3.63
  -6   9  -8   10.83    2.32
   6  -9   8    9.42    1.81
  -6   9  -9   13.04    2.53
   6  -9   9   12.26    1.89
  -6   9 -10    1.64    1.90
   6  -9  10    2.71    1.36
  -6   9 -11    1.64    1.90
   6  -9  11    2.11    1.44
  -6   9 -12    7.31    2.20
  -6   9 -13    4.85    2.39
  -6   9 -14   23.21    3.38
   6  -8 -11   30.86    3.85
   6  -8 -10    1.69    2.12
   6  -8  -9    6.08    2.22
   6  -8  -8    4.63    1.99
   6  -8  -7   27.44    3.00
   6  -8  -6   48.24    3.55
   6  -8  -6   55.51    3.16
   6  -8  -5    3.38    1.63
   6  -8  -5    7.68    2.09
   6  -8  -5    7.76    1.77
   6  -8  -4    5.50    1.62
   6  -8  -4    5.48    1.85
   6  -8  -4    5.55    1.51
   6  -8  -3   19.98    2.23
   6  -8  -3   18.79    2.47
   6  -8  -3   20.91    2.19
   6  -8  -2   31.21    2.53
   6  -8  -2   34.21    2.92
   6  -8  -2   31.98    2.62
   6  -8  -1    6.09    1.71
   6  -8  -1    4.78    1.52
  -6   8   0   62.93    3.55
   6  -8   0   58.58    3.44
   6  -8   1   29.13    2.50
  -6   8  -1   27.82    2.40
   6  -8   2    6.75    1.63
  -6   8  -2    6.18    1.45
   6  -8   3   13.40    1.87
  -6   8  -3   17.30    1.94
   6  -8   4   94.81    4.10
  -6   8  -4   92.57    4.09
   6  -8   5  220.64    6.52
   6  -8   5  227.83    6.62
   6  -8   6  157.07    5.61
   6  -8   6  152.48    5.33
   6  -8   7   95.73    4.23
  -6   8  -8   11.72    2.33
   6  -8   8   12.13    1.84
  -6   8  -9   49.06    3.82
   6  -8   9   50.93    3.24
  -6   8 -10   11.64    2.26
   6  -8  10   10.25    1.77
  -6   8 -11    1.51    1.82
   6  -8  11    2.19    1.39
  -6   8 -12   -0.96    1.89
   6  -8  12   -0.52    1.48
  -6   8 -13    3.62    2.15
   6  -8  13    2.00    1.82
  -6   8 -14   21.66    3.05
   6  -7 -11   49.25    4.38
   6  -7 -10   20.59    3.24
   6  -7  -9    1.60    1.88
   6  -7  -8   15.88    2.53
   6  -7  -7   44.37    3.51
   6  -7  -6   16.06    2.33
   6  -7  -6   17.28    1.85
   6  -7  -6   19.37    2.74
   6  -7  -5  243.75    7.33
   6  -7  -5  240.31    8.03
   6  -7  -5  240.11    6.73
   6  -7  -4   12.76    1.94
   6  -7  -4   10.82    2.09
   6  -7  -4   16.15    1.90
   6  -7  -3   76.54    3.63
   6  -7  -3   75.09    4.11
   6  -7  -3   78.80    3.77
   6  -7  -2  150.68    4.97
   6  -7  -2  155.26    5.79
   6  -7  -2  155.80    5.43
  -6   7   1  621.52   13.08
   6  -7  -1  604.31   12.89
   6  -7  -1  628.88   12.89
   6  -7   0    0.33    1.21
  -6   7   0   -1.35    1.18
   6  -7   1   21.67    2.14
  -6   7  -1   23.41    2.19
   6  -7   2   10.25    1.71
  -6   7  -2   10.16    1.62
   6  -7   3   48.29    2.93
  -6   7  -3   50.35    2.92
   6  -7   4  478.15   10.38
  -6   7  -4  481.39   10.45
   6  -7   5   89.43    3.78
   6  -7   5   90.51    3.97
   6  -7   6  149.34    5.20
   6  -7   6  154.11    5.25
   6  -7   7   91.62    4.20
   6  -7   7   93.28    4.12
   6  -7   8  528.52   11.46
  -6   7  -9    0.37    1.61
   6  -7   9    1.58    1.30
  -6   7 -10    3.42    1.73
   6  -7  10    4.32    1.58
  -6   7 -11   12.73    2.26
   6  -7  11   14.65    2.26
  -6   7 -12    1.35    1.69
   6  -7  12    0.46    1.52
  -6   7 -13    8.14    2.08
   6  -7  13   13.64    2.31
  -6   7 -14   37.81    3.62
   6  -7  14   46.93    3.76
   6  -6 -12  148.60    7.56
   6  -6 -11   23.94    3.37
   6  -6 -10   28.24    3.41
   6  -6  -9    2.61    1.90
   6  -6  -8   69.51    4.35
   6  -6  -7  192.93    6.91
   6  -6  -7  202.85    5.72
   6  -6  -6  110.79    4.91
   6  -6  -6  121.14    5.69
   6  -6  -6  115.31    4.27
   6  -6  -5   11.09    1.84
   6  -6  -5   10.06    1.59
   6  -6  -5    7.65    1.97
   6  -6  -4    0.95    1.24
   6  -6  -4   -0.17    1.45
   6  -6  -4    1.23    1.17
   6  -6  -3  413.77    9.10
   6  -6  -3  409.31   10.20
   6  -6  -3  416.17    9.38
   6  -6  -2  242.83    6.26
  -6   6   2  254.75    7.45
   6  -6  -2  239.41    7.22
   6  -6  -2  251.63    6.91
   6  -6  -1   27.22    1.98
  -6   6   1   27.18    2.36
   6  -6  -1   27.99    2.43
   6  -6  -1   28.74    2.33
   6  -6   0    1.08    1.26
   6  -6   0   -0.67    1.27
  -6   6   0    1.64    1.19
   6  -6   1  104.28    4.24
  -6   6  -1  106.17    4.30
   6  -6   2   87.70    3.87
  -6   6  -2   95.75    3.97
   6  -6   3  224.27    6.36
  -6   6  -3  228.24    6.41
  -6   6  -4    2.57    1.05
   6  -6   4   -0.25    1.20
   6  -6   5  224.72    5.95
   6  -6   5  228.15    6.43
   6  -6   6  351.69    8.22
   6  -6   6  354.68    8.50
   6  -6   7  240.26    6.78
   6  -6   7  230.83    6.68
   6  -6   8   24.05    2.39
   6  -6   8   24.76    2.34
   6  -6   9   17.44    2.14
  -6   6 -10   13.28    2.25
   6  -6  10   12.56    1.97
  -6   6 -11   24.25    2.78
   6  -6  11   23.48    2.48
  -6   6 -12   60.08    3.95
   6  -6  12   60.46    3.89
  -6   6 -13   -0.60    1.63
   6  -6  13    1.17    1.65
  -6   6 -14   27.10    2.94
   6  -6  14   23.37    2.91
   6  -6  15    7.50    2.34
   6  -5 -12   -0.06    2.07
   6  -5 -11   38.58    3.87
   6  -5 -10   44.16    3.90
   6  -5  -9  115.30    5.70
   6  -5  -8   96.64    4.96
   6  -5  -7  161.96    6.13
   6  -5  -7  172.71    5.17
   6  -5  -6   -0.13    1.33
   6  -5  -6    0.55    0.99
   6  -5  -6    2.28    1.72
   6  -5  -5   34.96    2.56
   6  -5  -5   36.56    3.04
   6  -5  -5   34.87    2.36
   6  -5  -4  390.92    8.92
   6  -5  -4  395.11   10.07
   6  -5  -4  419.80    9.14
   6  -5  -3  236.21    6.13
   6  -5  -3  238.15    7.21
   6  -5  -3  242.43    6.50
   6  -5  -2   13.48    1.51
   6  -5  -2   16.96    2.10
   6  -5  -2   16.50    1.78
  -6   5   2   13.54    1.85
   6  -5  -1  101.99    3.40
  -6   5   1  104.54    4.34
   6  -5  -1  108.59    4.39
   6  -5  -1  101.79    4.11
   6  -5   0  340.14    8.29
  -6   5   0  332.63    8.20
   6  -5   0  333.14    8.14
   6  -5   1   98.80    4.05
  -6   5  -1  101.35    4.08
   6  -5   1  100.97    4.17
   6  -5   2   79.55    3.58
  -6   5  -2   78.38    3.53
   6  -5   3    6.76    1.41
  -6   5  -3    7.63    1.34
   6  -5   4  145.03    4.09
   6  -5   4  148.17    4.90
  -6   5  -4  144.94    4.89
   6  -5   5  419.11    8.51
   6  -5   5  417.95    9.26
   6  -5   6   66.55    3.01
  -6   5  -6   67.71    3.63
   6  -5   6   65.16    3.31
   6  -5   7  174.34    5.43
   6  -5   7  177.82    5.69
   6  -5   8    0.12    1.09
   6  -5   8    0.28    1.25
   6  -5   9   13.45    1.91
   6  -5   9   12.51    1.94
  -6   5 -10   14.97    2.17
   6  -5  10   15.80    2.14
  -6   5 -11   10.26    1.98
   6  -5  11    7.25    1.83
  -6   5 -12    3.32    1.61
   6  -5  12    7.98    1.95
  -6   5 -13   54.41    3.61
   6  -5  13   60.96    4.00
  -6   5 -14   82.20    4.41
   6  -5  14   79.32    4.82
   6  -4 -12   13.58    2.91
   6  -4 -11   83.34    5.37
   6  -4 -10   44.11    3.84
   6  -4  -9   18.05    2.60
  -6   4   8   28.38    2.29
   6  -4  -8   28.21    2.82
   6  -4  -7   33.42    2.89
   6  -4  -7   35.36    2.31
   6  -4  -6    8.04    1.35
   6  -4  -6    5.89    1.50
   6  -4  -6    5.61    1.70
   6  -4  -5   94.00    4.00
   6  -4  -5   95.76    4.67
   6  -4  -5   94.68    3.74
   6  -4  -4    4.87    1.31
   6  -4  -4    5.21    1.20
   6  -4  -4    7.81    1.84
   6  -4  -3  160.02    4.71
  -6   4   3  166.21    5.72
   6  -4  -3  165.49    5.72
   6  -4  -3  163.56    5.06
   6  -4  -2  123.99    3.79
  -6   4   2  130.52    4.85
   6  -4  -2  117.77    4.65
   6  -4  -2  120.30    4.33
   6  -4  -1  223.28    5.07
  -6   4   1  240.18    6.64
   6  -4  -1  219.38    6.37
   6  -4  -1  227.77    6.25
   6  -4   0  130.50    3.42
   6  -4   0  132.79    4.72
  -6   4   0  139.04    4.77
   6  -4   0  133.10    4.60
   6  -4   1    4.37    1.35
   6  -4   1    3.97    1.27
  -6   4  -1    2.00    1.21
  -6   4  -2   26.13    2.07
   6  -4   2   27.73    2.21
   6  -4   2   24.86    2.07
   6  -4   3   96.86    3.85
  -6   4  -3   99.54    3.86
   6  -4   3   99.36    4.05
   6  -4   4    2.49    0.74
   6  -4   4    2.39    1.19
  -6   4  -4    3.98    1.20
   6  -4   5    6.82    1.05
   6  -4   5    8.14    1.46
   6  -4   6  229.37    5.76
  -6   4  -6  246.25    6.86
   6  -4   6  229.56    6.42
   6  -4   7    2.24    0.96
  -6   4  -7    4.37    1.39
   6  -4   7    2.58    1.29
   6  -4   8  229.78    6.48
   6  -4   8  240.54    6.90
   6  -4   9    0.06    1.17
   6  -4   9    0.15    1.29
   6  -4  10    8.54    1.76
  -6   4 -11    5.60    1.56
  -6   4 -12   18.33    2.19
  -6   4 -13   44.49    3.11
  -6   4 -14    3.28    1.48
   6  -3 -12   37.80    3.91
   6  -3 -11   -0.25    1.95
   6  -3 -10    7.68    2.25
   6  -3  -9    0.17    1.74
   6  -3  -8    2.52    1.65
  -6   3   8   -0.29    1.10
   6  -3  -7   16.89    2.22
   6  -3  -6    1.84    1.24
   6  -3  -6    1.19    1.04
  -6   3   6    5.20    1.55
   6  -3  -6    0.01    1.58
   6  -3  -5   80.04    3.63
  -6   3   5   85.65    3.68
   6  -3  -5   78.26    4.15
   6  -3  -5   80.77    3.43
   6  -3  -4  145.29    4.65
   6  -3  -4  147.85    5.50
  -6   3   4  168.02    5.74
   6  -3  -4  152.99    4.82
   6  -3  -3   52.69    2.51
  -6   3   3   55.19    3.17
   6  -3  -3   53.31    3.19
   6  -3  -3   55.66    2.86
   6  -3  -2    1.52    0.84
   6  -3  -2    0.15    1.05
   6  -3  -2    0.49    1.21
  -6   3   2    0.99    1.04
   6  -3  -1  218.47    4.75
   6  -3  -1  230.69    6.36
  -6   3   1  229.75    6.37
   6  -3  -1  225.28    6.05
   6  -3   0   13.37    0.99
   6  -3   0   12.45    1.73
   6  -3   0   16.33    1.79
  -6   3   0   13.36    1.55
   6  -3   1   31.96    2.31
  -6   3  -1   33.80    2.31
   6  -3   1   34.79    2.37
   6  -3   2   15.17    1.70
  -6   3  -2   14.83    1.62
   6  -3   2   13.33    1.65
   6  -3   3   49.39    1.72
   6  -3   3   50.62    2.75
  -6   3  -3   52.16    2.77
   6  -3   3   50.66    2.84
   6  -3   4  409.00    7.29
   6  -3   4  416.85    8.97
  -6   3  -4  421.03    9.00
   6  -3   4  429.46    9.30
   6  -3   5  271.22    5.75
   6  -3   5  276.04    6.96
   6  -3   5  279.44    7.21
   6  -3   6   62.94    2.64
  -6   3  -6   65.24    3.29
   6  -3   6   62.24    3.16
   6  -3   7    1.81    0.88
  -6   3  -7    1.93    1.33
   6  -3   7    1.27    1.23
   6  -3   8  198.02    5.72
  -6   3  -8  200.03    6.39
   6  -3   8  192.40    6.10
   6  -3   9   28.58    2.32
  -6   3  -9   23.71    2.20
   6  -3   9   27.49    2.52
   6  -3  10   26.54    2.44
  -6   3 -10   23.57    2.29
  -6   3 -11    1.70    1.20
  -6   3 -11    1.92    1.44
  -6   3 -12    0.45    1.19
  -6   3 -12    0.37    1.50
  -6   3 -13   35.61    2.66
  -6   3 -13   37.43    3.38
  -6   3 -14  205.37    6.32
  -6   3 -14  201.45    7.87
  -6   3 -15    2.03    2.32
  -6   3 -16    5.32    2.42
   6  -2 -12   15.36    3.21
   6  -2 -11   24.67    3.30
   6  -2 -10   -3.05    2.03
   6  -2  -9    1.42    1.63
  -6   2   9    2.66    1.12
  -6   2   8   35.63    2.53
   6  -2  -8   31.38    2.86
  -6   2   8   33.34    2.38
  -6   2   7    3.05    1.19
   6  -2  -7    8.59    1.80
  -6   2   7    5.11    1.17
   6  -2  -6   60.00    3.39
  -6   2   6   75.40    3.67
   6  -2  -6   65.69    3.84
  -6   2   6   65.53    3.20
   6  -2  -5    3.78    1.06
   6  -2  -5    4.50    1.35
  -6   2   5    2.57    1.08
   6  -2  -5    2.81    1.49
  -6   2   5    5.56    1.36
   6  -2  -4   27.09    1.99
  -6   2   4   27.78    1.94
   6  -2  -4   30.19    2.61
  -6   2   4   32.80    2.51
   6  -2  -4   29.62    2.13
  -6   2   4   35.36    2.39
   6  -2  -3   83.17    3.07
  -6   2   3   80.89    2.99
  -6   2   3   95.83    4.04
   6  -2  -3   88.85    3.94
   6  -2  -3   83.95    3.47
  -6   2   3   86.95    3.58
   6  -2  -2  288.82    5.97
   6  -2  -2  290.01    7.37
  -6   2   2  305.88    7.53
   6  -2  -2  293.44    7.07
  -6   2   2  283.07    7.02
   6  -2  -1   13.67    1.56
   6  -2  -1   11.92    1.00
   6  -2  -1   13.90    1.81
  -6   2   1   14.92    1.73
  -6   2   1   15.85    1.87
   6  -2   0    0.70    0.52
   6  -2   0    1.87    1.31
  -6   2   0    0.90    0.98
  -6   2   0    2.12    1.33
   6  -2   0    0.30    0.95
   6  -2   1  124.97    2.36
   6  -2   1  127.20    4.34
   6  -2   1  123.29    4.21
  -6   2  -1  136.46    4.40
   6  -2   2    3.26    0.39
   6  -2   2    2.99    1.24
   6  -2   2    2.57    1.06
  -6   2  -2    2.63    1.01
   6  -2   3  137.32    2.73
  -6   2  -3  143.38    4.54
   6  -2   3  139.99    4.48
   6  -2   3  140.66    4.61
   6  -2   4  185.82    3.83
   6  -2   4  197.60    5.56
   6  -2   4  191.22    5.44
   6  -2   5  280.39    5.65
   6  -2   5  300.02    7.21
   6  -2   5  290.09    7.10
   6  -2   6  101.19    3.24
  -6   2  -6  100.78    3.94
   6  -2   6   95.01    3.92
   6  -2   6   99.86    3.95
  -6   2  -7  372.07    8.00
   6  -2   7  399.13    8.18
  -6   2  -7  421.99    9.25
   6  -2   7  395.43    9.10
   6  -2   7  400.94    9.01
   6  -2   8    2.71    1.10
  -6   2  -8    2.99    1.14
  -6   2  -8    5.06    1.34
   6  -2   8    4.50    1.28
  -6   2  -9    2.45    1.28
   6  -2   9    2.84    1.20
   6  -2   9    0.68    1.13
   6  -2  10   28.87    2.49
  -6   2 -10   27.22    2.42
   6  -2  10   21.78    2.17
  -6   2 -11   42.80    3.17
   6  -2  11   42.76    2.91
  -6   2 -12   94.69    4.79
  -6   2 -12  100.36    4.02
   6  -2  12   90.50    4.86
   6  -2  12   89.35    4.17
  -6   2 -13   98.33    5.19
  -6   2 -13   88.21    3.82
   6  -2  13   92.38    5.21
   6  -2  13   90.89    4.26
  -6   2 -14    2.51    1.96
   6  -2  14    3.93    2.06
  -6   2 -14    1.59    1.10
  -6   2 -15   12.89    2.81
   6  -2  15   10.18    2.62
  -6   2 -16   96.26    5.92
   6  -1 -12   14.11    2.82
   6  -1 -11   16.04    2.82
   6  -1 -10    2.33    1.72
  -6   1  10    1.14    1.22
   6  -1  -9   35.39    3.22
  -6   1   9   37.68    2.63
  -6   1   8    2.21    1.20
   6  -1  -8    2.02    1.66
  -6   1   8    1.48    1.17
  -6   1   7  422.36    9.46
   6  -1  -7  410.39   10.14
  -6   1   7  427.67    9.43
   6  -1  -6   13.48    1.88
  -6   1   6   11.87    1.63
  -6   1   6   12.18    1.76
   6  -1  -6   13.20    2.05
  -6   1   6   15.69    1.76
   6  -1  -5  140.91    4.78
  -6   1   5  140.88    4.74
   6  -1  -5  143.32    5.34
  -6   1   5  156.62    5.54
  -6   1   5  142.30    4.78
  -6   1   4  438.74    8.96
   6  -1  -4  436.31    8.98
   6  -1  -4  444.63    9.97
  -6   1   4  460.24   10.16
  -6   1   4  442.31    9.41
   6  -1  -4  426.49    9.23
  -6   1   3  838.44   13.91
   6  -1  -3  820.67   13.92
  -6   1   3  901.86   15.67
   6  -1  -3  856.97   15.44
   6  -1  -3  842.45   14.83
  -6   1   3  856.02   14.99
   6  -1  -2    3.63    0.91
   6  -1  -2    4.72    1.22
  -6   1   2    3.37    0.86
   6  -1  -2    2.11    1.13
  -6   1   2    5.97    1.40
  -6   1   2    5.19    1.42
   6  -1  -1   93.86    2.49
  -6   1   1   87.78    2.44
   6  -1  -1   92.81    3.71
  -6   1   1   92.09    3.66
  -6   1   1   88.00    3.56
   6  -1  -1   94.83    3.62
   6  -1   0  168.19    3.11
   6  -1   0  166.85    4.97
   6  -1   0  159.13    4.87
  -6   1   0  174.17    5.00
  -6   1   0  168.47    5.03
   6  -1   1  201.95    5.48
  -6   1  -1  210.13    5.56
   6  -1   1  210.58    5.65
  -6   1  -1  203.73    5.57
   6  -1   2 1039.97   17.13
  -6   1  -2 1058.73   17.20
   6  -1   2 1028.49   17.21
  -6   1  -2 1045.11   17.32
   6  -1   3   31.98    2.21
  -6   1  -3   34.06    2.19
   6  -1   3   32.74    2.16
   6  -1   4  214.41    3.99
   6  -1   4  228.23    5.95
   6  -1   4  223.53    5.89
  -6   1  -5  267.08    5.22
   6  -1   5  269.84    5.28
  -6   1  -5  275.80    6.45
   6  -1   5  282.66    6.88
   6  -1   5  278.39    6.80
  -6   1  -6  848.78   13.75
   6  -1   6  844.44   13.75
  -6   1  -6  905.97   15.16
   6  -1   6  884.04   15.14
   6  -1   6  865.18   15.39
   6  -1   7    3.75    1.00
  -6   1  -7    2.47    0.99
  -6   1  -7    0.08    1.09
   6  -1   7    3.04    1.21
  -6   1  -8    5.93    1.31
   6  -1   8    8.31    1.33
  -6   1  -8    9.61    1.45
   6  -1   8   10.74    1.54
  -6   1  -9  110.76    4.24
   6  -1   9  110.71    4.31
   6  -1   9  121.65    4.38
   6  -1  10   20.41    2.09
  -6   1 -10   21.86    2.21
   6  -1  10   18.88    1.95
  -6   1 -11    3.67    1.52
   6  -1  11    6.36    1.89
   6  -1  11    3.61    1.26
  -6   1 -12   85.19    4.53
  -6   1 -12   92.30    3.65
   6  -1  12   91.67    4.85
   6  -1  12   93.40    4.00
  -6   1 -13   76.56    4.60
  -6   1 -13   87.69    3.51
   6  -1  13   76.81    4.71
   6  -1  13   85.42    3.84
  -6   1 -14    6.23    2.20
   6  -1  14    4.82    2.11
  -6   1 -15  173.70    7.60
   6  -1  15  163.20    7.39
  -6   1 -16   24.10    3.33
   6  -1  16   25.17    3.39
   6   0 -12    9.44    2.25
   6   0 -11   14.18    2.79
   6   0 -10  112.49    5.79
  -6   0  10  118.40    4.74
  -6   0   9   47.36    3.09
   6   0  -9   30.87    3.07
  -6   0   9   35.93    2.72
  -6   0   8   11.05    1.63
   6   0  -8   12.66    2.24
  -6   0   8   11.05    1.76
  -6   0   7   22.15    2.09
   6   0  -7   21.22    2.34
  -6   0   7   23.06    2.17
   6   0  -6    6.43    1.58
  -6   0   6    5.87    1.42
  -6   0   6    3.89    1.14
   6   0  -6    6.99    1.65
  -6   0   6    5.19    1.32
  -6   0   5  270.21    6.94
   6   0  -5  259.45    6.83
  -6   0   5  269.72    7.03
   6   0  -5  260.28    7.35
  -6   0   5  280.16    7.50
  -6   0   5  263.55    6.96
  -6   0   4  265.82    6.44
   6   0  -4  249.28    6.27
  -6   0   4  256.04    6.78
  -6   0   4  278.79    7.19
   6   0  -4  261.19    6.98
  -6   0   4  255.44    6.73
   6   0  -3   37.11    2.06
  -6   0   3   38.08    2.11
  -6   0   3   38.66    2.50
   6   0  -3   41.10    2.61
  -6   0   3   36.36    2.47
   6   0  -3   38.99    2.42
   6   0  -2   16.61    1.70
  -6   0   2   18.48    1.36
   6   0  -2   18.81    1.34
   6   0  -2   16.35    1.79
  -6   0   2   19.22    1.80
  -6   0   2   18.87    1.88
  -6   0   1  267.74    5.13
   6   0  -1  277.08    5.14
   6   0  -1  271.57    6.64
  -6   0   1  283.58    6.73
  -6   0   1  283.26    6.80
   6   0  -1  279.75    6.77
  -6   0   0  138.81    2.77
   6   0   0  146.10    4.48
  -6   0   0  150.00    4.49
  -6   0   0  140.65    4.52
   6   0   0  145.51    4.54
   6   0   1  247.99    6.07
   6   0   1  244.49    6.19
  -6   0  -1  247.35    6.25
  -6   0  -1  246.42    6.09
   6   0   2   93.19    3.50
  -6   0  -2   96.75    3.54
   6   0   2   97.68    3.65
  -6   0  -2   95.84    3.65
   6   0   3   57.46    2.79
  -6   0  -3   53.78    2.83
   6   0   3   52.94    2.69
  -6   0  -3   55.38    2.66
   6   0   4  749.04   11.17
  -6   0  -4  783.16   11.18
   6   0   4  781.27   13.62
   6   0   4  796.12   13.68
  -6   0  -4  803.41   13.68
  -6   0  -5  142.87    3.35
   6   0   5  133.49    3.28
  -6   0  -5  146.96    4.20
   6   0   5  143.26    4.49
   6   0   5  141.13    4.59
  -6   0  -6   47.63    2.09
   6   0   6   44.77    2.02
  -6   0  -6   50.96    2.51
   6   0   6   48.34    2.60
   6   0   6   47.91    2.78
  -6   0  -7    1.49    0.94
   6   0   7    1.17    0.82
  -6   0  -7    2.24    1.04
   6   0   7    2.36    1.09
   6   0   8  139.64    4.49
  -6   0  -8  151.88    4.66
   6   0   8  143.21    4.56
   6   0   9   34.29    2.39
  -6   0  -9   40.51    2.62
   6   0   9   38.27    2.40
  -6   0 -10   25.14    2.39
   6   0  10   20.88    2.33
   6   0  10   24.07    2.38
   6   0  10   23.55    2.02
  -6   0 -11  163.47    5.90
   6   0  11  157.85    5.94
   6   0  11  158.81    4.97
  -6   0 -12   63.55    3.95
   6   0  12   54.07    3.77
   6   0  12   57.13    2.95
  -6   0 -13   71.83    4.47
  -6   0 -13   77.24    3.05
   6   0  13   70.23    4.37
   6   0  13   71.98    3.32
  -6   0 -14   94.13    5.33
   6   0  14   94.17    5.33
  -6   0 -15   52.09    4.35
   6   0  15   54.58    4.37
  -6   0 -16    2.61    2.04
   6   0  16    8.80    3.42
   6   1 -12   40.83    4.11
   6   1 -11   33.26    3.54
   6   1 -10    5.62    2.19
  -6  -1  10    6.19    1.65
   6   1  -9    2.53    1.78
  -6  -1   9    2.85    1.46
  -6  -1   8    4.80    1.29
   6   1  -8   10.45    2.21
  -6  -1   8   14.11    2.02
  -6  -1   7    5.22    1.38
   6   1  -7    3.57    1.59
  -6  -1   7    4.46    1.56
   6   1  -6   84.64    3.98
  -6  -1   6   91.67    4.11
  -6  -1   6   86.81    3.89
  -6  -1   6   81.65    3.94
  -6  -1   6   87.65    3.93
  -6  -1   5   21.69    1.95
   6   1  -5   17.62    1.93
  -6  -1   5   17.01    1.79
  -6  -1   5   19.05    1.88
  -6  -1   5   20.01    2.04
   6   1  -5   16.31    1.90
   6   1  -4  165.46    4.93
  -6  -1   4  178.93    5.15
  -6  -1   4  171.82    5.38
   6   1  -4  162.13    5.27
  -6  -1   4  183.40    5.51
  -6  -1   4  167.85    5.37
   6   1  -3   14.15    1.39
  -6  -1   3   16.66    1.53
  -6  -1   3   16.30    1.90
  -6  -1   3   12.84    1.58
   6   1  -3   13.80    1.69
  -6  -1   3   16.68    1.67
  -6  -1   2   97.34    3.08
  -6  -1   2   98.50    3.67
   6   1  -2   99.60    3.68
   6   1  -2   89.88    3.71
  -6  -1   2   92.83    3.81
   6   1  -1    0.45    0.98
  -6  -1   1    3.16    0.74
   6   1  -1    1.46    1.07
  -6  -1   1    0.27    0.90
  -6  -1   1    0.06    1.19
   6   1   0    8.63    1.37
  -6  -1   0    8.10    0.74
   6   1   0    7.47    1.34
  -6  -1   0    8.44    1.53
  -6  -1   0    8.42    1.25
  -6  -1  -1   71.24    1.63
   6   1   1   66.29    3.03
  -6  -1  -1   71.89    2.91
  -6  -1  -1   73.11    3.21
   6   1   1   72.16    3.13
  -6  -1  -2  198.50    5.45
  -6  -1  -2  208.47    5.34
   6   1   2  201.68    5.30
   6   1   2  204.20    5.47
  -6  -1  -3    2.85    0.46
   6   1   3    3.38    1.16
   6   1   3    3.63    1.20
  -6  -1  -3    2.67    1.28
  -6  -1  -4   42.49    1.50
   6   1   4   43.59    2.46
   6   1   4   39.75    2.40
  -6  -1  -4   41.24    2.49
  -6  -1  -5  849.16   12.90
  -6  -1  -5  839.50   13.73
   6   1   5  836.08   14.41
   6   1   5  852.32   14.76
  -6  -1  -5  836.21   14.42
  -6  -1  -6   10.86    1.20
   6   1   6    9.83    1.04
  -6  -1  -6    8.79    1.20
   6   1   6   12.01    1.44
   6   1   7   18.83    1.58
  -6  -1  -7   17.59    1.60
   6   1   7   21.37    1.79
  -6  -1  -8   61.49    2.93
   6   1   8   61.95    2.90
   6   1   8   57.41    2.73
   6   1   9   48.01    2.75
  -6  -1  -9   46.68    2.77
   6   1   9   43.99    2.80
   6   1   9   46.34    2.46
   6   1  10   26.67    2.77
  -6  -1 -10   32.08    2.60
   6   1  10   25.84    2.43
   6   1  10   29.56    2.02
  -6  -1 -11   71.91    3.94
   6   1  11   72.20    3.95
   6   1  11   71.47    3.06
  -6  -1 -12   63.76    3.98
   6   1  12   69.04    4.02
   6   1  12   70.18    3.03
  -6  -1 -13   75.45    4.51
  -6  -1 -13   75.96    2.78
   6   1  13   86.50    4.76
   6   1  13   73.33    3.13
  -6  -1 -14  271.43    9.13
   6   1  14  266.62    8.95
  -6  -1 -15   11.53    2.51
   6   1  15   12.92    2.60
  -6  -1 -16   64.20    4.95
   6   1  16   62.94    4.79
   6   2 -12    4.70    2.34
   6   2 -11   37.48    3.78
   6   2 -10    2.43    1.93
  -6  -2  10    6.26    1.74
   6   2  -9    3.78    1.73
  -6  -2   9    7.86    1.82
   6   2  -8   -1.00    1.58
  -6  -2   8   -1.96    1.39
   6   2  -7   80.30    4.14
  -6  -2   7   83.35    3.99
  -6  -2   7   75.81    3.87
  -6  -2   7   73.16    3.81
  -6  -2   6   29.26    2.46
   6   2  -6   27.17    2.43
  -6  -2   6   24.61    2.21
  -6  -2   6   25.44    2.25
  -6  -2   6   21.91    2.13
   6   2  -5  123.83    4.52
  -6  -2   5  125.40    4.64
  -6  -2   5  126.15    4.76
   6   2  -5  120.23    4.53
  -6  -2   5  121.72    4.55
  -6  -2   5  127.97    4.78
  -6  -2   4  129.51    4.44
  -6  -2   4  136.46    4.84
  -6  -2   4  132.90    4.52
   6   2  -4  129.82    4.54
  -6  -2   4  135.12    4.85
  -6  -2   3   10.44    1.33
  -6  -2   3    9.84    1.66
  -6  -2   3    9.61    1.50
   6   2  -3    8.00    1.40
  -6  -2   3    8.96    1.32
  -6  -2   2  472.17    8.91
  -6  -2   2  488.28   10.22
  -6  -2   2  482.75    9.48
   6   2  -2  480.37    9.44
  -6  -2   2  499.00   10.21
  -6  -2   1   31.42    1.65
  -6  -2   1   30.18    2.20
   6   2  -1   27.87    1.94
  -6  -2   1   30.14    2.28
  -6  -2   1   31.56    1.98
   6   2   0   20.11    1.81
  -6  -2   0   21.16    1.24
  -6  -2   0   20.21    1.95
   6   2   0   20.82    1.74
  -6  -2   0   22.95    1.70
  -6  -2  -1   79.31    2.11
   6   2   1   73.57    2.96
  -6  -2  -1   76.84    2.96
   6   2   1   77.82    3.25
  -6  -2  -1   82.62    3.45
  -6  -2  -2  287.20    6.89
   6   2   2  284.12    6.81
  -6  -2  -2  297.09    6.54
   6   2   2  289.98    6.50
  -6  -2  -3  434.50    6.96
  -6  -2  -3  424.47    8.83
   6   2   3  429.65    8.86
   6   2   3  440.12    8.71
  -6  -2  -4  750.35   11.38
  -6  -2  -4  724.14   11.72
   6   2   4  759.42   13.19
  -6  -2  -4  763.10   13.17
   6   2   4  740.45   13.04
  -6  -2  -5   49.37    2.02
  -6  -2  -5   50.46    2.11
   6   2   5   46.64    2.49
  -6  -2  -5   51.11    2.64
  -6  -2  -6   99.66    3.22
   6   2   6  103.57    3.60
  -6  -2  -6  105.33    3.71
   6   2   7  399.02    8.24
  -6  -2  -7  412.20    8.34
   6   2   7  418.71    8.40
  -6  -2  -8   54.91    2.84
   6   2   8   50.60    2.70
   6   2   8   50.68    2.65
   6   2   8   52.54    2.50
   6   2   9    1.98    0.98
  -6  -2  -9    1.63    1.25
   6   2   9    0.46    1.13
   6   2   9    0.09    1.05
  -6  -2 -10   10.43    1.79
   6   2  10   10.46    1.31
   6   2  10    8.52    1.62
   6   2  10    9.08    1.64
  -6  -2 -11   38.39    3.00
   6   2  11   38.36    2.92
   6   2  11   38.85    2.16
  -6  -2 -12   -0.02    1.61
   6   2  12    1.08    0.99
   6   2  12   -0.04    1.50
  -6  -2 -13  431.39   11.50
   6   2  13  427.73   11.22
  -6  -2 -13  435.66    7.49
  -6  -2 -14    0.17    1.87
   6   2  14    0.16    1.71
  -6  -2 -15   79.11    5.27
   6   2  15   70.12    4.74
  -6  -2 -16   29.32    3.52
   6   2  16   31.35    3.61
  -6  -3  11    5.10    1.93
  -6  -3  10   -1.38    1.45
  -6  -3   9    1.69    1.51
  -6  -3   8    8.05    1.76
  -6  -3   7  146.84    5.31
  -6  -3   7  152.68    5.69
  -6  -3   6  119.28    4.90
  -6  -3   6  110.77    4.69
  -6  -3   6  109.55    4.33
  -6  -3   6  109.75    4.68
  -6  -3   5   50.83    3.06
  -6  -3   5   43.25    2.86
  -6  -3   5   41.35    2.53
   6   3  -5   45.47    2.72
  -6  -3   5   49.49    3.11
  -6  -3   4   65.05    3.20
  -6  -3   4   69.90    3.58
   6   3  -4   67.45    3.12
  -6  -3   4   63.19    2.98
  -6  -3   4   70.41    3.64
  -6  -3   3  749.91   13.35
  -6  -3   3  769.93   14.33
   6   3  -3  719.30   12.96
  -6  -3   3  742.91   13.12
  -6  -3   3  752.83   14.20
  -6  -3   2    7.23    1.59
  -6  -3   2    5.22    1.05
  -6  -3   2    4.32    1.21
   6   3  -2    5.56    1.13
  -6  -3   2    6.61    1.09
  -6  -3   1   42.26    2.08
  -6  -3   1   43.49    2.67
   6   3  -1   44.08    2.28
  -6  -3   1   44.97    2.26
  -6  -3   1   42.29    2.69
  -6  -3   0   48.65    2.02
  -6  -3   0   44.54    2.65
   6   3   0   44.79    2.25
  -6  -3   0   45.02    2.23
  -6  -3   0   44.38    2.72
  -6  -3  -1   79.78    3.41
   6   3   1   73.42    2.87
  -6  -3  -1   75.58    3.37
  -6  -3  -1   76.08    2.88
  -6  -3  -2  119.25    4.14
   6   3   2  110.45    3.98
  -6  -3  -2  116.06    4.12
   6   3   2  115.01    3.69
   6   3   3  174.14    5.04
   6   3   3  175.22    4.81
  -6  -3  -3  183.24    5.19
   6   3   4    5.82    1.23
  -6  -3  -4    5.19    0.93
  -6  -3  -4    6.25    0.80
  -6  -3  -4    6.79    1.47
   6   3   4    7.19    1.39
  -6  -3  -5   17.98    1.42
   6   3   5   17.04    1.55
  -6  -3  -5   17.21    1.74
  -6  -3  -6  142.82    4.10
   6   3   6  137.19    4.21
  -6  -3  -6  140.10    4.31
  -6  -3  -7  150.20    4.55
  -6  -3  -7  147.32    4.40
   6   3   7  147.07    4.32
  -6  -3  -8   19.60    1.89
   6   3   8   19.78    1.68
   6   3   8   21.95    1.67
  -6  -3  -9   12.99    1.84
   6   3   9   12.80    1.36
   6   3   9   11.81    1.57
   6   3   9   12.59    1.60
  -6  -3 -10   16.22    2.02
   6   3  10   14.45    1.40
   6   3  10   13.68    1.87
   6   3  10   15.14    1.91
  -6  -3 -11   86.86    4.34
   6   3  11   83.49    4.13
   6   3  11   84.88    3.01
  -6  -3 -12  136.22    5.82
  -6  -3 -12  143.12    3.38
   6   3  12  142.34    5.65
   6   3  12  138.83    3.86
  -6  -3 -13   34.47    3.31
   6   3  13   37.30    3.24
  -6  -3 -14   26.57    3.15
   6   3  14   33.44    3.24
  -6  -3 -15   69.85    4.93
   6   3  15   64.15    4.51
  -6  -3 -16   11.19    2.79
   6   3  16    6.54    2.35
   6   3  17    5.48    2.38
  -6  -4  11    6.67    2.06
  -6  -4  10   31.20    3.16
  -6  -4   9   86.24    4.60
  -6  -4   8  148.70    5.45
  -6  -4   8  161.80    6.16
  -6  -4   7    9.62    1.94
  -6  -4   7    8.24    1.45
  -6  -4   6    5.00    1.61
  -6  -4   6    3.00    0.95
  -6  -4   5  133.22    5.03
  -6  -4   5  124.11    4.25
  -6  -4   5  129.56    5.17
  -6  -4   4  620.41   12.28
  -6  -4   4  618.04   12.75
   6   4  -4  592.72   11.13
  -6  -4   4  582.31   11.13
  -6  -4   4  620.46   12.80
  -6  -4   3    7.39    1.70
  -6  -4   3    6.40    1.27
  -6  -4   3    5.88    1.50
   6   4  -3    5.78    1.05
  -6  -4   3    7.55    1.14
  -6  -4   2    0.08    1.26
  -6  -4   2    0.75    0.90
  -6  -4   2    1.10    1.23
   6   4  -2    0.49    0.79
  -6  -4   2   -0.53    0.85
  -6  -4   1   36.07    2.08
  -6  -4   1   37.49    2.53
   6   4  -1   37.76    2.01
  -6  -4   1   35.94    2.60
  -6  -4   1   37.89    1.99
  -6  -4   0    0.19    1.01
  -6  -4   0    1.72    1.33
  -6  -4   0    0.66    0.83
   6   4   0    0.68    0.77
  -6  -4  -1  307.27    7.41
   6   4   1  298.31    6.37
  -6  -4  -1  300.64    7.42
  -6  -4  -2  102.62    3.89
  -6  -4  -2  102.84    3.93
   6   4   2  105.86    3.52
  -6  -4  -3   44.80    2.53
  -6  -4  -3   43.26    1.30
  -6  -4  -3   41.93    2.57
   6   4   3   44.32    2.33
  -6  -4  -4  143.97    4.51
  -6  -4  -4  143.70    4.56
   6   4   4  143.48    4.38
  -6  -4  -5  214.66    5.57
  -6  -4  -5  217.88    5.28
  -6  -4  -5  216.14    5.68
   6   4   5  212.53    5.60
  -6  -4  -6   -0.61    1.06
  -6  -4  -6    0.41    0.80
   6   4   6    0.20    0.90
  -6  -4  -6    0.58    1.04
   6   4   7    1.29    0.95
  -6  -4  -7    1.93    0.84
  -6  -4  -7   -0.27    1.02
   6   4   7    0.94    0.80
  -6  -4  -7    0.43    1.02
  -6  -4  -8   72.27    3.43
  -6  -4  -8   73.13    2.84
   6   4   8   75.65    2.99
   6   4   8   72.36    2.88
  -6  -4  -8   71.06    2.94
  -6  -4  -9  134.27    4.90
  -6  -4  -9  121.82    3.63
   6   4   9  121.45    4.22
   6   4   9  127.42    3.82
  -6  -4 -10   52.28    3.33
  -6  -4 -10   47.40    2.07
   6   4  10   45.84    2.85
   6   4  10   55.25    2.38
  -6  -4 -11   41.88    3.25
   6   4  11   41.33    2.82
  -6  -4 -11   42.01    1.78
  -6  -4 -12    2.14    1.70
   6   4  12    0.32    1.38
  -6  -4 -12    1.26    0.50
  -6  -4 -13    1.77    1.84
   6   4  13    6.42    1.90
  -6  -4 -14  131.54    6.41
   6   4  14  132.24    5.91
  -6  -4 -15    2.33    2.12
   6   4  15    0.74    1.79
  -6  -4 -16    7.59    2.55
   6   4  16    8.32    2.51
   6   4  17    2.03    2.19
  -6  -5  11   14.99    2.48
  -6  -5  10   14.53    2.44
  -6  -5   9   71.16    4.35
  -6  -5   8    0.03    1.54
  -6  -5   7   30.47    2.82
  -6  -5   7   29.92    2.29
  -6  -5   6  151.10    4.77
  -6  -5   6  149.34    5.88
  -6  -5   5  128.83    4.16
  -6  -5   5  129.92    5.32
  -6  -5   4  147.57    5.24
   6   5  -4  142.03    4.17
  -6  -5   4  128.18    4.01
  -6  -5   4  142.63    5.49
  -6  -5   3    3.51    1.53
  -6  -5   3    3.86    1.24
  -6  -5   3    3.48    1.22
   6   5  -3    4.38    0.96
  -6  -5   3    1.51    0.80
  -6  -5   2  225.93    6.10
  -6  -5   2  230.66    6.82
   6   5  -2  220.14    5.13
  -6  -5   2  232.36    6.82
  -6  -5   2  215.52    5.09
  -6  -5   1   25.13    1.93
  -6  -5   1   22.92    2.24
  -6  -5   1   24.01    2.15
   6   5  -1   21.04    1.47
  -6  -5   1   27.64    1.66
  -6  -5   0  187.62    5.83
   6   5   0  178.71    4.41
  -6  -5   0  175.85    5.69
  -6  -5  -1   31.22    2.34
   6   5   1   29.17    1.71
  -6  -5  -1   29.63    2.38
  -6  -5  -2  248.22    6.64
   6   5   2  247.44    5.67
  -6  -5  -2  252.35    6.67
  -6  -5  -3  128.63    4.43
   6   5   3  125.40    3.91
  -6  -5  -3  128.74    4.47
  -6  -5  -4   47.96    2.65
  -6  -5  -4   51.60    2.79
  -6  -5  -5  213.66    5.69
  -6  -5  -5  212.41    5.72
  -6  -5  -6   33.18    2.07
  -6  -5  -6   30.46    2.18
  -6  -5  -6   30.26    2.11
  -6  -5  -7  207.66    5.86
  -6  -5  -7  201.88    5.28
   6   5   7  202.76    4.68
  -6  -5  -7  204.39    5.40
  -6  -5  -8    4.65    1.01
  -6  -5  -8    3.77    1.35
   6   5   8    3.10    0.93
  -6  -5  -8    4.14    1.07
  -6  -5  -9    1.61    1.31
  -6  -5  -9    1.81    0.77
   6   5   9    1.77    1.02
  -6  -5  -9    1.16    0.91
  -6  -5 -10    5.93    1.78
   6   5  10    4.97    1.28
  -6  -5 -10    6.43    0.96
  -6  -5 -11   27.36    2.72
   6   5  11   22.87    2.24
  -6  -5 -11   25.39    1.37
  -6  -5 -12    0.57    1.59
   6   5  12   -0.20    1.36
  -6  -5 -12   -0.22    0.42
  -6  -5 -13  189.61    7.46
   6   5  13  182.91    6.62
  -6  -5 -14   18.51    2.90
   6   5  14   24.78    2.81
  -6  -5 -15   54.57    4.42
   6   5  15   48.87    3.88
  -6  -5 -16    6.47    2.40
   6   5  16    3.34    1.90
   6   5  17   -0.34    2.00
  -6  -6  11    1.40    1.91
  -6  -6  11   -0.50    1.96
  -6  -6  10    2.23    1.93
  -6  -6  10   -1.98    2.07
  -6  -6   9    1.38    1.56
  -6  -6   8    2.82    1.63
  -6  -6   7   47.95    3.62
  -6  -6   6    5.77    1.87
  -6  -6   6    6.53    1.20
  -6  -6   5  122.04    3.83
  -6  -6   5  131.27    5.57
  -6  -6   4   57.76    3.36
  -6  -6   4   57.13    3.67
  -6  -6   4   54.72    2.35
  -6  -6   3  114.86    4.53
   6   6  -3  104.33    3.18
  -6  -6   3   99.63    3.10
  -6  -6   3  101.97    4.68
  -6  -6   2   14.77    2.19
  -6  -6   2   15.11    1.80
   6   6  -2   13.95    1.21
  -6  -6   2   14.40    1.21
  -6  -6   1    2.05    1.45
  -6  -6   1    2.65    1.23
   6   6  -1    0.88    0.63
  -6  -6   0  162.04    5.55
   6   6   0  159.33    3.96
  -6  -6   0  164.75    5.59
  -6  -6  -1  126.06    4.61
   6   6   1  116.16    3.37
  -6  -6  -1  118.27    2.20
  -6  -6  -1  118.32    4.60
  -6  -6  -2  496.72   10.48
  -6  -6  -2  480.12   10.36
   6   6   2  470.23    8.82
  -6  -6  -3    4.81    1.26
  -6  -6  -3    4.77    1.39
   6   6   3    7.25    1.18
  -6  -6  -4  370.63    8.45
  -6  -6  -4  372.53    8.50
  -6  -6  -5   13.02    1.63
  -6  -6  -5    8.87    1.55
  -6  -6  -6   68.63    3.06
  -6  -6  -6   61.79    3.16
  -6  -6  -6   67.80    3.14
  -6  -6  -7    3.97    1.20
  -6  -6  -7    3.94    1.43
  -6  -6  -7    5.15    1.07
   6   6   7    3.53    0.76
  -6  -6  -8   34.09    2.66
  -6  -6  -8   34.99    2.06
   6   6   8   32.68    1.89
  -6  -6  -8   34.50    2.21
  -6  -6  -9   59.75    3.52
  -6  -6  -9   61.50    2.59
   6   6   9   58.84    2.71
  -6  -6  -9   66.81    2.85
  -6  -6 -10    5.92    1.80
  -6  -6 -10    5.45    0.94
   6   6  10    5.04    1.25
  -6  -6 -10    6.36    1.15
  -6  -6 -11  132.28    5.71
   6   6  11  123.37    4.72
  -6  -6 -11  128.13    3.31
  -6  -6 -12   18.72    2.58
   6   6  12   20.57    2.40
  -6  -6 -13  413.31   11.56
   6   6  13  381.04   10.10
  -6  -6 -14   42.18    4.02
   6   6  14   37.61    3.30
  -6  -6 -15   33.18    3.76
   6   6  15   34.49    3.41
  -6  -6 -16    9.25    2.64
   6   6  16    5.47    2.29
   6   6  17   10.86    2.45
  -6  -7  11   -1.08    1.84
  -6  -7  11    0.03    1.91
  -6  -7  10    0.81    1.64
  -6  -7  10   -0.56    1.95
  -6  -7   9   -0.59    1.98
  -6  -7   9   -4.32    2.22
  -6  -7   8    6.55    1.93
  -6  -7   8    6.88    1.76
  -6  -7   7   26.21    3.06
  -6  -7   7   23.24    2.44
  -6  -7   6  111.77    4.81
  -6  -7   6  115.67    5.62
  -6  -7   5   12.77    2.40
  -6  -7   5   11.47    1.80
  -6  -7   5   13.67    1.26
  -6  -7   4   32.87    3.09
  -6  -7   4   31.89    2.33
  -6  -7   4   29.98    1.58
  -6  -7   3   84.60    4.07
  -6  -7   3   81.62    3.27
  -6  -7   3   75.66    2.41
  -6  -7   3   81.93    4.52
  -6  -7   2  100.83    4.26
  -6  -7   2   91.96    3.17
   6   7  -2   93.75    2.64
  -6  -7   2   94.91    4.64
   6   7  -1  269.76    7.91
   6   7  -1  272.71    5.25
  -6  -7   1  266.63    5.47
  -6  -7   1  270.37    7.88
  -6  -7   0   98.74    4.42
   6   7   0   95.50    2.76
  -6  -7   0   93.91    2.35
  -6  -7   0   92.72    4.36
  -6  -7  -1  108.51    4.53
   6   7   1   99.73    3.00
  -6  -7  -1  100.16    4.45
  -6  -7  -2  116.61    4.62
  -6  -7  -2  116.25    4.66
   6   7   2  119.48    3.52
  -6  -7  -3  315.34    7.97
  -6  -7  -3  313.25    7.91
   6   7   3  303.46    6.67
  -6  -7  -4    5.97    1.27
  -6  -7  -4    6.66    1.49
  -6  -7  -5   35.24    2.42
  -6  -7  -5   34.67    2.45
  -6  -7  -6  123.19    4.33
  -6  -7  -6  121.89    4.35
  -6  -7  -7  264.73    6.55
  -6  -7  -7  262.70    7.34
   6   7   7  253.18    5.03
  -6  -7  -7  262.33    6.62
  -6  -7  -8   42.42    3.04
  -6  -7  -8   44.41    2.43
   6   7   8   44.41    2.10
  -6  -7  -8   47.64    2.58
  -6  -7  -9   29.11    1.91
  -6  -7  -9   31.55    2.82
   6   7   9   29.00    1.91
  -6  -7  -9   27.87    2.01
  -6  -7 -10    1.78    0.81
  -6  -7 -10    0.00    1.61
   6   7  10    0.14    1.01
  -6  -7 -10    0.24    0.87
  -6  -7 -11    3.68    1.83
   6   7  11    4.08    1.36
  -6  -7 -11    1.54    0.71
  -6  -7 -12  333.78   10.09
   6   7  12  317.32    8.42
  -6  -7 -13   14.09    2.52
   6   7  13   12.08    1.97
  -6  -7 -14  147.95    7.06
   6   7  14  125.96    5.68
  -6  -7 -15   47.63    4.42
   6   7  15   43.30    4.10
   6   7  16   46.67    3.99
   6   7  17   -0.08    1.88
  -6  -8  10   -0.72    1.77
  -6  -8  10    3.40    1.74
  -6  -8   9    3.11    1.80
  -6  -8   9    0.51    1.66
  -6  -8   8   49.58    4.06
  -6  -8   8   48.79    3.71
  -6  -8   7   81.94    4.42
  -6  -8   7   86.72    5.20
  -6  -8   6   22.10    2.99
  -6  -8   6   18.99    2.19
  -6  -8   5    9.67    2.32
  -6  -8   5    8.60    1.66
   6   8  -4  562.80   13.59
  -6  -8   4  574.00   11.38
   6   8  -3  168.63    6.60
  -6  -8   3  171.76    4.92
   6   8  -2  117.03    5.32
  -6  -8   2  111.60    3.51
   6   8  -1  244.55    7.73
   6   8  -1  245.43    4.43
  -6  -8   1  237.47    5.01
   6   8   0    1.93    1.47
   6   8   0    1.15    0.56
   6   8   1  524.30   11.85
   6   8   1  512.81    8.74
  -6  -8  -1  525.07   11.78
   6   8   2  720.90   14.43
  -6  -8  -2  721.52   14.38
   6   8   2  700.81   11.69
  -6  -8  -2  700.72   14.24
  -6  -8  -3   56.31    3.28
   6   8   3   49.31    2.32
  -6  -8  -3   47.40    3.09
  -6  -8  -4    6.50    1.52
  -6  -8  -4   11.73    2.34
  -6  -8  -5  718.80   13.70
  -6  -8  -5  689.94   13.53
  -6  -8  -6  178.03    5.54
  -6  -8  -6  170.65    5.46
  -6  -8  -7    1.32    1.15
   6   8   7    3.66    0.76
  -6  -8  -7    2.19    1.49
  -6  -8  -7    2.84    1.19
  -6  -8  -8   22.17    1.97
  -6  -8  -8   27.24    2.71
  -6  -8  -8   23.38    1.90
   6   8   8   24.83    1.51
  -6  -8  -9   12.11    2.10
  -6  -8  -9   12.94    1.47
   6   8   9   11.57    1.27
  -6  -8  -9   12.82    1.58
  -6  -8 -10   54.29    3.87
  -6  -8 -10   55.68    2.54
   6   8  10   54.15    2.76
  -6  -8 -10   56.29    2.67
  -6  -8 -11  261.26    8.63
   6   8  11  246.69    6.76
  -6  -8 -11  248.32    5.70
  -6  -8 -12    0.74    1.94
   6   8  12    2.14    1.39
  -6  -8 -13  125.85    6.45
   6   8  13  122.26    5.18
  -6  -8 -14  112.40    6.29
   6   8  14  100.30    4.96
  -6  -8 -15   45.40    4.35
   6   8  15   34.66    3.31
   6   8  16    2.16    1.96
  -6  -9  10    5.46    2.15
  -6  -9   9   23.43    3.16
  -6  -9   9   26.37    3.03
  -6  -9   8   12.20    2.54
  -6  -9   8   11.82    2.15
  -6  -9   7    7.70    2.21
  -6  -9   7    7.51    1.74
  -6  -9   6   53.90    3.36
  -6  -9   6   60.00    4.51
   6   9  -5  359.69   10.85
  -6  -9   5  357.87    8.83
   6   9  -4   10.16    2.35
  -6  -9   4    6.16    1.36
   6   9  -3    6.02    2.09
  -6  -9   3   -1.81    1.15
   6   9  -2  447.94   11.70
   6   9  -1  307.85    9.23
   6   9   0   72.66    4.24
   6   9   0   64.41    1.71
   6   9   1  194.73    6.84
   6   9   1  194.00    4.10
   6   9   2   14.58    2.21
  -6  -9  -2    9.92    1.96
   6   9   2   13.34    1.16
   6   9   3    8.13    1.76
  -6  -9  -3    7.25    1.78
   6   9   3    6.15    1.03
   6   9   4   76.60    3.97
  -6  -9  -4   81.01    4.04
  -6  -9  -4   76.72    3.92
  -6  -9  -5   26.34    2.36
  -6  -9  -5   26.50    2.42
  -6  -9  -6    0.81    1.12
  -6  -9  -6   -0.07    1.25
  -6  -9  -7   58.97    3.70
  -6  -9  -7   59.33    3.22
   6   9   7   62.03    1.71
  -6  -9  -7   60.76    3.26
  -6  -9  -8   15.78    1.84
   6   9   8   14.48    1.16
  -6  -9  -8   13.34    2.23
  -6  -9  -8   13.32    1.62
  -6  -9  -9    3.67    1.11
  -6  -9  -9    2.59    1.64
  -6  -9  -9    4.12    1.19
   6   9   9    4.92    1.01
  -6  -9 -10   27.81    2.02
  -6  -9 -10   31.87    3.20
   6   9  10   33.10    2.12
  -6  -9 -10   36.36    2.31
  -6  -9 -11   43.73    3.81
   6   9  11   35.56    2.43
  -6  -9 -11   38.86    2.15
  -6  -9 -12    5.91    2.31
   6   9  12    9.47    1.65
  -6  -9 -13  193.07    8.16
   6   9  13  177.76    6.27
  -6  -9 -14    6.06    2.24
   6   9  14    6.66    1.89
  -6 -10   8   -2.45    2.46
  -6 -10   8    3.25    1.65
  -6 -10   7   62.44    3.91
  -6 -10   7   68.46    4.95
   6  10  -6  101.28    5.93
  -6 -10   6   92.46    4.36
   6  10  -5   59.49    4.47
  -6 -10   5   45.26    2.88
   6  10  -4    2.43    1.91
   6  10  -3   52.49    4.12
   6  10  -2    0.35    1.73
   6  10  -1   98.97    5.21
   6  10   0    5.51    1.89
   6  10   1   78.72    4.47
   6  10   1   75.96    2.04
   6  10   2   63.15    4.02
   6  10   2   66.02    2.30
   6  10   3   40.09    3.21
   6  10   3   36.16    1.98
  -6 -10  -3   39.43    3.18
  -6 -10  -4    6.08    1.78
   6  10   4    4.81    1.65
  -6 -10  -5    1.43    1.46
   6  10   5    5.65    1.73
  -6 -10  -6    4.03    1.54
  -6 -10  -6    0.61    1.21
  -6 -10  -7    3.42    1.35
  -6 -10  -7    0.87    1.09
  -6 -10  -8    0.03    1.20
   6  10   8    0.19    0.58
  -6 -10  -8    1.82    1.79
  -6 -10  -8    1.44    1.29
  -6 -10  -9   -0.77    1.17
  -6 -10  -9    0.58    1.88
  -6 -10  -9   -4.00    1.53
   6  10   9   -0.37    0.73
  -6 -10 -10    0.63    1.82
   6  10  10    2.52    0.99
  -6 -10 -10    2.55    1.18
   6  10  11    4.57    1.17
  -6 -10 -11    2.81    2.14
  -6 -10 -12  142.20    6.91
   6  10  12  127.68    4.86
  -6 -10 -13   25.33    3.54
  -6 -10 -14   78.29    5.57
   6  11  -6   52.48    4.54
   6  11  -5   -1.32    1.99
   6  11  -4   42.06    3.98
   6  11  -3    1.00    2.03
   6  11  -2    0.60    1.72
   6  11  -1    1.83    1.73
   6  11   0   59.25    4.24
   6  11   1  100.50    5.27
   6  11   2    9.96    2.27
   6  11   2    8.91    0.86
   6  11   2    9.51    0.90
   6  11   3  127.02    5.70
   6  11   3  141.52    3.90
   6  11   4    2.46    1.62
  -6 -11  -4    3.05    1.65
   6  11   5   57.41    3.75
  -6 -11  -5   61.70    3.77
  -6 -11  -6    1.57    1.52
  -6 -11  -7   84.06    4.16
  -6 -11  -8   20.16    2.86
  -6 -11  -8   21.56    2.37
  -6 -11  -8   26.66    2.44
  -6 -11  -9    9.70    2.40
  -6 -11  -9    9.51    1.61
  -6 -11 -10   33.24    3.57
  -6 -11 -10   34.31    2.44
  -6 -11 -11   38.93    3.95
  -6 -11 -12   64.31    4.92
  -6 -11 -13   57.39    4.83
   6  12  -5   14.63    3.13
   6  12  -4   79.42    5.42
   6  12  -3   16.28    3.05
   6  12  -2   22.97    3.07
   6  12  -1   19.91    2.87
   6  12   0   38.64    3.66
   6  12   1   22.91    3.05
   6  12   2  383.89   11.00
   6  12   3   13.20    2.34
   6  12   3   13.34    1.21
   6  12   4   18.36    2.63
   6  12   5  108.27    5.27
  -6 -12  -5  108.99    5.22
   6  12   6  114.94    5.34
  -6 -12  -6  122.69    5.38
  -6 -12  -7    2.87    1.51
  -6 -12  -8   14.86    2.75
  -6 -12  -8   12.32    1.92
  -6 -12  -9    4.93    2.16
  -6 -12  -9    4.60    1.52
  -6 -12 -10    5.73    2.38
  -6 -12 -11  138.39    6.99
  -6 -12 -12   56.99    4.89
   6  13  -3    6.63    2.53
   6  13  -2   11.57    2.89
   6  13  -1   14.14    2.87
   6  13   0  122.82    6.44
   6  13   1  346.40   10.92
   6  13   2   13.69    2.67
   6  13   3    0.57    1.90
   6  13   4  145.98    6.48
   6  13   5   69.03    4.42
  -6 -13  -5   67.98    4.37
   6  13   6   15.18    2.45
  -6 -13  -6   12.42    2.18
  -6 -13  -7   32.22    2.94
  -6 -13  -8    4.18    2.27
  -6 -13  -8    5.12    1.79
  -6 -13  -9   51.15    4.49
  -6 -13  -9   45.88    3.21
  -6 -13 -10  140.62    7.16
  -6 -13 -11    3.75    2.40
   6  14  -1   53.40    4.67
   6  14   0   79.88    5.38
   6  14   1   93.98    5.74
   6  14   2   -0.72    1.89
   6  14   3  118.63    6.22
   6  14   4   -2.47    3.75
  -6 -14  -5   11.44    2.46
   6  14   5   15.51    2.65
  -6 -14  -6    2.11    1.85
   6  14   6    0.78    1.72
  -6 -14  -7   19.12    2.54
   6  14   7   13.72    2.38
  -6 -14  -8   24.21    2.86
  -6 -14  -8   22.34    3.28
  -6 -14  -9   52.77    4.69
   6  15   1   11.03    3.07
   6  15   2   24.67    3.41
   6  15   3    7.22    2.38
   6  15   4   16.68    3.03
  -6 -15  -5    2.89    2.16
   6  15   5    4.79    2.30
  -6 -15  -6   -0.74    2.01
   6  15   6    3.61    2.08
  -6 -15  -7    0.79    1.78
   6  15   7   -0.57    1.80
   6  16   4   -0.60    2.26
  -6 -16  -5    4.20    2.23
   6  16   5    3.82    2.27
  -6 -16  -6    1.65    1.95
   6  16   6    1.75    1.99
  -6 -16  -7    1.41    1.99
   6  16   7    4.92    2.08
   7 -15  -3    8.13    2.89
   7 -15  -2   21.12    3.20
   7 -15  -1  149.91    6.92
   7 -15   0    3.33    1.95
   7 -14  -5   17.43    2.98
  -7  14   5   20.51    3.09
   7 -14  -4    8.06    2.42
  -7  14   4    4.17    2.23
   7 -14  -3   42.46    4.08
  -7  14   3   32.80    3.77
   7 -14  -2  109.88    5.97
   7 -14  -2  113.83    6.09
  -7  14   2  109.22    6.30
   7 -14  -1    2.80    2.02
  -7  14   1    2.50    2.16
   7 -14   0   11.31    2.38
  -7  14   0   13.09    2.90
   7 -14   1  153.90    6.59
  -7  14  -1  168.91    8.02
   7 -14   2  101.81    5.19
   7 -13  -6   55.98    4.61
   7 -13  -5   45.62    4.08
  -7  13   5   40.37    3.90
   7 -13  -4    2.14    1.95
  -7  13   4   -0.68    1.88
   7 -13  -3   10.39    2.38
   7 -13  -3   11.29    2.48
  -7  13   3   11.08    2.49
   7 -13  -2   -0.43    1.83
  -7  13   2    0.40    1.94
   7 -13  -2    4.20    2.08
   7 -13  -1    4.62    1.98
  -7  13   1    1.02    1.97
   7 -13   0  147.63    6.48
  -7  13   0  150.31    7.19
   7 -13   1   16.60    2.39
  -7  13  -1   19.98    3.09
   7 -13   2   26.65    2.82
  -7  13  -2   22.72    3.34
   7 -13   3   13.49    2.25
  -7  13  -3   10.91    2.72
   7 -13   4    6.73    1.88
  -7  13  -4   12.99    2.72
   7 -13   5    2.94    1.56
  -7  13  -5    8.00    2.65
   7 -12  -8    7.24    2.59
   7 -12  -7   51.85    4.37
   7 -12  -6    7.47    2.43
   7 -12  -5    1.30    1.93
   7 -12  -4    5.81    2.18
   7 -12  -4    7.69    2.35
   7 -12  -3    9.24    2.34
   7 -12  -3   11.36    2.25
   7 -12  -2   28.90    3.26
   7 -12  -2   21.60    3.53
   7 -12  -1  247.24    8.54
   7 -12   0    8.81    2.16
   7 -12   1   45.18    3.52
   7 -12   2   35.46    3.11
   7 -12   3   20.47    2.49
  -7  12  -3   19.47    2.91
   7 -12   4    7.39    1.70
  -7  12  -4    7.57    2.54
   7 -12   5    2.41    1.54
  -7  12  -5    2.16    2.05
   7 -12   6   36.38    2.95
  -7  12  -6   43.69    4.33
   7 -12   7   11.82    2.05
  -7  12  -7    5.70    2.23
  -7  12  -8   85.87    5.83
   7 -11  -9    7.21    2.83
   7 -11  -8   35.39    3.57
   7 -11  -7    4.85    2.21
   7 -11  -6   44.14    3.88
   7 -11  -5    6.15    2.10
   7 -11  -4   -4.91    2.24
   7 -11  -4   -3.76    2.14
   7 -11  -3    1.85    1.59
   7 -11  -3    3.59    1.93
   7 -11  -2    2.00    1.73
   7 -11  -2    2.07    1.90
   7 -11  -1  123.06    5.77
   7 -11   0   15.47    2.53
   7 -11   1  115.76    5.36
   7 -11   2    0.28    1.40
   7 -11   3  133.55    5.55
   7 -11   4   12.96    2.00
  -7  11  -5    3.08    2.05
   7 -11   5    1.37    1.46
  -7  11  -6    3.63    2.06
   7 -11   6    1.67    1.52
  -7  11  -7   18.29    3.10
   7 -11   7   17.32    2.25
  -7  11  -8  163.14    7.58
   7 -11   8  154.57    5.93
  -7  11  -9   22.82    3.34
   7 -11   9   21.66    2.51
  -7  11 -10   13.55    2.76
   7 -10  -9   37.36    3.87
   7 -10  -8   66.75    4.81
   7 -10  -7   20.47    3.12
   7 -10  -6    5.66    2.14
   7 -10  -5    3.02    1.71
   7 -10  -5    0.98    1.83
   7 -10  -4    4.51    1.78
   7 -10  -4    5.53    2.02
   7 -10  -3   11.24    2.14
   7 -10  -3    9.46    2.14
   7 -10  -2  130.58    5.39
   7 -10  -2  128.29    5.94
   7 -10  -1   60.71    4.04
   7 -10   0   -0.64    1.51
   7 -10   1  160.15    6.20
   7 -10   2  405.27   10.36
   7 -10   3   23.38    2.58
   7 -10   4   -0.07    1.38
   7 -10   5  182.61    6.38
   7 -10   6    3.13    1.53
  -7  10  -7   81.35    5.15
   7 -10   7   72.04    4.02
  -7  10  -8  224.65    8.67
   7 -10   8  223.69    7.18
  -7  10  -9   15.82    2.69
   7 -10   9   19.09    2.40
  -7  10 -10    1.36    2.71
   7 -10  10   -0.64    1.39
  -7  10 -11   68.46    5.07
  -7  10 -12    5.43    2.41
   7  -9 -10   13.20    2.80
   7  -9  -9  143.60    6.93
   7  -9  -8   28.74    3.32
   7  -9  -7    1.94    1.88
   7  -9  -6   26.58    2.91
   7  -9  -5   43.01    3.86
   7  -9  -5   35.73    3.18
   7  -9  -4   52.90    3.55
   7  -9  -4   51.90    4.02
   7  -9  -3  157.55    5.81
   7  -9  -3  140.70    6.26
   7  -9  -2    4.23    1.89
   7  -9  -2    1.84    1.46
   7  -9  -1  100.41    5.00
   7  -9   0  308.46    8.89
   7  -9   1  170.56    6.26
   7  -9   2    7.02    1.74
   7  -9   3    1.67    1.40
   7  -9   4   41.10    3.03
   7  -9   5   36.78    2.75
   7  -9   5   37.51    2.89
   7  -9   6  133.10    5.31
   7  -9   7    1.04    1.40
  -7   9  -8   43.58    3.83
   7  -9   8   47.49    3.33
  -7   9  -9   38.57    3.70
   7  -9   9   35.76    2.93
  -7   9 -10   84.51    5.21
   7  -9  10   73.66    4.17
  -7   9 -11    5.39    2.23
   7  -9  11    0.28    1.62
  -7   9 -12    8.11    2.43
   7  -9  12    4.98    1.86
  -7   9 -13    6.25    2.21
  -7   9 -14    4.30    2.55
   7  -8 -10  134.97    6.91
   7  -8  -9   -1.58    2.12
   7  -8  -8    0.58    2.00
   7  -8  -7   24.55    2.92
   7  -8  -6   46.87    3.55
   7  -8  -6   44.22    3.99
   7  -8  -5   21.43    2.48
   7  -8  -5   21.47    2.91
   7  -8  -4   14.98    2.07
   7  -8  -4   16.59    2.61
   7  -8  -3   23.98    2.32
   7  -8  -3   26.99    2.82
   7  -8  -2    6.48    1.46
   7  -8  -2    5.15    1.83
   7  -8  -1  378.19    8.82
   7  -8  -1  369.81    9.95
   7  -8   0   52.37    3.51
   7  -8   1   61.99    3.67
   7  -8   2    9.86    1.88
   7  -8   3  120.37    4.96
   7  -8   4    7.68    1.68
  -7   8  -4   12.28    1.83
   7  -8   5   53.79    3.05
   7  -8   5   57.28    3.45
   7  -8   6   50.91    3.10
   7  -8   6   49.58    3.26
   7  -8   7  140.58    5.45
   7  -8   8  133.42    5.35
  -7   8  -9   -0.25    1.67
   7  -8   9    3.12    1.47
  -7   8 -10  106.20    5.65
   7  -8  10  103.29    4.90
  -7   8 -11    0.74    1.90
   7  -8  11    0.13    1.50
  -7   8 -12   16.62    2.72
   7  -8  12   17.65    2.53
  -7   8 -13    3.78    2.21
   7  -8  13    0.51    1.77
  -7   8 -14    2.60    2.03
   7  -7 -11   45.98    4.27
   7  -7 -10   30.47    3.57
   7  -7  -9   26.11    3.22
   7  -7  -8   35.26    3.43
   7  -7  -7   -1.00    1.59
   7  -7  -6   17.89    2.39
   7  -7  -6   22.03    2.21
   7  -7  -6   23.57    2.99
   7  -7  -5   -0.64    1.19
   7  -7  -5    2.25    1.49
   7  -7  -5    3.45    2.08
   7  -7  -4  199.59    6.35
   7  -7  -4  200.63    7.38
   7  -7  -4  200.22    6.42
   7  -7  -3    1.07    1.24
   7  -7  -3   -1.02    1.82
   7  -7  -3    1.02    1.22
   7  -7  -2  174.08    5.42
   7  -7  -2  175.17    6.50
   7  -7  -2  168.77    5.98
   7  -7  -1   20.64    1.90
   7  -7  -1   20.84    2.43
   7  -7  -1   20.59    2.37
   7  -7   0   75.23    4.00
   7  -7   1   40.02    3.03
   7  -7   2   84.34    4.12
  -7   7  -2   92.58    4.35
   7  -7   3   13.61    1.92
  -7   7  -3   10.25    1.69
   7  -7   4    1.23    1.40
  -7   7  -4    2.84    1.29
   7  -7   5  118.30    4.27
   7  -7   5  116.60    4.76
   7  -7   6   68.67    3.39
   7  -7   6   72.92    3.81
   7  -7   7  324.44    8.35
   7  -7   7  326.12    8.66
   7  -7   8   10.29    1.80
   7  -7   8   11.41    1.90
   7  -7   9   18.28    2.21
  -7   7 -10    2.94    1.85
   7  -7  10    3.64    1.62
  -7   7 -11   60.43    4.23
   7  -7  11   61.12    3.92
  -7   7 -12   51.10    3.98
   7  -7  12   44.50    3.54
  -7   7 -13    0.57    1.74
   7  -7  13   -1.04    1.67
  -7   7 -14    3.73    2.14
   7  -7  14    2.45    1.82
   7  -7  15   13.47    2.53
   7  -6 -11   61.54    4.82
   7  -6 -10   20.37    3.14
   7  -6  -9  106.84    5.68
   7  -6  -8   -2.74    1.87
   7  -6  -7   13.23    2.23
   7  -6  -6   -1.99    1.66
   7  -6  -6    2.75    1.43
   7  -6  -6    1.05    1.91
   7  -6  -5   42.96    3.00
   7  -6  -5   40.99    3.46
   7  -6  -5   41.70    2.79
   7  -6  -4    6.64    1.46
   7  -6  -4    8.22    2.00
   7  -6  -4    7.16    1.50
   7  -6  -3   12.41    1.58
   7  -6  -3   10.59    2.05
   7  -6  -3   11.83    1.74
   7  -6  -2   77.49    3.31
   7  -6  -2   76.13    4.16
   7  -6  -2   78.16    3.90
   7  -6  -1  389.36    8.15
   7  -6  -1  383.72    9.77
   7  -6  -1  384.23    9.48
   7  -6   0   49.52    3.24
   7  -6   0   57.57    3.45
   7  -6   1   29.76    2.60
   7  -6   1   28.87    2.51
  -7   6  -1   32.58    2.63
   7  -6   2  289.46    7.92
  -7   6  -2  309.05    8.15
   7  -6   2  300.20    8.29
   7  -6   3   50.08    3.15
  -7   6  -3   53.63    3.20
   7  -6   4   43.59    2.90
  -7   6  -4   49.08    3.05
   7  -6   5   16.95    1.64
   7  -6   5   20.54    2.14
   7  -6   6  209.14    5.86
   7  -6   6  212.97    6.61
   7  -6   7   57.15    3.10
   7  -6   7   55.23    3.37
   7  -6   8  347.31    8.78
   7  -6   8  345.70    9.02
   7  -6   9   20.39    2.33
   7  -6  10   30.64    2.81
  -7   6 -11   80.69    4.53
   7  -6  11   71.30    4.20
  -7   6 -12   30.40    3.07
   7  -6  12   28.66    2.98
  -7   6 -13    0.71    1.68
   7  -6  13    1.61    1.73
  -7   6 -14    2.30    1.77
   7  -6  14    4.59    2.03
   7  -6  15    7.49    2.47
   7  -6  16   11.23    2.66
   7  -5 -11   -0.63    2.07
   7  -5 -10   37.32    3.70
   7  -5  -9  104.81    5.50
   7  -5  -8  116.13    5.50
   7  -5  -7    0.31    1.11
   7  -5  -7    1.56    1.47
   7  -5  -6   30.09    2.61
   7  -5  -6   27.50    3.10
   7  -5  -6   28.03    2.31
   7  -5  -5   79.80    3.85
   7  -5  -5   75.54    4.49
   7  -5  -5   75.26    3.64
   7  -5  -4   44.90    2.78
   7  -5  -4   46.74    3.47
   7  -5  -4   48.61    3.00
   7  -5  -3  177.68    5.23
   7  -5  -3  180.53    6.46
   7  -5  -3  180.09    5.85
   7  -5  -2   22.86    1.79
   7  -5  -2   26.14    2.51
   7  -5  -2   27.14    2.65
   7  -5  -1  211.32    5.23
  -7   5   1  221.04    6.87
   7  -5  -1  201.67    6.59
   7  -5  -1  216.39    6.53
   7  -5   0  165.72    4.26
   7  -5   0  155.75    5.61
  -7   5   0  168.59    5.78
   7  -5   0  165.88    5.63
   7  -5   1  608.51   12.75
  -7   5  -1  645.66   12.99
   7  -5   1  632.91   12.99
   7  -5   2    1.96    1.27
  -7   5  -2    5.98    1.43
   7  -5   2    2.47    1.26
   7  -5   3   30.98    2.47
  -7   5  -3   30.35    2.38
   7  -5   3   32.38    2.60
   7  -5   4   37.23    1.99
   7  -5   4   41.03    2.77
  -7   5  -4   37.56    2.67
   7  -5   4   39.41    2.88
   7  -5   5    4.98    1.03
   7  -5   5    4.67    1.41
   7  -5   6  318.80    7.27
   7  -5   6  323.52    8.36
   7  -5   7   59.28    3.00
   7  -5   7   55.94    3.33
   7  -5   8  239.53    6.74
   7  -5   8  240.60    7.26
   7  -5   9   30.70    2.53
   7  -5   9   31.10    2.73
   7  -5  10  215.40    7.17
   7  -5  11    4.21    1.78
  -7   5 -12   -0.45    1.51
   7  -5  12    1.67    1.53
  -7   5 -13   -1.94    1.70
   7  -5  13   -1.91    1.79
  -7   5 -14    1.82    1.72
   7  -5  14    3.88    2.02
   7  -5  15   19.89    2.95
   7  -5  16   33.36    3.61
   7  -4 -11    0.55    2.06
   7  -4 -10  250.89    8.99
   7  -4  -9   62.36    4.28
   7  -4  -8    8.61    2.00
   7  -4  -7   28.92    2.75
   7  -4  -6   30.32    2.62
   7  -4  -6   32.89    3.21
   7  -4  -6   32.03    2.37
   7  -4  -5   67.25    3.47
   7  -4  -5   69.53    4.24
   7  -4  -5   67.33    3.40
   7  -4  -4   92.59    3.78
   7  -4  -4   91.53    4.61
   7  -4  -4   85.68    3.87
   7  -4  -3   -0.86    1.02
   7  -4  -3   -0.60    1.07
   7  -4  -3    0.12    1.38
   7  -4  -2    0.10    0.85
   7  -4  -2   -0.50    1.39
   7  -4  -2   -0.18    1.12
   7  -4  -1  460.70    8.50
   7  -4  -1  458.86   10.55
  -7   4   1  491.12   10.86
   7  -4  -1  472.70   10.37
   7  -4   0  337.93    6.43
   7  -4   0  346.47    8.68
  -7   4   0  357.56    8.75
   7  -4   0  342.65    8.47
   7  -4   1   45.36    1.79
   7  -4   1   47.06    2.95
   7  -4   1   52.47    3.10
  -7   4  -1   54.57    2.94
   7  -4   2   12.44    1.76
  -7   4  -2   18.16    1.94
   7  -4   2   24.20    2.33
   7  -4   3  750.44   14.43
  -7   4  -3  783.92   14.63
   7  -4   3  775.52   14.83
   7  -4   4   26.19    1.53
  -7   4  -4   25.91    2.25
   7  -4   4   28.40    2.43
   7  -4   4   26.64    2.32
   7  -4   5  111.63    3.39
   7  -4   5  110.79    4.44
   7  -4   5  119.21    4.78
   7  -4   6   79.93    3.06
  -7   4  -6   84.38    3.93
   7  -4   6   78.98    3.80
   7  -4   6   82.52    4.07
   7  -4   7  194.36    5.39
   7  -4   7  201.05    6.29
   7  -4   8   24.29    2.08
   7  -4   8   20.22    2.26
   7  -4   9    2.38    1.19
   7  -4   9    7.37    1.70
   7  -4  10   17.21    2.11
   7  -4  10   17.47    2.31
   7  -4  11   24.22    2.64
  -7   4 -12    8.95    1.88
   7  -4  12    7.96    2.05
  -7   4 -13    1.53    1.43
   7  -4  13    1.45    1.64
  -7   4 -14   13.42    2.06
   7  -4  14   15.50    2.66
   7  -3 -12    1.95    2.12
   7  -3 -11  154.28    7.18
   7  -3 -10   11.31    2.56
   7  -3  -9   62.82    4.27
   7  -3  -8   12.91    2.36
   7  -3  -7    3.13    1.59
   7  -3  -6   62.35    3.50
  -7   3   6   73.21    3.70
   7  -3  -6   59.63    3.97
   7  -3  -6   67.29    3.42
   7  -3  -5  197.60    5.93
   7  -3  -5  185.98    6.77
   7  -3  -5  190.68    5.88
   7  -3  -4    3.74    1.13
   7  -3  -4    5.17    1.33
   7  -3  -4    4.52    1.74
   7  -3  -3    7.91    1.29
   7  -3  -3    6.71    1.33
   7  -3  -3    6.38    1.63
   7  -3  -2  386.95    7.62
  -7   3   2  409.15    9.73
   7  -3  -2  390.63    9.53
   7  -3  -2  395.13    9.12
   7  -3  -1  317.49    6.17
   7  -3  -1  308.45    8.11
  -7   3   1  336.17    8.39
   7  -3  -1  322.09    8.03
   7  -3   0  124.88    3.02
  -7   3   0  137.60    4.89
   7  -3   0  121.33    4.69
   7  -3   0  130.94    4.73
   7  -3   1   18.53    0.97
   7  -3   1   18.50    2.04
  -7   3  -1   17.56    1.88
   7  -3   1   18.86    1.95
   7  -3   2  246.69    6.83
  -7   3  -2  263.11    6.98
   7  -3   2  255.61    6.97
   7  -3   3   60.17    1.76
   7  -3   3   62.17    3.24
  -7   3  -3   67.97    3.32
   7  -3   3   64.39    3.37
   7  -3   4   51.38    1.85
   7  -3   4   57.50    3.14
  -7   3  -4   57.78    3.11
   7  -3   4   57.02    3.24
   7  -3   5   19.25    1.30
   7  -3   5   17.94    1.98
   7  -3   5   21.42    2.09
   7  -3   6  264.54    5.93
  -7   3  -6  290.95    7.53
   7  -3   6  271.03    7.38
   7  -3   6  282.31    7.59
   7  -3   7  157.95    4.58
  -7   3  -7  161.54    5.55
   7  -3   7  154.60    5.46
   7  -3   7  160.42    5.59
   7  -3   8  218.02    5.94
   7  -3   8  208.85    6.67
   7  -3   8  226.61    6.85
   7  -3   9   22.76    2.08
   7  -3   9   22.10    2.30
   7  -3   9   22.82    2.43
   7  -3  10   37.96    2.74
   7  -3  10   35.37    2.97
   7  -3  11   43.46    3.35
  -7   3 -12   -1.07    1.56
  -7   3 -13    7.09    1.64
  -7   3 -13    8.04    2.03
  -7   3 -14    2.44    1.43
  -7   3 -14    3.91    2.10
  -7   3 -15   35.80    3.66
   7  -2 -12   80.18    5.48
   7  -2 -11    9.60    2.62
   7  -2 -10   14.94    2.67
   7  -2  -9   12.53    2.43
  -7   2   9    7.80    1.52
   7  -2  -8   17.81    2.50
  -7   2   8   14.55    1.84
  -7   2   7   94.86    4.26
   7  -2  -7   88.06    4.38
  -7   2   7   88.99    4.03
   7  -2  -6   45.41    3.01
  -7   2   6   50.27    3.05
   7  -2  -6   44.95    3.49
  -7   2   6   47.81    2.99
   7  -2  -5    9.36    1.52
   7  -2  -5   10.62    1.64
  -7   2   5    9.81    1.44
   7  -2  -5    7.67    1.78
  -7   2   5   10.82    2.56
   7  -2  -4   76.14    3.27
  -7   2   4   72.25    3.13
   7  -2  -4   72.26    3.96
   7  -2  -4   70.49    3.46
  -7   2   4   76.96    3.70
   7  -2  -3  266.90    6.22
  -7   2   3  264.64    6.12
  -7   2   3  289.61    7.85
   7  -2  -3  269.41    7.61
   7  -2  -3  267.75    7.10
  -7   2   3  283.68    7.32
   7  -2  -2   14.17    1.26
   7  -2  -2   15.40    1.79
   7  -2  -2   18.64    2.10
  -7   2   2   17.19    2.04
  -7   2   2   19.75    2.04
   7  -2  -1  349.12    6.38
   7  -2  -1  356.16    8.61
  -7   2   1  371.60    8.75
   7  -2  -1  356.77    8.46
  -7   2   1  352.90    8.51
   7  -2   0    0.65    0.49
   7  -2   0    0.39    1.01
   7  -2   0   -0.05    1.23
  -7   2   0    2.03    1.15
  -7   2   0   -0.01    1.27
   7  -2   1   49.85    2.90
   7  -2   1   49.15    2.94
  -7   2  -1   55.94    2.97
   7  -2   2   89.63    3.84
   7  -2   2   86.57    3.78
  -7   2  -2   94.55    3.85
   7  -2   3  164.45    5.28
   7  -2   3  159.28    5.26
  -7   2  -3  174.02    5.42
   7  -2   4   53.32    1.58
   7  -2   4   52.30    3.00
  -7   2  -4   59.56    3.08
   7  -2   4   54.48    3.01
   7  -2   5  234.85    4.76
   7  -2   5  240.87    6.66
   7  -2   5  254.50    6.85
   7  -2   6  205.72    4.79
  -7   2  -6  211.62    6.09
   7  -2   6  207.50    6.25
   7  -2   6  220.34    6.36
   7  -2   7    1.92    0.90
  -7   2  -7    1.27    1.19
   7  -2   7    0.81    1.33
   7  -2   7    1.17    1.23
  -7   2  -8  612.33   11.64
   7  -2   8  629.11   11.86
  -7   2  -8  667.07   13.23
   7  -2   8  629.01   13.15
   7  -2   8  661.48   13.05
   7  -2   9    7.08    1.09
  -7   2  -9    6.98    1.47
   7  -2   9    4.56    1.51
   7  -2   9    4.47    1.48
  -7   2 -10   33.94    2.60
   7  -2  10   35.99    2.70
   7  -2  10   39.85    2.83
  -7   2 -11   32.63    2.80
   7  -2  11   38.36    2.90
  -7   2 -12   32.14    2.90
   7  -2  12   38.42    2.94
  -7   2 -13    5.96    1.49
  -7   2 -13    5.10    1.92
  -7   2 -14    1.54    1.22
  -7   2 -14    1.97    1.73
  -7   2 -15   11.84    2.52
  -7   2 -16   -0.59    2.01
   7  -1 -12   51.33    4.54
   7  -1 -11   18.93    3.00
   7  -1 -10   25.89    3.09
   7  -1  -9   20.49    2.65
  -7   1   9   21.49    2.28
   7  -1  -8   15.43    2.25
  -7   1   8   11.38    1.77
  -7   1   7    2.53    1.28
   7  -1  -7    5.47    1.64
  -7   1   7    3.42    1.33
   7  -1  -6  320.40    8.37
  -7   1   6  329.53    8.44
  -7   1   6  336.36    8.59
   7  -1  -6  335.68    9.28
  -7   1   6  338.45    8.51
   7  -1  -5   19.96    1.99
  -7   1   5   14.31    1.67
   7  -1  -5   16.58    2.23
  -7   1   5   15.81    1.94
   7  -1  -4  127.65    4.27
  -7   1   4  139.57    4.42
  -7   1   4  140.06    5.28
   7  -1  -4  134.39    5.23
   7  -1  -4  132.86    4.84
  -7   1   4  142.06    5.06
   7  -1  -3  240.60    5.72
  -7   1   3  239.47    5.70
  -7   1   3  250.06    7.08
   7  -1  -3  235.04    6.91
   7  -1  -3  236.95    6.65
  -7   1   3  242.96    6.76
   7  -1  -2  430.16    7.96
  -7   1   2  440.03    8.01
  -7   1   2  462.77   10.10
   7  -1  -2  435.83    9.86
  -7   1   2  441.83    9.77
   7  -1  -2  439.08    9.72
   7  -1  -1   73.02    2.22
   7  -1  -1   68.96    3.50
  -7   1   1   76.03    3.54
  -7   1   1   70.26    3.52
   7  -1  -1   74.84    3.48
   7  -1   0   10.72    0.69
   7  -1   0   11.18    1.63
   7  -1   0    9.74    1.59
  -7   1   0   12.86    1.57
  -7   1   0   11.38    1.80
   7  -1   1  179.57    5.50
   7  -1   1  182.28    5.56
  -7   1  -1  183.63    5.49
  -7   1  -1  180.90    5.55
   7  -1   2  122.27    4.41
  -7   1  -2  133.70    4.57
   7  -1   2  130.40    4.58
  -7   1  -2  130.85    4.67
   7  -1   3   10.63    1.64
  -7   1  -3   12.60    1.65
   7  -1   3   15.71    1.79
   7  -1   4  170.10    2.98
   7  -1   4  181.44    5.47
   7  -1   4  181.60    5.46
   7  -1   5  210.58    4.24
   7  -1   5  231.54    6.38
   7  -1   5  233.26    6.42
  -7   1  -6  255.91    5.27
   7  -1   6  243.43    5.25
  -7   1  -6  261.36    6.65
   7  -1   6  263.25    6.91
   7  -1   6  255.00    6.98
  -7   1  -7  665.09   11.59
   7  -1   7  660.74   11.60
  -7   1  -7  697.46   13.13
   7  -1   7  692.41   13.20
   7  -1   7  680.23   13.46
  -7   1  -8   38.21    2.27
   7  -1   8   39.33    2.29
  -7   1  -8   43.86    2.82
   7  -1   8   37.84    2.88
   7  -1   8   43.84    2.79
  -7   1  -9   28.19    2.21
   7  -1   9   26.10    1.85
   7  -1   9   25.05    2.27
   7  -1  10  198.88    6.21
  -7   1 -10  198.44    6.16
   7  -1  10  205.91    6.24
   7  -1  11   30.97    2.69
  -7   1 -11   30.95    2.69
   7  -1  11   32.06    2.51
  -7   1 -12    3.49    1.74
   7  -1  12   -0.58    1.16
  -7   1 -13   29.35    2.25
  -7   1 -13   27.45    2.94
   7  -1  13   32.23    2.64
  -7   1 -14   10.92    1.63
  -7   1 -14   12.55    2.44
  -7   1 -15   12.13    2.53
  -7   1 -16   47.86    4.21
   7   0 -12    5.61    2.58
   7   0 -11   54.75    4.42
   7   0 -10   64.55    4.50
   7   0  -9  231.91    8.13
  -7   0   9  247.78    7.42
   7   0  -8   32.82    3.01
  -7   0   8   30.10    2.57
   7   0  -7   85.04    4.31
  -7   0   7   87.01    4.11
   7   0  -6   19.71    2.16
  -7   0   6   20.54    2.17
  -7   0   6   17.14    1.83
   7   0  -6   20.64    2.42
  -7   0   6   21.41    2.17
   7   0  -5   36.81    2.50
  -7   0   5   33.94    2.43
  -7   0   5   37.35    2.66
   7   0  -5   35.30    2.84
  -7   0   5   36.20    2.66
   7   0  -4  159.08    4.87
  -7   0   4  165.35    4.96
  -7   0   4  169.44    5.60
  -7   0   4  169.16    5.76
   7   0  -4  159.09    5.60
  -7   0   4  166.65    5.57
   7   0  -3   64.74    2.71
  -7   0   3   66.06    2.74
   7   0  -3   58.72    3.28
  -7   0   3   69.71    3.50
  -7   0   3   67.48    3.46
   7   0  -3   64.75    3.37
   7   0  -2    0.68    0.74
   7   0  -2    1.11    1.08
  -7   0   2    1.45    0.79
   7   0  -2    0.81    1.20
  -7   0   2    2.27    1.38
  -7   0   2    1.86    1.16
  -7   0   1   94.24    2.63
  -7   0   1   95.35    3.88
   7   0  -1   91.17    3.88
   7   0  -1   93.30    3.90
  -7   0   1   95.79    4.02
  -7   0   0  634.94    9.46
   7   0   0  647.02   12.31
  -7   0   0  648.60   12.52
   7   0   0  656.32   12.56
  -7   0   0  669.29   12.46
   7   0   1   11.64    1.54
  -7   0  -1   18.11    1.99
  -7   0  -1   14.55    1.62
   7   0   1   13.28    1.68
   7   0   2   32.27    2.28
  -7   0  -2   35.45    2.30
   7   0   2   32.64    2.36
  -7   0  -2   30.11    2.37
   7   0   3  254.54    6.68
  -7   0  -3  262.48    6.69
  -7   0  -3  250.63    6.69
   7   0   3  260.04    6.68
   7   0   4    2.93    1.18
  -7   0  -4    3.29    1.48
   7   0   4    1.13    1.17
   7   0   5  586.98    9.37
  -7   0  -5  619.71    9.42
   7   0   5  637.04   12.05
   7   0   5  626.21   12.06
  -7   0  -6  746.34   11.87
   7   0   6  722.86   11.80
  -7   0  -6  769.62   13.36
   7   0   6  752.06   13.76
   7   0   6  748.93   14.12
   7   0   7  403.18    8.01
  -7   0  -7  419.53    8.10
  -7   0  -7  435.16    9.16
   7   0   7  422.58    9.71
   7   0   7  424.77    9.28
  -7   0  -8   39.31    2.29
   7   0   8   37.29    2.21
  -7   0  -8   41.02    2.65
   7   0   8   40.81    2.64
   7   0   9   61.85    3.08
  -7   0  -9   66.36    3.23
   7   0   9   65.27    3.24
   7   0  10   16.77    1.90
  -7   0 -10   16.05    2.06
   7   0  10   16.05    1.80
   7   0  11    4.82    1.49
  -7   0 -11    3.06    1.34
   7   0  11    4.39    1.29
  -7   0 -12    4.50    1.74
   7   0  12    8.57    1.59
  -7   0 -13   15.50    2.40
   7   0  13   17.48    2.67
   7   0  13   20.16    2.06
  -7   0 -14   72.65    4.65
   7   0  14   76.79    4.82
  -7   0 -15   35.45    3.62
   7   0  15   41.42    3.86
  -7   0 -16   25.19    3.45
   7   0  16   20.26    3.00
   7   1 -11  122.08    6.37
   7   1 -10   69.56    4.70
  -7  -1  10   89.53    4.53
   7   1  -9    1.78    1.70
  -7  -1   9    4.21    1.69
   7   1  -8   49.79    3.57
  -7  -1   8   52.23    3.41
   7   1  -7    5.84    1.74
  -7  -1   7    5.02    1.50
  -7  -1   6   14.31    1.86
   7   1  -6   18.36    2.12
   7   1  -6   17.97    2.31
  -7  -1   6   15.87    2.00
   7   1  -5  136.04    4.83
  -7  -1   5  136.48    4.88
  -7  -1   5  140.84    5.22
  -7  -1   5  142.14    5.30
   7   1  -5  143.41    5.34
  -7  -1   5  138.19    5.24
   7   1  -4   37.85    2.35
  -7  -1   4   40.80    2.48
  -7  -1   4   43.59    2.86
   7   1  -4   37.41    2.68
  -7  -1   4   40.88    2.73
  -7  -1   4   37.02    2.77
  -7  -1   3    3.42    1.04
  -7  -1   3    2.01    1.15
   7   1  -3    2.92    1.32
  -7  -1   3    3.58    1.51
  -7  -1   3    2.06    1.12
  -7  -1   2  243.71    5.47
  -7  -1   2  243.72    6.54
   7   1  -2  234.58    6.45
   7   1  -2  239.85    6.74
  -7  -1   2  240.21    6.79
  -7  -1   1  579.59    9.58
   7   1  -1  571.61   11.32
   7   1  -1  571.04   11.65
  -7  -1   1  576.03   11.74
  -7  -1   1  599.54   11.52
   7   1   0    0.99    1.08
  -7  -1   0    2.96    0.62
   7   1   0    2.38    1.18
  -7  -1   0    2.61    1.03
  -7  -1   0    1.45    1.30
  -7  -1  -1    2.47    0.44
   7   1   1    1.79    1.16
  -7  -1  -1    2.23    1.11
  -7  -1  -1    1.70    1.32
   7   1   1    1.30    1.20
   7   1   2  200.96    5.66
  -7  -1  -2  202.89    5.91
  -7  -1  -2  211.44    5.74
   7   1   2  208.94    5.93
   7   1   3  243.55    6.48
   7   1   3  243.70    6.28
  -7  -1  -3  240.25    6.47
  -7  -1  -4  445.25    6.75
   7   1   4  434.13    9.34
   7   1   4  436.73    9.40
  -7  -1  -4  438.90    9.42
  -7  -1  -5  202.67    4.09
  -7  -1  -5  199.96    5.03
   7   1   5  203.96    5.88
   7   1   5  200.26    5.73
  -7  -1  -5  192.04    5.72
  -7  -1  -6  507.45    8.84
  -7  -1  -6  516.86    9.79
   7   1   6  514.71   10.43
   7   1   6  509.47   10.73
  -7  -1  -6  502.38   10.33
  -7  -1  -7   10.33    1.28
   7   1   7    8.84    1.14
  -7  -1  -7    7.26    1.23
   7   1   7   11.30    1.53
   7   1   8  508.92    9.96
  -7  -1  -8  517.34   10.03
   7   1   8  523.45   10.52
   7   1   9   -0.27    0.97
  -7  -1  -9   -0.11    1.07
   7   1   9    0.01    1.05
   7   1  10    4.52    1.25
  -7  -1 -10    6.51    1.55
   7   1  10    5.88    1.30
   7   1  11   53.63    3.39
  -7  -1 -11   61.48    3.61
   7   1  11   57.65    3.53
   7   1  11   61.64    3.08
  -7  -1 -12    1.84    1.54
   7   1  12    4.58    1.76
   7   1  12    1.06    1.07
  -7  -1 -13  107.33    5.21
   7   1  13  103.54    5.19
   7   1  13  102.83    4.01
  -7  -1 -14   61.57    4.35
   7   1  14   54.91    4.10
  -7  -1 -15   67.85    4.36
   7   1  15   61.95    4.47
  -7  -1 -16    4.68    2.15
   7   1  16    6.92    2.23
  -7  -2  10   28.41    2.93
  -7  -2   9   16.95    2.54
  -7  -2   8   85.70    4.45
  -7  -2   7   62.79    3.71
  -7  -2   6   55.84    3.37
  -7  -2   6   52.12    3.33
  -7  -2   5    8.02    1.60
  -7  -2   5    2.21    1.35
   7   2  -5    5.69    1.56
  -7  -2   5    5.13    1.39
  -7  -2   4    0.76    1.06
  -7  -2   4   -1.93    1.43
  -7  -2   4    1.00    1.11
   7   2  -4    1.73    1.22
  -7  -2   4    1.38    1.08
  -7  -2   3  188.85    5.20
  -7  -2   3  195.94    6.16
   7   2  -3  176.63    5.52
  -7  -2   3  188.36    5.65
  -7  -2   3  181.32    6.02
  -7  -2   2  227.35    5.49
  -7  -2   2  249.54    6.93
  -7  -2   2  234.90    6.26
   7   2  -2  218.53    6.11
  -7  -2   2  239.39    6.82
  -7  -2   1  119.44    3.38
  -7  -2   1  124.53    4.63
   7   2  -1  109.46    4.05
  -7  -2   1  115.58    4.08
  -7  -2   1  113.90    4.54
   7   2   0    3.93    1.30
  -7  -2   0    4.35    0.78
  -7  -2   0    5.82    1.54
   7   2   0    3.17    1.22
  -7  -2   0    3.83    1.08
  -7  -2  -1  162.84    3.37
   7   2   1  153.17    4.76
  -7  -2  -1  167.22    4.89
  -7  -2  -1  162.04    5.27
   7   2   1  158.28    5.19
   7   2   2  148.47    4.61
  -7  -2  -2  146.55    4.57
   7   2   2  152.44    4.94
  -7  -2  -2  142.83    4.87
  -7  -2  -3   21.79    1.03
   7   2   3   23.50    2.00
  -7  -2  -3   18.36    1.98
   7   2   3   18.89    1.83
  -7  -2  -4   12.30    0.95
   7   2   4   11.55    1.53
   7   2   4   10.70    1.62
  -7  -2  -4   12.04    1.73
  -7  -2  -5  459.75    7.87
  -7  -2  -5  446.08    8.39
   7   2   5  455.89    9.57
   7   2   5  461.69    9.81
  -7  -2  -5  473.27    9.72
  -7  -2  -6  541.67    9.40
  -7  -2  -6  528.85    9.73
   7   2   6  521.38   11.02
   7   2   6  539.32   10.66
  -7  -2  -6  536.74   10.69
  -7  -2  -7  147.00    4.26
   7   2   7  149.52    4.80
  -7  -2  -7  154.82    4.92
  -7  -2  -8  317.88    7.27
   7   2   8  308.44    7.37
   7   2   9    1.86    1.06
  -7  -2  -9    0.88    1.11
   7   2   9    1.54    0.96
   7   2  10   60.75    3.32
  -7  -2 -10   68.32    3.55
   7   2  10   69.20    3.14
  -7  -2 -11    2.17    1.45
   7   2  11    3.44    1.22
   7   2  11    2.82    1.47
   7   2  11    0.64    1.24
  -7  -2 -12    3.41    1.72
   7   2  12    1.69    1.09
   7   2  12    2.15    1.54
  -7  -2 -13    3.56    1.89
   7   2  13    1.87    1.69
  -7  -2 -14   79.01    4.83
   7   2  14   72.60    4.55
  -7  -2 -15  -15.50    3.28
   7   2  15    5.39    2.15
  -7  -2 -16   42.76    4.13
   7   2  16   40.99    3.93
  -7  -3  10   31.71    3.20
  -7  -3   9   20.64    2.85
  -7  -3   8   -0.63    1.68
  -7  -3   7    2.52    1.39
  -7  -3   6  110.35    4.57
  -7  -3   6  116.67    5.07
  -7  -3   5    9.30    1.87
  -7  -3   5   10.29    1.79
   7   3  -5   10.27    1.69
  -7  -3   5   11.49    1.67
  -7  -3   4   49.82    2.90
   7   3  -4   52.43    2.96
  -7  -3   4   55.49    3.00
  -7  -3   4   56.49    3.42
  -7  -3   3    0.16    1.05
  -7  -3   3   -0.26    1.38
  -7  -3   3    0.82    1.12
   7   3  -3   -1.45    1.10
  -7  -3   3   -0.16    0.94
  -7  -3   2  213.69    5.52
  -7  -3   2  224.98    6.69
   7   3  -2  215.76    5.83
  -7  -3   2  226.45    6.72
  -7  -3   2  218.35    5.90
  -7  -3   1   14.97    2.01
  -7  -3   1   14.01    1.36
  -7  -3   1   13.12    1.75
   7   3  -1   13.26    1.59
  -7  -3   1   13.46    1.53
  -7  -3   0  253.41    5.41
  -7  -3   0  257.57    7.06
   7   3   0  247.89    6.17
  -7  -3   0  260.77    7.11
  -7  -3   0  259.66    6.28
  -7  -3  -1  155.64    3.74
  -7  -3  -1  162.29    5.37
   7   3   1  158.83    4.71
  -7  -3  -1  162.41    4.74
   7   3   1  158.27    5.25
  -7  -3  -1  158.60    5.31
   7   3   2   60.76    3.13
   7   3   2   52.11    2.69
  -7  -3  -2   57.75    3.16
   7   3   3  245.43    6.19
   7   3   3  242.78    6.52
  -7  -3  -3  240.64    6.59
  -7  -3  -4   40.13    1.77
  -7  -3  -4   38.81    1.72
   7   3   4   43.28    2.59
  -7  -3  -4   37.52    2.54
   7   3   4   39.31    2.44
  -7  -3  -5   49.96    2.11
  -7  -3  -5   47.61    2.00
  -7  -3  -5   49.71    2.80
   7   3   5   46.61    2.75
   7   3   5   47.87    2.73
  -7  -3  -6   29.98    1.86
  -7  -3  -6   29.78    2.30
   7   3   6   30.92    2.25
  -7  -3  -7  579.05   10.60
   7   3   7  557.60   10.97
  -7  -3  -7  553.53   11.02
  -7  -3  -8    9.13    1.47
   7   3   8   12.28    1.57
  -7  -3  -8   12.45    1.61
  -7  -3  -9   15.46    1.83
   7   3   9   15.95    1.61
  -7  -3 -10   61.43    3.45
   7   3  10   59.47    3.22
   7   3  10   59.18    2.86
  -7  -3 -11  108.15    4.87
   7   3  11   95.09    4.28
   7   3  11  104.64    3.75
  -7  -3 -12   66.11    4.06
   7   3  12   63.26    3.72
   7   3  12   64.07    2.88
  -7  -3 -13  100.74    5.22
   7   3  13   94.47    4.68
  -7  -3 -14   -0.69    1.83
   7   3  14    0.67    1.63
  -7  -3 -15    8.08    3.45
   7   3  15    6.33    2.25
  -7  -3 -16   81.92    5.40
   7   3  16   83.28    5.21
   7   3  17   30.59    3.61
  -7  -4  10   -0.83    1.75
  -7  -4   9    1.06    1.65
  -7  -4   8   -0.75    1.63
  -7  -4   7  167.28    5.80
  -7  -4   7  163.62    6.40
  -7  -4   6    3.55    1.67
  -7  -4   6    3.92    1.28
  -7  -4   5   37.67    2.91
  -7  -4   5   35.35    2.42
  -7  -4   5   36.19    3.01
  -7  -4   4   66.54    3.43
   7   4  -4   62.66    3.10
  -7  -4   4   61.26    3.02
  -7  -4   4   60.90    3.69
  -7  -4   3  167.62    5.28
   7   4  -3  159.73    4.87
  -7  -4   3  165.84    4.95
  -7  -4   3  165.37    5.90
  -7  -4   2   39.19    2.37
  -7  -4   2   36.40    2.82
   7   4  -2   38.12    2.25
  -7  -4   2   37.75    2.23
  -7  -4   2   41.63    3.03
  -7  -4   1   11.29    1.45
  -7  -4   1    8.79    1.84
  -7  -4   1   11.29    1.73
   7   4  -1   10.76    1.41
  -7  -4   1    9.46    1.28
  -7  -4   0  360.28    7.34
  -7  -4   0  384.02    9.06
   7   4   0  352.84    7.62
  -7  -4   0  356.65    7.67
  -7  -4   0  375.34    9.00
  -7  -4  -1  302.84    7.78
   7   4   1  290.81    6.74
  -7  -4  -1  304.57    7.82
  -7  -4  -2   76.52    3.56
   7   4   2   68.93    2.99
  -7  -4  -2   74.73    3.61
  -7  -4  -3   67.14    3.31
   7   4   3   60.47    2.88
  -7  -4  -3   64.99    3.36
   7   4   4    5.03    1.29
  -7  -4  -4    6.93    1.60
  -7  -4  -4    5.76    1.32
  -7  -4  -4    6.42    0.73
   7   4   4    8.70    1.46
  -7  -4  -5   88.89    3.68
  -7  -4  -5   90.29    3.11
  -7  -4  -5   84.76    3.70
   7   4   5   95.90    3.83
   7   4   5   88.16    3.73
  -7  -4  -6  722.76   13.09
  -7  -4  -6  711.66   12.36
  -7  -4  -6  695.93   13.10
   7   4   6  708.13   13.12
  -7  -4  -7    3.28    1.08
  -7  -4  -7    3.49    1.13
   7   4   7    4.23    1.16
  -7  -4  -7    3.72    1.35
  -7  -4  -8   81.69    3.33
  -7  -4  -8   90.97    3.75
   7   4   8   88.98    3.54
  -7  -4  -8   84.68    3.52
  -7  -4  -9   89.25    3.38
  -7  -4  -9   87.03    3.98
   7   4   9   89.50    3.47
  -7  -4  -9   89.73    3.58
  -7  -4 -10  104.37    4.54
  -7  -4 -10  103.75    3.56
   7   4  10  101.00    4.06
   7   4  10  102.84    3.69
   7   4  11   10.61    1.37
  -7  -4 -11    7.28    1.78
   7   4  11    9.26    1.71
  -7  -4 -11   10.44    1.23
   7   4  12    7.42    1.24
  -7  -4 -12    6.83    1.99
   7   4  12    5.70    1.59
  -7  -4 -12    7.62    1.02
  -7  -4 -13   18.08    2.60
   7   4  13   22.40    2.56
  -7  -4 -14   13.84    2.63
   7   4  14   11.93    2.28
  -7  -4 -15  100.17    5.72
   7   4  15   93.36    5.25
  -7  -4 -16   13.97    2.85
   7   4  16   12.35    2.42
   7   4  17   21.10    3.13
  -7  -5  10   30.29    3.33
  -7  -5   9   -0.51    1.79
  -7  -5   8   17.93    2.54
  -7  -5   7   36.87    3.32
  -7  -5   6   13.61    2.29
  -7  -5   6    9.87    1.50
  -7  -5   5  157.03    4.97
  -7  -5   5  160.92    6.29
  -7  -5   4  137.55    5.23
   7   5  -4  127.23    4.24
  -7  -5   4  119.49    4.14
  -7  -5   4  128.97    5.45
  -7  -5   3   13.58    1.74
  -7  -5   3   14.64    2.24
   7   5  -3   12.87    1.42
  -7  -5   3   11.68    1.33
  -7  -5   2   15.06    2.14
  -7  -5   2   11.40    1.55
   7   5  -2   12.85    1.40
  -7  -5   2   12.61    1.35
  -7  -5   1  462.14    9.43
  -7  -5   1  461.22   10.77
   7   5  -1  450.25    8.83
  -7  -5   1  448.54    8.86
  -7  -5   1  471.87   10.79
  -7  -5   0  151.14    4.49
  -7  -5   0  160.81    5.62
   7   5   0  148.59    4.29
  -7  -5   0  151.69    5.50
  -7  -5  -1   72.74    3.63
   7   5   1   69.37    2.86
  -7  -5  -1   72.36    3.72
  -7  -5  -2    1.39    1.06
  -7  -5  -2    2.23    1.45
   7   5   2    0.84    0.87
  -7  -5  -3    5.85    1.58
  -7  -5  -3    3.90    1.10
  -7  -5  -3    3.87    0.43
   7   5   3    3.51    1.19
  -7  -5  -4  191.10    5.74
   7   5   4  180.77    5.29
  -7  -5  -4  185.57    5.74
  -7  -5  -5  590.29   11.59
  -7  -5  -5  577.28   11.64
   7   5   5  575.25   11.42
  -7  -5  -6  120.88    4.31
  -7  -5  -6  120.38    4.07
  -7  -5  -6  112.94    4.28
  -7  -5  -7    2.41    1.21
  -7  -5  -7    2.11    1.02
  -7  -5  -7    1.68    1.24
  -7  -5  -8  292.14    6.96
  -7  -5  -8  286.92    7.44
  -7  -5  -8  299.67    7.21
  -7  -5  -9   29.28    2.52
  -7  -5  -9   28.26    1.95
   7   5   9   26.45    1.93
  -7  -5  -9   27.96    2.08
  -7  -5 -10    0.32    1.42
   7   5  10    1.66    1.13
  -7  -5 -10    0.55    0.79
  -7  -5 -11    4.49    1.73
   7   5  11    3.84    1.27
  -7  -5 -11    5.90    1.01
  -7  -5 -12   -0.87    1.57
   7   5  12   -0.45    1.31
  -7  -5 -13   17.12    2.59
   7   5  13   18.66    2.37
  -7  -5 -14  178.09    7.45
   7   5  14  161.06    6.46
  -7  -5 -15    2.94    2.19
   7   5  15    2.24    1.72
  -7  -5 -16   19.66    3.26
   7   5  16   13.55    2.61
   7   5  17   24.26    3.30
  -7  -6  10   -0.67    1.80
  -7  -6   9    2.69    1.84
  -7  -6   8    7.53    2.16
  -7  -6   7   16.73    2.58
  -7  -6   6  149.54    6.39
  -7  -6   5    8.39    2.05
  -7  -6   5    6.96    1.23
  -7  -6   4    0.17    1.54
  -7  -6   4   -0.84    0.94
  -7  -6   3   32.97    2.96
  -7  -6   3   35.17    2.64
   7   6  -3   36.13    2.08
  -7  -6   3   33.37    1.95
  -7  -6   2  300.44    7.72
   7   6  -2  291.01    6.39
  -7  -6   2  301.16    8.59
  -7  -6   2  291.58    6.41
  -7  -6   1    5.52    1.77
  -7  -6   1    7.68    1.38
   7   6  -1    8.44    1.16
  -7  -6   0    4.89    1.67
   7   6   0    5.97    1.01
  -7  -6  -1   31.05    2.68
  -7  -6  -1   26.65    2.43
   7   6   1   29.10    1.83
  -7  -6  -2   29.95    2.48
  -7  -6  -2   21.42    2.29
   7   6   2   24.03    1.75
  -7  -6  -3   36.80    2.65
   7   6   3   37.11    2.22
  -7  -6  -3   34.72    2.68
  -7  -6  -4  122.36    4.62
   7   6   4  127.60    4.29
  -7  -6  -4  121.47    4.70
  -7  -6  -5  337.23    8.21
  -7  -6  -5  337.44    8.27
  -7  -6  -6   24.78    2.10
  -7  -6  -6   27.81    2.20
  -7  -6  -6   24.89    2.25
  -7  -6  -7  519.26   10.55
  -7  -6  -7  521.28   10.85
  -7  -6  -7  517.35   10.70
  -7  -6  -8    4.48    1.12
  -7  -6  -8    4.29    1.47
  -7  -6  -8    3.98    1.24
  -7  -6  -9    9.97    1.31
  -7  -6  -9   10.70    1.85
   7   6   9    9.19    1.31
  -7  -6  -9    8.90    1.45
  -7  -6 -10    5.14    1.66
  -7  -6 -10    5.57    1.12
   7   6  10    6.53    1.32
  -7  -6 -10    5.61    1.27
  -7  -6 -11    6.95    2.02
   7   6  11    5.18    1.30
  -7  -6 -11    7.15    1.06
  -7  -6 -12   34.44    3.29
   7   6  12   29.83    2.53
  -7  -6 -13   48.09    3.86
   7   6  13   43.29    3.23
  -7  -6 -14   48.15    4.06
   7   6  14   50.04    3.61
  -7  -6 -15    9.77    2.61
   7   6  15   11.63    2.53
  -7  -6 -16   60.73    4.93
   7   6  16   59.16    4.33
   7   6  17    1.14    2.03
  -7  -7  10    5.71    2.11
  -7  -7  10    0.75    1.90
  -7  -7   9    5.01    2.02
  -7  -7   9   -0.32    1.83
  -7  -7   8   -0.81    1.95
  -7  -7   8    0.37    1.61
  -7  -7   7   57.06    3.78
  -7  -7   7   54.33    4.19
  -7  -7   6    0.12    1.77
  -7  -7   5   14.58    2.44
  -7  -7   4   65.26    2.62
  -7  -7   4   70.27    4.41
  -7  -7   3   26.04    2.82
   7   7  -3   23.90    1.59
  -7  -7   3   24.95    1.61
  -7  -7   2   80.21    3.91
   7   7  -2   75.61    2.69
  -7  -7   2   71.57    4.21
  -7  -7   1    7.02    1.92
  -7  -7   1    7.15    1.49
  -7  -7   1    8.40    1.02
   7   7  -1    9.63    1.10
  -7  -7   0    3.61    1.76
   7   7   0    2.60    0.77
  -7  -7   0    4.07    0.70
  -7  -7  -1    6.47    1.72
   7   7   1    8.81    1.14
  -7  -7  -2    6.27    1.74
   7   7   2    6.86    1.13
  -7  -7  -3    4.43    1.37
  -7  -7  -3    3.67    1.68
   7   7   3    2.05    0.95
  -7  -7  -4  438.74    9.98
   7   7   4  420.88    8.91
  -7  -7  -4  410.36    9.81
  -7  -7  -5    9.62    1.60
  -7  -7  -5    8.35    1.66
  -7  -7  -6  167.83    5.43
  -7  -7  -6  164.58    5.46
  -7  -7  -7  191.30    5.73
  -7  -7  -7  193.71    6.11
  -7  -7  -7  183.35    5.76
  -7  -7  -8  146.68    4.78
  -7  -7  -8  139.01    5.34
  -7  -7  -8  143.14    4.87
  -7  -7  -9   11.60    1.50
  -7  -7  -9   12.13    2.06
   7   7   9   13.18    1.35
  -7  -7  -9   13.06    1.66
  -7  -7 -10   21.18    1.73
  -7  -7 -10   21.54    2.54
   7   7  10   23.99    1.91
  -7  -7 -10   25.62    2.04
  -7  -7 -11   -0.46    1.72
  -7  -7 -11    2.92    1.00
   7   7  11   -0.11    1.07
  -7  -7 -11    1.50    1.09
  -7  -7 -12    0.65    1.70
   7   7  12   -0.60    1.27
  -7  -7 -13  165.16    7.04
   7   7  13  152.06    5.73
  -7  -7 -14    6.74    2.42
   7   7  14    3.23    1.62
  -7  -7 -15   73.32    5.26
   7   7  15   70.00    4.44
   7   7  16   17.64    2.71
   7   7  17   46.29    4.13
  -7  -8  10    8.26    2.46
  -7  -8   9    4.86    2.11
  -7  -8   9   -2.74    2.04
  -7  -8   8    1.43    1.85
  -7  -8   8    0.10    1.51
  -7  -8   7   48.64    3.51
  -7  -8   7   52.55    4.27
  -7  -8   6    3.17    1.90
  -7  -8   6   10.14    1.91
  -7  -8   5   20.91    2.96
  -7  -8   5   25.00    2.42
  -7  -8   4   -0.26    1.79
  -7  -8   4    2.47    1.33
  -7  -8   3  173.04    5.04
  -7  -8   3  172.97    6.90
  -7  -8   2    4.66    1.96
  -7  -8   2    4.20    1.04
   7   8  -2    4.18    0.77
  -7  -8   1   26.45    2.91
   7   8  -1   25.74    1.44
  -7  -8   1   23.33    1.47
  -7  -8   0   18.49    2.41
   7   8   0   17.94    1.31
  -7  -8  -1   23.13    2.51
   7   8   1   24.33    1.58
  -7  -8  -2  429.21   10.56
   7   8   2  427.14    8.29
   7   8   3  365.25    7.72
  -7  -8  -3  367.20    9.43
  -7  -8  -4   39.14    2.87
   7   8   4   38.90    2.37
  -7  -8  -4   34.37    2.76
  -7  -8  -5    0.29    1.20
  -7  -8  -5    1.84    1.49
  -7  -8  -6  805.26   15.19
  -7  -8  -6  785.61   15.10
  -7  -8  -7   23.70    2.48
  -7  -8  -7   24.86    2.21
  -7  -8  -7   23.37    2.26
  -7  -8  -8   80.62    3.65
  -7  -8  -8   81.33    4.24
  -7  -8  -8   83.60    3.83
  -7  -8  -9   23.00    2.57
  -7  -8  -9   23.56    2.02
   7   8   9   23.83    1.59
  -7  -8  -9   20.86    2.05
  -7  -8 -10   46.69    3.53
  -7  -8 -10   47.56    2.60
   7   8  10   46.29    2.38
  -7  -8 -10   46.74    2.68
  -7  -8 -11   24.91    2.91
   7   8  11   27.45    2.15
  -7  -8 -11   22.47    1.86
  -7  -8 -12   20.25    2.93
   7   8  12   19.30    2.01
  -7  -8 -13   21.86    2.98
   7   8  13   22.90    2.33
  -7  -8 -14   29.79    3.63
   7   8  14   28.51    2.82
  -7  -8 -15  113.09    6.53
   7   8  15  102.11    5.24
  -7  -9   8   15.15    3.02
  -7  -9   8   13.47    2.38
  -7  -9   7   -3.35    2.31
  -7  -9   7   -2.07    1.69
  -7  -9   6   13.53    2.78
  -7  -9   6   16.73    2.20
  -7  -9   5   50.07    3.15
  -7  -9   5   50.84    4.18
  -7  -9   4  183.00    5.61
  -7  -9   4  185.80    7.60
  -7  -9   3    1.94    1.85
  -7  -9   3    2.75    1.09
  -7  -9   2   71.85    2.77
  -7  -9   2   63.60    4.36
   7   9  -1  115.03    2.61
  -7  -9   1  115.04    5.64
   7   9   0  108.79    2.80
  -7  -9   0  109.80    5.35
  -7  -9  -1   33.61    3.07
   7   9   1   30.53    1.60
   7   9   2   61.50    2.49
  -7  -9  -2   64.87    3.99
   7   9   3  176.12    4.80
  -7  -9  -3  172.12    6.32
  -7  -9  -4   54.60    3.54
   7   9   4   48.61    2.59
  -7  -9  -5  223.59    7.01
  -7  -9  -6   13.39    1.82
  -7  -9  -6   13.16    2.00
  -7  -9  -7   61.91    3.47
  -7  -9  -7   60.49    3.46
  -7  -9  -8   93.46    4.10
  -7  -9  -8   92.57    4.70
  -7  -9  -8   96.28    4.24
  -7  -9  -9   79.04    4.53
  -7  -9  -9   77.15    3.61
   7   9   9   77.60    2.57
  -7  -9  -9   80.67    3.73
  -7  -9 -10   18.11    1.86
  -7  -9 -10   16.54    2.60
   7   9  10   16.91    1.46
  -7  -9 -10   17.20    1.85
  -7  -9 -11    4.70    2.08
   7   9  11    7.51    1.32
  -7  -9 -11    6.64    1.41
   7   9  12   -0.23    1.06
  -7  -9 -12    1.24    1.93
  -7  -9 -13    0.34    1.91
  -7  -9 -14  208.65    8.74
  -7 -10   6   73.41    5.25
  -7 -10   5  121.57    6.47
  -7 -10   4   14.39    2.76
  -7 -10   4   16.47    1.78
  -7 -10   3    1.66    1.97
   7  10  -2  162.75    7.12
  -7 -10   2  160.75    7.03
  -7 -10   1   15.34    2.60
   7  10  -1   10.96    3.98
  -7 -10   0    5.01    2.04
   7  10   0    5.36    0.47
   7  10   0    4.87    1.88
  -7 -10  -1   34.78    3.21
   7  10   1   34.02    3.25
   7  10   1   33.31    1.47
  -7 -10  -2    4.43    1.79
   7  10   2    4.28    0.89
   7  10   3   68.83    2.82
  -7 -10  -3   67.95    4.10
  -7 -10  -4  277.70    8.38
   7  10   4  275.59    6.65
  -7 -10  -5    4.84    1.74
  -7 -10  -6   -0.78    1.64
  -7 -10  -7  176.59    6.15
  -7 -10  -8   74.63    3.87
  -7 -10  -8   86.06    4.71
  -7 -10  -8   80.31    3.96
  -7 -10  -9    2.90    1.96
  -7 -10  -9    2.58    1.25
  -7 -10  -9    0.87    1.26
  -7 -10 -10    1.81    1.83
  -7 -10 -10    3.81    1.36
  -7 -10 -11   13.08    2.53
  -7 -10 -12    6.12    2.35
  -7 -10 -13  176.87    7.92
  -7 -10 -14    4.59    2.62
  -7 -11   5    0.36    1.95
  -7 -11   4   35.86    3.77
   7  11  -3   86.37    5.51
  -7 -11   3   94.32    5.69
   7  11  -2    3.76    2.06
  -7 -11   2    6.88    2.23
   7  11  -1    0.71    1.81
  -7 -11   1    1.07    1.85
   7  11   0   23.20    3.03
  -7 -11   0   23.26    3.03
   7  11   1   11.26    2.38
  -7 -11  -1   10.47    2.34
   7  11   2  149.61    6.52
   7  11   2  149.14    3.64
  -7 -11  -2  151.68    6.51
  -7 -11  -3   84.33    4.77
   7  11   3   87.92    3.07
  -7 -11  -4   33.40    3.15
   7  11   4   40.65    2.33
  -7 -11  -5    4.84    1.80
  -7 -11  -6   93.82    4.73
  -7 -11  -7    2.27    1.44
  -7 -11  -8   21.67    2.78
  -7 -11  -8   24.86    2.59
  -7 -11  -9   -1.47    1.83
  -7 -11  -9   -1.18    1.40
  -7 -11 -10    0.79    2.03
  -7 -11 -10    2.38    1.30
  -7 -11 -11   19.73    3.01
  -7 -11 -12    3.73    2.10
  -7 -11 -13   84.77    5.65
   7  12  -4   82.49    5.78
   7  12  -3    1.70    2.19
  -7 -12   3    2.49    2.20
   7  12  -2    2.66    1.98
   7  12  -1    5.85    2.44
   7  12   0    0.05    1.90
  -7 -12   0    0.47    1.88
   7  12   1   30.85    3.44
  -7 -12  -1   25.73    3.13
   7  12   2   -1.35    1.72
  -7 -12  -2    1.27    1.78
   7  12   3  145.19    6.54
  -7 -12  -3  163.41    6.78
  -7 -12  -4   -1.06    1.67
   7  12   4    0.44    0.86
  -7 -12  -5   39.02    3.37
   7  12   5   41.94    2.51
  -7 -12  -6   51.38    3.65
  -7 -12  -7   97.20    4.89
  -7 -12  -8    6.28    2.19
  -7 -12  -8    8.15    1.89
  -7 -12  -9    6.59    2.27
  -7 -12  -9    1.65    1.63
  -7 -12 -10   23.32    3.35
  -7 -12 -11   10.27    2.53
  -7 -12 -12   48.95    4.57
   7  13  -2    4.62    2.16
   7  13  -1    8.96    2.62
   7  13   0   -0.97    2.05
   7  13   1   17.44    2.91
  -7 -13  -1   14.40    2.68
   7  13   2  135.13    6.71
  -7 -13  -2  127.54    6.46
   7  13   3    5.29    2.16
  -7 -13  -3    6.91    2.20
   7  13   4   21.27    3.07
  -7 -13  -4   22.19    3.02
  -7 -13  -5  225.01    8.14
  -7 -13  -6   46.08    3.64
  -7 -13  -7   47.68    3.87
  -7 -13  -8    4.54    2.34
  -7 -13  -8    6.74    2.00
  -7 -13  -9   33.64    3.76
  -7 -13  -9   32.11    2.93
  -7 -13 -10   44.99    4.22
  -7 -13 -11  101.63    6.23
   7  14   0   50.30    4.63
   7  14   1   70.54    5.20
   7  14   2   10.53    2.59
  -7 -14  -2   14.05    2.68
   7  14   3    1.90    2.00
  -7 -14  -3    4.82    2.13
   7  14   4  226.32    8.76
  -7 -14  -4  239.77    8.83
  -7 -14  -5   15.90    2.85
  -7 -14  -6   10.41    2.40
  -7 -14  -7   95.74    5.26
  -7 -14  -8   65.61    4.29
  -7 -14  -9    8.32    2.46
  -7 -15  -3   43.92    4.23
   7  15   3   47.73    4.42
  -7 -15  -4    4.27    2.15
   7  15   4    9.35    2.52
  -7 -15  -5    3.40    2.19
   7  15   5   -1.80    2.14
  -7 -15  -6   39.40    3.85
  -7 -15  -7   33.05    3.44
  -7 -15  -8    1.08    1.86
  -7 -16  -5   43.52    4.20
  -7 -16  -6   11.22    2.49
  -7 -16  -7    7.16    2.35
   8 -15   0    2.75    1.98
   8 -14  -3   19.70    3.10
   8 -14  -2   16.66    3.41
   8 -14  -2   10.15    2.65
   8 -14  -1   61.29    4.62
   8 -14   0   14.46    2.74
   8 -14   1   23.58    2.97
   8 -14   2   68.75    4.63
   8 -14   3   40.17    3.66
  -8  13   5   28.79    3.48
   8 -13  -5   28.93    3.52
   8 -13  -4  103.82    5.82
   8 -13  -3   -0.55    2.06
   8 -13  -3    3.28    2.12
   8 -13  -2    7.74    2.25
   8 -13  -2    4.55    2.05
   8 -13  -1    4.15    1.97
   8 -13   0    4.36    2.03
   8 -13   1   38.12    3.58
   8 -13   2   13.51    2.31
  -8  13  -2   17.10    3.11
   8 -13   3   34.44    3.30
  -8  13  -3   41.70    4.13
   8 -13   4   34.83    3.21
   8 -13   5  101.02    5.18
   8 -12  -6  107.44    6.02
   8 -12  -5   50.85    4.16
   8 -12  -4   12.61    2.56
   8 -12  -4   13.42    2.73
   8 -12  -3    7.05    2.27
   8 -12  -3   10.37    2.33
   8 -12  -2    5.33    2.27
   8 -12  -2    7.27    2.23
   8 -12  -1   18.24    2.78
   8 -12  -1   14.62    2.23
   8 -12   0   65.45    4.48
   8 -12   1   -1.76    1.86
   8 -12   2   10.70    2.27
   8 -12   3   89.74    4.94
   8 -12   4   82.98    4.69
   8 -12   5    5.43    1.80
  -8  12  -5    7.99    2.51
   8 -12   6    7.93    1.94
  -8  12  -6    6.54    2.68
   8 -12   7    1.68    1.57
   8 -11  -7   92.97    5.66
   8 -11  -6   -3.10    2.18
   8 -11  -5   61.43    4.38
   8 -11  -5   60.08    4.76
   8 -11  -4   43.70    3.64
   8 -11  -4   35.99    3.79
   8 -11  -3  131.53    5.82
   8 -11  -3  119.81    6.27
   8 -11  -2    5.67    2.07
   8 -11  -2    9.02    2.02
   8 -11  -1  108.23    5.67
   8 -11  -1  114.63    5.18
   8 -11   0    4.56    1.87
   8 -11   1   17.07    2.51
   8 -11   2  146.05    6.25
   8 -11   3   10.03    2.12
   8 -11   4  140.18    5.94
   8 -11   5    2.71    1.64
   8 -11   6    5.20    1.71
   8 -11   7    2.58    1.51
  -8  11  -7    0.65    2.15
   8 -11   8    0.88    1.53
  -8  11  -8    3.29    2.32
   8 -11   9   57.11    3.86
  -8  11  -9   65.13    5.14
   8 -10  -8   81.92    5.26
   8 -10  -7    9.38    2.35
   8 -10  -6   60.81    4.39
   8 -10  -5   44.66    3.62
   8 -10  -5   49.18    4.35
   8 -10  -4   22.78    2.76
   8 -10  -4   19.88    3.00
   8 -10  -3   22.79    2.52
   8 -10  -3   27.76    3.27
   8 -10  -2    6.82    2.01
   8 -10  -2    6.94    2.16
   8 -10  -1  106.19    4.76
   8 -10  -1  104.38    5.46
   8 -10   0   -0.73    1.71
   8 -10   1   53.26    3.82
   8 -10   2    7.18    1.86
   8 -10   3  260.04    8.24
   8 -10   4   25.73    2.68
   8 -10   5   25.39    2.72
   8 -10   6   96.03    4.81
   8 -10   7    2.82    1.69
  -8  10  -8    1.99    2.22
   8 -10   8    3.13    1.62
  -8  10  -9   18.47    3.05
   8 -10   9   14.02    2.23
  -8  10 -10    8.18    2.52
   8 -10  10    7.39    1.99
  -8  10 -11    5.84    2.48
   8 -10  11    3.51    1.93
   8  -9  -9   17.31    2.97
   8  -9  -8   55.34    4.32
   8  -9  -7   31.56    3.48
   8  -9  -6   41.96    3.58
   8  -9  -5   -0.90    1.58
   8  -9  -5   -3.42    2.12
   8  -9  -4  117.96    5.27
   8  -9  -4  111.20    6.01
   8  -9  -3    7.78    2.06
   8  -9  -3   12.93    2.04
   8  -9  -2   50.94    3.26
   8  -9  -2   50.68    3.95
   8  -9  -1    6.63    2.12
   8  -9  -1    4.92    1.57
   8  -9   0   17.70    2.46
   8  -9   1   38.20    3.25
   8  -9   2   84.51    4.59
   8  -9   3   17.55    2.40
   8  -9   4   -0.29    1.45
   8  -9   5   90.74    4.12
   8  -9   5   89.70    4.60
   8  -9   6   29.67    2.85
   8  -9   7   47.28    3.43
   8  -9   8    1.72    1.48
  -8   9  -9    4.75    2.05
   8  -9   9    4.22    1.73
  -8   9 -10    5.60    2.10
   8  -9  10    4.81    1.69
  -8   9 -11   55.27    4.45
   8  -9  11   55.59    3.95
  -8   9 -12   11.51    2.86
   8  -9  12    7.01    2.13
  -8   9 -13    0.75    2.00
   8  -8  -9   86.27    5.35
   8  -8  -8   20.86    2.95
   8  -8  -7    1.96    1.76
   8  -8  -6   44.33    3.51
   8  -8  -6   46.23    4.22
   8  -8  -5  150.31    5.95
   8  -8  -5  135.16    6.60
   8  -8  -4    2.91    1.58
   8  -8  -4    0.84    1.85
   8  -8  -3   12.92    2.43
   8  -8  -3   14.68    2.01
   8  -8  -2   11.99    2.31
   8  -8  -2    7.69    1.61
   8  -8  -1   60.56    4.01
   8  -8  -1   57.03    3.13
   8  -8   0   41.24    3.28
   8  -8   0   43.99    2.70
   8  -8   1   84.42    4.49
   8  -8   2   17.28    2.32
   8  -8   3   87.40    4.48
   8  -8   4  211.70    7.09
   8  -8   5    7.88    1.37
   8  -8   5   10.10    1.93
   8  -8   6   26.44    2.42
   8  -8   6   23.94    2.47
   8  -8   7   11.43    1.82
   8  -8   7   11.88    2.13
   8  -8   8    8.48    1.97
   8  -8   9   54.54    3.77
  -8   8 -10   81.74    5.06
   8  -8  10   68.79    4.24
  -8   8 -11   29.42    3.38
   8  -8  11   27.04    2.87
  -8   8 -12    0.99    1.94
   8  -8  12    4.33    1.86
  -8   8 -13  124.72    6.46
   8  -8  13  109.02    5.66
  -8   8 -14    3.11    2.11
   8  -8  14    1.98    1.94
   8  -7 -10  106.60    6.08
   8  -7  -9    1.86    1.93
   8  -7  -8    1.76    1.72
   8  -7  -7   83.09    4.68
   8  -7  -6   75.23    4.28
   8  -7  -6   72.18    4.98
   8  -7  -5    6.75    1.79
   8  -7  -5    6.05    2.17
   8  -7  -4   22.87    2.32
   8  -7  -4   22.55    2.90
   8  -7  -3   30.63    2.43
   8  -7  -3   28.54    3.04
   8  -7  -2   82.20    3.67
   8  -7  -2   76.81    4.52
   8  -7  -1  746.87   13.49
   8  -7  -1  713.24   15.58
   8  -7   0    2.10    1.07
   8  -7   0    3.20    1.66
   8  -7   1   46.94    3.38
   8  -7   2  245.34    7.66
   8  -7   3  260.28    7.88
   8  -7   4   44.38    3.24
   8  -7   5    0.99    0.99
   8  -7   5    0.55    1.41
   8  -7   6   -0.70    1.08
   8  -7   6    1.56    1.37
   8  -7   7    1.27    1.10
   8  -7   7    4.53    1.63
   8  -7   8  137.79    5.27
   8  -7   8  135.88    5.60
   8  -7   9   -1.69    1.53
   8  -7  10   96.23    4.93
  -8   7 -11   47.26    3.90
   8  -7  11   47.19    3.63
  -8   7 -12  134.84    6.37
   8  -7  12  120.04    5.80
  -8   7 -13   10.76    2.56
   8  -7  13   11.04    2.41
  -8   7 -14   18.01    2.87
   8  -7  14   13.21    2.68
   8  -7  15    4.09    2.10
   8  -6 -10   15.18    2.86
   8  -6  -9    2.49    2.09
   8  -6  -8  131.59    6.09
   8  -6  -7   -2.47    1.65
   8  -6  -6  129.21    5.40
   8  -6  -6  134.14    6.45
   8  -6  -5    9.32    1.78
   8  -6  -5   14.48    2.54
   8  -6  -4  142.61    5.17
   8  -6  -4  146.42    6.38
   8  -6  -3   39.63    2.60
   8  -6  -3   36.07    3.20
   8  -6  -2   19.49    1.80
   8  -6  -2   23.53    2.65
   8  -6  -1  111.42    3.84
   8  -6  -1  111.82    5.19
   8  -6   0    6.63    1.15
   8  -6   0    5.74    1.66
   8  -6   1  214.21    7.08
   8  -6   2   77.15    4.07
   8  -6   3  231.94    7.24
   8  -6   4   13.65    1.36
   8  -6   4   14.50    2.11
   8  -6   5   17.80    1.58
   8  -6   5   17.68    2.19
   8  -6   6    2.81    1.02
   8  -6   6    1.74    1.38
   8  -6   7  118.66    4.37
   8  -6   7  119.51    5.13
   8  -6   8   27.54    2.38
   8  -6   8   26.58    2.64
   8  -6   9   12.07    1.85
   8  -6   9   11.37    2.01
   8  -6  10   55.76    3.75
   8  -6  11   52.39    3.79
  -8   6 -12  102.40    5.29
   8  -6  12   96.25    5.25
  -8   6 -13   24.64    3.04
   8  -6  13   19.76    2.81
  -8   6 -14   10.19    2.22
   8  -6  14   13.43    2.58
   8  -6  15   -0.27    1.87
   8  -5 -11    0.79    2.07
   8  -5 -10    3.63    2.16
   8  -5  -9   86.30    5.17
   8  -5  -8   25.45    2.93
   8  -5  -7  112.56    5.19
   8  -5  -6   28.91    2.74
   8  -5  -6   31.98    3.38
   8  -5  -5   99.05    4.36
   8  -5  -5  107.50    5.58
   8  -5  -5   95.27    4.41
   8  -5  -4   24.49    2.19
   8  -5  -4   25.42    2.44
   8  -5  -4   24.93    2.91
   8  -5  -3    4.82    1.18
   8  -5  -3    2.84    1.36
   8  -5  -3    2.19    1.63
   8  -5  -2   27.51    1.93
   8  -5  -2   26.86    2.70
   8  -5  -2   28.55    2.62
   8  -5  -1   88.11    3.13
   8  -5  -1   84.55    4.38
   8  -5  -1   87.10    4.27
   8  -5   0   93.30    3.05
   8  -5   0   97.62    4.65
   8  -5   0   98.68    4.52
   8  -5   1    0.88    0.73
   8  -5   1   -0.19    1.37
   8  -5   2  378.75    9.56
   8  -5   3   11.13    1.88
   8  -5   4   72.93    2.65
   8  -5   4   78.44    4.02
  -8   5  -4   77.58    3.96
   8  -5   5   11.20    1.25
   8  -5   5   12.62    2.00
   8  -5   6   19.40    1.66
   8  -5   6   19.69    2.27
   8  -5   7  195.32    5.49
   8  -5   7  190.86    6.53
   8  -5   8  200.71    5.92
   8  -5   8  198.14    6.77
   8  -5   9    0.22    1.11
   8  -5   9    3.75    1.78
   8  -5  10    0.67    1.47
   8  -5  11  178.09    6.85
   8  -5  12   -1.36    1.68
  -8   5 -13   71.90    4.35
   8  -5  13   69.71    4.68
  -8   5 -14    8.15    1.99
   8  -5  14    1.88    2.01
   8  -5  15    2.38    2.05
   8  -5  16    6.80    2.53
   8  -4 -11    8.07    2.49
   8  -4 -10   30.52    3.32
   8  -4  -9  108.87    5.74
   8  -4  -8   87.19    4.81
   8  -4  -7   14.55    2.15
   8  -4  -6    1.42    1.35
   8  -4  -6   -1.39    1.45
   8  -4  -6    0.65    1.89
   8  -4  -5  149.47    5.31
   8  -4  -5  162.21    6.69
   8  -4  -5  155.44    5.61
   8  -4  -4    0.78    1.12
   8  -4  -4    0.71    1.22
   8  -4  -4    3.96    1.81
   8  -4  -3   27.97    2.00
   8  -4  -3   27.84    2.45
   8  -4  -3   31.76    2.97
   8  -4  -2   79.74    3.01
   8  -4  -2   83.39    4.36
   8  -4  -2   84.69    4.11
   8  -4  -1   80.53    2.83
   8  -4  -1   85.30    4.32
   8  -4  -1   86.08    4.14
   8  -4   0  100.65    2.89
   8  -4   0  108.47    4.76
   8  -4   0  106.04    4.58
   8  -4   1  417.10    7.15
   8  -4   1  418.73   10.13
   8  -4   1  425.64   10.15
  -8   4  -1  449.44   10.41
   8  -4   2   35.44    1.44
   8  -4   2   41.11    2.94
  -8   4  -2   37.60    2.79
   8  -4   2   36.27    2.75
   8  -4   3    9.86    0.87
   8  -4   3   10.40    1.71
  -8   4  -3   10.01    1.70
   8  -4   3    8.52    1.66
   8  -4   4  428.61    7.55
   8  -4   4  432.82   10.26
  -8   4  -4  448.44   10.38
   8  -4   4  449.04   10.57
   8  -4   5   78.58    2.67
   8  -4   5   79.27    3.97
   8  -4   6   53.56    2.38
   8  -4   6   52.63    3.37
   8  -4   7  167.63    4.79
   8  -4   7  165.98    5.99
   8  -4   8    9.92    1.51
   8  -4   8    9.27    1.97
   8  -4   9   14.34    1.81
   8  -4   9   16.48    2.29
   8  -4  10  188.09    6.15
   8  -4  10  175.32    6.64
   8  -4  11    2.64    1.77
   8  -4  12   26.59    3.04
  -8   4 -13   33.51    3.06
   8  -4  13   37.71    3.55
  -8   4 -14   18.62    2.53
   8  -4  14   17.63    2.88
   8  -4  15    2.35    2.00
   8  -4  16   11.10    2.63
   8  -3 -11    2.68    1.94
   8  -3 -10  121.33    6.21
   8  -3  -9   21.12    2.61
   8  -3  -8   22.46    2.74
   8  -3  -7   27.97    2.77
   8  -3  -6  219.35    6.82
   8  -3  -6  204.82    7.71
   8  -3  -6  206.81    6.61
   8  -3  -5    1.81    1.28
   8  -3  -5    0.23    1.14
   8  -3  -5    2.22    1.67
   8  -3  -4   15.34    1.70
   8  -3  -4   12.98    1.84
   8  -3  -4   13.55    2.21
   8  -3  -3   73.92    3.07
   8  -3  -3   70.22    4.06
   8  -3  -3   73.36    3.76
   8  -3  -2  103.22    3.30
   8  -3  -2  102.25    4.70
   8  -3  -2  104.75    4.51
   8  -3  -1  993.59   15.10
   8  -3  -1  975.23   18.31
   8  -3  -1 1010.60   18.20
   8  -3   0  272.18    5.01
   8  -3   0  264.65    7.67
   8  -3   0  281.14    7.70
  -8   3   0  278.38    7.81
   8  -3   1    2.59    0.49
   8  -3   1    1.69    1.36
  -8   3  -1    1.37    1.20
   8  -3   1    2.51    1.32
   8  -3   2   48.54    1.18
   8  -3   2   47.41    1.18
   8  -3   2   46.77    3.07
  -8   3  -2   54.78    3.25
   8  -3   2   50.43    3.12
   8  -3   3  567.78   11.91
  -8   3  -3  613.33   12.24
   8  -3   3  580.62   12.11
   8  -3   4   38.30    1.38
   8  -3   4   40.22    2.90
  -8   3  -4   43.33    2.84
   8  -3   4   44.47    2.98
   8  -3   5   24.17    1.32
   8  -3   5   26.13    2.41
   8  -3   5   28.81    2.55
   8  -3   6    5.35    0.95
   8  -3   6    3.41    1.54
   8  -3   6    8.05    1.74
   8  -3   7    7.15    1.09
  -8   3  -7    8.53    1.75
   8  -3   7    8.91    1.91
   8  -3   7    7.32    1.62
   8  -3   8  185.88    5.27
   8  -3   8  189.62    6.51
   8  -3   9    5.06    1.28
   8  -3   9    3.27    1.63
   8  -3  10   49.00    3.07
   8  -3  10   52.13    3.65
   8  -3  11    1.67    1.65
   8  -3  12  102.82    5.36
   8  -3  13    9.02    2.16
  -8   3 -14    0.76    1.49
   8  -3  14    2.28    1.88
   8  -3  15    0.46    1.96
   8  -2 -11   10.85    2.50
   8  -2 -10    2.44    1.96
   8  -2  -9   18.97    2.78
   8  -2  -8   80.32    4.53
  -8   2   8   80.83    4.12
   8  -2  -7   41.71    3.18
  -8   2   7   55.54    3.45
   8  -2  -6    7.58    1.62
  -8   2   6    5.70    1.42
   8  -2  -6    5.11    1.96
  -8   2   6   10.98    1.99
   8  -2  -5    2.75    1.30
   8  -2  -5    5.23    1.43
  -8   2   5    1.33    1.04
   8  -2  -5    3.77    1.72
  -8   2   5    6.29    1.80
   8  -2  -4    8.62    1.68
   8  -2  -4    7.97    1.32
  -8   2   4    7.20    1.14
   8  -2  -4    9.31    2.00
  -8   2   4   10.51    1.95
   8  -2  -3    3.74    1.06
   8  -2  -3    3.77    1.43
   8  -2  -3    3.91    1.56
  -8   2   3    7.01    1.71
   8  -2  -2   31.48    1.77
   8  -2  -2   30.93    2.69
   8  -2  -2   31.27    2.55
  -8   2   2   34.84    2.71
   8  -2  -1   28.57    1.43
   8  -2  -1   33.59    2.70
  -8   2   1   28.30    2.48
   8  -2  -1   29.73    2.47
  -8   2   1   28.75    2.59
   8  -2   0   26.01    1.16
   8  -2   0   25.81    2.34
   8  -2   0   23.81    2.31
  -8   2   0   24.44    2.39
  -8   2   0   27.33    2.42
   8  -2   1  139.00    5.15
  -8   2  -1  149.98    5.28
   8  -2   1  142.73    5.22
   8  -2   2  265.95    7.41
  -8   2  -2  286.80    7.59
   8  -2   2  269.91    7.49
   8  -2   3   72.80    3.70
   8  -2   3   75.68    3.77
  -8   2  -3   78.92    3.77
   8  -2   4   27.03    2.36
  -8   2  -4   29.01    2.43
   8  -2   4   24.93    2.31
   8  -2   5   44.71    1.55
   8  -2   5   46.38    2.99
   8  -2   5   45.31    2.97
   8  -2   6    3.69    0.79
  -8   2  -6    4.30    1.33
   8  -2   6    5.05    1.42
   8  -2   6    2.65    1.38
   8  -2   7   90.18    3.10
  -8   2  -7   94.00    4.16
   8  -2   7   90.97    4.31
   8  -2   7   95.54    4.32
   8  -2   8   51.78    2.58
  -8   2  -8   54.56    3.32
   8  -2   8   53.18    3.43
   8  -2   8   52.57    3.31
   8  -2   9    9.35    1.44
   8  -2   9    9.84    1.85
   8  -2   9    7.54    1.85
   8  -2  10    4.35    1.33
  -8   2 -10    3.50    1.36
   8  -2  10    3.49    1.79
  -8   2 -11  163.08    5.81
   8  -2  11  173.48    6.02
   8  -2  11  159.84    6.45
  -8   2 -12   12.01    2.07
   8  -2  12   17.57    2.49
  -8   2 -13   63.78    4.04
  -8   2 -14    6.35    1.54
  -8   2 -14    2.95    1.82
  -8   2 -15    0.77    1.94
  -8   2 -16    7.82    2.47
   8  -1 -11    0.60    2.09
   8  -1 -10   24.27    3.17
   8  -1  -9   95.13    5.20
  -8   1   9   93.11    4.59
   8  -1  -8   10.10    2.19
  -8   1   8    7.95    1.70
   8  -1  -7    3.99    1.60
  -8   1   7   11.16    2.02
   8  -1  -6    4.72    1.51
  -8   1   6    2.53    1.16
   8  -1  -6    3.77    1.77
  -8   1   6    5.78    1.65
  -8   1   5   27.07    2.24
   8  -1  -5   26.03    2.24
   8  -1  -5   24.78    3.20
  -8   1   5   33.49    2.83
   8  -1  -4   49.91    2.71
  -8   1   4   54.40    2.79
   8  -1  -4   51.62    3.49
   8  -1  -4   56.41    3.34
  -8   1   4   58.98    3.51
   8  -1  -3  134.92    4.09
  -8   1   3  133.68    4.06
   8  -1  -3  137.31    5.41
   8  -1  -3  133.07    5.08
  -8   1   3  139.80    5.26
   8  -1  -2  169.02    4.23
  -8   1   2  165.95    4.20
  -8   1   2  170.60    5.90
   8  -1  -2  166.12    5.86
   8  -1  -2  166.71    5.73
  -8   1   2  170.36    5.87
   8  -1  -1  492.55    8.18
   8  -1  -1  488.11   10.99
  -8   1   1  519.87   11.21
   8  -1  -1  500.63   11.00
  -8   1   1  494.64   11.00
   8  -1   0  336.06    8.55
   8  -1   0  345.67    8.65
  -8   1   0  348.53    8.78
  -8   1   0  367.99    8.82
   8  -1   1  200.19    6.25
  -8   1  -1  215.98    6.38
   8  -1   1  219.65    6.52
  -8   1  -1  196.93    6.24
   8  -1   2  411.35    9.54
  -8   1  -2  441.09    9.76
   8  -1   2  416.72    9.73
  -8   1  -2  403.84    9.63
   8  -1   3   39.57    2.76
   8  -1   3   40.00    2.78
  -8   1  -3   40.26    2.72
  -8   1  -3   39.98    2.91
   8  -1   4   26.89    2.38
   8  -1   4   29.43    2.45
   8  -1   5   12.43    0.75
   8  -1   5   11.92    1.78
   8  -1   5   12.30    1.69
   8  -1   6   48.93    1.85
  -8   1  -6   53.36    2.93
   8  -1   6   54.90    3.13
   8  -1   6   55.74    3.33
  -8   1  -7   63.91    2.45
   8  -1   7   64.41    2.53
  -8   1  -7   66.89    3.39
   8  -1   7   69.53    3.60
   8  -1   7   66.10    3.66
  -8   1  -8  544.75   10.17
   8  -1   8  525.26   10.14
  -8   1  -8  559.86   11.73
   8  -1   8  558.16   11.84
   8  -1   8  551.95   12.22
   8  -1   9    3.60    1.07
  -8   1  -9    1.33    1.06
   8  -1   9    2.13    1.27
   8  -1   9    7.28    1.93
  -8   1 -10  103.02    4.20
   8  -1  10  102.12    4.22
   8  -1  10  100.22    4.88
   8  -1  10  107.05    4.62
  -8   1 -11   76.16    3.87
   8  -1  11   78.91    3.95
   8  -1  11   77.29    4.00
  -8   1 -12   30.72    2.77
  -8   1 -13   32.58    3.00
  -8   1 -14    5.41    1.46
  -8   1 -14    5.78    1.99
  -8   1 -15    0.18    1.93
  -8   1 -16   13.87    2.82
   8   0 -11    8.98    2.49
   8   0 -10   48.52    4.04
   8   0  -9    7.50    2.17
  -8   0   9   10.30    1.96
   8   0  -8  123.76    5.59
  -8   0   8  137.83    5.60
   8   0  -7   -1.10    1.50
  -8   0   7    1.90    1.53
   8   0  -6   40.19    2.92
  -8   0   6   37.06    2.76
   8   0  -6   32.26    3.03
  -8   0   6   41.13    3.10
   8   0  -5   88.50    3.89
  -8   0   5   96.93    4.11
   8   0  -5   88.90    4.56
  -8   0   5   89.88    4.42
   8   0  -4  149.68    4.73
  -8   0   4  154.80    4.89
   8   0  -4  147.74    5.69
  -8   0   4  157.17    5.75
   8   0  -3   60.83    2.67
  -8   0   3   64.87    2.80
  -8   0   3   60.50    3.53
   8   0  -3   56.73    3.45
  -8   0   3   60.42    3.58
   8   0  -3   57.80    3.40
   8   0  -2   24.23    2.30
  -8   0   2   22.17    1.49
   8   0  -2   24.98    2.43
  -8   0   2   25.11    2.30
  -8   0   2   22.05    2.35
  -8   0   1  372.99    6.74
   8   0  -1  373.32    9.12
   8   0  -1  386.33    9.27
  -8   0   1  408.67    9.40
  -8   0   1  393.31    9.43
   8   0   0    1.22    1.13
   8   0   0    0.30    1.40
  -8   0   0    1.30    1.12
  -8   0   0    1.58    1.38
   8   0   1  365.83    8.78
  -8   0  -1  391.66    9.00
   8   0   1  367.81    9.04
  -8   0  -1  380.30    9.15
   8   0   2   30.02    2.43
  -8   0  -2   32.89    2.39
   8   0   2   33.09    2.51
  -8   0  -2   33.37    2.65
   8   0   3  118.48    4.57
  -8   0  -3  134.14    4.79
   8   0   3  121.33    4.69
  -8   0  -3  119.83    4.75
   8   0   4   43.33    2.78
  -8   0  -4   39.33    2.83
   8   0   4   43.52    2.81
   8   0   5    6.35    1.66
   8   0   5    6.83    1.48
  -8   0  -6  391.98    6.87
  -8   0  -6  404.20    8.75
   8   0   6  391.60    9.40
   8   0   6  393.54    9.29
  -8   0  -7  424.66    7.92
   8   0   7  414.58    7.89
  -8   0  -7  437.94    9.43
   8   0   7  445.02    9.89
   8   0   7  419.23   10.06
  -8   0  -8  216.29    5.45
   8   0   8  210.61    5.39
  -8   0  -8  222.74    6.44
   8   0   8  220.32    6.96
   8   0   8  224.28    6.57
  -8   0  -9   54.33    2.79
   8   0   9   55.07    2.81
  -8   0  -9   55.78    3.21
   8   0   9   56.33    3.24
   8   0   9   53.21    3.52
  -8   0 -10  161.44    5.31
   8   0  10  157.98    5.26
   8   0  10  162.82    5.62
   8   0  11   16.25    2.00
  -8   0 -11   19.01    2.12
   8   0  11   19.19    2.13
  -8   0 -12   30.03    2.79
   8   0  12   27.03    2.44
  -8   0 -13    7.86    2.08
   8   0  13    9.14    1.87
  -8   0 -14   30.98    3.25
  -8   0 -15   62.24    4.43
  -8   0 -16   18.05    3.01
  -8   0 -17    2.36    2.24
   8   1 -10   87.23    5.36
   8   1  -9  126.17    5.91
  -8  -1   9  124.38    5.60
   8   1  -8   48.98    3.65
  -8  -1   8   52.98    3.59
   8   1  -7    2.37    1.65
  -8  -1   7   -2.69    1.74
   8   1  -6  165.17    5.77
   8   1  -6  159.96    6.20
  -8  -1   6  167.40    6.17
   8   1  -5   24.58    2.18
  -8  -1   5   27.25    2.34
   8   1  -5   24.93    2.58
  -8  -1   5   24.95    2.51
  -8  -1   4  114.77    4.17
   8   1  -4  111.80    4.79
  -8  -1   4  109.88    4.82
  -8  -1   3   34.15    2.13
  -8  -1   3   34.63    2.65
   8   1  -3   29.88    2.58
  -8  -1   3   33.19    2.74
   8   1  -2   -0.69    1.13
  -8  -1   2    1.89    0.88
   8   1  -2   -1.97    2.40
  -8  -1   2    1.07    1.05
  -8  -1   2    0.11    1.34
  -8  -1   1  183.71    4.25
   8   1  -1  180.84    5.80
   8   1  -1  190.74    6.17
  -8  -1   1  185.21    6.10
  -8  -1   1  193.15    5.91
  -8  -1   0  582.45    9.13
   8   1   0  580.10   11.86
   8   1   0  622.00   12.46
  -8  -1   0  600.83   11.99
  -8  -1   0  594.04   12.35
  -8  -1  -1   13.20    0.62
   8   1   1   14.67    1.87
  -8  -1  -1   13.69    1.67
  -8  -1  -1   15.05    2.01
   8   1   1   13.18    1.79
   8   1   2   16.47    1.89
   8   1   2   14.96    1.82
  -8  -1  -2   16.00    1.67
  -8  -1  -2   18.10    2.08
   8   1   3  568.12   11.73
  -8  -1  -3  568.98   11.49
   8   1   3  551.08   11.39
  -8  -1  -3  565.39   11.76
   8   1   4  168.78    5.47
   8   1   4  181.63    5.71
  -8  -1  -4  169.60    5.61
  -8  -1  -5  211.11    3.92
   8   1   5  205.62    6.23
   8   1   5  207.82    6.23
  -8  -1  -5  210.26    6.31
  -8  -1  -6  330.09    6.13
  -8  -1  -6  324.13    7.32
   8   1   6  318.00    8.27
   8   1   6  336.21    8.29
  -8  -1  -6  326.42    8.19
   8   1   7   23.27    2.10
  -8  -1  -7   20.79    1.54
  -8  -1  -7   21.65    1.90
   8   1   7   23.88    2.35
  -8  -1  -8   59.99    2.67
   8   1   8   53.76    2.56
  -8  -1  -8   54.88    2.98
   8   1   8   53.21    3.08
   8   1   8   52.86    3.45
   8   1   9  236.13    6.26
  -8  -1  -9  249.99    6.44
   8   1   9  240.55    6.79
   8   1  10    1.47    1.18
  -8  -1 -10    1.62    1.25
   8   1  10    1.33    1.24
  -8  -1 -11   35.16    2.79
   8   1  11   34.27    2.69
   8   1  11   36.13    2.63
  -8  -1 -12  114.03    5.04
   8   1  12  113.71    4.54
  -8  -1 -13   60.60    3.96
   8   1  13   57.56    3.21
  -8  -1 -14    8.31    2.19
  -8  -1 -15   21.02    3.05
  -8  -1 -16   33.32    3.63
  -8  -1 -17   -2.07    2.18
  -8  -2   9   36.89    3.23
  -8  -2   8   25.47    2.69
  -8  -2   7  110.11    5.19
   8   2  -6   11.32    1.98
  -8  -2   6   10.07    1.95
  -8  -2   5    7.28    1.57
  -8  -2   5    7.84    1.75
   8   2  -5    3.35    1.41
  -8  -2   4  119.98    4.44
   8   2  -4  115.49    4.76
  -8  -2   4  125.41    4.93
  -8  -2   4  119.90    5.20
  -8  -2   3   -0.11    1.05
  -8  -2   3   -2.25    1.73
   8   2  -3    0.09    1.23
  -8  -2   3   -0.54    1.06
  -8  -2   2  125.99    3.92
   8   2  -2  128.02    4.74
  -8  -2   2  134.96    4.83
  -8  -2   2  128.21    5.19
  -8  -2   1  321.57    6.51
  -8  -2   1  331.18    8.64
   8   2  -1  316.00    7.89
  -8  -2   1  322.29    8.57
  -8  -2   1  330.92    8.02
   8   2   0   16.86    2.00
  -8  -2   0   19.61    1.25
   8   2   0   15.59    1.76
  -8  -2   0   20.57    2.35
  -8  -2   0   19.12    1.92
  -8  -2  -1   37.46    1.42
   8   2   1   33.82    2.44
   8   2   1   36.13    2.65
  -8  -2  -1   37.24    2.78
  -8  -2  -1   35.49    2.40
  -8  -2  -2  673.61    9.78
   8   2   2  651.34   12.75
  -8  -2  -2  675.37   13.41
  -8  -2  -2  695.27   12.95
   8   2   2  682.14   13.43
  -8  -2  -3  127.85    2.52
  -8  -2  -3  126.85    4.82
   8   2   3  130.45    4.82
   8   2   3  125.43    4.56
  -8  -2  -4    8.59    0.75
   8   2   4    8.73    1.54
   8   2   4    7.87    1.59
  -8  -2  -4    9.20    1.77
  -8  -2  -5    2.57    0.71
   8   2   5    1.50    1.16
  -8  -2  -5    2.89    0.91
  -8  -2  -5    1.90    1.44
   8   2   5    5.05    1.59
  -8  -2  -6   20.93    1.38
   8   2   6   22.37    2.09
  -8  -2  -6   21.79    1.76
   8   2   6   23.75    2.35
  -8  -2  -6   23.78    2.28
  -8  -2  -7  447.90    8.41
  -8  -2  -7  434.19    8.92
   8   2   7  435.96   10.25
   8   2   7  439.50    9.78
  -8  -2  -7  444.16    9.88
  -8  -2  -8  688.49   12.26
   8   2   8  674.27   13.18
  -8  -2  -9    3.21    1.27
   8   2   9    2.55    1.24
   8   2  10   16.99    1.94
  -8  -2 -10   19.70    2.10
   8   2  10   20.54    2.01
   8   2  11  221.14    6.91
  -8  -2 -11  239.93    7.11
   8   2  11  232.07    6.50
  -8  -2 -12   14.46    2.24
   8   2  12   13.86    1.69
  -8  -2 -13   14.69    2.35
  -8  -2 -14    4.42    2.04
  -8  -2 -15   13.71    2.64
   8   2  15   13.62    2.54
  -8  -2 -16   -1.27    2.05
   8   2  16   -1.46    2.08
  -8  -2 -17   55.04    4.69
   8   2  17   51.86    4.44
  -8  -3  10   26.68    3.14
  -8  -3   9   38.05    3.46
  -8  -3   8  112.77    5.49
  -8  -3   7    2.17    1.65
  -8  -3   6    5.05    1.53
  -8  -3   5   62.65    3.53
   8   3  -5   58.44    3.44
  -8  -3   5   59.27    3.43
  -8  -3   5   52.66    3.68
  -8  -3   4   24.77    2.19
  -8  -3   4   23.60    2.61
  -8  -3   4   26.49    2.29
   8   3  -4   21.47    2.19
  -8  -3   3   93.39    3.78
   8   3  -3   96.81    4.10
  -8  -3   3   98.29    4.70
  -8  -3   3   95.29    4.04
  -8  -3   2   70.33    3.02
   8   3  -2   68.14    3.36
  -8  -3   2   64.82    3.25
  -8  -3   2   67.79    3.85
  -8  -3   1  105.66    3.49
   8   3  -1  111.38    4.25
  -8  -3   1  114.58    4.26
  -8  -3   1  116.41    4.96
  -8  -3   0  107.09    3.21
  -8  -3   0  109.80    4.66
   8   3   0  101.09    4.01
  -8  -3   0  103.78    3.99
  -8  -3   0  104.16    4.62
  -8  -3  -1  512.10    8.76
  -8  -3  -1  542.59   11.60
   8   3   1  498.68   10.42
  -8  -3  -1  527.74   11.51
  -8  -3  -1  528.30   10.62
   8   3   1  519.48   11.39
   8   3   2   12.10    1.76
  -8  -3  -2    9.50    0.89
  -8  -3  -2   11.22    1.90
   8   3   2   11.48    1.63
   8   3   3  300.48    7.81
  -8  -3  -3  300.50    7.88
   8   3   3  283.58    7.25
   8   3   4   19.44    2.03
  -8  -3  -4   15.96    1.14
  -8  -3  -4   15.96    2.04
   8   3   4   14.54    1.80
   8   3   5   -0.68    1.05
  -8  -3  -5    0.00    0.74
  -8  -3  -5   -0.15    0.72
   8   3   5    1.49    1.25
  -8  -3  -5   -0.17    1.29
  -8  -3  -6   44.26    2.07
  -8  -3  -6   41.63    2.08
   8   3   6   41.89    2.89
   8   3   6   46.14    2.86
  -8  -3  -6   45.74    2.94
  -8  -3  -7  129.23    3.98
   8   3   7  118.59    4.83
   8   3   7  130.43    4.73
  -8  -3  -7  126.57    4.70
  -8  -3  -8  254.03    6.38
  -8  -3  -8  262.90    7.03
   8   3   8  250.14    6.85
  -8  -3  -9    3.50    1.26
   8   3   9    3.01    1.25
  -8  -3 -10   29.05    3.23
   8   3  10   22.01    2.05
  -8  -3 -11    1.67    1.54
   8   3  11    2.48    1.15
  -8  -3 -12   97.08    4.73
   8   3  12   91.48    3.78
  -8  -3 -13    0.59    1.54
   8   3  13   -0.57    1.49
  -8  -3 -14    1.11    1.87
   8   3  14    1.80    1.74
  -8  -3 -15   13.00    2.60
   8   3  15    9.06    2.28
  -8  -3 -16    5.49    2.25
   8   3  16    4.88    2.18
   8   3  17   37.86    3.85
  -8  -4  10   63.04    4.46
  -8  -4   9   16.40    2.66
  -8  -4   8   13.86    2.50
  -8  -4   7    6.27    1.87
  -8  -4   6   33.40    3.16
  -8  -4   5   19.64    2.63
   8   4  -5   21.29    2.23
  -8  -4   5   18.41    1.98
  -8  -4   4   90.54    4.10
   8   4  -4   87.31    3.92
  -8  -4   4   89.25    4.67
  -8  -4   4   96.94    4.08
  -8  -4   3    1.56    1.11
  -8  -4   3    1.57    1.52
   8   4  -3    3.85    1.23
  -8  -4   3    3.17    1.11
  -8  -4   2   33.78    2.31
   8   4  -2   33.75    2.40
  -8  -4   2   34.25    2.33
  -8  -4   2   37.15    2.99
  -8  -4   1  143.51    4.37
   8   4  -1  140.93    4.65
  -8  -4   1  142.08    4.67
  -8  -4   1  142.59    5.64
  -8  -4   0  158.02    4.36
   8   4   0  161.19    4.98
  -8  -4   0  158.29    4.93
  -8  -4   0  159.25    5.83
  -8  -4  -1  145.46    3.95
  -8  -4  -1  151.33    5.50
   8   4   1  143.07    4.64
  -8  -4  -1  145.47    4.66
  -8  -4  -1  152.43    5.63
  -8  -4  -2   49.90    3.12
   8   4   2   49.86    2.76
  -8  -4  -2   42.52    3.03
  -8  -4  -3  156.07    5.43
  -8  -4  -3  159.49    5.59
   8   4   3  149.90    4.90
   8   4   4   11.32    1.64
  -8  -4  -4   10.27    1.66
  -8  -4  -4    9.85    0.95
   8   4   4    8.07    1.47
  -8  -4  -4   11.12    1.86
   8   4   5    1.45    1.09
  -8  -4  -5    2.69    0.95
  -8  -4  -5    0.98    1.08
  -8  -4  -5    1.44    0.67
   8   4   5    0.42    1.21
  -8  -4  -5    1.21    1.27
  -8  -4  -6   -0.31    0.88
   8   4   6   -0.25    1.10
  -8  -4  -6    0.83    1.34
   8   4   6    0.39    1.28
  -8  -4  -7  185.02    5.11
   8   4   7  186.50    5.75
  -8  -4  -7  184.60    5.80
  -8  -4  -8    7.65    1.42
   8   4   8    7.80    1.41
  -8  -4  -8    8.63    1.69
  -8  -4  -9    3.51    1.29
   8   4   9    4.46    1.25
  -8  -4  -9    5.78    1.52
  -8  -4 -10   78.91    3.39
  -8  -4 -10   76.61    3.87
   8   4  10   77.01    3.48
  -8  -4 -11   68.66    3.10
  -8  -4 -11   66.85    3.86
   8   4  11   68.02    3.22
   8   4  12   15.99    1.73
  -8  -4 -12   15.76    2.34
   8   4  12   13.42    1.95
  -8  -4 -12   17.08    1.60
  -8  -4 -13    3.24    1.82
   8   4  13    1.46    1.54
  -8  -4 -14    1.02    1.81
   8   4  14   -2.16    1.72
  -8  -4 -15    2.73    2.11
   8   4  15    0.82    1.71
  -8  -4 -16   31.65    3.77
   8   4  16   26.07    3.21
   8   4  17    2.07    1.97
  -8  -5  10    0.80    1.84
  -8  -5   9   82.15    5.08
  -8  -5   8    3.69    2.01
  -8  -5   7    4.23    1.90
  -8  -5   6    8.49    2.30
  -8  -5   5   20.98    2.73
  -8  -5   5   23.56    2.11
  -8  -5   4   58.70    3.46
   8   5  -4   61.55    3.20
  -8  -5   4   60.86    4.02
  -8  -5   4   55.21    2.97
  -8  -5   3  102.35    4.34
   8   5  -3   97.48    3.87
  -8  -5   3  103.13    3.95
  -8  -5   3  107.74    5.13
  -8  -5   2   41.37    2.63
   8   5  -2   43.42    2.54
  -8  -5   2   38.35    2.46
  -8  -5   2   45.69    3.44
  -8  -5   1    2.29    1.14
  -8  -5   1    4.48    1.86
   8   5  -1    4.63    1.19
  -8  -5   1    3.88    1.16
  -8  -5   0  515.30    9.89
   8   5   0  488.43    9.90
  -8  -5   0  499.43    9.97
  -8  -5   0  505.53   11.70
  -8  -5  -1    8.67    1.88
   8   5   1    8.25    1.33
  -8  -5  -2   45.73    3.03
   8   5   2   39.93    2.44
  -8  -5  -2   44.20    3.14
  -8  -5  -3   73.60    3.70
  -8  -5  -3   69.31    3.77
   8   5   3   69.23    3.21
  -8  -5  -4  102.04    4.37
  -8  -5  -4   95.15    2.23
  -8  -5  -4   95.82    4.33
   8   5   4   96.07    3.94
  -8  -5  -5   65.60    3.41
  -8  -5  -5   61.70    2.73
   8   5   5   63.61    3.33
  -8  -5  -5   66.84    3.58
  -8  -5  -6  284.01    7.47
  -8  -5  -6  287.70    6.72
  -8  -5  -6  278.20    7.53
   8   5   6  276.73    7.52
  -8  -5  -7   20.32    1.95
  -8  -5  -7   19.99    1.88
  -8  -5  -7   24.91    2.32
  -8  -5  -8   15.22    1.71
  -8  -5  -8   19.70    2.00
  -8  -5  -8   18.93    2.07
  -8  -5  -9  117.99    4.28
  -8  -5  -9  107.98    4.03
  -8  -5  -9  117.72    4.46
  -8  -5 -10   54.28    2.82
  -8  -5 -10   52.31    3.33
  -8  -5 -10   54.08    3.04
  -8  -5 -11   32.61    2.96
  -8  -5 -11   37.54    2.29
  -8  -5 -12   18.27    2.42
   8   5  12   19.15    2.13
  -8  -5 -13    5.77    2.02
   8   5  13    6.84    1.72
  -8  -5 -14    0.50    1.78
   8   5  14    3.39    1.67
  -8  -5 -15   33.29    3.74
   8   5  15   31.68    3.21
  -8  -5 -16    1.19    2.41
   8   5  16    4.05    2.18
   8   5  17    9.11    2.40
  -8  -6  10  121.05    6.44
  -8  -6   9    3.29    1.92
  -8  -6   8    3.47    2.08
  -8  -6   7   27.56    3.22
  -8  -6   6   36.12    3.50
  -8  -6   5   20.91    2.79
  -8  -6   4   24.25    2.93
   8   6  -4   19.01    1.81
  -8  -6   4   18.21    1.73
  -8  -6   3   -1.56    1.43
  -8  -6   3   -1.30    1.73
   8   6  -3    0.24    0.87
  -8  -6   3    0.87    0.94
  -8  -6   2   78.73    3.76
   8   6  -2   70.29    3.05
  -8  -6   2   81.97    3.27
  -8  -6   2   77.73    4.47
  -8  -6   1  424.14    9.39
   8   6  -1  412.02    8.53
  -8  -6   1  410.20   10.68
  -8  -6   0    3.82    1.17
  -8  -6   0    3.17    1.75
   8   6   0    4.64    1.18
  -8  -6  -1   22.37    2.50
   8   6   1   23.99    1.88
   8   6   2   95.83    3.66
  -8  -6  -2  103.86    4.71
  -8  -6  -3  279.80    7.87
   8   6   3  256.95    6.57
  -8  -6  -4  176.41    5.92
   8   6   4  161.85    5.18
  -8  -6  -4  169.53    5.93
  -8  -6  -5  106.33    4.47
   8   6   5   95.77    4.04
  -8  -6  -5  100.91    4.48
  -8  -6  -6  160.29    5.47
  -8  -6  -6  160.89    5.05
  -8  -6  -6  151.66    5.46
   8   6   6  155.67    5.39
  -8  -6  -7    3.35    1.42
  -8  -6  -7    1.44    1.05
  -8  -6  -7    0.41    1.37
  -8  -6  -8  513.13   10.81
  -8  -6  -8  524.39   11.08
  -8  -6  -8  506.66   10.95
  -8  -6  -9    9.93    1.51
  -8  -6  -9    7.55    1.65
  -8  -6  -9    8.11    1.63
  -8  -6 -10    9.99    1.43
  -8  -6 -10   11.10    2.04
  -8  -6 -10   10.24    1.60
  -8  -6 -11   35.48    3.12
  -8  -6 -11   36.15    2.26
  -8  -6 -12   83.81    4.66
   8   6  12   74.59    3.73
  -8  -6 -13   25.30    3.00
   8   6  13   23.26    2.40
  -8  -6 -14    4.95    2.29
   8   6  14    0.68    1.52
  -8  -6 -15   27.64    3.48
   8   6  15   23.10    2.97
  -8  -6 -16   -1.27    2.17
   8   6  16    4.04    1.95
   8   6  17   93.73    5.57
  -8  -7   9    2.78    1.81
  -8  -7   9   -5.40    2.14
  -8  -7   8   95.60    5.27
  -8  -7   8   92.44    5.66
  -8  -7   7   14.47    2.70
  -8  -7   6   26.70    3.28
  -8  -7   5    5.45    2.12
  -8  -7   4    2.31    1.92
   8   7  -3   77.67    3.07
  -8  -7   3   77.94    3.09
  -8  -7   3   79.27    4.74
  -8  -7   2  152.02    5.61
   8   7  -2  153.56    4.39
  -8  -7   2  157.04    6.47
  -8  -7   1   10.63    1.68
  -8  -7   1   11.90    2.34
   8   7  -1   12.47    1.38
  -8  -7   0   -0.48    1.59
   8   7   0    0.52    0.87
   8   7   1  252.52    6.05
  -8  -7  -1  247.70    4.19
  -8  -7  -1  244.10    7.83
   8   7   2  116.53    3.95
  -8  -7  -2  117.58    5.19
  -8  -7  -3   13.34    2.08
   8   7   3   19.78    1.79
   8   7   4   31.89    2.29
  -8  -7  -4   34.49    2.84
  -8  -7  -5   89.44    4.21
   8   7   5   86.06    3.80
  -8  -7  -5   76.00    4.02
  -8  -7  -6    8.25    1.65
  -8  -7  -6   10.62    1.88
   8   7   6    8.17    1.67
  -8  -7  -7  343.69    8.58
  -8  -7  -7  337.69    8.47
  -8  -7  -7  336.04    8.65
  -8  -7  -8  152.71    5.27
  -8  -7  -8  154.57    5.56
  -8  -7  -8  154.15    5.43
  -8  -7  -9   42.19    2.69
  -8  -7  -9   43.04    3.13
  -8  -7  -9   45.06    2.91
  -8  -7 -10   78.07    3.49
  -8  -7 -10   71.21    4.12
  -8  -7 -10   75.40    3.63
  -8  -7 -11   62.04    4.04
  -8  -7 -11   61.23    3.20
  -8  -7 -12   15.55    2.41
   8   7  12   11.53    1.71
  -8  -7 -13    1.43    1.86
   8   7  13    1.49    1.29
  -8  -7 -14   13.44    2.67
   8   7  14   15.77    2.31
  -8  -7 -15    4.31    2.26
   8   7  15    2.75    1.66
  -8  -8   8    2.20    2.10
  -8  -8   8    5.96    1.92
  -8  -8   7    1.75    2.02
  -8  -8   7    4.55    1.84
  -8  -8   6   11.85    2.54
  -8  -8   6   18.16    2.39
  -8  -8   5    2.83    2.44
  -8  -8   5    1.94    1.40
  -8  -8   4   50.85    3.03
  -8  -8   4   50.64    4.14
  -8  -8   3   31.41    3.40
  -8  -8   3   34.48    2.31
  -8  -8   2   28.08    3.16
  -8  -8   2   32.96    2.03
   8   8  -2   31.94    1.80
  -8  -8   1   16.49    2.55
  -8  -8   1   14.43    1.29
   8   8  -1   16.58    1.35
   8   8   0  292.88    6.32
  -8  -8   0  284.05    5.12
  -8  -8   0  293.81    9.03
  -8  -8  -1   16.36    2.51
   8   8   1   16.77    1.53
  -8  -8  -2   14.62    2.27
   8   8   2   15.40    1.52
  -8  -8  -3   92.84    4.68
   8   8   3   85.90    3.43
  -8  -8  -4    3.44    1.69
   8   8   4    5.49    1.38
   8   8   5  259.78    6.96
  -8  -8  -5  251.62    7.65
  -8  -8  -6  115.62    5.00
  -8  -8  -7  458.21   10.50
  -8  -8  -7  448.15   10.55
  -8  -8  -7  428.74   10.40
  -8  -8  -8   20.55    2.39
  -8  -8  -8   17.24    1.94
  -8  -8  -8   17.54    2.16
  -8  -8  -9  196.16    6.09
  -8  -8  -9  182.30    6.59
  -8  -8  -9  199.75    6.24
  -8  -8 -10   -1.34    1.60
  -8  -8 -10   -0.84    1.57
  -8  -8 -10    0.91    1.21
  -8  -8 -11   50.84    3.89
  -8  -8 -11   53.70    3.00
  -8  -8 -12   -0.05    1.80
   8   8  12    2.09    1.19
  -8  -8 -13   10.55    2.56
   8   8  13   13.17    1.89
  -8  -8 -14    3.90    2.15
  -8  -8 -15   13.34    2.91
  -8  -9   7   -1.36    2.15
  -8  -9   6    5.05    2.39
  -8  -9   5    0.30    2.22
  -8  -9   4    4.00    2.14
  -8  -9   4    1.73    1.29
  -8  -9   3   15.36    2.71
  -8  -9   3   15.91    1.68
  -8  -9   2   20.76    2.83
  -8  -9   2   29.22    1.87
   8   9  -1  108.97    3.01
  -8  -9   1   98.40    7.00
   8   9   0  114.14    3.27
  -8  -9   0  114.56    5.66
   8   9   1   45.16    2.18
  -8  -9  -1   43.81    3.59
   8   9   2  115.54    3.74
  -8  -9  -2  114.36    5.46
  -8  -9  -3   71.04    4.27
   8   9   3   68.35    2.99
   8   9   4   55.34    2.86
  -8  -9  -4   58.96    3.85
  -8  -9  -5   18.10    2.33
   8   9   5   16.27    1.83
  -8  -9  -6   91.61    4.57
  -8  -9  -7   42.72    3.19
  -8  -9  -7   38.62    3.03
  -8  -9  -8   35.79    3.05
  -8  -9  -8   34.18    2.82
  -8  -9  -9   12.25    2.21
  -8  -9  -9   11.01    1.80
  -8  -9  -9    7.54    1.60
  -8  -9 -10   73.62    4.49
  -8  -9 -10   71.78    3.65
  -8  -9 -11   -0.39    1.79
  -8  -9 -11    0.98    1.18
  -8  -9 -12    1.94    1.91
  -8  -9 -13    0.98    1.94
  -8  -9 -14   -3.04    2.09
  -8 -10   5   22.66    3.25
  -8 -10   4   49.17    4.43
  -8 -10   3   15.41    2.84
  -8 -10   2    3.77    1.95
  -8 -10   1  280.38    9.52
  -8 -10   0   81.58    5.08
  -8 -10  -1   16.81    2.63
   8  10   1   15.25    1.21
  -8 -10  -2   10.81    2.14
   8  10   2   14.89    1.42
  -8 -10  -3   54.60    3.95
   8  10   3   50.83    2.55
   8  10   4   71.68    3.22
  -8 -10  -4   70.99    4.32
   8  10   5  152.79    5.09
  -8 -10  -5  147.07    6.07
  -8 -10  -6    3.11    1.62
   8  10   6    4.55    1.44
  -8 -10  -7    2.07    1.53
  -8 -10  -8  167.86    6.64
  -8 -10  -8  170.60    6.17
  -8 -10  -9   38.35    3.36
  -8 -10  -9   36.71    2.94
  -8 -10 -10    1.46    1.76
  -8 -10 -10    2.14    1.45
  -8 -10 -11    7.40    2.27
  -8 -10 -11    3.93    1.46
  -8 -10 -12   36.22    3.74
  -8 -10 -13   10.62    2.74
  -8 -10 -14   20.93    3.25
  -8 -11   4    1.11    2.18
  -8 -11   3   20.82    3.17
  -8 -11   2  161.83    7.48
  -8 -11   1   24.70    3.34
  -8 -11   0    1.69    2.07
  -8 -11  -1  114.38    6.00
  -8 -11  -2   94.43    5.36
  -8 -11  -3   -0.35    1.88
   8  11   3   -0.04    0.87
   8  11   4   51.87    2.70
  -8 -11  -4   51.75    3.91
  -8 -11  -5    5.63    2.00
   8  11   5    3.90    1.21
  -8 -11  -6   -1.61    1.79
   8  11   6    1.05    1.26
  -8 -11  -7  266.72    8.33
  -8 -11  -8    5.07    2.20
  -8 -11  -8    3.63    1.69
  -8 -11  -9   21.34    2.91
  -8 -11  -9   20.06    2.39
  -8 -11 -10   10.72    2.50
  -8 -11 -10   13.29    2.12
  -8 -11 -11   24.67    3.18
  -8 -11 -12    2.46    2.25
  -8 -11 -13    5.88    2.47
  -8 -12   2    6.01    2.58
  -8 -12   1    5.74    2.37
  -8 -12   0   83.70    5.46
  -8 -12  -1   10.70    2.69
  -8 -12  -2   22.74    3.13
  -8 -12  -3    0.80    1.88
  -8 -12  -4    2.77    1.92
  -8 -12  -5   12.57    2.56
   8  12   5   11.76    1.60
   8  12   6  224.69    6.63
  -8 -12  -6  231.52    8.09
  -8 -12  -7    7.47    2.01
  -8 -12  -8   45.60    4.05
  -8 -12  -8   46.66    3.62
  -8 -12  -9   49.28    4.25
  -8 -12  -9   50.36    3.53
  -8 -12 -10   27.06    3.33
  -8 -12 -10   22.65    2.55
  -8 -12 -11    4.08    2.16
  -8 -12 -12   -0.39    2.04
  -8 -13   0    0.26    1.99
  -8 -13  -1    8.37    2.61
  -8 -13  -2    6.84    2.37
  -8 -13  -3   11.66    2.60
  -8 -13  -4   23.64    3.05
  -8 -13  -5   78.63    5.04
  -8 -13  -6   90.69    5.21
  -8 -13  -7   44.49    3.73
  -8 -13  -8   76.00    5.13
  -8 -13  -8   78.64    4.66
  -8 -13  -9    2.79    2.31
  -8 -13  -9    0.07    1.59
  -8 -13 -10   37.02    3.97
  -8 -13 -11    6.10    2.51
  -8 -14  -2    7.82    2.55
  -8 -14  -3    4.62    2.31
  -8 -14  -4    6.33    2.35
  -8 -14  -5  237.50    8.89
  -8 -14  -6   24.56    3.13
  -8 -14  -7   79.69    5.02
  -8 -14  -8   62.78    4.43
  -8 -14  -9  123.01    6.88
  -8 -15  -4   39.15    4.13
  -8 -15  -5   19.46    3.12
  -8 -15  -6    2.34    2.10
  -8 -15  -7   85.18    5.36
  -8 -15  -8   69.46    4.82
   9 -14   0    2.21    2.21
   9 -14   1   12.82    2.67
   9 -14   2    9.45    2.50
   9 -14   3   10.37    2.60
   9 -13  -1    8.29    2.49
   9 -13   0   16.05    2.86
   9 -13   1    1.57    1.87
   9 -13   2    2.66    1.83
   9 -13   3    9.80    2.33
   9 -13   4   36.11    3.60
   9 -13   5   -0.75    1.73
   9 -12  -2    1.26    2.07
   9 -12  -1   10.59    2.48
   9 -12  -1   12.99    2.33
   9 -12   0   32.24    3.50
   9 -12   0   28.46    2.90
   9 -12   1   18.10    2.92
   9 -12   2    4.31    2.00
   9 -12   3    1.88    1.82
   9 -12   4   41.99    3.67
   9 -12   5  173.28    7.08
   9 -12   6    3.50    1.91
   9 -12   7    3.92    1.94
   9 -11  -3   41.82    4.08
   9 -11  -3   39.50    3.40
   9 -11  -2   99.67    4.94
   9 -11  -2   89.99    5.55
   9 -11  -1    1.24    1.94
   9 -11  -1   -4.40    1.78
   9 -11   0   -1.87    1.82
   9 -11   0    0.73    1.39
   9 -11   1    9.16    2.19
   9 -11   2    1.03    1.73
   9 -11   3   45.61    3.80
   9 -11   4   45.12    3.74
   9 -11   5   90.52    5.05
   9 -11   6    4.91    1.95
   9 -11   7   73.04    4.58
   9 -11   8    0.66    1.69
   9 -11   9   19.45    2.72
   9 -10  -4  120.90    5.53
   9 -10  -4  121.80    6.66
   9 -10  -3   93.49    4.68
   9 -10  -3   91.10    5.68
   9 -10  -2    7.35    1.73
   9 -10  -2    6.07    2.33
   9 -10  -1   15.65    2.16
   9 -10  -1   11.37    2.52
   9 -10   0   22.24    2.33
   9 -10   0   28.57    3.25
   9 -10   1    0.98    1.71
   9 -10   2   24.71    2.91
   9 -10   3   17.43    2.56
   9 -10   4   20.08    2.71
   9 -10   5   69.38    4.36
   9 -10   6  101.79    5.25
   9 -10   7   91.36    5.02
   9 -10   8    7.69    2.01
  -9  10  -9   98.89    6.03
   9 -10   9   92.20    5.08
  -9  10 -10    2.69    2.21
   9 -10  10    5.14    1.98
   9 -10  11    6.61    2.25
   9  -9  -6   26.05    2.94
   9  -9  -5   98.99    4.99
   9  -9  -5   93.58    5.83
   9  -9  -4    3.78    1.60
   9  -9  -4    6.33    2.34
   9  -9  -3  114.61    4.97
   9  -9  -3  119.97    6.30
   9  -9  -2   -0.09    1.27
   9  -9  -2   -1.08    1.93
   9  -9  -1    0.57    1.29
   9  -9  -1   -0.81    1.72
   9  -9   0    8.22    1.61
   9  -9   0    5.35    1.94
   9  -9   1    5.32    1.98
   9  -9   2    1.77    1.75
   9  -9   3   23.85    2.88
   9  -9   4  104.26    5.25
   9  -9   5   68.56    4.26
   9  -9   6   85.62    4.75
   9  -9   7   28.68    3.01
   9  -9   8   43.05    3.56
   9  -9   9    2.29    1.93
  -9   9 -10    6.03    2.25
   9  -9  10    8.29    2.29
  -9   9 -11   17.48    3.07
   9  -9  11   15.71    2.57
   9  -9  12   50.53    4.06
  -9   9 -12   59.04    4.79
   9  -8  -6   25.00    2.78
   9  -8  -6   24.49    3.24
   9  -8  -5   34.26    2.99
   9  -8  -5   33.07    3.72
   9  -8  -4  151.63    5.77
   9  -8  -4  163.56    7.33
   9  -8  -3    4.58    1.52
   9  -8  -3   -2.03    2.14
   9  -8  -2   12.15    2.52
   9  -8  -2   11.70    1.74
   9  -8  -1    2.13    1.82
   9  -8  -1    1.86    1.17
   9  -8   0   48.19    3.71
   9  -8   0   51.02    2.86
   9  -8   1  103.15    5.24
   9  -8   1  111.35    4.08
   9  -8   2   45.97    3.56
   9  -8   3    1.80    1.63
   9  -8   4   -2.16    1.73
   9  -8   5  399.46    9.09
   9  -8   5  411.17   10.85
   9  -8   6    4.00    1.37
   9  -8   6    7.51    2.00
   9  -8   7    0.82    1.54
   9  -8   8   27.11    2.89
   9  -8   9   37.41    3.38
   9  -8  10   18.84    2.64
  -9   8 -11   91.81    5.60
   9  -8  11   84.44    4.97
  -9   8 -12   54.05    4.39
   9  -8  12   48.79    3.99
  -9   8 -13    5.89    2.49
   9  -8  13    4.60    2.12
  -9   8 -14   88.89    5.60
   9  -8  14   76.50    5.13
   9  -7  -7    6.11    2.05
   9  -7  -6  122.47    5.42
   9  -7  -6  117.52    6.54
   9  -7  -5  103.22    4.74
   9  -7  -5  107.53    5.99
   9  -7  -4   12.61    1.94
   9  -7  -4   16.62    2.84
   9  -7  -3    0.25    1.20
   9  -7  -3    0.65    1.92
   9  -7  -2   17.38    1.85
   9  -7  -2   18.97    2.70
   9  -7  -1   34.65    2.30
   9  -7  -1   39.81    3.46
   9  -7   0  256.11    6.31
   9  -7   0  247.38    8.30
   9  -7   1   58.74    3.94
   9  -7   1   60.07    2.73
   9  -7   2   39.67    3.30
   9  -7   3  107.47    5.15
   9  -7   4  272.07    6.49
   9  -7   4  282.79    8.56
   9  -7   5   16.08    1.62
   9  -7   5   16.40    2.35
   9  -7   6    4.60    1.22
   9  -7   6    2.59    1.70
   9  -7   7   72.03    3.18
   9  -7   7   81.84    4.52
   9  -7   8   16.30    2.02
   9  -7   8   13.37    2.26
   9  -7   9    1.69    1.69
   9  -7  10   43.88    3.61
   9  -7  11   51.14    3.90
  -9   7 -12   -1.25    1.94
   9  -7  12   -0.02    1.73
  -9   7 -13  152.87    7.11
   9  -7  13  132.95    6.47
  -9   7 -14    3.49    2.25
   9  -7  14    2.24    1.95
   9  -7  15   -3.33    2.17
   9  -6  -8   -2.63    1.93
   9  -6  -7  117.53    5.43
   9  -6  -6   43.17    3.31
   9  -6  -6   45.08    4.18
   9  -6  -5   55.25    3.44
   9  -6  -5   55.55    4.33
   9  -6  -4   29.13    2.54
   9  -6  -4   28.69    3.25
   9  -6  -3  286.91    7.31
   9  -6  -3  280.87    9.31
   9  -6  -2   14.17    1.63
   9  -6  -2   13.84    2.44
   9  -6  -1  277.76    6.47
   9  -6  -1  257.46    8.51
   9  -6   0   52.93    2.45
   9  -6   0   53.32    3.74
   9  -6   1   -0.08    1.51
   9  -6   1    0.66    0.79
   9  -6   2   61.20    3.91
   9  -6   3  179.33    6.62
   9  -6   4   74.08    2.80
   9  -6   4   77.80    4.27
   9  -6   5    9.44    1.28
   9  -6   5    5.93    1.57
   9  -6   6  218.83    5.74
   9  -6   6  223.13    7.47
   9  -6   7    7.47    1.33
   9  -6   7    9.12    1.89
   9  -6   8    1.69    1.27
   9  -6   8    0.36    1.57
   9  -6   9    3.93    1.49
   9  -6   9    0.09    1.56
   9  -6  10   62.35    4.12
   9  -6  11   14.79    2.56
   9  -6  12   80.28    4.88
  -9   6 -13   90.99    5.31
   9  -6  13   88.80    5.33
  -9   6 -14   23.08    3.15
   9  -6  14   32.84    3.61
   9  -6  15   13.91    2.74
   9  -5  -8   42.62    3.59
   9  -5  -7    0.97    1.66
   9  -5  -7    1.85    2.15
   9  -5  -6   30.10    2.72
   9  -5  -6   26.06    3.26
   9  -5  -5  171.83    5.87
   9  -5  -5  176.03    7.47
   9  -5  -4  187.03    5.81
   9  -5  -4  189.24    7.49
   9  -5  -3   34.97    2.36
   9  -5  -3   37.75    3.50
   9  -5  -2    2.88    1.02
   9  -5  -2    0.52    1.61
   9  -5  -1   -0.14    0.81
   9  -5  -1   -0.21    1.54
   9  -5   0   29.26    1.67
   9  -5   0   27.92    2.85
   9  -5   1   68.20    2.35
   9  -5   1   64.83    3.97
   9  -5   2    8.55    1.98
   9  -5   2    7.35    0.88
   9  -5   3   71.19    2.31
   9  -5   3   70.91    4.10
   9  -5   4   40.53    1.83
   9  -5   4   44.87    3.28
   9  -5   5  367.04    7.21
   9  -5   5  378.59    9.94
   9  -5   6   32.65    1.96
   9  -5   6   34.25    2.95
   9  -5   7    9.09    1.36
   9  -5   7    7.17    1.80
   9  -5   8    5.23    1.26
   9  -5   8   -0.25    1.56
   9  -5   9    6.56    1.44
   9  -5   9    5.91    1.82
   9  -5  10   20.10    2.28
   9  -5  10   20.84    2.68
   9  -5  11    0.48    1.69
   9  -5  12  195.98    7.65
   9  -5  13   -0.29    1.87
  -9   5 -14   89.78    5.13
   9  -5  14   80.25    5.19
   9  -5  15    2.02    2.09
   9  -4  -9   23.95    3.10
   9  -4  -8   17.21    2.53
   9  -4  -7   20.42    2.44
   9  -4  -7   17.96    3.02
   9  -4  -6  208.10    6.76
   9  -4  -6  200.18    7.99
   9  -4  -5   21.79    2.19
   9  -4  -5   21.16    2.81
   9  -4  -4  197.94    5.82
   9  -4  -4  190.15    7.39
   9  -4  -3    5.95    1.22
   9  -4  -3    8.57    2.13
   9  -4  -2   52.51    2.43
   9  -4  -2   49.89    3.67
   9  -4  -1    0.83    0.72
   9  -4  -1    0.60    1.49
   9  -4   0   -1.92    0.97
   9  -4   0   -1.01    1.67
   9  -4   1   10.68    0.84
   9  -4   1    9.13    1.90
   9  -4   2  102.46    2.27
   9  -4   2   99.64    4.78
   9  -4   3   29.66    1.13
   9  -4   3   27.32    1.10
   9  -4   3   29.04    2.75
   9  -4   4   50.01    1.67
   9  -4   4   51.76    3.42
   9  -4   5  487.36    8.32
   9  -4   5  509.77   11.74
   9  -4   6   35.72    1.86
   9  -4   6   36.67    3.02
   9  -4   7   44.21    2.26
   9  -4   7   43.94    3.31
   9  -4   8   41.56    2.44
   9  -4   8   49.37    3.49
   9  -4   9  123.67    4.52
   9  -4   9  123.26    5.50
   9  -4  10    3.77    1.37
   9  -4  10    4.70    1.92
   9  -4  11  158.04    6.63
   9  -4  12    5.21    2.02
   9  -4  13   88.19    6.35
  -9   4 -14   54.61    3.87
   9  -4  14   50.25    4.28
   9  -4  15   15.62    2.96
   9  -3  -9   20.70    2.85
   9  -3  -8    9.90    2.04
   9  -3  -7   47.66    3.38
   9  -3  -7   42.69    3.90
   9  -3  -6   15.00    2.08
   9  -3  -6   12.10    2.50
   9  -3  -5  345.98    8.57
   9  -3  -5  350.64   10.47
   9  -3  -4    0.40    1.08
   9  -3  -4   -0.65    1.70
   9  -3  -3   58.31    2.73
   9  -3  -3   54.95    3.92
   9  -3  -2   20.43    1.57
   9  -3  -2   24.42    2.75
   9  -3  -1  144.70    3.58
   9  -3  -1  144.77    5.81
   9  -3   0    1.38    0.55
   9  -3   0    0.58    1.48
   9  -3   1   30.52    2.80
   9  -3   2   67.98    3.92
   9  -3   3    1.08    1.36
   9  -3   4  637.14   13.61
   9  -3   5   26.54    1.15
   9  -3   5   26.44    2.61
   9  -3   6   42.10    1.79
   9  -3   6   45.35    3.21
   9  -3   7    8.91    1.14
   9  -3   7    8.69    1.96
   9  -3   8   25.66    1.89
   9  -3   8   25.36    2.73
   9  -3   9   11.76    1.58
   9  -3   9    9.47    1.99
   9  -3  10  122.96    4.65
   9  -3  10  115.24    5.49
   9  -3  11   10.55    1.75
   9  -3  11   17.07    2.49
   9  -3  12   10.90    2.41
   9  -3  13  163.73    7.20
   9  -3  14   53.90    4.34
   9  -3  15    2.88    2.01
   9  -2 -10   27.17    3.29
   9  -2  -9   13.07    2.54
   9  -2  -8    0.47    1.69
  -9   2   8    3.98    1.81
   9  -2  -7   48.90    3.42
   9  -2  -7   58.19    4.34
  -9   2   7   53.47    3.74
   9  -2  -6  105.54    4.61
   9  -2  -6   98.67    5.45
  -9   2   6  111.11    5.12
   9  -2  -5    4.85    1.46
   9  -2  -5    8.09    2.18
  -9   2   5    6.66    2.00
   9  -2  -4   14.60    1.66
   9  -2  -4    8.58    1.94
  -9   2   4   14.51    2.25
   9  -2  -3   74.06    3.00
   9  -2  -3   72.30    4.29
  -9   2   3   75.03    4.13
   9  -2  -2    5.55    0.96
   9  -2  -2    4.94    1.71
  -9   2   2    7.56    1.84
   9  -2  -1   98.81    2.68
   9  -2  -1   97.74    4.66
  -9   2   1   99.00    4.71
   9  -2   0    3.42    1.60
  -9   2   0    3.55    1.51
   9  -2   1   25.80    2.55
   9  -2   2    2.19    1.40
   9  -2   3  477.34   11.05
   9  -2   4   -1.24    1.47
   9  -2   5   21.09    2.45
   9  -2   6  149.60    3.36
   9  -2   6  159.55    5.86
   9  -2   7   14.70    1.21
  -9   2  -7   17.75    2.08
   9  -2   7   14.62    2.15
   9  -2   8   49.69    2.38
   9  -2   8   53.18    3.56
   9  -2   9   16.29    1.69
   9  -2   9   14.34    2.27
   9  -2  10   46.29    2.80
   9  -2  10   47.32    3.56
   9  -2  11    4.53    1.49
   9  -2  11    5.54    2.00
  -9   2 -12  213.52    6.92
   9  -2  12  227.62    8.18
  -9   2 -13    1.13    1.51
   9  -2  13    2.24    1.81
  -9   2 -14   37.94    3.39
   9  -2  14   34.65    3.72
  -9   2 -15   11.44    2.39
   9  -2  15   17.42    2.99
  -9   2 -16   22.92    3.14
   9  -1 -10    1.88    1.91
   9  -1  -9    4.38    2.08
   9  -1  -8   72.36    4.40
  -9   1   8   85.40    4.60
   9  -1  -7   31.42    2.88
  -9   1   7   32.42    3.02
   9  -1  -6   24.54    2.48
   9  -1  -6   22.40    2.88
  -9   1   6   32.61    3.03
   9  -1  -5   33.01    2.51
  -9   1   5   27.11    2.22
   9  -1  -5   29.66    3.10
  -9   1   5   33.86    3.02
   9  -1  -4   84.75    3.50
  -9   1   4   78.11    3.42
   9  -1  -4   82.46    4.57
  -9   1   4   87.09    4.50
   9  -1  -3   68.74    2.87
  -9   1   3   64.56    2.80
   9  -1  -3   69.90    4.13
  -9   1   3   69.55    4.02
   9  -1  -2  150.70    3.95
   9  -1  -2  142.81    5.71
  -9   1   2  159.30    5.97
   9  -1  -1  119.97    5.10
  -9   1   1  120.78    5.15
   9  -1   0  144.00    5.54
  -9   1   0  148.88    5.66
   9  -1   1  401.40    9.90
  -9   1  -1  417.11   10.02
  -9   1  -1  406.87   10.12
   9  -1   2  382.95    9.52
  -9   1  -2  408.12    9.76
   9  -1   2  389.66    9.76
  -9   1  -2  373.75    9.63
   9  -1   3  100.04    4.53
  -9   1  -3   97.65    4.44
   9  -1   3   96.30    4.45
  -9   1  -3   93.49    4.50
   9  -1   4   -0.05    1.33
  -9   1  -4    2.14    1.26
   9  -1   4    1.76    1.40
   9  -1   5  389.27    9.70
   9  -1   5  377.33    9.55
   9  -1   6    8.40    1.75
   9  -1   6    7.03    1.81
   9  -1   7   25.46    1.50
  -9   1  -7   29.25    2.40
   9  -1   7   25.63    2.51
   9  -1   8   40.77    2.12
  -9   1  -8   45.92    3.01
   9  -1   8   41.64    3.21
   9  -1   9   21.35    1.81
  -9   1  -9   21.08    1.81
   9  -1   9   25.32    2.71
   9  -1  10   29.22    2.27
  -9   1 -10   34.67    2.41
   9  -1  10   32.15    3.16
  -9   1 -11  147.82    5.28
   9  -1  11  139.69    5.21
   9  -1  11  150.37    6.42
  -9   1 -12   97.81    4.57
   9  -1  12   94.22    5.28
  -9   1 -13   54.76    3.69
   9  -1  13   61.68    4.42
  -9   1 -14  105.11    5.37
  -9   1 -15    2.16    2.08
  -9   1 -16   10.08    2.39
  -9   1 -17    0.63    2.04
   9   0 -10   12.85    2.73
   9   0  -9   75.30    4.70
   9   0  -8    2.25    1.73
  -9   0   8    4.55    1.74
   9   0  -7   48.15    3.42
  -9   0   7   41.12    3.31
   9   0  -6   52.22    3.27
   9   0  -6   53.36    3.94
  -9   0   6   61.79    4.04
   9   0  -5  347.95    8.50
  -9   0   5  352.38    8.64
   9   0  -5  355.00   10.05
  -9   0   5  373.51    9.96
   9   0  -4    6.08    1.34
  -9   0   4    4.05    1.28
   9   0  -4    2.15    1.69
  -9   0   4    4.29    1.66
  -9   0   3    2.64    1.03
   9   0  -3   -0.43    1.42
  -9   0   3    0.81    1.50
  -9   0   2   87.65    2.98
   9   0  -2   88.60    4.39
  -9   0   2   88.37    4.44
  -9   0   1   47.00    1.82
   9   0  -1   42.38    3.12
  -9   0   1   43.11    3.27
   9   0   0   23.63    2.39
  -9   0   0   24.97    2.64
  -9   0   0   26.93    2.46
   9   0   1   44.30    3.04
  -9   0  -1   47.62    3.07
  -9   0  -1   48.56    3.28
   9   0   1   44.56    3.12
   9   0   2  174.37    5.96
  -9   0  -2  199.46    6.29
   9   0   2  186.91    6.24
  -9   0  -2  176.69    6.18
   9   0   3    5.88    1.55
   9   0   3    6.06    1.53
  -9   0  -3    5.96    1.39
  -9   0  -3    6.66    1.71
   9   0   4  375.51    9.33
   9   0   4  385.67    9.57
  -9   0  -4  367.74    9.41
   9   0   5   83.78    4.10
  -9   0  -5   83.34    4.14
   9   0   5   77.65    4.00
  -9   0  -6   30.88    2.23
   9   0   6   30.54    2.59
   9   0   6   30.51    2.70
  -9   0  -7   -0.56    0.71
  -9   0  -7    0.10    1.02
   9   0   7   -0.50    1.44
   9   0   7   -0.39    1.18
  -9   0  -8   32.02    1.90
   9   0   8   30.80    1.87
  -9   0  -8   30.41    2.45
   9   0   8   32.05    2.66
   9   0   8   23.88    2.64
  -9   0  -9   14.28    1.54
   9   0   9   16.49    1.64
  -9   0  -9   15.08    1.98
   9   0   9   16.67    2.05
   9   0   9   13.32    2.18
  -9   0 -10   34.17    2.42
   9   0  10   31.97    2.32
   9   0  10   34.57    3.08
  -9   0 -11  354.72    8.73
   9   0  11  347.66    8.70
   9   0  11  338.49   10.08
  -9   0 -12   46.70    3.18
  -9   0 -13   85.21    4.53
  -9   0 -14   -2.36    1.79
  -9   0 -15   35.57    3.48
  -9   0 -16   10.99    2.65
  -9   0 -17    3.96    2.20
  -9  -1   9    5.43    1.76
  -9  -1   8   92.73    5.01
  -9  -1   7   20.01    2.59
   9   1  -6   11.34    2.13
  -9  -1   6   11.23    2.25
  -9  -1   5  151.43    5.37
   9   1  -5  152.17    6.16
  -9  -1   5  156.14    6.22
  -9  -1   4   24.82    2.11
   9   1  -4   18.01    2.32
  -9  -1   4   25.55    2.75
  -9  -1   3   36.55    2.25
   9   1  -3   30.97    2.75
  -9  -1   3   35.42    3.04
  -9  -1   2   32.07    1.88
   9   1  -2   33.25    2.74
  -9  -1   2   39.34    3.10
  -9  -1   1  124.93    3.33
   9   1  -1  119.63    4.92
  -9  -1   1  119.31    5.16
  -9  -1   1  122.42    4.91
  -9  -1   0   20.09    1.08
   9   1   0   20.02    2.24
  -9  -1   0   17.91    2.06
  -9  -1   0   17.70    2.32
   9   1   1   94.42    4.22
  -9  -1  -1   94.94    4.52
  -9  -1  -1   97.81    4.27
   9   1   2    8.35    1.67
  -9  -1  -2    7.59    1.93
  -9  -1  -2   10.69    1.66
   9   1   2    5.23    1.51
   9   1   3  124.03    4.84
  -9  -1  -3  126.98    5.15
  -9  -1  -3  130.58    4.98
   9   1   3  129.97    5.13
   9   1   4  273.50    7.69
  -9  -1  -4  260.78    7.65
   9   1   4  272.06    7.57
   9   1   5   98.79    4.44
  -9  -1  -5  100.73    4.56
   9   1   5   96.32    4.37
  -9  -1  -6    1.46    0.64
   9   1   6   -0.07    1.25
  -9  -1  -6    1.05    1.07
   9   1   6    1.79    1.54
  -9  -1  -6    2.43    1.53
  -9  -1  -7   47.17    1.99
  -9  -1  -7   45.65    2.66
   9   1   7   49.67    3.44
   9   1   7   45.08    3.04
  -9  -1  -8   82.80    3.02
  -9  -1  -8   86.28    3.77
   9   1   8   85.93    4.44
   9   1   8   81.06    4.03
   9   1   9   13.57    1.94
  -9  -1  -9   11.67    1.46
  -9  -1  -9    9.38    1.56
   9   1   9   11.72    2.13
   9   1  10  398.28    9.09
  -9  -1 -10  421.27    9.21
   9   1  10  415.90    9.97
   9   1  10  394.12   10.74
   9   1  11   37.22    2.65
  -9  -1 -11   43.89    2.96
   9   1  11   40.66    2.94
  -9  -1 -12   69.85    3.92
   9   1  12   75.73    3.94
  -9  -1 -13   87.44    4.60
  -9  -1 -14   63.66    4.30
  -9  -1 -15   -0.17    1.81
  -9  -1 -16    1.19    1.94
  -9  -1 -17   -0.64    2.07
  -9  -2   9   14.23    2.50
  -9  -2   8   16.25    2.99
  -9  -2   7   25.24    2.87
   9   2  -6  233.09    7.81
  -9  -2   6  247.71    8.19
  -9  -2   5    0.90    1.28
   9   2  -5    0.41    1.44
  -9  -2   5   -0.93    1.64
  -9  -2   4   47.28    2.87
   9   2  -4   39.10    3.03
  -9  -2   4   44.76    3.47
  -9  -2   3   48.20    2.67
   9   2  -3   46.80    3.24
  -9  -2   3   53.96    3.70
  -9  -2   2   94.82    3.42
   9   2  -2   95.94    4.36
  -9  -2   2   90.62    4.63
  -9  -2   2  105.66    4.50
  -9  -2   1  299.37    6.22
   9   2  -1  290.43    7.89
  -9  -2   1  305.40    8.05
  -9  -2   1  292.82    8.52
  -9  -2   0  151.62    3.60
   9   2   0  151.83    5.37
  -9  -2   0  151.05    5.33
  -9  -2   0  149.23    5.78
  -9  -2  -1    8.56    0.79
   9   2   1    3.33    1.87
  -9  -2  -1    5.46    1.68
  -9  -2  -1    6.89    1.48
  -9  -2  -2    0.43    0.34
  -9  -2  -2    0.07    1.50
  -9  -2  -2    2.07    1.29
   9   2   2    0.20    1.20
   9   2   3  652.11   13.22
  -9  -2  -3  662.82   13.74
   9   2   3  682.89   13.83
  -9  -2  -4   38.85    1.07
  -9  -2  -4   46.66    3.23
   9   2   4   43.72    2.98
   9   2   4   42.12    2.90
  -9  -2  -5   12.66    0.87
   9   2   5   12.09    1.80
  -9  -2  -5   13.42    2.10
   9   2   5   14.59    1.98
  -9  -2  -6   27.10    1.42
  -9  -2  -6   24.67    1.86
   9   2   6   25.97    2.52
   9   2   6   26.24    2.39
  -9  -2  -6   24.66    2.54
  -9  -2  -7    3.24    0.94
   9   2   7    3.38    1.29
  -9  -2  -7    2.12    1.00
   9   2   7    5.54    1.73
  -9  -2  -7    3.74    1.60
  -9  -2  -8   74.17    2.95
  -9  -2  -8   64.19    3.12
   9   2   8   64.09    3.87
   9   2   8   71.57    3.71
  -9  -2  -9   27.59    2.13
   9   2   9   29.28    2.46
   9   2   9   29.37    2.88
  -9  -2 -10  100.75    4.07
   9   2  10   96.43    4.32
  -9  -2 -11    8.05    1.77
   9   2  11    5.54    1.47
  -9  -2 -12  229.18    7.24
   9   2  12  219.75    6.70
  -9  -2 -13   24.31    2.69
  -9  -2 -14   75.37    4.64
  -9  -2 -15    6.88    2.13
  -9  -2 -16    8.00    2.46
  -9  -2 -17    9.58    2.66
  -9  -3   9   11.28    2.41
  -9  -3   8   51.14    3.98
  -9  -3   7  123.87    5.95
  -9  -3   6    6.55    1.98
  -9  -3   5    9.65    2.17
   9   3  -5   10.93    2.08
  -9  -3   4  236.46    6.83
   9   3  -4  231.30    7.17
  -9  -3   4  243.77    8.11
  -9  -3   3   89.42    3.78
   9   3  -3   89.32    4.23
  -9  -3   3   86.01    4.67
  -9  -3   3   93.06    4.28
  -9  -3   2   73.24    3.14
   9   3  -2   70.84    3.69
  -9  -3   2   74.52    4.28
  -9  -3   2   73.75    3.72
  -9  -3   1  143.55    4.17
   9   3  -1  141.65    5.19
  -9  -3   1  146.82    5.19
  -9  -3   1  161.17    6.15
  -9  -3   0   -0.69    0.81
   9   3   0   -1.05    1.25
  -9  -3   0    0.92    1.54
  -9  -3   0    0.37    1.03
  -9  -3  -1   61.15    2.15
   9   3   1   55.50    3.18
  -9  -3  -1   56.81    3.58
  -9  -3  -1   61.08    3.23
  -9  -3  -2  481.25    7.90
   9   3   2  468.93   10.41
  -9  -3  -2  487.81   11.29
   9   3   3    3.89    2.56
  -9  -3  -3    5.46    1.77
  -9  -3  -4  113.65    2.80
   9   3   4  114.47    4.78
  -9  -3  -4  108.74    4.77
   9   3   4  110.55    4.50
  -9  -3  -5  421.56    7.28
  -9  -3  -5  409.07    8.03
   9   3   5  409.75    9.78
   9   3   5  422.54   10.04
  -9  -3  -5  403.86    9.96
  -9  -3  -6   73.32    2.56
  -9  -3  -6   69.97    2.81
   9   3   6   66.67    3.69
  -9  -3  -6   67.83    3.77
   9   3   6   73.17    3.74
  -9  -3  -7    0.91    0.86
   9   3   7    1.08    1.06
  -9  -3  -7   -0.46    0.89
   9   3   7    1.30    1.39
  -9  -3  -7   -2.85    1.81
  -9  -3  -8   72.48    3.05
   9   3   8   66.46    3.91
  -9  -3  -8   68.48    3.74
   9   3   8   69.06    3.66
  -9  -3  -9   86.00    3.58
   9   3   9   82.81    3.96
  -9  -3 -10    0.79    1.19
   9   3  10    6.10    1.49
  -9  -3 -11  330.53    8.62
   9   3  11  321.26    8.30
  -9  -3 -12    0.96    1.44
   9   3  12    0.70    1.20
  -9  -3 -13   88.36    4.73
  -9  -3 -14   27.16    3.01
  -9  -3 -15   35.06    3.60
  -9  -3 -16    4.37    2.10
  -9  -3 -17   -1.17    2.64
  -9  -4   9   67.64    4.75
  -9  -4   8   65.16    4.58
  -9  -4   7   -4.05    2.38
  -9  -4   6    1.51    1.86
   9   4  -5  145.76    5.54
  -9  -4   5  143.62    6.38
  -9  -4   4   54.28    3.32
   9   4  -4   55.27    3.34
  -9  -4   4   54.52    3.92
  -9  -4   4   53.74    3.28
  -9  -4   3   15.14    1.77
  -9  -4   3   13.13    2.32
   9   4  -3   14.40    1.88
  -9  -4   3   13.62    1.82
  -9  -4   2   60.14    3.01
   9   4  -2   54.83    3.17
  -9  -4   2   58.24    3.24
  -9  -4   2   52.30    3.75
  -9  -4   1   78.52    3.23
   9   4  -1   77.70    3.63
  -9  -4   1   79.05    3.69
  -9  -4   1   80.39    4.49
  -9  -4   0  108.15    3.55
   9   4   0  104.88    4.25
  -9  -4   0  114.85    4.39
  -9  -4   0  111.25    5.14
  -9  -4  -1  190.50    4.70
   9   4   1  188.07    5.82
  -9  -4  -1  195.77    6.79
  -9  -4  -1  191.03    5.83
  -9  -4  -2   64.44    2.39
   9   4   2   61.31    3.28
  -9  -4  -2   62.45    3.79
   9   4   3   41.42    2.76
  -9  -4  -3   39.51    3.08
  -9  -4  -4  413.59   10.02
  -9  -4  -4  403.50   10.01
   9   4   4  394.89    9.36
  -9  -4  -5  126.07    3.56
  -9  -4  -5  131.28    5.11
  -9  -4  -5  124.00    3.42
   9   4   5  119.78    4.81
  -9  -4  -5  121.10    5.03
   9   4   5  123.89    5.00
   9   4   6    4.26    1.28
  -9  -4  -6    5.05    1.05
  -9  -4  -6    4.78    0.92
   9   4   6    3.72    1.41
  -9  -4  -6    2.33    1.40
   9   4   7   12.25    1.88
  -9  -4  -7   13.33    1.51
  -9  -4  -7   12.56    1.97
   9   4   7   14.99    2.17
  -9  -4  -8  100.28    3.79
   9   4   8   95.99    4.26
   9   4   8   95.14    4.65
  -9  -4  -8  101.86    4.54
   9   4   9    0.39    1.32
  -9  -4  -9    0.09    1.15
  -9  -4  -9    0.30    1.41
  -9  -4 -10   89.20    4.07
   9   4  10   90.17    4.02
  -9  -4 -11   13.39    1.71
   9   4  11   12.93    1.79
  -9  -4 -11   13.58    2.04
  -9  -4 -12   72.91    4.15
   9   4  12   72.58    3.57
  -9  -4 -13   59.04    3.99
  -9  -4 -14   25.00    2.98
  -9  -4 -15    5.79    2.18
  -9  -4 -16    0.13    2.00
  -9  -4 -17   -1.11    2.55
  -9  -5   9    2.70    1.87
  -9  -5   8   35.15    3.55
  -9  -5   7    5.84    2.22
  -9  -5   6   20.33    2.99
  -9  -5   5    4.77    2.14
  -9  -5   4    1.13    1.90
   9   5  -4    5.10    1.39
  -9  -5   4    3.42    1.30
  -9  -5   3   34.98    2.64
  -9  -5   3   28.39    3.10
   9   5  -3   30.49    2.39
  -9  -5   3   29.18    2.39
  -9  -5   2   38.14    2.63
  -9  -5   2   39.93    3.40
   9   5  -2   35.55    2.50
  -9  -5   2   36.96    2.54
  -9  -5   1  323.05    7.64
   9   5  -1  313.38    7.76
  -9  -5   1  326.34    7.93
  -9  -5   1  310.88    9.28
  -9  -5   0   69.26    3.03
   9   5   0   65.34    3.28
  -9  -5   0   67.35    3.28
  -9  -5   0   68.06    4.16
  -9  -5  -1  152.02    4.42
   9   5   1  148.88    5.03
  -9  -5  -1  158.77    6.19
  -9  -5  -2    0.86    1.66
   9   5   2    2.91    1.27
   9   5   3  459.45   10.09
  -9  -5  -3  472.92   11.29
  -9  -5  -4    5.99    1.80
  -9  -5  -4    5.63    0.75
   9   5   4    3.15    1.27
  -9  -5  -5    9.76    1.34
  -9  -5  -5    9.34    0.87
   9   5   5    9.97    1.86
  -9  -5  -5   11.62    2.03
  -9  -5  -6   12.72    1.52
  -9  -5  -6   11.27    1.72
   9   5   6    8.55    1.77
  -9  -5  -6   13.37    2.09
  -9  -5  -7  123.83    4.93
  -9  -5  -7  133.33    4.36
  -9  -5  -7  123.93    5.07
   9   5   7  114.05    4.95
  -9  -5  -8   33.59    2.57
  -9  -5  -8   36.79    2.43
  -9  -5  -8   32.48    2.69
   9   5   8   34.01    2.63
   9   5   8   27.73    2.70
  -9  -5  -9    2.20    1.10
  -9  -5  -9    6.60    1.59
   9   5   9    3.09    1.34
  -9  -5  -9    1.17    1.32
  -9  -5 -10  143.00    5.02
  -9  -5 -10  137.53    5.27
   9   5  10  138.96    5.09
  -9  -5 -10  137.79    5.21
  -9  -5 -11   16.20    1.41
  -9  -5 -11   22.11    2.51
  -9  -5 -12   73.51    4.25
  -9  -5 -13    5.85    2.16
  -9  -5 -14   78.60    4.90
  -9  -5 -15    3.03    2.00
  -9  -5 -16   11.07    2.62
  -9  -6   9   45.87    4.23
  -9  -6   8   34.17    4.19
  -9  -6   7   11.69    2.71
  -9  -6   6   71.30    4.96
  -9  -6   5   56.65    4.34
  -9  -6   4   14.36    2.60
   9   6  -4    7.22    1.47
  -9  -6   3   15.16    2.55
   9   6  -3   15.02    1.75
  -9  -6   3   11.62    1.59
  -9  -6   2    2.60    1.81
  -9  -6   2    3.66    1.33
   9   6  -2    3.61    1.16
  -9  -6   2    5.31    1.36
  -9  -6   1    4.99    1.35
  -9  -6   1    6.06    1.93
   9   6  -1    6.70    1.34
  -9  -6   0  153.07    4.96
   9   6   0  146.23    4.80
  -9  -6   0  154.21    6.32
  -9  -6  -1   -0.92    1.05
  -9  -6  -1    2.91    1.83
   9   6   1    1.25    1.07
   9   6   2   41.01    2.61
  -9  -6  -2   43.78    3.40
  -9  -6  -3  281.41    4.57
   9   6   3  295.06    7.41
  -9  -6  -3  302.99    8.66
  -9  -6  -4  176.68    6.44
   9   6   4  173.35    5.60
  -9  -6  -5   11.97    2.07
   9   6   5    7.41    1.57
  -9  -6  -6  160.93    4.94
  -9  -6  -6  151.99    5.79
   9   6   6  151.52    5.52
  -9  -6  -7    2.86    1.18
  -9  -6  -7    1.86    1.22
   9   6   7    1.45    1.39
  -9  -6  -7    1.66    1.52
  -9  -6  -8   10.54    1.76
  -9  -6  -8    4.39    1.32
  -9  -6  -8    4.65    1.66
  -9  -6  -9   70.45    3.62
  -9  -6  -9   69.63    3.66
  -9  -6  -9   68.60    3.75
  -9  -6 -10    0.27    1.25
  -9  -6 -10    0.75    1.39
  -9  -6 -10    1.00    1.37
  -9  -6 -11  116.31    4.46
  -9  -6 -11  116.18    5.16
  -9  -6 -11  111.23    4.58
  -9  -6 -12   44.77    3.55
  -9  -6 -13  113.01    5.55
  -9  -6 -14   -0.12    2.06
  -9  -6 -15    5.91    2.23
  -9  -6 -16    0.73    2.03
  -9  -7   8    4.04    2.41
  -9  -7   7   75.04    5.26
  -9  -7   6    7.31    2.52
  -9  -7   5    7.98    2.33
  -9  -7   4   53.74    4.29
  -9  -7   3   18.38    2.85
   9   7  -3   19.95    1.80
  -9  -7   2   11.80    2.48
   9   7  -2   12.49    1.53
  -9  -7   1  163.87    5.66
   9   7  -1  160.80    4.87
  -9  -7   1  161.47    6.82
  -9  -7   0    3.41    1.31
  -9  -7   0    5.54    2.02
   9   7   0    3.65    1.10
  -9  -7  -1    8.10    2.24
   9   7   1   11.00    1.49
   9   7   2  307.93    7.48
  -9  -7  -2  312.00    9.17
   9   7   3  129.22    4.60
  -9  -7  -3  128.24    5.64
  -9  -7  -4    4.62    1.85
   9   7   4    5.78    1.42
   9   7   5  102.89    4.39
  -9  -7  -5  112.91    5.11
  -9  -7  -6   30.92    2.42
  -9  -7  -6   34.01    2.88
   9   7   6   31.45    2.61
  -9  -7  -7  110.24    4.43
  -9  -7  -7  106.49    4.86
   9   7   7  102.72    4.71
  -9  -7  -8  620.49   12.73
  -9  -7  -8  595.01   12.96
  -9  -7  -9   58.90    3.39
  -9  -7  -9   60.35    3.57
  -9  -7  -9   54.91    3.45
  -9  -7 -10   14.86    1.84
  -9  -7 -10   15.60    2.20
  -9  -7 -10   15.46    2.14
  -9  -7 -11  190.27    6.95
  -9  -7 -11  194.36    6.20
  -9  -7 -12  128.85    5.86
  -9  -7 -13    9.50    2.38
  -9  -7 -14   13.92    2.83
  -9  -7 -15   11.28    2.87
  -9  -7 -16   -3.74    2.52
  -9  -8   6    2.03    2.14
  -9  -8   5   96.34    5.75
  -9  -8   4   80.68    3.83
  -9  -8   4   79.13    5.20
  -9  -8   3   24.18    3.18
  -9  -8   3   23.29    2.05
  -9  -8   2   56.55    2.68
   9   8  -2   52.17    2.55
  -9  -8   2   56.32    4.35
  -9  -8   1   14.08    2.53
  -9  -8   1   14.09    1.32
   9   8  -1   13.12    1.41
   9   8   0   45.13    2.43
  -9  -8   0   40.70    1.65
  -9  -8   0   43.72    3.69
   9   8   1  421.56    8.79
  -9  -8  -1  419.08   11.48
  -9  -8  -2   26.63    2.99
   9   8   2   23.04    1.94
  -9  -8  -3   36.79    3.29
   9   8   3   32.78    2.31
  -9  -8  -4   62.71    4.03
   9   8   4   62.21    3.22
   9   8   5   57.93    3.26
  -9  -8  -5   59.28    3.88
   9   8   6  399.72    9.76
  -9  -8  -6  424.06   10.72
  -9  -8  -7  360.30    9.03
  -9  -8  -7  339.59    9.35
   9   8   7  333.48    9.00
  -9  -8  -8  121.48    5.08
  -9  -8  -8  116.32    5.13
  -9  -8  -9   35.78    2.97
  -9  -8  -9   34.11    2.86
  -9  -8 -10  338.38    9.47
  -9  -8 -10  325.78    8.75
  -9  -8 -11    2.59    1.85
  -9  -8 -11   -0.22    1.29
  -9  -8 -12  106.29    5.57
  -9  -8 -12  122.08    4.71
  -9  -8 -13   16.46    2.73
  -9  -8 -14   45.54    4.07
  -9  -8 -15    2.39    2.30
  -9  -9   5    8.28    2.43
  -9  -9   4   -4.07    2.44
  -9  -9   3   13.16    2.83
  -9  -9   2    3.43    2.05
  -9  -9   1   84.14    5.26
   9   9   0  189.38    4.86
  -9  -9   0  193.85    7.76
  -9  -9  -1   10.38    2.34
   9   9   1    7.75    1.19
   9   9   2   62.56    2.87
  -9  -9  -2   72.10    4.64
   9   9   3  322.51    7.60
  -9  -9  -3  326.23    9.80
  -9  -9  -4   31.84    3.20
   9   9   4   34.44    2.41
   9   9   5   37.87    2.67
  -9  -9  -5   42.33    3.42
   9   9   6   61.92    3.51
  -9  -9  -6   60.25    3.98
  -9  -9  -7    7.09    1.71
  -9  -9  -7    5.53    1.69
   9   9   7    7.11    1.66
  -9  -9  -8   -1.15    1.62
  -9  -9  -8   -0.20    1.58
  -9  -9  -9   28.66    2.86
  -9  -9  -9   25.13    2.64
  -9  -9 -10    8.82    2.00
  -9  -9 -10   10.02    1.93
  -9  -9 -11  104.58    5.45
  -9  -9 -11  100.69    4.52
  -9  -9 -12   30.15    3.31
  -9  -9 -13   14.72    2.75
  -9  -9 -14   23.16    3.32
  -9  -9 -15   -1.25    2.38
  -9 -10   4    2.22    2.17
  -9 -10   3   22.30    3.29
  -9 -10   2   20.86    3.15
  -9 -10   1   55.77    4.46
  -9 -10   0  130.83    6.53
  -9 -10  -1   13.70    2.64
   9  10   2   53.52    2.56
  -9 -10  -2   59.36    4.34
  -9 -10  -3   14.36    2.57
   9  10   3   13.60    1.52
  -9 -10  -4   93.52    5.17
   9  10   4   89.45    3.74
  -9 -10  -5    3.57    1.80
   9  10   5    7.53    1.48
  -9 -10  -6    8.21    2.11
   9  10   6   10.06    1.82
  -9 -10  -7    6.84    2.04
   9  10   7    5.35    1.61
  -9 -10  -8   21.18    2.67
  -9 -10  -8   23.49    2.74
  -9 -10  -9   13.26    2.34
  -9 -10  -9   18.20    2.44
  -9 -10 -10   21.12    2.86
  -9 -10 -10   17.31    2.28
  -9 -10 -11   17.02    2.77
  -9 -10 -11   18.57    2.22
  -9 -10 -12    1.39    1.97
  -9 -10 -13   17.95    3.02
  -9 -10 -14   -1.76    2.08
  -9 -11   2    5.28    2.23
  -9 -11   1   57.44    4.66
  -9 -11   0    3.16    2.13
  -9 -11  -1   55.11    4.44
  -9 -11  -2   30.25    3.45
  -9 -11  -3   87.67    5.34
  -9 -11  -4    0.30    1.94
   9  11   4   -0.86    1.09
  -9 -11  -5    5.48    1.92
   9  11   5    5.14    1.32
  -9 -11  -6    5.16    2.03
   9  11   6    4.90    1.50
  -9 -11  -7    4.21    1.97
   9  11   7    2.26    1.39
  -9 -11  -8  195.45    7.46
  -9 -11  -8  190.69    7.14
  -9 -11  -9   26.60    3.15
  -9 -11  -9   22.81    2.73
  -9 -11 -10    7.63    2.32
  -9 -11 -10    3.30    1.70
  -9 -11 -11   37.64    3.80
  -9 -11 -12   95.76    5.77
  -9 -11 -13    7.23    2.67
  -9 -12   0   21.17    3.33
  -9 -12  -1  124.95    6.62
  -9 -12  -2   59.10    4.68
  -9 -12  -3   15.56    2.80
  -9 -12  -4    9.21    2.44
  -9 -12  -5    1.81    2.03
  -9 -12  -6   19.40    2.76
   9  12   6   15.90    1.96
   9  12   7  231.03    7.16
  -9 -12  -7  220.26    8.03
  -9 -12  -8    0.57    1.99
  -9 -12  -8    0.10    1.83
  -9 -12  -9    2.27    2.13
  -9 -12  -9    4.44    2.09
  -9 -12 -10   65.40    4.77
  -9 -12 -10   62.43    4.05
  -9 -12 -11   77.01    5.20
  -9 -12 -12   21.57    3.43
  -9 -13  -2   -1.41    1.98
  -9 -13  -3   44.82    4.09
  -9 -13  -4   28.14    3.35
  -9 -13  -5   27.53    3.34
  -9 -13  -6   82.11    5.18
  -9 -13  -7   35.61    3.47
  -9 -13  -8   28.96    3.47
  -9 -13  -8   31.04    3.34
  -9 -13  -9   79.00    5.32
  -9 -13  -9   85.86    5.00
  -9 -13 -10   10.77    2.74
  -9 -13 -11   44.11    4.33
  -9 -14  -4    3.35    2.13
  -9 -14  -5    3.23    2.35
  -9 -14  -6   62.14    4.73
  -9 -14  -7    5.44    2.23
  -9 -14  -8   91.14    5.78
  -9 -14  -8   91.76    5.45
  -9 -14  -9    5.21    2.21
  -9 -15  -6    9.63    2.75
  -9 -15  -7   15.23    2.94
  -9 -15  -8   27.21    3.49
  10 -13   1   18.29    2.94
  10 -13   2    1.13    1.94
  10 -13   3    4.88    2.17
  10 -13   4    1.18    1.90
  10 -13   5   19.88    2.99
  10 -12   0   30.96    3.64
  10 -12   1    4.89    2.37
  10 -12   2    2.27    2.02
  10 -12   3    2.67    2.08
  10 -12   4    6.69    2.23
  10 -12   5   15.98    2.68
  10 -12   6    6.46    2.38
  10 -12   7    3.16    2.01
  10 -12   8   15.11    2.71
  10 -11  -1   86.75    5.59
  10 -11   0    0.04    1.87
  10 -11   1   28.06    3.47
  10 -11   2   25.31    3.29
  10 -11   3   16.48    2.74
  10 -11   4   33.13    3.39
  10 -11   5   23.63    3.10
  10 -11   6    8.83    2.31
  10 -11   7    3.97    1.96
  10 -11   8  126.65    6.25
  10 -11   9    9.40    2.46
  10 -10  -2   69.45    5.14
  10 -10  -1    3.87    2.15
  10 -10   0    2.43    1.98
  10 -10   1   86.48    5.35
  10 -10   2   48.78    4.10
  10 -10   3    6.66    4.42
  10 -10   4    0.72    1.80
  10 -10   5   22.74    3.03
  10 -10   6   35.87    3.44
  10 -10   7  154.41    6.79
  10 -10   8    3.68    2.01
  10 -10   9    8.69    2.36
  10 -10  10  104.01    5.72
  10 -10  11   -0.63    1.98
  10  -9  -3   36.80    3.91
  10  -9  -2   26.53    3.35
  10  -9  -1   10.67    2.57
  10  -9   0  103.14    4.19
  10  -9   0   98.18    5.63
  10  -9   1    7.34    1.43
  10  -9   1    8.74    2.33
  10  -9   2    1.58    1.78
  10  -9   3    5.08    2.01
  10  -9   4    4.69    1.92
  10  -9   5   24.94    3.02
  10  -9   6   13.40    2.47
  10  -9   7   13.55    2.50
  10  -9   8   13.30    2.44
  10  -9   9   63.67    4.46
  10  -9  10    8.10    2.21
 -10   9 -11    6.05    2.56
  10  -9  11    6.61    2.34
  10  -9  12    2.81    1.83
  10  -8  -4   -1.53    2.15
  10  -8  -3   60.24    4.68
  10  -8  -2   14.72    2.73
  10  -8  -1   12.45    1.74
  10  -8  -1   10.42    2.38
  10  -8   0   15.48    1.71
  10  -8   0   12.89    2.73
  10  -8   1    7.95    1.39
  10  -8   1   12.82    2.36
  10  -8   2   10.42    1.43
  10  -8   2    9.01    2.21
  10  -8   3   16.92    2.59
  10  -8   4   -0.58    1.78
  10  -8   5    6.33    2.06
  10  -8   6   12.84    2.36
  10  -8   7    2.68    1.84
  10  -8   8   70.74    4.56
  10  -8   9   11.98    2.48
  10  -8  10   51.67    4.15
  10  -8  11   -3.66    2.05
 -10   8 -12    8.19    2.38
  10  -8  12    3.91    1.95
 -10   8 -13   17.15    3.16
  10  -8  13   23.46    3.17
  10  -7  -5   11.81    2.72
  10  -7  -4   69.19    5.11
  10  -7  -3   40.57    2.74
  10  -7  -3   38.04    3.79
  10  -7  -2    0.22    1.09
  10  -7  -2    0.73    1.80
  10  -7  -1   14.09    1.54
  10  -7  -1   18.08    2.84
  10  -7   0   20.62    1.72
  10  -7   0   20.63    2.82
  10  -7   1    0.85    0.89
  10  -7   1    3.05    1.75
  10  -7   2   13.61    1.43
  10  -7   2   14.40    2.56
  10  -7   3   -2.40    1.96
  10  -7   4   68.32    4.37
  10  -7   5  155.49    6.50
  10  -7   6   15.76    2.51
  10  -7   7   21.30    2.65
  10  -7   8  126.86    6.04
  10  -7   9   80.73    4.88
  10  -7  10    9.04    2.12
  10  -7  11    1.61    1.90
  10  -7  12   11.63    2.55
 -10   7 -13   -5.12    2.42
  10  -7  13   -2.27    2.10
 -10   7 -14   68.22    4.97
  10  -7  14   56.61    4.62
  10  -6  -6   72.01    5.23
  10  -6  -5   45.86    4.25
  10  -6  -4   75.53    3.70
  10  -6  -4   76.31    5.08
  10  -6  -3   45.84    2.73
  10  -6  -3   49.97    4.11
  10  -6  -2  254.60    6.37
  10  -6  -2  244.11    8.79
  10  -6  -1   13.82    1.47
  10  -6  -1   11.27    2.34
  10  -6   0   27.83    1.78
  10  -6   0   28.76    3.07
  10  -6   1    6.98    1.02
  10  -6   1   10.07    2.18
  10  -6   2   19.60    1.36
  10  -6   2   19.47    2.60
  10  -6   3  133.01    3.51
  10  -6   3  125.45    5.81
  10  -6   3  136.30    3.54
  10  -6   4   62.65    2.36
  10  -6   4   56.48    3.98
  10  -6   5   38.17    2.01
  10  -6   5   37.31    3.29
  10  -6   6   -0.37    0.83
  10  -6   6   -1.41    1.69
  10  -6   7  232.12    8.08
  10  -6   8   50.98    3.88
  10  -6   9   53.31    4.06
  10  -6  10   12.03    2.38
  10  -6  11   -1.44    1.93
  10  -6  12   21.41    2.98
  10  -6  13   90.56    5.47
 -10   6 -14   17.39    2.90
  10  -6  14   17.24    2.99
  10  -5  -6   44.33    4.18
  10  -5  -5    2.38    1.39
  10  -5  -5   -1.24    2.08
  10  -5  -4  167.73    5.40
  10  -5  -4  151.34    7.03
  10  -5  -3  400.73    8.64
  10  -5  -3  381.27   11.38
  10  -5  -2    2.07    1.01
  10  -5  -2    2.27    1.91
  10  -5  -1    3.44    0.97
  10  -5  -1    2.62    1.75
  10  -5   0  149.43    3.70
  10  -5   0  138.68    6.23
  10  -5   1   40.05    1.61
  10  -5   1   39.98    3.48
  10  -5   2   18.92    1.05
  10  -5   2   20.74    2.64
  10  -5   3   53.01    1.66
  10  -5   3   51.56    1.64
  10  -5   3   56.42    3.85
  10  -5   4    2.37    0.63
  10  -5   4    3.75    1.74
  10  -5   5   24.93    1.40
  10  -5   5   18.52    2.49
  10  -5   6  196.05    4.73
  10  -5   6  200.13    7.27
  10  -5   7   -0.56    0.87
  10  -5   7   -1.39    1.87
  10  -5   8  107.10    3.89
  10  -5   8  105.39    5.31
  10  -5   9   46.67    3.76
  10  -5  10   89.52    5.14
  10  -5  11   18.15    2.78
  10  -5  12   32.13    3.48
  10  -5  13   49.91    4.21
 -10   5 -14    0.64    1.82
  10  -5  14    2.95    2.28
  10  -4  -7   19.17    2.98
  10  -4  -6   -0.98    1.85
  10  -4  -5  132.36    4.97
  10  -4  -5  131.27    6.56
  10  -4  -4   97.52    3.91
  10  -4  -4   88.93    5.29
  10  -4  -3   99.20    3.67
  10  -4  -3   93.85    5.33
  10  -4  -2    0.92    0.89
  10  -4  -2    0.30    1.74
  10  -4  -1   32.83    1.66
  10  -4  -1   24.55    2.87
  10  -4   0   16.90    1.06
  10  -4   0   14.00    2.36
  10  -4   1    2.13    0.34
  10  -4   1    2.23    1.78
  10  -4   2   53.59    3.75
  10  -4   3   56.03    3.77
  10  -4   4   62.24    3.98
  10  -4   5  209.74    3.87
  10  -4   5  237.93    7.75
  10  -4   6   21.61    1.26
  10  -4   6   21.71    2.60
  10  -4   7   27.14    1.66
  10  -4   7   25.59    2.83
  10  -4   8  190.35    5.09
  10  -4   8  189.01    7.13
  10  -4   9   22.26    1.93
  10  -4   9   22.20    2.84
  10  -4  10    8.28    2.22
  10  -4  11   15.65    2.61
  10  -4  12   37.72    3.62
  10  -4  13    1.14    1.87
  10  -4  14   44.46    4.13
  10  -4  15   13.43    2.87
  10  -3  -7   -4.83    4.99
  10  -3  -6   55.15    3.41
  10  -3  -6   56.88    4.54
  10  -3  -5    0.19    1.19
  10  -3  -5    1.26    1.85
  10  -3  -4  165.59    5.12
  10  -3  -4  173.43    7.24
  10  -3  -3   49.89    2.52
  10  -3  -3   50.85    3.92
  10  -3  -2  131.27    3.71
  10  -3  -2  135.50    6.08
  10  -3  -1    4.12    0.79
  10  -3  -1    3.38    1.87
  10  -3   0   20.81    2.67
  10  -3   1   13.98    2.19
  10  -3   2   44.67    3.43
  10  -3   3   96.21    4.90
  10  -3   4   34.89    3.07
  10  -3   5   59.08    3.83
  10  -3   6    4.92    0.62
  10  -3   6    4.66    1.84
  10  -3   7   86.36    2.69
  10  -3   7   87.25    4.73
  10  -3   8    5.63    1.08
  10  -3   8    2.10    1.63
  10  -3   9  225.37    5.88
  10  -3   9  220.11    7.81
  10  -3  10    2.29    1.21
  10  -3  10    0.81    1.81
  10  -3  11    5.13    2.04
  10  -3  12    2.02    1.83
  10  -3  13    8.53    2.29
  10  -3  14   84.54    5.49
  10  -3  15    4.22    2.23
  10  -2  -7    0.62    2.05
 -10   2   7    4.69    2.04
  10  -2  -6   14.24    2.08
  10  -2  -6   13.09    2.53
 -10   2   6   15.33    2.54
  10  -2  -5   95.38    4.08
  10  -2  -5   93.93    5.42
 -10   2   5  109.96    5.37
  10  -2  -4   41.04    2.50
  10  -2  -4   45.87    3.74
 -10   2   4   44.77    3.52
  10  -2  -3   35.51    2.09
  10  -2  -3   39.21    3.46
 -10   2   3   38.39    3.33
  10  -2  -2  132.78    3.61
  10  -2  -2  124.75    5.77
 -10   2   2  131.09    5.75
  10  -2  -1   18.35    2.50
 -10   2   1   23.88    2.84
  10  -2   0    1.84    1.53
 -10   2   0    4.53    1.88
  10  -2   1   58.37    3.75
  10  -2   2   44.67    3.29
  10  -2   3    1.77    1.58
  10  -2   4   68.05    4.03
  10  -2   5    1.29    1.61
  10  -2   6   46.58    3.39
  10  -2   7  102.41    2.81
  10  -2   7  110.33    5.18
  10  -2   8  167.70    4.34
  10  -2   8  180.58    6.79
  10  -2   9   61.69    2.81
  10  -2   9   65.52    4.28
  10  -2  10   10.54    1.49
  10  -2  10   10.09    2.24
  10  -2  11   16.68    2.01
  10  -2  11   12.19    2.40
  10  -2  12   -0.70    1.81
  10  -2  13  229.54    8.75
  10  -2  14   -0.02    1.86
  10  -2  15    4.94    2.22
 -10   1   8   10.04    2.35
  10  -1  -7   41.44    3.15
 -10   1   7   49.33    3.94
  10  -1  -6   86.73    4.21
  10  -1  -6   86.56    5.17
 -10   1   6   86.24    4.86
  10  -1  -5    8.60    1.59
  10  -1  -5    6.29    2.11
 -10   1   5   12.04    2.35
  10  -1  -4   14.62    1.63
  10  -1  -4   15.31    2.55
 -10   1   4   15.29    2.50
  10  -1  -3  208.61    7.52
 -10   1   3  209.06    7.39
  10  -1  -2  142.74    6.04
 -10   1   2  138.99    5.88
  10  -1  -1  510.78   12.28
 -10   1   1  524.52   12.50
  10  -1   0   91.27    4.66
 -10   1   0   97.51    4.92
  10  -1   1   18.71    2.39
 -10   1  -1   19.11    2.54
  10  -1   2  332.15    9.22
 -10   1  -2  349.83    9.56
  10  -1   3   92.48    4.62
 -10   1  -3   95.24    4.76
  10  -1   4   63.79    3.88
  10  -1   5   19.16    2.41
  10  -1   6  429.39   10.85
 -10   1  -7   98.27    4.38
  10  -1   7   93.51    4.72
  10  -1   8   17.74    1.35
  10  -1   8   16.54    2.38
  10  -1   9    5.12    1.11
  10  -1   9    4.25    1.89
  10  -1  10   30.98    2.24
  10  -1  10   28.02    3.05
 -10   1 -11   36.47    2.57
  10  -1  11   31.81    3.22
  10  -1  11   33.44    3.39
 -10   1 -12  207.63    6.57
  10  -1  12  203.70    8.00
 -10   1 -13   13.52    2.06
  10  -1  13   18.23    3.03
 -10   1 -14   40.15    3.34
  10  -1  14   45.58    4.21
 -10   1 -15    7.56    2.07
  10  -1  15   15.67    2.95
 -10   1 -16    6.92    2.32
 -10   1 -17   17.16    3.14
 -10   0   8   32.26    3.36
 -10   0   7   50.69    4.09
  10   0  -6    4.82    1.98
 -10   0   6    5.61    2.14
  10   0  -5  102.83    5.45
 -10   0   5  109.84    5.46
  10   0  -4  261.86    8.61
 -10   0   4  289.85    8.96
 -10   0   3   12.92    1.57
  10   0  -3   11.58    2.21
 -10   0   3   13.87    2.40
 -10   0   2    8.50    1.14
  10   0  -2    8.62    1.84
 -10   0   2   10.05    2.23
  10   0  -1   22.33    2.55
 -10   0   1   25.38    2.85
  10   0   0  170.99    6.36
 -10   0   0  175.08    6.53
  10   0   1   42.88    3.23
 -10   0  -1   42.83    3.40
  10   0   2   16.94    2.16
 -10   0  -2   18.82    2.49
 -10   0  -3   15.61    2.33
  10   0   3   18.41    2.28
  10   0   4    8.61    1.92
 -10   0  -4   10.49    2.07
 -10   0  -5  522.26   12.17
  10   0   5  519.41   12.03
  10   0   6   17.80    2.36
 -10   0  -7   44.25    2.86
  10   0   7   44.27    3.35
 -10   0  -8  106.70    3.13
 -10   0  -8  109.14    4.60
  10   0   8  106.20    5.13
 -10   0  -9  211.14    5.31
  10   0   9  212.99    7.50
  10   0  10   26.36    2.10
 -10   0 -10   30.92    2.18
  10   0  10   25.68    2.92
  10   0  11   43.21    3.10
 -10   0 -11   49.35    2.91
  10   0  11   48.13    3.86
 -10   0 -12   67.56    3.71
  10   0  12   59.77    4.31
 -10   0 -13   12.82    2.12
  10   0  13   14.64    2.69
 -10   0 -14   96.25    5.02
  10   0  14   92.35    5.65
 -10   0 -15    4.45    2.02
  10   0  15    4.97    2.27
 -10   0 -16   30.24    3.55
 -10   0 -17    0.18    2.08
 -10  -1   8   18.06    2.79
 -10  -1   7   10.58    2.43
  10   1  -6  142.37    6.38
 -10  -1   6  152.80    6.57
  10   1  -5  124.14    5.84
 -10  -1   5  140.36    6.23
  10   1  -4  150.92    6.23
 -10  -1   4  159.34    6.54
 -10  -1   3   11.95    1.50
  10   1  -3   10.77    2.07
 -10  -1   3   12.88    2.32
 -10  -1   2  209.15    5.09
  10   1  -2  202.68    7.03
 -10  -1   2  204.65    7.37
 -10  -1   1   28.07    1.53
  10   1  -1   23.26    2.67
 -10  -1   1   25.87    2.75
  10   1   0    7.98    1.83
 -10  -1   0    8.24    2.14
  10   1   1    0.31    1.51
 -10  -1  -1    0.65    1.71
 -10  -1  -2    2.85    1.74
  10   1   2    0.78    1.28
 -10  -1  -3   13.25    2.27
  10   1   3   12.93    2.04
  10   1   4  233.65    7.24
 -10  -1  -4  217.62    7.24
  10   1   5   10.12    2.00
 -10  -1  -5   10.94    2.14
 -10  -1  -6   51.60    2.91
 -10  -1  -6   51.68    3.53
  10   1   6   49.17    3.41
 -10  -1  -7  125.02    3.04
 -10  -1  -7  126.15    4.59
  10   1   7  121.51    5.38
 -10  -1  -8   42.80    2.01
 -10  -1  -8   37.94    2.67
  10   1   8   38.00    3.25
 -10  -1  -9  200.39    5.19
 -10  -1  -9  198.40    6.28
  10   1   9  187.48    7.05
 -10  -1 -10   25.18    2.02
  10   1  10   23.80    2.93
 -10  -1 -11   22.74    2.23
  10   1  11   11.25    4.18
 -10  -1 -12    0.08    1.42
  10   1  12   -1.22    2.08
 -10  -1 -13  284.30    8.35
  10   1  13  278.66    9.72
 -10  -1 -14   20.63    2.70
 -10  -1 -15   18.87    2.74
 -10  -1 -16   13.04    2.72
 -10  -1 -17   14.23    2.79
 -10  -2   8    4.79    2.12
 -10  -2   7   27.88    3.22
  10   2  -6   13.17    2.48
 -10  -2   6   19.22    2.79
  10   2  -5  128.65    5.82
 -10  -2   5  143.62    6.41
  10   2  -4    1.76    1.63
 -10  -2   4    3.24    1.90
 -10  -2   3  201.39    5.63
  10   2  -3  191.29    6.81
 -10  -2   3  192.31    7.24
 -10  -2   2    7.45    1.22
  10   2  -2    6.44    1.77
 -10  -2   2    9.11    2.28
 -10  -2   1    1.83    0.81
  10   2  -1    2.53    1.53
 -10  -2   1    3.08    1.89
 -10  -2   0   27.72    1.41
  10   2   0   25.47    2.53
 -10  -2   0   27.88    2.87
 -10  -2  -1    3.97    0.57
  10   2   1    4.07    1.64
 -10  -2  -1    1.83    1.60
 -10  -2  -2    2.08    1.64
  10   2   2   -0.22    1.32
  10   2   3    6.85    1.72
 -10  -2  -3    4.57    1.68
  10   2   4   72.22    3.92
 -10  -2  -4   78.80    4.31
 -10  -2  -5   62.25    3.81
  10   2   5   61.59    3.72
 -10  -2  -6  198.38    3.80
 -10  -2  -6  192.84    5.50
  10   2   6  187.39    6.59
 -10  -2  -6  184.77    6.58
 -10  -2  -7    0.57    0.74
 -10  -2  -7    1.31    1.08
  10   2   7    1.65    1.56
 -10  -2  -7    4.36    1.84
 -10  -2  -8   52.09    2.34
 -10  -2  -8   49.96    2.88
  10   2   8   49.60    3.53
 -10  -2  -9    8.71    1.45
  10   2   9   12.85    2.31
 -10  -2 -10    6.53    1.43
  10   2  10    7.99    2.23
 -10  -2 -11   37.91    2.72
  10   2  11   37.07    3.50
 -10  -2 -12   97.99    4.47
 -10  -2 -13  160.59    6.17
 -10  -2 -14   37.64    3.48
 -10  -2 -15    7.89    2.24
 -10  -2 -16    1.19    1.98
 -10  -2 -17   62.86    4.88
 -10  -3   8    0.56    1.83
 -10  -3   7    1.33    1.87
 -10  -3   6  115.15    5.94
  10   3  -5    9.60    2.06
 -10  -3   5    8.86    2.27
  10   3  -4   22.81    2.46
 -10  -3   4   22.60    2.94
 -10  -3   3  101.48    4.07
  10   3  -3  100.61    4.75
 -10  -3   3  103.55    5.41
 -10  -3   2   67.19    3.06
  10   3  -2   67.24    3.86
 -10  -3   2   67.69    4.40
 -10  -3   1   85.89    3.14
  10   3  -1   80.66    4.10
 -10  -3   1   88.97    4.85
 -10  -3   0   14.99    1.29
  10   3   0   14.12    2.01
 -10  -3   0   14.80    2.31
 -10  -3  -1   18.14    1.21
  10   3   1   15.03    2.10
 -10  -3  -1   15.39    1.94
 -10  -3  -1   21.29    2.73
 -10  -3  -2    5.84    0.72
 -10  -3  -2    7.81    1.98
  10   3   2    7.32    1.67
 -10  -3  -3  117.04    2.50
 -10  -3  -3  110.52    2.48
  10   3   3  110.56    4.78
 -10  -3  -3  121.82    5.36
 -10  -3  -4   14.47    0.87
  10   3   4   13.47    2.10
 -10  -3  -4   17.78    2.45
 -10  -3  -5  127.19    2.92
  10   3   5  115.87    4.95
 -10  -3  -5  130.16    5.48
 -10  -3  -6  163.70    3.80
 -10  -3  -6  154.51    4.55
 -10  -3  -6  152.53    5.99
  10   3   6  157.37    5.97
 -10  -3  -7  221.83    5.07
 -10  -3  -7  216.12    5.69
  10   3   7  212.45    7.19
 -10  -3  -7  215.57    7.09
 -10  -3  -8   -0.94    0.96
 -10  -3  -8   -0.26    1.01
  10   3   8   -1.68    1.72
 -10  -3  -8    2.17    1.65
 -10  -3  -9    2.66    1.14
  10   3   9    4.56    1.81
 -10  -3 -10    5.40    1.34
  10   3  10    6.11    1.99
 -10  -3 -11    8.56    1.71
  10   3  11    5.59    2.04
 -10  -3 -12  215.39    6.91
 -10  -3 -13   29.26    2.92
 -10  -3 -14   36.33    3.39
 -10  -3 -15   21.57    2.86
 -10  -3 -16   53.05    4.36
 -10  -3 -17    3.09    2.30
 -10  -4   8   16.85    2.81
 -10  -4   7   50.25    4.18
 -10  -4   6   12.98    2.73
 -10  -4   5    4.66    2.15
  10   4  -5    0.72    1.41
  10   4  -4  194.30    6.69
 -10  -4   4  201.39    7.83
 -10  -4   3   19.18    2.09
 -10  -4   3   14.99    2.50
  10   4  -3   16.46    2.19
 -10  -4   2   22.44    2.03
 -10  -4   2   23.92    2.96
  10   4  -2   22.49    2.40
 -10  -4   1    1.15    1.03
 -10  -4   1   -0.19    1.70
  10   4  -1    2.21    1.40
 -10  -4   1    0.41    1.19
 -10  -4   0    2.34    1.00
 -10  -4   0   -0.57    1.84
  10   4   0    1.33    1.33
 -10  -4   0    1.63    1.26
 -10  -4  -1   13.99    1.29
  10   4   1   15.32    2.00
 -10  -4  -1   16.13    2.40
 -10  -4  -1   14.03    1.84
 -10  -4  -2   80.38    2.65
  10   4   2   69.74    3.70
 -10  -4  -2   80.30    4.55
 -10  -4  -3   10.17    1.02
  10   4   3    6.87    1.66
 -10  -4  -3    4.55    1.72
 -10  -4  -4   16.31    1.22
  10   4   4   17.94    2.20
 -10  -4  -4   16.79    2.42
 -10  -4  -5  363.57    6.83
 -10  -4  -5  354.08    7.13
 -10  -4  -5  374.24    9.82
  10   4   5  339.74    9.08
 -10  -4  -6  153.11    4.06
 -10  -4  -6  147.85    4.12
  10   4   6  141.60    5.62
 -10  -4  -6  145.66    5.80
 -10  -4  -7   30.37    1.92
 -10  -4  -7   27.59    1.84
 -10  -4  -7   28.10    2.82
  10   4   7   25.17    2.64
 -10  -4  -8   25.56    1.92
  10   4   8   25.22    2.68
 -10  -4  -8   23.71    2.58
 -10  -4  -9  447.63    9.46
  10   4   9  418.93   11.22
 -10  -4  -9  437.67   10.73
 -10  -4 -10    2.18    1.18
  10   4  10    0.26    1.62
 -10  -4 -11   81.01    4.02
 -10  -4 -12   -0.93    1.45
 -10  -4 -13   64.96    4.07
 -10  -4 -14   69.18    4.43
 -10  -4 -15   13.85    2.53
 -10  -4 -16   14.33    2.89
 -10  -4 -17   13.97    3.01
 -10  -5   8   11.26    2.53
 -10  -5   7   -1.86    1.99
 -10  -5   6   30.19    3.49
  10   5  -5  168.40    6.12
 -10  -5   5  167.82    7.39
 -10  -5   4   -0.45    1.85
  10   5  -4    1.66    1.48
 -10  -5   3    4.30    2.01
  10   5  -3    7.13    1.73
 -10  -5   2   40.18    2.71
 -10  -5   2   38.30    3.53
  10   5  -2   42.86    2.94
 -10  -5   2   37.08    2.79
 -10  -5   1   10.09    1.59
 -10  -5   1    4.67    1.99
  10   5  -1    6.28    1.50
 -10  -5   1    8.49    1.61
 -10  -5   0   59.63    2.85
  10   5   0   56.93    3.27
 -10  -5   0   53.52    4.03
 -10  -5   0   57.35    3.26
 -10  -5  -1   52.25    2.51
  10   5   1   50.16    3.14
 -10  -5  -1   51.63    3.81
 -10  -5  -2    7.21    1.17
 -10  -5  -2    8.81    2.10
  10   5   2   10.25    1.83
  10   5   3   15.36    1.99
 -10  -5  -3   14.36    2.30
 -10  -5  -4  352.42    6.54
 -10  -5  -4  362.67    9.91
  10   5   4  345.46    8.91
 -10  -5  -5   11.60    1.30
 -10  -5  -5   10.94    1.04
  10   5   5   12.64    2.07
 -10  -5  -5   12.28    2.19
 -10  -5  -6  192.56    5.06
 -10  -5  -6  197.90    6.87
  10   5   6  182.10    6.39
 -10  -5  -7   25.22    1.95
  10   5   7   26.13    2.82
 -10  -5  -7   19.97    2.25
 -10  -5  -8   31.07    2.23
 -10  -5  -8   27.89    2.81
  10   5   8   27.14    2.29
 -10  -5  -9   46.82    2.88
  10   5   9   42.44    3.45
 -10  -5  -9   48.97    3.38
 -10  -5 -10    0.68    1.20
 -10  -5 -10    3.34    1.50
 -10  -5 -10    3.19    1.60
 -10  -5 -11   27.57    2.46
 -10  -5 -11   31.23    2.73
 -10  -5 -12   40.77    3.20
 -10  -5 -13  123.12    5.67
 -10  -5 -14    9.60    2.37
 -10  -5 -15   16.27    2.81
 -10  -5 -16   -0.06    1.92
 -10  -6   7   28.42    3.52
 -10  -6   6   87.61    5.62
 -10  -6   5   34.94    3.77
 -10  -6   4    6.64    2.21
  10   6  -4   11.45    1.76
  10   6  -3   87.40    4.02
 -10  -6   3   92.67    5.44
  10   6  -2   35.65    2.59
 -10  -6   2   42.21    2.88
 -10  -6   2   44.10    3.84
 -10  -6   1   52.22    3.07
  10   6  -1   51.55    3.05
 -10  -6   1   51.31    4.07
 -10  -6   0    6.82    1.37
 -10  -6   0    8.35    2.25
  10   6   0    7.18    1.56
 -10  -6  -1    5.28    1.29
 -10  -6  -1    4.74    2.04
  10   6   1    5.03    1.41
 -10  -6  -2   16.97    1.65
 -10  -6  -2   22.57    2.79
  10   6   2   18.75    1.98
  10   6   3  172.44    5.77
 -10  -6  -3  173.82    6.80
 -10  -6  -4   39.28    3.36
 -10  -6  -4   40.14    1.31
  10   6   4   38.27    2.89
 -10  -6  -5  204.62    7.20
  10   6   5  194.66    6.44
 -10  -6  -6   79.09    3.33
  10   6   6   71.00    3.97
 -10  -6  -6   71.86    4.23
 -10  -6  -7   17.43    1.81
 -10  -6  -7   16.85    2.47
  10   6   7   12.72    2.08
 -10  -6  -8    3.53    1.31
  10   6   8    1.57    1.52
 -10  -6  -8    1.55    1.64
 -10  -6  -9    7.97    1.61
 -10  -6  -9    5.92    1.82
  10   6   9    5.23    2.01
 -10  -6 -10  117.16    4.86
 -10  -6 -10  113.60    5.04
 -10  -6 -11   35.62    2.99
 -10  -6 -11   30.98    2.78
 -10  -6 -12   65.19    4.08
 -10  -6 -13   36.54    3.31
 -10  -6 -14   94.17    5.38
 -10  -6 -15   -5.60    2.31
 -10  -6 -16    5.33    2.26
 -10  -7   6  128.04    6.89
 -10  -7   5    6.94    2.55
 -10  -7   4   78.28    5.29
 -10  -7   3    2.87    2.06
 -10  -7   2   20.24    3.06
  10   7  -2   21.99    2.01
  10   7  -1   81.87    3.63
 -10  -7   1   77.85    5.03
 -10  -7   0   78.70    3.76
  10   7   0   76.07    3.54
 -10  -7   0   83.13    5.00
 -10  -7  -1   -0.82    1.11
 -10  -7  -1   -0.76    1.94
  10   7   1   -0.68    1.11
 -10  -7  -2    7.07    2.19
  10   7   2    7.15    1.47
  10   7   3   98.65    4.22
 -10  -7  -3  102.43    5.32
 -10  -7  -4  119.49    5.72
  10   7   4  121.69    4.79
  10   7   5   82.44    4.09
 -10  -7  -5   87.47    4.78
 -10  -7  -6    2.93    1.35
 -10  -7  -6    1.26    1.69
  10   7   6    1.23    1.37
 -10  -7  -7   33.30    2.56
 -10  -7  -7   30.45    2.98
  10   7   7   30.07    2.76
 -10  -7  -8   10.74    1.72
 -10  -7  -8    8.89    2.06
  10   7   8    9.02    2.03
 -10  -7  -9    9.77    1.80
 -10  -7  -9   10.36    2.08
  10   7   9   12.61    2.30
 -10  -7 -10   63.83    3.80
 -10  -7 -10   67.17    3.99
 -10  -7 -11   23.63    2.66
 -10  -7 -11   29.20    2.75
 -10  -7 -12  211.87    7.55
 -10  -7 -13  179.68    7.16
 -10  -7 -14   39.07    3.75
 -10  -7 -15   -2.61    2.25
 -10  -7 -16   21.95    3.38
 -10  -8   5   24.67    3.43
 -10  -8   4   68.44    5.01
 -10  -8   3  100.69    5.88
 -10  -8   2    8.45    2.59
 -10  -8   1   44.42    4.07
  10   8  -1   48.19    2.68
 -10  -8   0    4.40    2.08
  10   8   0    4.71    1.27
 -10  -8  -1    7.42    1.65
 -10  -8  -1    6.42    2.34
  10   8   1    4.14    1.13
  10   8   2   87.45    3.80
 -10  -8  -2   90.50    5.17
 -10  -8  -3   27.91    3.21
  10   8   3   28.44    2.35
 -10  -8  -4   46.56    3.76
  10   8   4   47.84    3.07
 -10  -8  -5   20.26    2.74
  10   8   5   21.50    2.21
  10   8   6  101.02    4.62
 -10  -8  -6  100.75    5.19
 -10  -8  -7    7.46    1.70
 -10  -8  -7    8.17    2.04
  10   8   7    6.35    1.66
 -10  -8  -8   22.58    2.40
 -10  -8  -8   19.90    2.58
  10   8   8   17.27    2.36
 -10  -8  -9   24.01    2.53
 -10  -8  -9   29.63    2.91
  10   8   9   24.53    2.79
 -10  -8 -10   32.02    2.95
 -10  -8 -10   26.94    2.72
 -10  -8 -11  398.47   10.73
 -10  -8 -11  391.80   10.09
 -10  -8 -12   30.94    3.23
 -10  -8 -12   27.76    2.70
 -10  -8 -13  136.37    6.41
 -10  -8 -14   19.17    2.93
 -10  -8 -15   53.06    4.52
 -10  -9   3    5.83    2.59
 -10  -9   2   36.55    3.81
 -10  -9   1    5.21    2.31
 -10  -9   0   12.56    2.73
  10   9   1   45.98    2.58
 -10  -9  -1   46.74    4.14
 -10  -9  -2    3.31    2.02
  10   9   2    4.59    1.23
 -10  -9  -3   24.53    3.02
  10   9   3   23.39    2.07
 -10  -9  -4  221.88    8.14
  10   9   4  217.33    6.44
 -10  -9  -5  116.89    5.83
  10   9   5  113.39    4.72
  10   9   6   98.73    4.52
 -10  -9  -6   96.78    5.19
 -10  -9  -7   10.79    1.94
 -10  -9  -7   10.35    2.24
  10   9   7    7.10    1.77
 -10  -9  -8   22.95    2.58
 -10  -9  -8   19.98    2.70
  10   9   8   16.25    2.31
 -10  -9  -9   17.53    2.35
  10   9   9   17.16    2.48
 -10  -9  -9   15.73    2.32
 -10  -9 -10   70.01    4.30
 -10  -9 -10   65.84    4.04
 -10  -9 -11   23.65    2.92
 -10  -9 -11   21.76    2.54
 -10  -9 -12   58.62    4.31
 -10  -9 -13   40.92    3.94
 -10  -9 -14   74.18    5.07
 -10  -9 -15    6.98    2.49
 -10 -10   2   13.13    2.91
 -10 -10   1   69.06    5.16
 -10 -10   0   54.70    4.53
 -10 -10  -1   11.15    2.74
 -10 -10  -2    0.95    2.04
  10  10   3  321.24    7.74
 -10 -10  -3  324.48   10.41
  10  10   4   78.39    3.67
 -10 -10  -4   85.23    5.14
 -10 -10  -5   64.26    4.47
  10  10   5   59.61    3.37
 -10 -10  -6   29.66    3.25
  10  10   6   30.79    2.66
 -10 -10  -7   42.53    3.36
 -10 -10  -7   36.02    3.44
  10  10   7   45.17    3.22
 -10 -10  -8   31.45    3.04
 -10 -10  -8   32.45    3.17
  10  10   8   30.62    2.95
 -10 -10  -9    0.15    1.65
 -10 -10  -9   -0.80    1.68
  10  10   9   -0.90    1.57
 -10 -10 -10    2.18    1.98
 -10 -10 -10    1.74    1.61
 -10 -10 -11   12.28    2.55
 -10 -10 -11   12.84    2.10
 -10 -10 -12   62.56    4.56
 -10 -10 -13   12.61    2.66
 -10 -10 -14   26.99    3.50
 -10 -11   0    6.86    2.40
 -10 -11  -1    0.66    2.10
 -10 -11  -2   40.24    3.98
 -10 -11  -3    2.66    2.10
 -10 -11  -4   54.50    4.27
 -10 -11  -5   43.55    3.98
  10  11   5   48.35    3.01
 -10 -11  -6   28.54    3.31
  10  11   6   29.94    2.58
 -10 -11  -7   19.28    2.77
  10  11   7   18.01    2.24
 -10 -11  -8    0.69    1.74
 -10 -11  -8    0.40    1.78
  10  11   8    1.76    1.65
 -10 -11  -9    6.60    2.20
 -10 -11  -9    2.05    1.72
  10  11   9    1.44    1.67
 -10 -11 -10    6.64    2.22
 -10 -11 -10    9.73    2.34
 -10 -11 -11   46.39    4.03
 -10 -11 -12    6.48    2.58
 -10 -11 -13   86.46    5.63
 -10 -12  -2   49.52    4.45
 -10 -12  -3   83.47    5.52
 -10 -12  -4   22.79    3.33
 -10 -12  -5    7.12    2.24
 -10 -12  -6   50.98    4.24
 -10 -12  -7    8.31    2.56
 -10 -12  -8   52.43    4.19
  10  12   8   57.88    3.81
 -10 -12  -8   52.21    4.16
 -10 -12  -9   41.28    3.94
 -10 -12  -9   39.48    3.69
  10  12   9   34.24    3.18
 -10 -12 -10    9.56    2.58
 -10 -12 -10    7.38    2.09
 -10 -12 -11   48.37    4.30
 -10 -12 -12   89.32    5.72
 -10 -13  -4   38.16    4.07
 -10 -13  -5  117.50    6.49
 -10 -13  -6   10.48    2.65
 -10 -13  -7   56.29    4.53
 -10 -13  -8    3.71    2.10
 -10 -13  -8    2.06    2.04
 -10 -13  -9    3.35    1.99
 -10 -13  -9    3.33    2.39
 -10 -13 -10   76.29    5.22
 -10 -13 -11   36.91    4.21
 -10 -14  -6   15.04    2.92
 -10 -14  -7    5.53    2.43
 -10 -14  -8   20.04    3.12
 -10 -14  -8   20.02    3.03
  11 -12   3   40.54    4.05
  11 -12   4    2.63    2.46
  11 -12   5   13.61    2.78
  11 -12   6    4.38    2.27
  11 -12   7    1.92    1.93
  11 -11   1   29.50    3.65
  11 -11   2   47.42    4.26
  11 -11   3   34.25    3.73
  11 -11   4    1.69    2.02
  11 -11   5    9.54    2.63
  11 -11   6    1.05    2.64
  11 -11   7   16.06    2.77
  11 -11   8    0.77    1.92
  11 -11   9   48.03    4.21
  11 -10   0   27.59    3.57
  11 -10   1   16.88    2.88
  11 -10   2  122.44    6.51
  11 -10   3   11.26    2.53
  11 -10   4   -0.38    1.85
  11 -10   5   19.27    2.99
  11 -10   6    0.34    1.93
  11 -10   7    4.32    2.19
  11 -10   8   24.01    3.18
  11 -10   9   21.64    3.03
  11 -10  10   25.09    3.24
  11 -10  11   64.66    4.90
  11  -9  -1   34.15    3.79
  11  -9   0   31.54    3.68
  11  -9   1  243.62    9.18
  11  -9   2   -1.60    1.77
  11  -9   3   17.23    2.81
  11  -9   4    5.61    2.17
  11  -9   5    1.56    1.96
  11  -9   6   33.25    3.47
  11  -9   7   11.03    2.45
  11  -9   8   20.13    2.90
  11  -9   9    1.73    1.99
  11  -9  10  110.86    6.06
  11  -9  11    5.40    2.22
  11  -9  12   27.28    3.54
  11  -8  -2    5.05    2.16
  11  -8  -1   61.11    4.68
  11  -8   0  103.61    5.90
  11  -8   1   39.81    3.88
  11  -8   2    4.44    2.07
  11  -8   3   61.30    4.54
  11  -8   4   12.25    2.50
  11  -8   5  138.42    6.52
  11  -8   6   10.48    2.43
  11  -8   7   12.83    2.35
  11  -8   8    5.22    2.14
  11  -8   9   87.91    5.31
  11  -8  10   -2.73    2.11
  11  -8  11    2.21    1.86
  11  -8  12    4.09    2.18
  11  -7  -3   17.36    3.22
  11  -7  -2   37.75    3.83
  11  -7  -1   40.25    3.86
  11  -7   0   38.10    3.70
  11  -7   1    0.34    1.81
  11  -7   2   39.66    3.74
  11  -7   3   25.39    3.14
  11  -7   4  108.48    5.75
  11  -7   5    2.70    1.95
  11  -7   6   25.79    3.02
  11  -7   7   46.54    3.91
  11  -7   8   22.47    2.94
  11  -7   9   42.49    3.80
  11  -7  10   43.24    3.95
  11  -7  11   15.39    2.68
  11  -7  12    2.70    1.98
  11  -7  13   -1.95    2.12
  11  -6  -4   24.37    3.30
  11  -6  -3   11.12    2.49
  11  -6  -2    1.74    1.89
  11  -6  -1  100.02    5.71
  11  -6   0    5.50    2.32
  11  -6   1   73.40    4.74
  11  -6   2   35.50    3.49
  11  -6   3   10.02    2.30
  11  -6   4   13.52    2.56
  11  -6   5   77.47    4.82
  11  -6   6   16.99    2.72
  11  -6   7    3.30    2.04
  11  -6   8  116.07    5.91
  11  -6   9   -1.51    1.92
  11  -6  10   91.57    5.40
  11  -6  11    3.54    1.92
  11  -6  12   18.50    3.00
  11  -6  13   10.10    2.42
  11  -5  -5   11.02    2.69
  11  -5  -4    2.37    2.00
  11  -5  -3   45.69    4.08
  11  -5  -2  113.75    6.08
  11  -5  -1   37.26    3.60
  11  -5   0   11.86    2.41
  11  -5   1  247.57    8.68
  11  -5   2   57.37    4.23
  11  -5   3    0.42    1.62
  11  -5   4    8.94    2.22
  11  -5   5   44.42    3.70
  11  -5   6   61.11    4.26
  11  -5   7  131.20    6.18
  11  -5   8    3.01    2.01
  11  -5   9   37.75    3.65
  11  -5  10   99.07    5.58
  11  -5  11   45.37    4.09
  11  -5  12    3.88    2.17
  11  -5  13    9.53    2.53
  11  -4  -5   21.33    3.13
  11  -4  -4  120.82    6.43
  11  -4  -3  114.99    6.08
  11  -4  -2   44.15    3.83
  11  -4  -1    7.85    2.25
  11  -4   0  385.80   11.06
  11  -4   1   13.54    2.36
  11  -4   2   36.11    3.42
  11  -4   3   43.22    3.65
  11  -4   4    1.95    1.69
  11  -4   5  104.54    5.38
  11  -4   6   70.64    4.46
  11  -4   7   -1.49    1.63
  11  -4   8    6.53    2.11
  11  -4   9  254.40    8.87
  11  -4  10   48.95    3.95
  11  -4  11   19.67    3.12
  11  -4  12    7.81    2.22
  11  -4  13    1.42    1.88
  11  -4  14    2.31    2.14
  11  -3  -6   24.53    3.28
  11  -3  -5   12.41    2.75
  11  -3  -4   39.98    3.91
  11  -3  -3   35.95    3.66
  11  -3  -2   57.06    4.29
  11  -3  -1  191.60    7.50
  11  -3   0    7.68    2.07
  11  -3   1   31.65    3.28
  11  -3   2   60.71    4.12
  11  -3   3    5.31    1.93
  11  -3   4    3.92    1.94
  11  -3   5    2.93    1.69
  11  -3   6   11.31    2.28
  11  -3   7   29.91    1.16
  11  -3   7   38.71    3.42
  11  -3   8  173.40    7.03
  11  -3   9    2.77    1.88
  11  -3  10  113.73    5.92
  11  -3  11   -1.22    2.00
  11  -3  12   11.67    2.55
  11  -3  13    8.08    2.64
  11  -3  14    9.33    2.72
  11  -2  -6    0.42    1.84
  11  -2  -5    0.45    1.83
 -11   2   5    9.42    2.40
  11  -2  -4    0.91    1.82
 -11   2   4    3.15    1.93
  11  -2  -3   55.08    4.30
 -11   2   3   56.24    4.15
  11  -2  -2   32.62    3.34
 -11   2   2   28.33    3.20
  11  -2  -1   26.44    2.98
 -11   2   1   30.34    3.15
  11  -2   0   18.46    2.58
  11  -2   1   38.95    3.37
  11  -2   2   25.19    2.81
  11  -2   3   91.32    4.83
  11  -2   4   54.20    3.87
  11  -2   5  182.90    6.99
  11  -2   6   -2.28    1.87
  11  -2   7   47.99    3.73
  11  -2   8   24.16    2.89
  11  -2   9   98.51    5.30
  11  -2  10   35.43    3.46
  11  -2  11    0.44    1.77
  11  -2  12    0.88    1.77
  11  -2  13    4.74    2.52
  11  -2  14   39.77    4.04
 -11   1   7    9.52    2.52
  11  -1  -6    5.09    2.20
 -11   1   6    5.01    2.36
  11  -1  -5    2.55    2.06
 -11   1   5    7.71    2.30
  11  -1  -4   16.43    2.58
 -11   1   4   20.80    2.89
  11  -1  -3   -0.16    1.81
 -11   1   3   -2.32    1.98
  11  -1  -2  183.98    7.25
 -11   1   2  194.08    7.44
  11  -1  -1   -0.14    1.77
 -11   1   1    1.63    1.75
  11  -1   0    8.37    2.06
 -11   1   0   10.98    2.39
  11  -1   1    4.38    1.96
 -11   1  -1    3.44    1.98
  11  -1   2    3.17    1.61
 -11   1  -2    7.80    2.29
  11  -1   3  206.11    7.31
  11  -1   4  189.66    7.01
  11  -1   5  251.40    8.18
  11  -1   6   -1.87    1.59
  11  -1   7  152.87    6.37
  11  -1   8   45.77    3.70
  11  -1   9  113.32    5.69
  11  -1  10    6.46    2.18
  11  -1  11   75.63    4.87
  11  -1  12    5.17    2.06
  11  -1  13   46.84    4.27
 -11   1 -14    2.50    1.73
  11  -1  14    0.88    1.90
 -11   1 -15    2.56    1.80
 -11   0   7    2.78    2.09
  11   0  -6    4.35    2.07
 -11   0   6    4.06    2.33
  11   0  -5    8.74    2.36
 -11   0   5    8.39    2.39
  11   0  -4   33.32    3.33
 -11   0   4   31.57    3.27
  11   0  -3  289.72    9.35
 -11   0   3  322.73    9.88
  11   0  -2   -0.53    1.72
 -11   0   2    0.83    1.88
  11   0  -1    7.39    1.97
 -11   0   1    8.41    2.26
  11   0   0  172.59    6.68
 -11   0   0  175.48    6.97
  11   0   1   32.28    3.00
 -11   0  -1   37.58    3.39
  11   0   2    0.91    1.59
 -11   0  -2    0.11    1.81
  11   0   3   38.95    3.32
 -11   0  -3   51.78    3.81
 -11   0  -4    1.18    1.73
  11   0   4    1.46    1.62
  11   0   5   20.84    2.60
  11   0   6  250.30    8.19
 -11   0  -7    5.75    1.45
  11   0   7    3.33    1.62
  11   0   8   36.13    3.38
  11   0   9  126.51    5.99
 -11   0 -10  161.56    4.68
  11   0  10  159.94    6.83
 -11   0 -11    2.88    1.32
  11   0  11    0.00    1.92
 -11   0 -12    8.19    1.64
  11   0  12    9.03    2.49
 -11   0 -13   -0.87    1.47
  11   0  13    1.64    1.90
 -11   0 -14    0.49    1.51
  11   0  14    5.18    2.49
 -11   0 -15   35.53    3.30
 -11  -1   7   15.14    2.78
  11   1  -6   -0.36    1.74
 -11  -1   6    4.94    2.27
  11   1  -5   52.64    4.16
 -11  -1   5   61.60    4.47
  11   1  -4  209.87    7.76
 -11  -1   4  214.78    8.08
  11   1  -3   14.01    2.46
 -11  -1   3   15.51    2.67
  11   1  -2   15.69    2.51
 -11  -1   2   16.63    2.74
  11   1  -1   75.88    4.40
 -11  -1   1   93.02    5.12
  11   1   0   47.29    3.56
 -11  -1   0   49.23    3.85
  11   1   1   -2.25    2.27
 -11  -1  -1    2.24    1.87
  11   1   2   67.50    4.08
 -11  -1  -2   80.43    4.66
  11   1   3   44.51    3.35
 -11  -1  -3   54.04    3.86
  11   1   4  160.26    6.29
 -11  -1  -4  170.95    6.64
  11   1   5  174.99    6.58
 -11  -1  -5  179.16    6.83
  11   1   6    0.39    1.51
 -11  -1  -6    0.34    1.64
 -11  -1  -7   -0.66    1.06
  11   1   7    1.03    1.61
 -11  -1  -8  167.74    3.78
 -11  -1  -8  172.02    5.82
  11   1   8  176.14    6.85
 -11  -1  -9  121.80    3.68
  11   1   9  121.04    5.84
 -11  -1 -10    5.49    1.22
  11   1  10    7.14    2.14
 -11  -1 -11   13.05    1.75
  11   1  11   14.94    2.70
 -11  -1 -12    4.21    1.54
  11   1  12    3.13    2.04
 -11  -1 -13    1.32    1.44
  11   1  13   -1.81    2.05
 -11  -1 -14  162.79    6.31
  11   1  14  157.45    7.55
 -11  -1 -15   15.80    2.67
 -11  -1 -16   27.01    3.30
 -11  -2   8   25.31    3.39
 -11  -2   7   30.33    3.58
  11   2  -6    9.31    2.35
 -11  -2   6   18.59    2.99
  11   2  -5   17.08    2.65
 -11  -2   5   20.90    2.96
  11   2  -4    0.20    1.56
 -11  -2   4    2.45    1.93
  11   2  -3   58.44    4.01
 -11  -2   3   57.92    4.34
  11   2  -2  325.75    9.54
 -11  -2   2  358.42   10.53
  11   2  -1   -0.77    1.48
 -11  -2   1    2.68    2.16
 -11  -2   0   18.13    1.09
  11   2   0   17.88    2.35
 -11  -2   0   20.79    2.80
  11   2   1   85.13    4.51
 -11  -2  -1   86.81    4.90
  11   2   2   98.07    4.75
 -11  -2  -2  107.17    5.36
 -11  -2  -3   22.42    2.83
  11   2   3   24.63    2.62
  11   2   4   30.11    2.79
 -11  -2  -4   33.25    3.25
  11   2   5   52.87    3.61
 -11  -2  -5   42.47    3.49
 -11  -2  -6    5.00    1.32
  11   2   6    7.93    1.97
 -11  -2  -6    8.57    2.13
 -11  -2  -7   85.45    2.21
 -11  -2  -7   86.13    3.78
  11   2   7   84.59    4.65
 -11  -2  -7   95.31    4.93
 -11  -2  -8   10.76    1.09
 -11  -2  -8    8.62    1.50
  11   2   8    5.91    1.89
 -11  -2  -9  190.29    4.94
 -11  -2  -9  191.45    6.07
  11   2   9  185.98    7.22
 -11  -2 -10   -0.26    1.05
  11   2  10    0.73    1.75
 -11  -2 -11   28.14    2.28
  11   2  11   24.62    3.12
 -11  -2 -12    3.28    1.47
  11   2  12    0.43    1.94
 -11  -2 -13   35.55    2.92
  11   2  13   37.30    3.85
 -11  -2 -14   60.44    4.01
  11   2  14   64.68    4.97
 -11  -2 -15    3.87    1.97
 -11  -2 -16   43.40    3.88
 -11  -3   8    1.43    2.00
 -11  -3   7    1.48    2.08
 -11  -3   6    3.85    2.17
  11   3  -5   12.35    2.22
 -11  -3   5   16.48    2.78
  11   3  -4   23.77    3.27
 -11  -3   4   29.06    3.32
  11   3  -3  120.42    5.49
 -11  -3   3  131.41    6.32
  11   3  -2   95.44    4.80
 -11  -3   2   96.52    5.49
  11   3  -1    4.61    1.80
 -11  -3   1    4.90    2.03
 -11  -3   0  222.27    4.87
  11   3   0  217.55    7.24
 -11  -3   0  228.15    8.12
 -11  -3  -1   24.55    1.25
  11   3   1   25.92    2.62
 -11  -3  -1   22.91    2.81
 -11  -3  -2    1.38    0.43
  11   3   2    1.46    1.37
 -11  -3  -2   -0.38    1.69
 -11  -3  -3    1.93    1.95
  11   3   3   -0.38    1.39
  11   3   4    2.70    1.76
 -11  -3  -4    4.44    1.88
  11   3   5   29.42    2.81
 -11  -3  -5   28.16    2.99
 -11  -3  -6   57.38    1.73
 -11  -3  -6   51.55    2.73
 -11  -3  -6   59.01    3.95
  11   3   6   54.16    3.67
 -11  -3  -7   31.66    1.57
 -11  -3  -7   27.17    2.10
  11   3   7   25.99    2.79
 -11  -3  -7   27.69    2.95
 -11  -3  -8  131.34    3.72
 -11  -3  -8  119.73    4.36
  11   3   8  115.05    5.50
 -11  -3  -8  122.16    5.54
 -11  -3  -9  140.60    4.26
  11   3   9  126.07    5.94
 -11  -3 -10   25.65    2.10
  11   3  10   27.43    3.24
 -11  -3 -11   41.46    2.82
  11   3  11   37.64    3.53
 -11  -3 -12    3.89    1.57
  11   3  12    4.06    2.12
 -11  -3 -13   81.20    4.32
  11   3  13   75.84    5.24
 -11  -3 -14   27.20    2.85
 -11  -3 -15   10.14    2.42
 -11  -3 -16   14.06    2.64
 -11  -4   7    0.08    1.99
 -11  -4   6    0.71    2.08
  11   4  -5    7.01    1.83
 -11  -4   5    5.74    2.00
  11   4  -4    5.63    1.73
 -11  -4   4   10.37    2.56
  11   4  -3  153.89    6.09
 -11  -4   3  165.84    7.28
  11   4  -2    7.31    1.68
 -11  -4   2    8.28    2.30
  11   4  -1    3.34    1.53
 -11  -4   1    4.55    2.19
  11   4   0    4.42    1.59
 -11  -4   0    4.30    2.10
 -11  -4  -1   36.81    1.87
  11   4   1   41.01    3.11
 -11  -4  -1   42.03    3.65
 -11  -4  -2    7.21    0.96
 -11  -4  -2   10.52    2.33
  11   4   2    7.05    1.71
 -11  -4  -3   16.17    1.09
 -11  -4  -3   14.69    2.53
  11   4   3   14.48    2.12
 -11  -4  -4   18.27    1.12
 -11  -4  -4   20.85    1.22
 -11  -4  -4   20.97    2.67
  11   4   4   19.63    2.41
 -11  -4  -5    9.47    0.97
 -11  -4  -5    8.31    1.15
  11   4   5   11.29    2.13
 -11  -4  -5   10.87    2.23
 -11  -4  -6  158.72    3.84
 -11  -4  -6  150.11    4.38
 -11  -4  -6  146.72    6.18
  11   4   6  139.68    5.82
 -11  -4  -7   72.15    2.70
 -11  -4  -7   70.48    2.97
  11   4   7   70.82    4.45
 -11  -4  -7   64.34    4.41
 -11  -4  -8   45.51    2.34
  11   4   8   44.76    3.57
 -11  -4  -8   45.70    3.55
 -11  -4  -9   16.91    1.84
  11   4   9   14.77    2.57
 -11  -4  -9   16.42    2.43
 -11  -4 -10   59.79    3.14
  11   4  10   51.44    4.03
 -11  -4 -11   11.63    1.81
  11   4  11   10.55    2.40
 -11  -4 -12   51.11    3.36
  11   4  12   43.25    3.94
 -11  -4 -13    2.84    1.66
 -11  -4 -14   31.14    3.15
 -11  -4 -15    0.52    1.86
 -11  -4 -16   23.41    3.14
 -11  -5   6    0.90    2.09
 -11  -5   5   16.03    2.93
  11   5  -4  162.74    6.21
 -11  -5   4  161.45    7.39
 -11  -5   3    8.11    2.64
  11   5  -3    3.90    1.68
 -11  -5   2   -1.40    1.92
  11   5  -2   -0.87    1.40
 -11  -5   1    3.96    2.08
  11   5  -1    6.53    1.65
  11   5   0   54.04    3.43
 -11  -5   0   51.24    4.12
 -11  -5  -1  140.21    4.21
  11   5   1  137.31    5.40
 -11  -5  -1  138.42    6.45
 -11  -5  -2   55.93    2.43
  11   5   2   52.76    3.40
 -11  -5  -2   54.61    4.12
 -11  -5  -3   18.86    1.44
 -11  -5  -3   14.36    2.54
  11   5   3   16.82    2.22
  11   5   4   10.09    1.90
 -11  -5  -4    9.17    2.21
 -11  -5  -5  300.63    6.22
 -11  -5  -5  288.77    5.98
 -11  -5  -5  286.13    9.02
  11   5   5  272.79    8.26
 -11  -5  -6   25.76    1.74
 -11  -5  -6   26.92    1.61
  11   5   6   24.32    2.67
 -11  -5  -6   22.85    2.84
 -11  -5  -7   39.75    2.25
  11   5   7   40.17    3.29
 -11  -5  -7   41.43    3.43
 -11  -5  -8   23.62    1.97
 -11  -5  -8   25.08    2.95
  11   5   8   21.95    2.77
 -11  -5  -9  355.23    8.21
  11   5   9  320.32    9.84
 -11  -5  -9  343.37    9.72
 -11  -5 -10   20.22    2.16
  11   5  10   18.67    2.82
 -11  -5 -10   13.66    2.32
 -11  -5 -11   13.23    2.08
  11   5  11   11.56    2.42
 -11  -5 -12    0.03    1.60
  11   5  12    2.97    1.92
 -11  -5 -13   27.74    2.88
 -11  -5 -14   67.69    4.38
 -11  -5 -15   -2.01    1.87
 -11  -5 -16   20.87    3.17
 -11  -6   5   90.37    5.88
 -11  -6   4   -0.80    2.07
 -11  -6   3    3.27    2.24
  11   6  -3    0.74    1.29
  11   6  -2  239.47    7.27
 -11  -6   2  247.65    9.25
  11   6  -1   54.42    3.34
 -11  -6   1   54.99    4.40
 -11  -6   0   -1.12    2.01
  11   6   0    0.38    1.24
 -11  -6  -1   26.95    3.21
  11   6   1   24.78    2.37
 -11  -6  -2    5.30    1.23
 -11  -6  -2    3.43    2.09
  11   6   2    3.28    1.42
 -11  -6  -3   11.17    1.38
 -11  -6  -3   11.32    2.38
  11   6   3   12.29    1.93
  11   6   4   63.10    3.70
 -11  -6  -4   63.70    2.01
 -11  -6  -4   65.51    4.41
 -11  -6  -5    0.65    1.06
 -11  -6  -5   -0.67    1.89
  11   6   5    2.54    1.50
 -11  -6  -6    4.84    1.20
  11   6   6    8.27    1.82
 -11  -6  -6    8.29    2.22
 -11  -6  -7  132.32    4.45
 -11  -6  -7  129.07    5.84
  11   6   7  126.95    5.61
 -11  -6  -8  146.79    4.92
  11   6   8  127.75    5.80
 -11  -6  -8  131.28    5.89
 -11  -6  -9   82.16    3.81
  11   6   9   73.89    4.65
 -11  -6  -9   75.59    4.58
 -11  -6 -10    5.01    1.60
  11   6  10    3.77    1.98
 -11  -6 -10    5.77    1.93
 -11  -6 -11   32.30    2.82
 -11  -6 -11   33.50    3.08
  11   6  11   31.39    3.46
 -11  -6 -12    0.07    1.53
 -11  -6 -13   85.02    4.73
 -11  -6 -14    8.22    2.42
 -11  -6 -15   25.76    3.33
 -11  -6 -16    2.86    2.28
 -11  -7   4    2.73    2.32
 -11  -7   3  151.45    7.45
 -11  -7   2    0.20    2.08
 -11  -7   1    4.99    2.36
  11   7  -1    2.38    1.24
 -11  -7   0   35.26    3.76
  11   7   0   22.81    2.21
 -11  -7  -1   14.04    2.79
  11   7   1   13.27    1.86
 -11  -7  -2    6.09    2.18
  11   7   2    8.65    1.58
 -11  -7  -3    2.25    2.06
  11   7   3    4.88    1.52
 -11  -7  -4   10.80    2.27
  11   7   4   10.91    1.83
  11   7   5    1.29    1.42
 -11  -7  -5    1.63    1.86
 -11  -7  -6  134.58    4.65
  11   7   6  121.99    5.36
 -11  -7  -6  129.30    6.10
 -11  -7  -7   23.55    2.17
 -11  -7  -7   20.00    2.73
  11   7   7   23.10    2.63
 -11  -7  -8    6.61    1.56
  11   7   8    5.34    1.82
 -11  -7  -8    7.27    2.08
 -11  -7  -9   27.81    2.52
 -11  -7  -9   23.19    2.82
  11   7   9   26.41    3.04
 -11  -7 -10   15.40    2.13
 -11  -7 -10   14.74    2.33
  11   7  10   13.91    2.49
 -11  -7 -11    5.31    1.73
  11   7  11    6.41    2.13
 -11  -7 -11    2.68    1.75
 -11  -7 -12   93.46    4.87
 -11  -7 -12  103.98    5.05
 -11  -7 -13   14.75    2.54
 -11  -7 -14  107.39    5.72
 -11  -7 -15    5.72    2.31
 -11  -7 -16    3.58    2.39
 -11  -8   3   41.18    4.53
 -11  -8   2   37.66    3.98
 -11  -8   1    1.56    2.02
 -11  -8   0    3.70    2.28
  11   8   0    4.55    1.35
 -11  -8  -1    9.98    2.67
  11   8   1    7.41    1.55
 -11  -8  -2    0.54    1.88
  11   8   2    1.60    1.21
 -11  -8  -3    9.92    2.53
  11   8   3   12.26    1.90
 -11  -8  -4    1.45    1.87
  11   8   4    4.37    1.51
 -11  -8  -5   84.59    5.04
  11   8   5   77.73    4.12
 -11  -8  -6    9.03    1.73
  11   8   6    6.02    1.78
 -11  -8  -6    9.23    2.29
 -11  -8  -7   75.48    3.80
  11   8   7   77.21    4.35
 -11  -8  -7   74.22    4.70
 -11  -8  -8    8.01    1.73
 -11  -8  -8   11.64    2.33
  11   8   8   11.00    2.21
 -11  -8  -9   99.36    4.64
 -11  -8  -9   93.14    5.02
  11   8   9   95.65    5.14
 -11  -8 -10   47.62    3.45
  11   8  10   38.80    3.61
 -11  -8 -10   41.33    3.55
 -11  -8 -11    4.24    1.83
  11   8  11    2.85    2.02
 -11  -8 -11    0.65    1.68
 -11  -8 -12   83.97    4.79
 -11  -8 -12   78.73    4.47
 -11  -8 -13    2.50    2.04
 -11  -8 -14   88.37    5.37
 -11  -8 -15   26.16    3.41
 -11  -9   1    0.74    2.02
 -11  -9   0   38.24    3.91
 -11  -9  -1   11.07    2.73
 -11  -9  -2    8.40    2.62
  11   9   2    5.99    1.34
 -11  -9  -3    2.02    2.11
  11   9   3   -0.32    1.20
 -11  -9  -4    2.46    2.14
  11   9   4    1.59    1.39
 -11  -9  -5   79.71    5.02
  11   9   5   74.34    3.99
 -11  -9  -6  154.11    6.85
  11   9   6  145.46    5.73
 -11  -9  -7   25.87    2.54
 -11  -9  -7   24.01    3.10
  11   9   7   23.47    2.59
 -11  -9  -8    2.92    1.58
 -11  -9  -8    2.43    1.99
  11   9   8    1.42    1.54
 -11  -9  -9  354.63    9.57
 -11  -9  -9  340.62   10.08
  11   9   9  316.54    9.86
 -11  -9 -10    1.73    1.62
  11   9  10    4.17    1.98
 -11  -9 -10    3.37    1.94
 -11  -9 -11    3.70    1.85
 -11  -9 -11    7.45    2.16
  11   9  11    6.41    2.14
 -11  -9 -12   42.08    3.72
 -11  -9 -13   51.12    4.19
 -11  -9 -14   53.32    4.43
 -11  -9 -15   59.23    4.85
 -11 -10   0   24.28    3.47
 -11 -10  -1   21.12    3.28
 -11 -10  -2   -1.77    2.20
 -11 -10  -3    6.95    2.45
  11  10   4  153.74    5.46
 -11 -10  -4  157.97    7.30
 -11 -10  -5   33.35    3.68
  11  10   5   29.24    2.57
 -11 -10  -6   13.86    2.80
  11  10   6   13.96    2.06
 -11 -10  -7   24.51    2.73
 -11 -10  -7   28.22    3.31
  11  10   7   27.06    2.73
 -11 -10  -8  150.58    6.10
  11  10   8  134.35    5.92
 -11 -10  -8  142.02    6.53
 -11 -10  -9    2.48    1.81
  11  10   9   -0.17    1.62
 -11 -10  -9    0.30    1.83
 -11 -10 -10   -2.40    1.97
 -11 -10 -10    3.49    1.96
  11  10  10    1.69    1.90
 -11 -10 -11    6.75    2.18
 -11 -10 -11    1.26    1.73
  11  10  11    6.86    2.17
 -11 -10 -12    0.57    2.05
 -11 -10 -13   50.52    4.28
 -11 -10 -14   32.47    3.70
 -11 -11  -2   20.76    3.31
 -11 -11  -3   33.93    3.91
 -11 -11  -4    8.71    2.68
 -11 -11  -5   26.86    3.54
 -11 -11  -6   39.35    3.88
 -11 -11  -7   49.57    3.78
  11  11   7   46.37    3.41
 -11 -11  -7   50.86    4.21
 -11 -11  -8   -1.13    1.78
 -11 -11  -8   -0.30    1.97
  11  11   8    3.18    1.71
 -11 -11  -9   13.67    2.57
  11  11   9   12.51    2.38
 -11 -11  -9   10.87    2.49
 -11 -11 -10   -1.30    2.08
 -11 -11 -10    5.73    2.19
  11  11  10    3.52    1.87
 -11 -11 -11   -0.08    2.00
  11  11  11    3.46    1.93
 -11 -11 -12   39.36    3.94
 -11 -11 -13    2.27    2.21
 -11 -12  -4   17.81    3.01
 -11 -12  -5   38.88    4.06
 -11 -12  -6   12.78    2.77
 -11 -12  -7   62.59    4.78
 -11 -12  -8   11.98    2.48
 -11 -12  -8   14.02    2.70
 -11 -12  -9   37.96    3.81
 -11 -12  -9   33.08    3.59
 -11 -12 -10   -3.31    2.32
 -11 -12 -10    1.17    2.12
  11  12  10   -1.85    1.77
 -11 -12 -11   10.98    2.64
  11  12  11   10.23    2.43
 -11 -12 -12    5.29    2.37
 -11 -13  -6   55.69    4.80
 -11 -13  -7   -1.28    2.22
 -11 -13  -8   -0.30    2.31
 -11 -13  -8    1.71    2.10
 -11 -13  -9   38.36    3.88
 -11 -13  -9   38.94    3.91
 -11 -13 -10   10.01    2.79
 -11 -14  -8    6.41    2.67
  12 -10   4    8.08    2.63
  12 -10   5   27.95    3.49
  12 -10   6   -3.08    2.33
  12 -10   7   -0.49    2.07
  12 -10   8    2.07    2.09
  12  -9   1    4.63    2.25
  12  -9   2  157.70    7.53
  12  -9   3    3.46    2.31
  12  -9   4   53.37    4.48
  12  -9   5   17.51    3.19
  12  -9   6   16.68    2.98
  12  -9   7    5.45    2.27
  12  -9   8   12.96    2.73
  12  -9   9   -3.42    2.06
  12  -8   0    7.09    2.30
  12  -8   1  174.84    7.86
  12  -8   2    3.91    2.24
  12  -8   3   17.74    3.03
  12  -8   4  116.29    6.26
  12  -8   5   19.93    3.11
  12  -8   6    3.27    2.21
  12  -8   7   79.35    5.22
  12  -8   8   14.40    2.83
  12  -8   9    8.41    2.40
  12  -8  10   70.76    5.11
  12  -7  -1   28.61    3.60
  12  -7   0   32.41    3.71
  12  -7   1   34.42    3.69
  12  -7   2    5.50    2.21
  12  -7   3  170.99    7.56
  12  -7   4   26.63    3.24
  12  -7   5   10.98    2.63
  12  -7   6   -0.78    2.08
  12  -7   7    1.32    1.92
  12  -7   8   36.01    3.74
  12  -7   9   41.20    3.94
  12  -7  10   29.56    3.50
  12  -7  11   -2.16    2.02
  12  -6  -2   33.65    3.84
  12  -6  -1   33.30    3.70
  12  -6   0   22.55    2.91
  12  -6   1   13.59    2.69
  12  -6   2  236.91    8.96
  12  -6   3    5.21    2.32
  12  -6   4   41.60    3.87
  12  -6   5    3.26    2.02
  12  -6   6    1.64    2.15
  12  -6   7   42.64    3.86
  12  -6   8   13.95    2.70
  12  -6   9   29.21    3.48
  12  -6  10    3.81    2.03
  12  -6  11   42.23    4.10
  12  -6  12   -1.64    2.29
  12  -5  -3   -1.02    2.14
  12  -5  -2   12.18    2.99
  12  -5  -1    8.16    2.40
  12  -5   0   10.39    2.58
  12  -5   1  180.81    7.67
  12  -5   2  120.24    6.18
  12  -5   3   55.45    4.34
  12  -5   4   66.09    4.67
  12  -5   5    1.94    1.87
  12  -5   6    2.15    1.92
  12  -5   7   18.15    2.84
  12  -5   8   17.51    2.78
  12  -5   9   13.30    2.64
  12  -5  10   71.28    4.97
  12  -5  11   48.30    4.23
  12  -5  12  105.02    6.23
  12  -4  -4    5.48    2.29
  12  -4  -3    1.38    1.94
  12  -4  -2   17.06    3.07
  12  -4  -1    7.81    2.46
  12  -4   0   -3.66    2.07
  12  -4   1  340.60   10.73
  12  -4   2   11.66    2.46
  12  -4   3  124.92    6.15
  12  -4   4   19.47    2.76
  12  -4   5    2.66    1.97
  12  -4   6    3.75    2.09
  12  -4   7    7.25    2.20
  12  -4   8   13.16    2.59
  12  -4   9    5.07    2.17
  12  -4  10  158.10    7.23
  12  -4  11   15.74    2.78
  12  -4  12   42.65    4.02
  12  -4  13   11.07    2.72
  12  -3  -4    0.32    2.03
  12  -3  -3    9.68    2.43
  12  -3  -2    1.84    2.08
  12  -3  -1   39.01    3.75
  12  -3   0  314.28   10.17
  12  -3   1   19.34    2.95
  12  -3   2  120.91    6.06
  12  -3   3  148.59    6.63
  12  -3   4   67.70    4.56
  12  -3   5    1.23    1.72
  12  -3   6    0.17    1.78
  12  -3   7   43.03    3.78
  12  -3   8    1.21    1.80
  12  -3   9   32.94    3.47
  12  -3  10    2.90    1.91
  12  -3  11   17.51    2.80
  12  -3  12   17.22    2.94
  12  -3  13   50.99    4.45
  12  -2  -5    0.27    2.01
  12  -2  -4   12.52    2.70
  12  -2  -3   11.45    2.56
  12  -2  -2   15.95    2.76
  12  -2  -1  110.96    5.79
  12  -2   0   17.86    2.82
  12  -2   1   40.56    3.63
  12  -2   2  281.97    9.29
  12  -2   3   34.04    3.39
  12  -2   4   19.20    2.77
  12  -2   5  125.53    6.02
  12  -2   6    1.26    1.88
  12  -2   7   16.46    2.71
  12  -2   8   23.52    3.01
  12  -2   9   -1.05    1.87
  12  -2  10   47.61    4.03
  12  -2  11   38.52    3.80
  12  -2  12   37.83    3.88
  12  -2  13    1.84    1.99
 -12   1   6    1.20    2.02
  12  -1  -5   52.36    4.51
 -12   1   5   63.58    4.74
  12  -1  -4    8.70    2.32
 -12   1   4   10.37    2.68
  12  -1  -3   28.88    3.31
 -12   1   3   28.74    3.48
  12  -1  -2   25.46    3.20
 -12   1   2   23.79    3.18
  12  -1  -1    3.00    1.93
 -12   1   1    3.00    2.03
  12  -1   0    0.29    1.73
 -12   1   0   -1.99    1.87
  12  -1   1  133.19    6.18
 -12   1  -1  140.76    6.48
  12  -1   2   14.88    2.50
 -12   1  -2   14.66    2.63
  12  -1   3    3.15    1.96
  12  -1   4    6.36    2.03
  12  -1   5   11.61    2.40
  12  -1   6   79.46    4.78
  12  -1   7    5.21    2.01
  12  -1   8  123.94    6.04
  12  -1   9   -0.69    2.19
  12  -1  10  180.73    7.61
  12  -1  11   -2.19    1.92
  12  -1  12   42.95    4.07
  12  -1  13   -1.40    2.30
 -12   0   7    0.03    2.12
  12   0  -6   24.62    3.28
 -12   0   6   29.66    3.66
  12   0  -5    6.86    2.29
 -12   0   5    5.51    2.17
  12   0  -4   -0.55    1.75
 -12   0   4    1.95    2.11
  12   0  -3    0.68    1.77
 -12   0   3   -0.55    3.86
  12   0  -2   12.78    2.51
 -12   0   2   10.61    2.57
  12   0  -1    9.63    2.17
 -12   0   1    7.89    2.43
  12   0   0   79.86    4.87
 -12   0   0   84.28    5.11
  12   0   1  199.55    7.56
 -12   0  -1  212.01    8.02
  12   0   2  108.09    5.41
 -12   0  -2  107.61    5.68
  12   0   3  105.09    5.32
 -12   0  -3  112.87    5.76
 -12   0  -4    5.97    2.18
  12   0   4    7.45    2.13
  12   0   5    8.97    2.17
  12   0   6    3.33    2.09
  12   0   7  191.66    7.48
  12   0   8   -1.22    1.81
  12   0   9   72.60    4.69
  12   0  10   55.29    4.29
  12   0  11  106.23    5.98
  12   0  12   18.67    2.80
  12   0  13   -1.60    2.39
 -12  -1   7    9.82    2.66
  12   1  -6    6.35    2.18
 -12  -1   6   17.28    3.10
  12   1  -5   13.23    2.66
 -12  -1   5   16.62    2.97
  12   1  -4   12.12    2.51
 -12  -1   4   13.14    2.82
  12   1  -3   43.01    3.91
 -12  -1   3   48.83    4.17
  12   1  -2    8.15    2.35
 -12  -1   2    5.25    2.14
  12   1  -1    2.77    1.83
 -12  -1   1    7.18    2.40
  12   1   0  527.36   13.22
 -12  -1   0  554.99   14.02
  12   1   1   95.15    5.02
 -12  -1  -1   95.76    5.43
  12   1   2   97.62    5.14
 -12  -1  -2   94.62    5.34
 -12  -1  -3   21.82    3.19
  12   1   3   31.25    3.08
  12   1   4   93.50    4.96
 -12  -1  -4   93.97    5.32
  12   1   5   46.59    3.70
 -12  -1  -5   37.96    3.55
  12   1   6  114.89    5.63
 -12  -1  -6  123.50    5.93
  12   1   7    3.51    1.93
  12   1   8   -1.03    1.85
  12   1   9  112.97    5.80
  12   1  10   91.03    5.36
  12   1  11   20.72    3.10
  12   1  12    0.67    2.13
  12   1  13   39.88    4.04
 -12  -2   7   67.29    5.17
  12   2  -6   63.15    4.70
 -12  -2   6   66.44    5.01
  12   2  -5    1.85    1.85
 -12  -2   5    4.56    2.15
  12   2  -4    8.18    2.16
 -12  -2   4    6.94    2.27
  12   2  -3    0.98    1.72
 -12  -2   3    4.33    2.29
  12   2  -2    8.29    2.15
 -12  -2   2   10.11    2.52
  12   2  -1  126.82    5.91
 -12  -2   1  149.16    6.81
  12   2   0    3.65    1.90
 -12  -2   0    4.09    2.18
  12   2   1   85.54    4.75
 -12  -2  -1   85.18    5.18
  12   2   2  156.82    6.41
 -12  -2  -2  158.96    6.96
  12   2   3  170.75    6.73
 -12  -2  -3  192.73    7.56
  12   2   4    3.81    1.71
 -12  -2  -4    4.97    2.20
  12   2   5  105.29    5.28
 -12  -2  -5  109.50    5.58
  12   2   6   -1.36    1.85
 -12  -2  -6    0.92    1.90
 -12  -2  -7   10.30    1.65
  12   2   7    8.27    2.07
 -12  -2  -7   13.61    2.53
 -12  -2  -8  147.20    5.28
  12   2   8  149.01    6.56
 -12  -2  -9   30.49    1.66
  12   2   9   30.49    3.38
 -12  -2 -10   59.67    2.71
  12   2  10   54.11    4.22
  12   2  11    4.42    2.25
  12   2  12   38.77    3.84
  12   2  13   34.12    3.85
 -12  -3   6    6.84    3.03
  12   3  -5   26.48    3.12
 -12  -3   5   27.83    3.61
  12   3  -4    6.04    2.14
 -12  -3   4    5.95    2.43
  12   3  -3   29.49    3.12
 -12  -3   3   40.15    3.94
  12   3  -2  149.92    6.39
 -12  -3   2  171.64    7.57
  12   3  -1    0.75    1.62
 -12  -3   1   -0.70    1.96
  12   3   0   11.62    2.30
 -12  -3   0   11.88    2.60
  12   3   1  204.87    7.39
 -12  -3  -1  230.05    8.47
  12   3   2   66.76    4.11
 -12  -3  -2   69.87    4.74
 -12  -3  -3   35.68    3.59
  12   3   3   30.56    2.99
  12   3   4   36.06    3.23
 -12  -3  -4   36.85    3.55
  12   3   5   12.32    2.17
 -12  -3  -5   13.02    2.59
 -12  -3  -6    2.63    1.07
  12   3   6    0.05    1.59
 -12  -3  -6   -0.67    1.85
 -12  -3  -7   89.80    3.80
 -12  -3  -7   89.62    5.06
  12   3   7   85.43    4.90
 -12  -3  -8    0.39    0.71
 -12  -3  -8    0.47    1.09
  12   3   8    1.84    1.71
 -12  -3  -8    1.07    1.77
 -12  -3  -9   37.19    2.02
 -12  -3  -9   36.08    2.64
  12   3   9   37.87    3.58
 -12  -3 -10   72.68    3.08
  12   3  10   60.87    4.42
 -12  -3 -11   67.93    3.34
  12   3  11   63.45    4.71
  12   3  12   10.58    2.59
  12   3  13    6.85    2.35
  12   4  -5    7.27    2.09
 -12  -4   5   11.98    2.89
  12   4  -4    6.96    2.05
 -12  -4   4   17.06    3.05
  12   4  -3   41.44    3.44
 -12  -4   3   48.66    4.30
  12   4  -2    8.68    2.04
 -12  -4   2   13.65    2.80
  12   4  -1    2.95    1.73
 -12  -4   1    4.74    2.19
  12   4   0  238.47    7.92
 -12  -4   0  281.99    9.55
  12   4   1    7.66    1.87
 -12  -4  -1    7.48    2.53
  12   4   2  136.12    5.79
 -12  -4  -2  133.21    6.42
  12   4   3   12.39    2.19
 -12  -4  -3   11.78    2.56
 -12  -4  -4    7.87    2.32
  12   4   4    6.97    1.98
  12   4   5   -1.39    1.62
 -12  -4  -5   -0.16    1.87
 -12  -4  -6   24.72    1.18
 -12  -4  -6   19.25    1.77
  12   4   6   26.61    2.92
 -12  -4  -6   28.94    3.15
 -12  -4  -7    7.03    0.94
 -12  -4  -7    8.08    2.10
  12   4   7    6.92    2.06
 -12  -4  -8    5.21    1.06
  12   4   8    2.59    1.73
 -12  -4  -8    3.15    1.96
 -12  -4  -9  120.60    3.91
  12   4   9  114.21    5.83
 -12  -4  -9  113.17    5.70
 -12  -4 -10    4.51    1.28
  12   4  10    6.83    2.39
 -12  -4 -11   94.15    4.08
  12   4  11  100.25    5.73
 -12  -4 -12    0.64    1.39
  12   4  12    7.00    2.49
  12   4  13    8.54    2.47
 -12  -5   4   -1.41    2.14
  12   5  -3   28.86    2.92
 -12  -5   3   36.64    3.92
  12   5  -2    1.70    1.50
 -12  -5   2    2.91    2.02
  12   5  -1    4.66    1.80
 -12  -5   1    3.04    2.13
  12   5   0   96.54    4.76
 -12  -5   0  101.58    5.89
  12   5   1   99.45    4.81
 -12  -5  -1  107.40    5.95
  12   5   2    2.40    1.52
 -12  -5  -2   -1.58    2.08
 -12  -5  -3    8.70    2.52
  12   5   3    5.60    1.83
 -12  -5  -4    1.85    0.83
 -12  -5  -4   -1.26    2.10
  12   5   4   -1.14    1.48
 -12  -5  -5    0.33    0.75
  12   5   5    0.74    1.50
 -12  -5  -5   -0.49    1.84
 -12  -5  -6  159.57    4.06
  12   5   6  153.72    6.35
 -12  -5  -6  164.00    6.96
 -12  -5  -7    8.53    1.20
 -12  -5  -7    8.66    2.34
  12   5   7    9.53    2.03
 -12  -5  -8   46.63    2.44
  12   5   8   48.26    3.86
 -12  -5  -8   52.20    3.99
 -12  -5  -9   68.02    3.11
  12   5   9   60.44    4.30
 -12  -5  -9   61.27    4.25
 -12  -5 -10  232.84    6.42
  12   5  10  213.60    8.25
 -12  -5 -10  224.65    8.02
 -12  -5 -11    1.25    1.36
  12   5  11    2.05    1.92
 -12  -5 -12    0.64    1.47
  12   5  12    2.35    2.09
  12   5  13    8.92    2.67
 -12  -6   3    2.47    2.30
 -12  -6   2   14.05    3.07
  12   6  -2    8.53    1.90
  12   6  -1   66.13    3.90
 -12  -6   1   71.28    5.14
  12   6   0   28.75    2.75
 -12  -6   0   32.35    3.59
  12   6   1   45.44    3.27
 -12  -6  -1   39.94    4.05
  12   6   2    5.31    1.71
 -12  -6  -2    1.66    1.93
  12   6   3   64.88    3.95
 -12  -6  -3   73.96    4.87
 -12  -6  -4   14.06    2.56
  12   6   4    8.56    1.92
 -12  -6  -5  201.29    5.13
  12   6   5  186.42    6.87
 -12  -6  -5  195.06    7.76
 -12  -6  -6   -1.20    1.11
 -12  -6  -6    0.89    1.78
  12   6   6   -0.44    1.63
 -12  -6  -7    9.97    1.41
  12   6   7    7.77    1.92
 -12  -6  -7    9.52    2.51
 -12  -6  -8  181.00    5.33
  12   6   8  165.92    6.87
 -12  -6  -8  176.65    7.22
 -12  -6  -9  228.41    6.29
  12   6   9  202.58    7.79
 -12  -6  -9  200.70    7.68
 -12  -6 -10   10.35    1.83
  12   6  10   10.24    2.47
 -12  -6 -10    8.37    2.22
 -12  -6 -11    1.33    1.44
 -12  -6 -11   -2.93    2.30
  12   6  11    1.02    1.91
 -12  -6 -12   53.58    3.56
  12   6  12   51.76    4.35
  12   6  13   19.11    3.14
 -12  -7   2  298.63   10.83
 -12  -7   1   39.81    4.19
  12   7   0   55.86    3.51
 -12  -7   0   62.24    4.91
  12   7   1   50.67    3.38
 -12  -7  -1   54.80    4.59
  12   7   2   79.04    4.16
 -12  -7  -2   87.45    5.53
 -12  -7  -3   25.28    3.29
  12   7   3   17.16    2.19
  12   7   4   86.27    4.51
 -12  -7  -4   86.76    5.34
 -12  -7  -5    1.85    1.08
  12   7   5    4.61    1.78
 -12  -7  -5    7.15    2.41
 -12  -7  -6    0.21    1.19
  12   7   6    2.85    1.78
 -12  -7  -6    1.51    2.05
 -12  -7  -7  112.92    4.23
 -12  -7  -7  110.66    5.78
  12   7   7  109.10    5.33
 -12  -7  -8   39.73    2.71
  12   7   8   35.79    3.32
 -12  -7  -8   35.17    3.49
 -12  -7  -9   96.36    4.26
  12   7   9   82.79    5.02
 -12  -7  -9   77.80    4.90
 -12  -7 -10    2.44    1.34
  12   7  10    2.85    2.01
 -12  -7 -10   -0.34    1.94
 -12  -7 -11   66.51    3.92
  12   7  11   56.94    4.44
 -12  -7 -11   60.75    4.21
 -12  -7 -12    5.21    1.83
 -12  -7 -12    3.02    1.92
  12   7  12    2.17    1.95
  12   7  13   72.31    5.30
 -12  -8   0  177.48    8.21
 -12  -8  -1   76.17    5.40
 -12  -8  -2   15.57    2.93
  12   8   2   14.22    1.93
 -12  -8  -3   19.89    3.21
  12   8   3   18.09    2.27
 -12  -8  -4   -2.13    2.18
  12   8   4    1.11    1.35
  12   8   5   12.29    2.21
 -12  -8  -5    9.86    2.57
 -12  -8  -6   91.88    4.05
 -12  -8  -6   88.97    5.40
  12   8   6   82.44    4.57
 -12  -8  -7    2.59    1.46
  12   8   7    2.68    1.69
 -12  -8  -7    0.35    1.87
 -12  -8  -8   13.93    1.92
 -12  -8  -8   14.87    2.68
  12   8   8   12.99    2.47
 -12  -8  -9   38.90    2.94
  12   8   9   35.47    3.42
 -12  -8  -9   32.55    3.43
 -12  -8 -10   45.05    3.30
 -12  -8 -10   43.76    3.79
  12   8  10   42.65    3.80
 -12  -8 -11    1.73    1.64
  12   8  11    4.99    2.39
 -12  -8 -11   -1.35    2.08
 -12  -8 -12    9.23    2.12
 -12  -8 -12    7.74    2.18
  12   8  12    3.64    2.29
 -12  -9  -1   62.56    5.02
 -12  -9  -2   -1.79    2.23
 -12  -9  -3   -0.38    2.29
 -12  -9  -4    8.71    2.43
  12   9   4    8.87    1.88
 -12  -9  -5   19.21    3.10
  12   9   5   26.56    2.74
 -12  -9  -6   38.53    2.90
 -12  -9  -6   39.80    3.88
  12   9   6   35.54    3.12
 -12  -9  -7   11.02    1.83
  12   9   7   15.18    2.40
 -12  -9  -7   16.76    2.78
 -12  -9  -8   37.22    3.06
  12   9   8   33.50    3.32
 -12  -9  -8   36.66    3.69
 -12  -9  -9    9.20    2.08
  12   9   9   12.96    2.49
 -12  -9  -9   12.70    2.81
 -12  -9 -10   94.46    4.79
  12   9  10   83.25    5.15
 -12  -9 -10   90.56    5.28
 -12  -9 -11    1.09    1.69
 -12  -9 -11    4.10    2.48
  12   9  11   -0.06    1.87
  12   9  12   -3.36    2.66
 -12 -10  -3   13.76    2.99
 -12 -10  -4    8.11    2.43
 -12 -10  -5  143.71    7.15
 -12 -10  -6    6.93    2.43
  12  10   6    8.63    1.90
 -12 -10  -7   46.93    3.41
 -12 -10  -7   44.23    4.07
  12  10   7   41.77    3.34
 -12 -10  -8   -1.68    1.75
 -12 -10  -8    2.42    2.09
  12  10   8    3.04    1.76
 -12 -10  -9  216.38    7.49
 -12 -10  -9  207.94    8.26
  12  10   9  192.56    7.57
 -12 -10 -10    5.85    2.16
  12  10  10    5.56    2.14
 -12 -10 -10    7.99    2.42
 -12 -10 -11   15.51    2.77
  12  10  11   15.28    2.82
  12  10  12    9.88    2.60
 -12 -11  -5    2.03    2.19
 -12 -11  -6    8.21    2.60
 -12 -11  -7   21.43    2.78
 -12 -11  -7   19.55    3.00
 -12 -11  -8   49.03    4.35
  12  11   8   41.11    3.46
  12  11   9   48.18    3.91
 -12 -11  -9   55.84    4.46
 -12 -11 -10   12.68    2.79
  12  11  10   10.00    2.36
  12  11  11   21.80    3.07
  12  11  12    5.32    2.28
 -12 -12  -7   17.25    3.02
 -12 -12  -8    2.78    2.11
 -12 -12  -9   15.14    2.87
 -12 -12 -10   50.38    4.30
  13  -8   5   91.69    5.84
  13  -8   6   33.14    3.69
  13  -7   2    6.28    2.38
  13  -7   3    0.54    2.04
  13  -7   4   79.32    5.41
  13  -7   5   28.88    3.46
  13  -7   6    9.70    2.56
  13  -7   7   -2.09    2.18
  13  -7   8   11.37    2.70
  13  -7   9    4.97    2.30
  13  -6   1    1.00    2.42
  13  -6   2   28.45    3.50
  13  -6   3  163.52    7.65
  13  -6   4    1.86    2.26
  13  -6   5   -0.33    2.00
  13  -6   6   31.41    3.65
  13  -6   7   50.02    4.42
  13  -6   8    1.79    2.10
  13  -6   9   21.42    3.13
  13  -6  10    4.59    2.39
  13  -5   0   50.17    4.36
  13  -5   1   42.18    3.99
  13  -5   2   51.83    4.44
  13  -5   3   36.76    3.85
  13  -5   4    7.69    2.35
  13  -5   5  121.30    6.45
  13  -5   6   30.29    3.51
  13  -5   7    4.66    2.17
  13  -5   8    6.90    2.22
  13  -5   9    3.71    2.29
  13  -5  10    6.80    2.28
  13  -4  -1    5.55    2.33
  13  -4   0    8.73    2.49
  13  -4   1   29.21    3.44
  13  -4   2   51.90    4.31
  13  -4   3    9.27    2.39
  13  -4   4  128.65    6.51
  13  -4   5    0.51    1.97
  13  -4   6   87.25    5.46
  13  -4   7    9.59    2.44
  13  -4   8    5.55    2.37
  13  -4   9    1.94    1.97
  13  -4  10   35.33    3.81
  13  -4  11    2.68    2.04
  13  -3  -2    2.34    1.98
  13  -3  -1    0.82    1.90
  13  -3   0   -0.16    1.84
  13  -3   1   79.15    5.24
  13  -3   2    3.85    2.10
  13  -3   3   95.61    5.57
  13  -3   4   77.19    5.11
  13  -3   5   65.14    4.69
  13  -3   6   17.16    2.94
  13  -3   7    2.71    2.28
  13  -3   8   90.87    5.54
  13  -3   9   13.07    2.64
  13  -3  10   41.39    3.99
  13  -3  11    7.02    2.35
  13  -2  -3   22.81    3.22
  13  -2  -2   28.08    5.27
  13  -2  -1   27.22    3.37
  13  -2   0    8.69    2.28
  13  -2   1    3.96    2.21
  13  -2   2    0.40    1.81
  13  -2   3  288.12    9.73
  13  -2   4   61.12    4.55
  13  -2   5    4.39    2.06
  13  -2   6   91.50    5.50
  13  -2   7  148.52    7.00
  13  -2   8    5.26    2.29
  13  -2   9   33.05    3.60
  13  -2  10    3.84    2.28
  13  -2  11    4.44    2.09
  13  -2  12   65.25    5.12
 -13   1   5   18.34    3.10
  13  -1  -4   35.61    3.95
 -13   1   4   34.18    3.88
  13  -1  -3   61.49    4.82
 -13   1   3   56.40    4.55
  13  -1  -2   20.76    3.53
 -13   1   2   28.70    3.67
  13  -1  -1   29.43    3.44
 -13   1   1   29.52    3.48
  13  -1   0   15.76    2.63
 -13   1   0   19.73    3.04
  13  -1   1   14.52    2.79
 -13   1  -1   21.72    3.10
  13  -1   2  245.93    8.91
  13  -1   3   41.61    3.81
  13  -1   4   15.58    2.70
  13  -1   5   -1.05    1.81
  13  -1   6   84.90    5.21
  13  -1   7   85.79    5.24
  13  -1   8   12.68    2.53
  13  -1   9   21.10    3.11
  13  -1  10    0.80    2.11
  13  -1  11   57.48    4.58
  13  -1  12   10.89    2.66
 -13   0   5  105.59    6.33
  13   0  -4   15.46    2.86
 -13   0   4   15.14    2.93
  13   0  -3    3.92    2.06
 -13   0   3    3.58    2.47
  13   0  -2    9.94    2.45
 -13   0   2    8.93    2.61
  13   0  -1   17.37    2.88
 -13   0   1   16.85    2.93
  13   0   0   21.10    2.86
 -13   0   0   26.56    3.41
  13   0   1  140.62    6.59
 -13   0  -1  152.89    7.07
  13   0   2    1.02    1.93
 -13   0  -2    6.60    2.40
  13   0   3   89.93    5.21
 -13   0  -3   92.75    5.56
  13   0   4   43.71    3.77
 -13   0  -4   49.55    4.21
  13   0   5    2.33    1.90
  13   0   6   26.34    3.10
  13   0   7    6.90    2.10
  13   0   8   -0.05    1.86
  13   0   9   -0.30    1.84
  13   0  10  150.52    7.11
  13   0  11   11.81    2.67
  13   0  12   79.23    5.57
  13   1  -5    7.76    2.39
  13   1  -4    4.97    2.20
 -13  -1   4    0.57    2.02
  13   1  -3    2.65    2.01
 -13  -1   3    1.87    2.37
  13   1  -2    3.19    2.08
 -13  -1   2    1.66    2.25
  13   1  -1   20.75    2.89
 -13  -1   1   24.05    3.31
  13   1   0   16.05    2.64
 -13  -1   0   21.74    3.09
  13   1   1   80.98    4.99
 -13  -1  -1   87.47    5.48
  13   1   2    5.93    2.05
 -13  -1  -2    8.63    2.57
  13   1   3  112.37    5.78
 -13  -1  -3  132.02    6.57
 -13  -1  -4    1.33    1.93
  13   1   4    0.10    1.70
 -13  -1  -5   13.81    2.82
  13   1   5    9.72    2.26
  13   1   6   11.55    2.52
  13   1   7    2.21    1.92
  13   1   8   -1.20    1.83
  13   1   9    6.84    2.32
  13   1  10   53.04    4.35
  13   1  11   28.10    3.63
  13   1  12   70.59    5.17
  13   2  -5   63.73    4.76
  13   2  -4   12.55    2.73
 -13  -2   4   14.46    3.04
  13   2  -3    2.22    2.01
 -13  -2   3    0.49    2.24
  13   2  -2   37.59    3.71
 -13  -2   2   33.71    3.79
  13   2  -1    3.99    1.99
 -13  -2   1    5.53    2.49
  13   2   0   30.45    3.22
 -13  -2   0   32.49    3.66
  13   2   1    5.26    2.10
 -13  -2  -1    2.30    2.31
  13   2   2  111.27    5.65
 -13  -2  -2  120.46    6.36
  13   2   3   91.21    5.13
 -13  -2  -3   97.09    5.71
  13   2   4  129.95    6.11
 -13  -2  -4  138.28    6.73
 -13  -2  -5    4.68    2.05
  13   2   5    7.22    2.25
  13   2   6    6.09    2.04
 -13  -2  -6    4.88    2.32
  13   2   7   20.92    2.86
 -13  -2  -7   27.90    3.31
  13   2   8   -0.17    1.86
  13   2   9   20.10    2.95
  13   2  10    7.52    2.54
  13   2  11    5.45    2.25
  13   2  12   19.79    3.22
  13   3  -5   19.13    3.08
  13   3  -4    6.58    2.27
  13   3  -3   26.81    3.18
 -13  -3   3   30.83    3.84
  13   3  -2   23.70    2.93
 -13  -3   2   23.76    3.41
  13   3  -1   28.07    3.07
 -13  -3   1   33.06    3.69
  13   3   0    5.55    1.95
 -13  -3   0    2.83    2.14
  13   3   1    5.16    2.01
 -13  -3  -1    4.37    2.19
  13   3   2  233.27    8.24
 -13  -3  -2  252.99    9.28
  13   3   3  149.69    6.49
 -13  -3  -3  155.55    7.16
  13   3   4   71.36    4.56
 -13  -3  -4   81.04    5.30
  13   3   5    0.56    1.69
 -13  -3  -5    0.83    1.94
  13   3   6   85.11    5.06
 -13  -3  -6   92.32    5.43
  13   3   7    3.13    1.98
 -13  -3  -7   -3.01    2.16
  13   3   8    6.21    2.14
 -13  -3  -8    7.20    2.22
  13   3   9    1.04    1.75
  13   3  10   17.15    2.87
  13   3  11   77.33    5.23
  13   3  12   66.61    5.01
  13   4  -3   17.03    2.69
  13   4  -2   15.50    2.70
 -13  -4   2    9.82    2.55
  13   4  -1    5.68    1.96
 -13  -4   1    7.61    2.69
  13   4   0    7.77    2.03
 -13  -4   0    9.81    2.70
  13   4   1  188.76    7.27
 -13  -4  -1  211.89    8.59
  13   4   2   17.59    2.61
 -13  -4  -2   22.11    3.23
  13   4   3   76.15    4.68
 -13  -4  -3   83.25    5.31
 -13  -4  -4   17.57    2.84
  13   4   4   13.01    2.34
  13   4   5   31.35    3.28
 -13  -4  -5   34.71    3.69
 -13  -4  -6    8.86    2.55
  13   4   6    1.44    1.72
  13   4   7   10.57    2.30
 -13  -4  -7   11.46    2.59
  13   4   8    0.13    1.78
 -13  -4  -8   -0.74    1.94
  13   4   9    7.19    2.18
 -13  -4  -9    8.82    2.45
  13   4  10   99.32    5.74
  13   4  11   25.15    3.39
  13   4  12   76.00    5.27
  13   5  -2    1.84    1.73
  13   5  -1    7.06    2.01
 -13  -5   1    4.57    2.37
  13   5   0   96.00    5.02
 -13  -5   0  106.01    6.26
  13   5   1   -0.64    1.55
 -13  -5  -1   -0.60    1.99
  13   5   2   44.21    3.57
 -13  -5  -2   44.40    4.23
  13   5   3   36.27    3.29
 -13  -5  -3   48.01    4.22
  13   5   4   49.75    3.83
 -13  -5  -4   51.86    4.35
  13   5   5   42.73    3.60
 -13  -5  -5   45.60    4.15
  13   5   6    3.87    1.95
 -13  -5  -6    6.82    2.54
 -13  -5  -7   20.33    3.06
  13   5   7   19.19    2.83
  13   5   8    1.84    1.95
 -13  -5  -8    1.77    1.93
  13   5   9   53.58    4.31
 -13  -5  -9   55.24    4.34
  13   5  10    6.02    2.21
 -13  -5 -10    7.26    2.31
  13   5  11   70.71    5.06
  13   5  12    8.20    2.47
  13   6  -1   -0.11    1.59
  13   6   0   18.40    2.43
 -13  -6   0   24.77    3.58
  13   6   1   41.59    3.41
 -13  -6  -1   37.35    4.00
  13   6   2  100.30    5.08
 -13  -6  -2  112.74    6.40
  13   6   3    8.66    2.10
 -13  -6  -3    3.17    2.26
  13   6   4   64.42    4.16
 -13  -6  -4   68.88    5.01
  13   6   5   -0.95    1.65
 -13  -6  -5    0.40    1.97
  13   6   6   10.84    2.20
 -13  -6  -6   12.87    2.72
  13   6   7   22.67    2.89
 -13  -6  -7   20.69    2.98
 -13  -6  -8   -0.33    1.98
  13   6   8    7.56    2.20
  13   6   9   52.50    4.18
 -13  -6  -9   45.87    4.02
  13   6  10   35.95    3.62
 -13  -6 -10   40.66    3.85
  13   6  11   50.74    4.52
 -13  -6 -11   47.96    4.07
  13   6  12    7.80    2.48
  13   7   1   27.38    2.79
 -13  -7  -1   33.44    4.05
  13   7   2   44.64    3.40
 -13  -7  -2   42.51    4.38
  13   7   3  188.27    6.95
 -13  -7  -3  198.67    8.48
  13   7   4    6.50    1.94
 -13  -7  -4    2.09    2.17
  13   7   5   13.78    2.01
 -13  -7  -5   21.52    3.17
  13   7   6   27.89    3.05
 -13  -7  -6   29.49    3.50
  13   7   7    1.82    1.67
 -13  -7  -7    2.76    2.01
 -13  -7  -8   61.97    4.60
  13   7   8   51.87    4.04
 -13  -7  -9   16.21    2.88
  13   7   9   14.22    2.68
  13   7  10   24.11    3.17
 -13  -7 -10   25.56    3.24
  13   7  11    7.81    2.24
 -13  -7 -11   12.91    2.54
  13   7  12   62.29    4.83
 -13  -7 -12   69.57    4.82
 -13  -8  -2  123.72    6.99
  13   8   3   15.15    2.17
 -13  -8  -3   22.34    3.60
 -13  -8  -4   -0.38    2.08
  13   8   4   -1.83    1.75
  13   8   5   15.98    2.43
 -13  -8  -5   19.71    3.19
  13   8   6    1.96    1.70
 -13  -8  -6    1.70    1.91
 -13  -8  -7   13.23    2.65
  13   8   7   18.11    2.61
  13   8   8    5.39    2.11
 -13  -8  -8    2.05    2.08
 -13  -8  -9   28.54    3.40
  13   8   9   18.36    2.86
 -13  -8 -10   30.22    3.50
  13   8  10   24.52    3.23
  13   8  11   89.38    5.77
 -13  -8 -11   97.46    5.59
  13   8  12    0.01    1.99
 -13  -8 -12    5.53    2.38
 -13  -9  -4   74.73    5.52
 -13  -9  -5    2.00    2.21
  13   9   5    2.66    1.64
  13   9   6    5.91    1.95
 -13  -9  -6    6.00    2.42
  13   9   7   -0.66    1.87
 -13  -9  -7    3.55    2.43
 -13  -9  -8    0.93    2.03
  13   9   8    1.62    1.89
 -13  -9  -9   77.12    5.31
  13   9   9   71.80    4.83
 -13  -9 -10   33.74    3.73
  13   9  10   31.67    3.45
 -13  -9 -11   29.29    3.46
  13   9  11   35.21    3.68
 -13 -10  -6    5.71    2.51
 -13 -10  -7    3.51    2.32
  13  10   7    0.40    1.62
 -13 -10  -8   44.87    4.24
  13  10   8   43.93    3.76
 -13 -10  -9    3.53    2.01
  13  10   9    1.82    1.82
  13  10  10   30.89    3.47
 -13 -10 -10   27.01    3.31
 -13 -10 -11    6.83    2.43
  13  10  11    9.08    2.56
 -13 -11  -9   89.77    5.80
 -13 -11 -10    0.44    2.11
  14  -5   4    5.34    2.44
  14  -5   5    5.33    2.36
  14  -5   6  100.04    6.10
  14  -5   7   49.51    4.52
  14  -4   2   10.80    2.58
  14  -4   3   -2.47    2.28
  14  -4   4    8.55    2.44
  14  -4   5  144.56    7.19
  14  -4   6   -1.06    1.97
  14  -4   7  107.46    6.22
  14  -4   8    3.57    2.18
  14  -3   1    7.71    2.45
  14  -3   2    9.03    2.64
  14  -3   3    6.24    2.34
  14  -3   4  106.74    6.15
  14  -3   5   34.96    3.80
  14  -3   6  116.75    6.39
  14  -3   7   55.39    4.59
  14  -3   8   35.67    3.82
  14  -3   9   54.35    4.68
  14  -2   0    1.13    1.95
  14  -2   1    1.08    1.94
  14  -2   2    7.87    2.43
  14  -2   3    1.19    2.07
  14  -2   4   84.54    5.44
  14  -2   5   50.95    4.38
  14  -2   6   45.34    4.16
  14  -2   7    7.72    2.41
  14  -2   8  116.46    6.50
  14  -2   9    9.08    2.65
  14  -2  10    3.67    1.94
  14  -1  -1    6.97    2.42
  14  -1   0    4.59    2.18
  14  -1   1    0.02    1.87
  14  -1   2   20.73    3.23
  14  -1   3   76.63    5.17
  14  -1   4   24.17    3.35
  14  -1   5    7.04    2.41
  14  -1   6    9.10    2.44
  14  -1   7   35.21    3.86
  14  -1   8   -0.48    1.97
  14  -1   9   12.21    2.70
  14  -1  10    5.40    2.54
  14   0  -2   17.36    3.04
  14   0  -1   14.00    2.69
 -14   0   1    9.99    2.64
  14   0   0   52.67    4.43
 -14   0   0   51.71    4.58
  14   0   1    7.21    2.21
 -14   0  -1    8.30    2.66
  14   0   2   28.05    3.43
 -14   0  -2   25.25    3.34
  14   0   3   -2.86    2.05
 -14   0  -3   -0.07    2.03
  14   0   4    5.97    2.30
  14   0   5  134.97    6.65
  14   0   6   70.42    4.93
  14   0   7   28.35    3.47
  14   0   8    9.53    2.52
  14   0   9   54.95    4.55
  14   0  10    3.96    2.18
  14   0  11   22.17    3.34
  14   1  -2   19.40    3.14
  14   1  -1   13.14    2.66
 -14  -1   1   19.11    3.34
  14   1   0    9.10    2.33
 -14  -1   0   14.40    2.97
  14   1   1   22.37    3.03
 -14  -1  -1   26.90    3.55
  14   1   2    2.10    2.17
 -14  -1  -2    2.70    2.44
  14   1   3   -1.99    1.85
 -14  -1  -3    1.14    2.11
  14   1   4  256.07    9.29
 -14  -1  -4  276.08    9.97
 -14  -1  -5   30.14    3.70
  14   1   5   34.99    3.74
  14   1   6   57.06    4.51
  14   1   7    8.85    2.34
  14   1   8  155.52    7.21
  14   1   9    0.94    2.07
  14   1  10   19.17    3.05
  14   1  11    2.88    2.08
  14   2  -3   94.14    5.78
  14   2  -2   33.30    3.65
  14   2  -1    6.16    2.25
 -14  -2   1    6.64    2.78
  14   2   0    3.62    2.09
 -14  -2   0    4.83    2.41
  14   2   1    0.62    1.86
 -14  -2  -1    0.02    2.06
  14   2   2    2.85    2.09
 -14  -2  -2   -0.64    2.09
  14   2   3   61.47    4.52
 -14  -2  -3   71.35    5.16
  14   2   4    4.87    2.16
 -14  -2  -4   10.55    2.76
  14   2   5   70.78    4.80
 -14  -2  -5   75.88    5.30
  14   2   6   47.37    4.11
 -14  -2  -6   51.02    4.48
  14   2   7   31.03    3.41
 -14  -2  -7   38.99    3.90
  14   2   8   31.21    3.48
  14   2   9    8.03    2.45
  14   2  10    6.90    2.09
  14   2  11    4.23    2.45
  14   3  -3   -1.19    2.00
  14   3  -2   21.55    3.25
  14   3  -1    0.66    1.98
  14   3   0    2.70    1.96
 -14  -3   0    5.05    2.57
  14   3   1    3.42    1.97
 -14  -3  -1   -2.19    2.26
  14   3   2   14.57    2.63
 -14  -3  -2   12.21    2.98
  14   3   3   75.40    4.96
 -14  -3  -3   83.97    5.54
  14   3   4   64.95    4.57
 -14  -3  -4   74.55    5.32
 -14  -3  -5   13.80    2.84
  14   3   5   16.61    2.68
  14   3   6    4.49    2.15
 -14  -3  -6    2.84    2.21
  14   3   7   93.64    5.51
 -14  -3  -7   98.81    5.89
  14   3   8    1.93    1.92
 -14  -3  -8    1.41    2.28
  14   3   9   10.13    2.63
  14   3  10    4.94    2.08
  14   3  11   -3.66    2.15
  14   4  -2    0.55    1.82
  14   4  -1    4.36    2.04
  14   4   0   14.82    2.58
  14   4   1    2.59    1.89
 -14  -4  -1    4.45    2.54
  14   4   2   34.54    3.52
 -14  -4  -2   36.76    3.88
  14   4   3   32.57    3.43
 -14  -4  -3   38.64    4.06
 -14  -4  -4   45.54    4.42
  14   4   4   39.44    3.72
  14   4   5   47.83    4.04
 -14  -4  -5   49.65    4.37
  14   4   6  184.55    7.66
 -14  -4  -6  188.81    8.17
  14   4   7    1.34    1.95
 -14  -4  -7   -1.01    2.03
  14   4   8    2.25    1.93
 -14  -4  -8    3.19    2.30
 -14  -4  -9   73.03    5.14
  14   4   9   61.69    4.67
  14   4  10   -2.36    2.53
  14   4  11    0.25    1.93
  14   5  -1   38.13    3.59
  14   5   0   26.15    3.05
  14   5   1   53.45    4.07
  14   5   2    9.11    2.18
 -14  -5  -2   10.53    2.86
  14   5   3    2.61    1.76
 -14  -5  -3    2.99    2.30
  14   5   4   76.92    4.85
 -14  -5  -4   85.92    5.68
  14   5   5   79.50    4.97
 -14  -5  -5   91.64    5.78
  14   5   6   -2.14    1.98
 -14  -5  -6   -0.20    1.97
 -14  -5  -7    3.27    2.18
  14   5   7   -3.56    1.93
  14   5   8   26.19    3.22
 -14  -5  -8   21.23    2.99
  14   5   9    4.90    2.17
 -14  -5  -9    4.30    2.45
  14   5  10   48.92    4.25
 -14  -5 -10   47.92    4.26
  14   5  11    7.23    2.33
  14   6   1    1.17    1.74
  14   6   2    2.95    2.01
  14   6   3   92.45    5.16
 -14  -6  -3  109.90    6.54
  14   6   4   11.20    2.33
 -14  -6  -4    9.76    2.79
 -14  -6  -5   24.69    3.43
  14   6   5   25.41    3.18
  14   6   6    8.51    2.27
 -14  -6  -6    3.38    2.23
  14   6   7   19.73    2.84
 -14  -6  -7   23.72    3.24
 -14  -6  -8    4.83    2.39
  14   6   8    3.33    1.99
  14   6   9    0.36    1.89
 -14  -6  -9    1.85    1.99
  14   6  10    3.86    2.20
 -14  -6 -10    8.37    2.63
  14   6  11   17.85    2.97
 -14  -6 -11   20.14    3.13
  14   7   3    4.80    1.91
  14   7   4  104.66    5.46
  14   7   5   -0.03    1.78
 -14  -7  -5    3.58    2.63
  14   7   6   14.42    2.62
 -14  -7  -6   20.18    3.26
  14   7   7    4.67    2.05
 -14  -7  -7    6.91    2.54
  14   7   8    3.53    2.05
 -14  -7  -8    3.73    2.13
 -14  -7  -9   -3.34    2.31
  14   7   9   -1.08    1.92
  14   7  10   -0.44    2.16
 -14  -7 -10    1.77    2.04
  14   7  11   12.08    2.94
 -14  -7 -11   14.99    3.05
  14   8   4   21.65    2.66
  14   8   5    1.90    1.88
  14   8   6   96.69    5.37
  14   8   7    7.95    2.36
 -14  -8  -7   11.93    2.86
  14   8   8    1.12    1.88
 -14  -8  -8    3.64    2.19
 -14  -8  -9    7.13    2.46
  14   8   9    9.78    2.30
 -14  -8 -10    0.44    2.00
  14   8  10    4.56    2.16
 -14  -8 -11   10.55    2.79
 -14  -8 -12   67.69    4.99
  14   9   7    1.59    1.76
  14   9   8   51.71    4.19
  14   9   9    3.36    2.20
 -14  -9  -9    1.38    2.12
 -14  -9 -10   22.16    3.33
  14   9  10   18.91    2.95
 -14  -9 -11   33.52    3.82
  14  10   9   10.91    2.60
  14  10  10    8.98    2.66
  15  -1   3    1.77    2.04
  15  -1   4   -0.42    2.02
  15  -1   5   -2.05    2.03
  15  -1   6   28.98    3.71
  15  -1   7    1.60    2.20
  15   0   2    2.95    2.06
  15   0   3   -0.66    2.02
  15   0   4    5.61    2.36
  15   0   5   -3.98    2.29
  15   0   6   41.50    4.05
  15   0   7  107.54    6.29
  15   0   8    3.84    2.35
  15   1   1   16.81    2.95
  15   1   2   -0.49    2.01
  15   1   3    0.37    2.01
  15   1   4   14.15    2.77
 -15  -1  -4   15.06    3.10
  15   1   5   63.04    5.07
  15   1   6   32.25    3.77
  15   1   7   48.53    4.38
  15   1   8   11.96    2.63
  15   2   0   16.37    2.89
  15   2   1    3.59    2.21
  15   2   2  116.69    6.42
  15   2   3    3.97    2.09
  15   2   4   15.84    2.94
 -15  -2  -4   16.58    3.30
 -15  -2  -5   14.12    3.07
  15   2   5    7.63    2.35
 -15  -2  -6   36.34    4.12
  15   2   6   29.75    3.46
  15   2   7   38.43    4.59
  15   2   8   78.72    5.41
  15   2   9   32.44    3.74
  15   3  -1    4.83    2.19
  15   3   0   12.49    2.64
  15   3   1   14.66    2.75
  15   3   2    2.21    2.21
  15   3   3   -1.19    1.98
  15   3   4   -1.10    1.82
 -15  -3  -5   -0.91    2.32
  15   3   5    2.46    1.98
  15   3   6   95.97    5.76
 -15  -3  -6  107.69    6.49
  15   3   7   20.21    3.03
 -15  -3  -7   25.39    3.69
  15   3   8  137.51    7.02
  15   3   9    9.08    2.55
  15   4   0   16.28    2.84
  15   4   1    1.66    2.03
  15   4   2    2.67    1.84
  15   4   3    3.72    1.96
  15   4   4    2.97    1.95
  15   4   5   12.76    2.69
 -15  -4  -6   13.10    3.01
  15   4   6    9.60    2.45
  15   4   7  125.62    6.64
 -15  -4  -7  138.47    7.26
  15   4   8    8.06    2.57
 -15  -4  -8    6.48    2.57
  15   4   9   22.44    3.18
 -15  -4  -9   20.62    3.27
  15   5   1   12.71    2.60
  15   5   2    2.75    2.09
  15   5   3   13.82    2.55
  15   5   4   -2.52    2.00
  15   5   5   17.14    2.86
  15   5   6   91.52    5.56
  15   5   7    4.69    2.19
  15   5   8   10.46    2.53
 -15  -5  -8   13.16    3.09
  15   5   9   25.87    3.49
 -15  -5  -9   18.23    3.25
 -15  -5 -10   36.72    4.13
  15   6   2   21.43    2.95
  15   6   3   13.04    2.43
  15   6   4   24.80    3.14
  15   6   5   37.58    3.64
  15   6   6   44.22    4.02
  15   6   7    4.24    2.18
  15   6   8   91.80    5.66
  15   6   9    0.88    1.95
 -15  -6 -10    8.46    2.71
  15   7   4    3.61    2.10
  15   7   5    7.65    2.34
  15   7   6   41.78    3.87
  15   7   7   92.77    5.53
  15   7   8   -0.62    1.84
  15   7   9    6.60    2.37
  15   8   6   17.96    2.75
  15   8   7   35.80    3.65
  15   8   8    5.34    2.14
  15   8   9   10.38    2.59
  16   4   3   -0.05    2.01
  16   4   4    7.47    2.35
  16   4   5    4.95    2.30
  16   5   3   13.85    3.00
  16   5   4   11.95    2.68
  16   5   5   -2.76    2.15
  16   5   6    5.60    2.41
  16   6   5    0.84    1.87
  16   6   6   13.39    2.80
   0   0   0    0.00    0.00


TITL pvl1032_auto in P-1
REM P-1 (#2 in standard setting)
CELL 0.71073  12.402085  13.049614  13.173711  83.5357  68.5741  86.5437
ZERR   22.00   0.000222   0.000245   0.000240   0.0015   0.0017   0.0015
LATT  1
SFAC C H N O Zn Se
UNIT 22.00 22.00 22.00 22.00 22.00 22.00
REM  CrysAlisPro recorded range (K): Min=170.2; max=173.7; aver:171.9
TEMP -101
TREF
HKLF 4
END
_computing_structure_solution     'SHELXT 2018/2 (Sheldrick, 2018)'
;
_shelx_hkl_checksum   63201

