 
data_pvl854_auto_a
 
_audit_creation_method            'SHELXL-2018/3'
_shelx_SHELXL_version_number      '2018/3'
_chemical_name_systematic         ?
_chemical_name_common             ?
_chemical_melting_point           ?
_chemical_formula_moiety          ?
_chemical_formula_sum
 'C H N O S Zn' 
_chemical_formula_weight          140.46

loop_
 _atom_type_symbol
 _atom_type_description
 _atom_type_scat_dispersion_real
 _atom_type_scat_dispersion_imag
 _atom_type_scat_source
 'C'  'C'   0.0033   0.0016
 'International Tables Vol C Tables 4.2.6.8 and 6.1.1.4'
 'H'  'H'   0.0000   0.0000
 'International Tables Vol C Tables 4.2.6.8 and 6.1.1.4'
 'N'  'N'   0.0061   0.0033
 'International Tables Vol C Tables 4.2.6.8 and 6.1.1.4'
 'O'  'O'   0.0106   0.0060
 'International Tables Vol C Tables 4.2.6.8 and 6.1.1.4'
 'S'  'S'   0.1246   0.1234
 'International Tables Vol C Tables 4.2.6.8 and 6.1.1.4'
 'Zn'  'Zn'   0.2839   1.4301
 'International Tables Vol C Tables 4.2.6.8 and 6.1.1.4'
 
_space_group_crystal_system       monoclinic
_space_group_IT_number            14
_space_group_name_H-M_alt         'P 21/n'
_space_group_name_Hall            '-P 2yn'
 
_shelx_space_group_comment
;
The symmetry employed for this shelxl refinement is uniquely defined
by the following loop, which should always be used as a source of
symmetry information in preference to the above space-group names.
They are only intended as comments.
;
 
loop_
 _space_group_symop_operation_xyz
 'x, y, z'
 '-x+1/2, y+1/2, -z+1/2'
 '-x, -y, -z'
 'x-1/2, -y-1/2, z-1/2'
 
_cell_length_a                    10.7574(4)
_cell_length_b                    13.6295(4)
_cell_length_c                    16.4970(5)
_cell_angle_alpha                 90
_cell_angle_beta                  103.108(3)
_cell_angle_gamma                 90
_cell_volume                      2355.73(14)
_cell_formula_units_Z             27
_cell_measurement_temperature     170(2)
_cell_measurement_reflns_used     ?
_cell_measurement_theta_min       ?
_cell_measurement_theta_max       ?
 
_exptl_crystal_description        ?
_exptl_crystal_colour             ?
_exptl_crystal_density_meas       ?
_exptl_crystal_density_method     ?
_exptl_crystal_density_diffrn     2.673          
_exptl_crystal_F_000              1836
_exptl_transmission_factor_min    ?
_exptl_transmission_factor_max    ?
_exptl_crystal_size_max           ?
_exptl_crystal_size_mid           ?
_exptl_crystal_size_min           ?
_exptl_absorpt_coefficient_mu     7.400
_shelx_estimated_absorpt_T_min    ?
_shelx_estimated_absorpt_T_max    ?
_exptl_absorpt_correction_type    ?
_exptl_absorpt_correction_T_min   ?
_exptl_absorpt_correction_T_max   ?
_exptl_absorpt_process_details    ?
_exptl_absorpt_special_details    ?
_diffrn_ambient_temperature       170(2)
_diffrn_radiation_wavelength      0.71073
_diffrn_radiation_type            MoK\a
_diffrn_source                    ?
_diffrn_measurement_device_type   ?
_diffrn_measurement_method        ?
_diffrn_detector_area_resol_mean  ?
_diffrn_reflns_number             12501
_diffrn_reflns_av_unetI/netI      0.0291
_diffrn_reflns_av_R_equivalents   0.0206
_diffrn_reflns_limit_h_min        -14
_diffrn_reflns_limit_h_max        14
_diffrn_reflns_limit_k_min        -13
_diffrn_reflns_limit_k_max        18
_diffrn_reflns_limit_l_min        -11
_diffrn_reflns_limit_l_max        22
_diffrn_reflns_theta_min          1.959
_diffrn_reflns_theta_max          29.025
_diffrn_reflns_theta_full         25.242
_diffrn_measured_fraction_theta_max   0.852
_diffrn_measured_fraction_theta_full  1.000
_diffrn_reflns_Laue_measured_fraction_max    0.852
_diffrn_reflns_Laue_measured_fraction_full   1.000
_diffrn_reflns_point_group_measured_fraction_max   0.852
_diffrn_reflns_point_group_measured_fraction_full  1.000
_reflns_number_total              5353
_reflns_number_gt                 4536
_reflns_threshold_expression      'I > 2\s(I)'
_reflns_Friedel_coverage          0.000
_reflns_Friedel_fraction_max      .
_reflns_Friedel_fraction_full     .
 
_reflns_special_details
;
 Reflections were merged by SHELXL according to the crystal
 class for the calculation of statistics and refinement.
 
 _reflns_Friedel_fraction is defined as the number of unique
 Friedel pairs measured divided by the number that would be
 possible theoretically, ignoring centric projections and
 systematic absences.
;
 
_computing_data_collection        ?
_computing_cell_refinement        ?
_computing_data_reduction         ?
_computing_structure_solution     'SHELXT 2018/2 (Sheldrick, 2018)'
_computing_structure_refinement 'SHELXL-2018/3 (Sheldrick, 2018)'
_computing_molecular_graphics     ?
_computing_publication_material   ?
_refine_special_details           ?
_refine_ls_structure_factor_coef  Fsqd
_refine_ls_matrix_type            full
_refine_ls_weighting_scheme       calc
_refine_ls_weighting_details
'w=1/[\s^2^(Fo^2^)+(0.0334P)^2^+2.4690P] where P=(Fo^2^+2Fc^2^)/3'
_atom_sites_solution_primary      ?
_atom_sites_solution_secondary    ?
_atom_sites_solution_hydrogens    mixed
_refine_ls_hydrogen_treatment     mixed
_refine_ls_extinction_method      none
_refine_ls_extinction_coef        .
_refine_ls_number_reflns          5353
_refine_ls_number_parameters      350
_refine_ls_number_restraints      0
_refine_ls_R_factor_all           0.0445
_refine_ls_R_factor_gt            0.0343
_refine_ls_wR_factor_ref          0.0853
_refine_ls_wR_factor_gt           0.0793
_refine_ls_goodness_of_fit_ref    1.019
_refine_ls_restrained_S_all       1.019
_refine_ls_shift/su_max           0.001
_refine_ls_shift/su_mean          0.000
 
loop_
 _atom_site_label
 _atom_site_type_symbol
 _atom_site_fract_x
 _atom_site_fract_y
 _atom_site_fract_z
 _atom_site_U_iso_or_equiv
 _atom_site_adp_type
 _atom_site_occupancy
 _atom_site_site_symmetry_order  
 _atom_site_calc_flag
 _atom_site_refinement_flags_posn
 _atom_site_refinement_flags_adp
 _atom_site_refinement_flags_occupancy
 _atom_site_disorder_assembly
 _atom_site_disorder_group
O3 O 0.3514(3) 0.7319(2) 0.86111(16) 0.0797(8) Uani 1 1 d . . . . .
Zn01 Zn 0.27897(2) 0.48449(2) 0.62693(2) 0.02234(8) Uani 1 1 d . . . . .
S002 S 0.26269(6) 1.04451(5) 0.44575(4) 0.03464(15) Uani 1 1 d . . . . .
O1 O -0.08401(17) 0.10679(11) 0.17711(10) 0.0322(4) Uani 1 1 d . . . . .
O004 O -0.06206(17) 0.00994(12) 0.28695(11) 0.0351(4) Uani 1 1 d . . . . .
N006 N 0.53608(17) 0.96059(12) 0.28657(11) 0.0230(4) Uani 1 1 d . . . . .
N007 N 0.39954(18) 0.74819(12) 0.54925(11) 0.0236(4) Uani 1 1 d . . . . .
N008 N 0.64492(19) 1.00455(13) 0.19484(12) 0.0262(4) Uani 1 1 d . . . . .
N009 N 0.33377(18) 0.62015(13) 0.60824(11) 0.0243(4) Uani 1 1 d . . . . .
N00A N 0.35443(19) 1.03643(13) 0.38113(12) 0.0286(4) Uani 1 1 d . . . . .
N00B N 0.29499(19) 0.94280(14) 0.49644(12) 0.0288(4) Uani 1 1 d . . . . .
O00C O 0.3010(2) 0.45437(17) 0.45682(14) 0.0630(7) Uani 1 1 d . . . . .
O2 O 0.18062(18) 0.40253(13) 0.53752(10) 0.0407(4) Uani 1 1 d . . . . .
C00D C 0.3825(2) 0.89706(15) 0.46353(13) 0.0226(4) Uani 1 1 d . . . . .
C00E C 0.4401(2) 0.80453(15) 0.48759(13) 0.0231(4) Uani 1 1 d . . . . .
C00F C 0.4159(2) 0.95002(15) 0.39697(13) 0.0230(4) Uani 1 1 d . . . . .
C00G C 0.2021(2) 0.29453(16) 0.33663(13) 0.0242(4) Uani 1 1 d . . . . .
C00H C 0.1396(2) 0.21611(16) 0.28504(13) 0.0238(4) Uani 1 1 d . . . . .
C00I C 0.5054(2) 0.90973(15) 0.35480(13) 0.0224(4) Uani 1 1 d . . . . .
C00J C 0.0332(2) 0.16828(15) 0.30629(13) 0.0248(5) Uani 1 1 d . . . . .
C00K C 0.3725(2) 0.65144(15) 0.54241(14) 0.0255(5) Uani 1 1 d . . . . .
H00K H 0.380235 0.611491 0.496622 0.031 Uiso 1 1 calc R U . . .
C00L C 0.5586(2) 0.82113(15) 0.37975(14) 0.0258(5) Uani 1 1 d . . . . .
H00L H 0.617814 0.793213 0.351516 0.031 Uiso 1 1 calc R U . . .
C00M C -0.0406(2) 0.08779(16) 0.25385(14) 0.0263(5) Uani 1 1 d . . . . .
C00N C 0.5273(2) 0.76955(15) 0.44707(14) 0.0255(5) Uani 1 1 d . . . . .
H00N H 0.568558 0.708923 0.464225 0.031 Uiso 1 1 calc R U . . .
C00O C 0.1566(2) 0.32141(16) 0.40869(13) 0.0249(5) Uani 1 1 d . . . . .
C00P C 0.5212(2) 1.03834(17) 0.16930(15) 0.0299(5) Uani 1 1 d . . . . .
H00P H 0.488997 1.074589 0.119804 0.036 Uiso 1 1 calc R U . . .
C00Q C 0.2182(2) 0.40011(16) 0.46968(14) 0.0288(5) Uani 1 1 d . . . . .
C00R C 0.6502(2) 0.95773(16) 0.26549(14) 0.0268(5) Uani 1 1 d . . . . .
H00R H 0.724255 0.926283 0.297224 0.032 Uiso 1 1 calc R U . . .
C00S C 0.3771(2) 0.77990(16) 0.62419(14) 0.0280(5) Uani 1 1 d . . . . .
H00S H 0.387382 0.844624 0.646054 0.034 Uiso 1 1 calc R U . . .
C00T C 0.1863(2) 0.18736(17) 0.21487(14) 0.0290(5) Uani 1 1 d . . . . .
H00T H 0.148059 0.133267 0.182196 0.035 Uiso 1 1 calc R U . . .
C00U C 0.0526(2) 0.27365(17) 0.42532(14) 0.0277(5) Uani 1 1 d . . . . .
H00U H 0.021176 0.293105 0.472253 0.033 Uiso 1 1 calc R U . . .
C00V C 0.4533(2) 1.01240(17) 0.22475(15) 0.0296(5) Uani 1 1 d . . . . .
H00V H 0.366045 1.026659 0.222158 0.035 Uiso 1 1 calc R U . . .
C00W C -0.0083(2) 0.19715(16) 0.37500(14) 0.0273(5) Uani 1 1 d . . . . .
H00W H -0.079184 0.164995 0.388705 0.033 Uiso 1 1 calc R U . . .
C00X C 0.3375(2) 0.70046(16) 0.65999(14) 0.0283(5) Uani 1 1 d . . . . .
H00X H 0.315589 0.699728 0.712626 0.034 Uiso 1 1 calc R U . . .
C00Y C 0.2846(2) 0.23570(19) 0.19343(15) 0.0334(5) Uani 1 1 d . . . . .
H00Y H 0.313491 0.215945 0.145612 0.040 Uiso 1 1 calc R U . . .
C00Z C 0.3048(2) 0.34247(18) 0.31150(15) 0.0316(5) Uani 1 1 d . . . . .
H00Z H 0.347362 0.395137 0.344102 0.038 Uiso 1 1 calc R U . . .
C010 C 0.3435(2) 0.31460(19) 0.24171(15) 0.0347(5) Uani 1 1 d . . . . .
H010 H 0.410958 0.348966 0.225709 0.042 Uiso 1 1 calc R U . . .
O4 O -0.0479(4) -0.0661(2) 0.43813(19) 0.1000(15) Uani 0.974(10) 1 d . . P . .
H4B H 0.018(6) -0.102(5) 0.427(4) 0.150 Uiso 0.974(10) 1 d . U P . .
H4A H -0.038(6) -0.035(5) 0.402(5) 0.150 Uiso 0.974(10) 1 d . U P . .
 
loop_
 _atom_site_aniso_label
 _atom_site_aniso_U_11
 _atom_site_aniso_U_22
 _atom_site_aniso_U_33
 _atom_site_aniso_U_23
 _atom_site_aniso_U_13
 _atom_site_aniso_U_12
O3 0.099(2) 0.0769(18) 0.0627(16) -0.0118(13) 0.0167(15) 0.0048(15)
Zn01 0.03066(15) 0.01837(13) 0.01846(13) 0.00004(9) 0.00657(10) -0.00004(10)
S002 0.0413(4) 0.0312(3) 0.0337(3) 0.0045(2) 0.0132(3) 0.0153(3)
O1 0.0454(10) 0.0255(8) 0.0231(8) -0.0007(6) 0.0021(7) -0.0100(7)
O004 0.0470(11) 0.0259(8) 0.0304(9) 0.0025(7) 0.0047(8) -0.0062(7)
N006 0.0284(10) 0.0190(8) 0.0225(9) 0.0013(7) 0.0079(7) 0.0008(7)
N007 0.0314(10) 0.0191(8) 0.0213(9) 0.0017(7) 0.0082(8) -0.0002(7)
N008 0.0319(10) 0.0244(9) 0.0234(9) 0.0031(7) 0.0088(8) 0.0017(8)
N009 0.0316(10) 0.0188(8) 0.0234(9) 0.0004(7) 0.0086(8) 0.0007(7)
N00A 0.0342(11) 0.0230(9) 0.0288(10) 0.0023(8) 0.0077(8) 0.0067(8)
N00B 0.0316(10) 0.0277(10) 0.0286(10) 0.0015(8) 0.0098(8) 0.0059(8)
O00C 0.0747(15) 0.0597(13) 0.0649(14) -0.0377(11) 0.0377(12) -0.0398(12)
O2 0.0548(12) 0.0422(10) 0.0244(9) -0.0121(7) 0.0075(8) -0.0120(9)
C00D 0.0256(11) 0.0201(10) 0.0220(10) -0.0010(8) 0.0053(8) -0.0007(8)
C00E 0.0293(11) 0.0189(10) 0.0212(10) 0.0004(8) 0.0061(9) -0.0022(8)
C00F 0.0264(11) 0.0178(9) 0.0236(10) 0.0003(8) 0.0034(8) 0.0000(8)
C00G 0.0243(11) 0.0241(10) 0.0225(10) 0.0011(8) 0.0016(8) 0.0041(8)
C00H 0.0251(11) 0.0229(10) 0.0209(10) 0.0009(8) 0.0001(8) 0.0048(8)
C00I 0.0281(11) 0.0187(10) 0.0211(10) -0.0002(8) 0.0070(9) -0.0027(8)
C00J 0.0279(11) 0.0215(10) 0.0228(11) -0.0003(8) 0.0009(9) 0.0039(9)
C00K 0.0344(12) 0.0190(10) 0.0239(11) -0.0006(8) 0.0081(9) -0.0016(9)
C00L 0.0311(12) 0.0205(10) 0.0283(11) -0.0004(9) 0.0118(9) 0.0008(9)
C00M 0.0298(12) 0.0214(10) 0.0273(11) -0.0018(9) 0.0058(9) 0.0011(9)
C00N 0.0325(12) 0.0164(10) 0.0281(11) 0.0024(8) 0.0076(9) 0.0030(9)
C00O 0.0271(11) 0.0238(10) 0.0216(10) -0.0016(8) 0.0008(9) 0.0036(9)
C00P 0.0320(12) 0.0294(12) 0.0276(12) 0.0072(9) 0.0057(10) 0.0026(10)
C00Q 0.0301(12) 0.0259(11) 0.0276(12) -0.0043(9) 0.0004(9) 0.0046(9)
C00R 0.0282(12) 0.0272(11) 0.0259(11) 0.0032(9) 0.0081(9) 0.0030(9)
C00S 0.0390(13) 0.0220(11) 0.0247(11) -0.0036(9) 0.0105(10) -0.0012(9)
C00T 0.0330(12) 0.0287(11) 0.0247(11) -0.0019(9) 0.0049(9) 0.0063(10)
C00U 0.0319(12) 0.0297(11) 0.0222(11) -0.0037(9) 0.0074(9) 0.0034(9)
C00V 0.0279(12) 0.0286(11) 0.0315(12) 0.0068(9) 0.0053(9) 0.0029(9)
C00W 0.0285(12) 0.0269(11) 0.0265(11) 0.0002(9) 0.0061(9) -0.0015(9)
C00X 0.0362(13) 0.0264(11) 0.0243(11) -0.0019(9) 0.0109(10) 0.0010(9)
C00Y 0.0337(13) 0.0410(14) 0.0270(12) 0.0001(10) 0.0101(10) 0.0088(11)
C00Z 0.0275(12) 0.0337(12) 0.0320(12) -0.0007(10) 0.0033(10) -0.0002(10)
C010 0.0266(12) 0.0446(14) 0.0341(13) 0.0050(11) 0.0090(10) 0.0006(11)
O4 0.179(4) 0.072(2) 0.0526(18) 0.0203(14) 0.035(2) -0.023(2)
 
_geom_special_details
;
 All esds (except the esd in the dihedral angle between two l.s. planes)
 are estimated using the full covariance matrix.  The cell esds are taken
 into account individually in the estimation of esds in distances, angles
 and torsion angles; correlations between esds in cell parameters are only
 used when they are defined by crystal symmetry.  An approximate (isotropic)
 treatment of cell esds is used for estimating esds involving l.s. planes.
;
 
loop_
 _geom_bond_atom_site_label_1
 _geom_bond_atom_site_label_2
 _geom_bond_distance
 _geom_bond_site_symmetry_2
 _geom_bond_publ_flag
Zn01 O2 1.9583(16) . ?
Zn01 O1 1.9628(16) 4_666 ?
Zn01 N009 1.9858(18) . ?
Zn01 N008 2.0222(19) 4_576 ?
S002 N00A 1.612(2) . ?
S002 N00B 1.616(2) . ?
O1 C00M 1.272(3) . ?
O004 C00M 1.239(3) . ?
N006 C00R 1.351(3) . ?
N006 C00V 1.386(3) . ?
N006 C00I 1.423(3) . ?
N007 C00K 1.350(3) . ?
N007 C00S 1.382(3) . ?
N007 C00E 1.420(3) . ?
N008 C00R 1.319(3) . ?
N008 C00P 1.381(3) . ?
N009 C00K 1.319(3) . ?
N009 C00X 1.383(3) . ?
N00A C00F 1.347(3) . ?
N00B C00D 1.342(3) . ?
O00C C00Q 1.213(3) . ?
O2 C00Q 1.274(3) . ?
C00D C00E 1.422(3) . ?
C00D C00F 1.427(3) . ?
C00E C00N 1.356(3) . ?
C00F C00I 1.420(3) . ?
C00G C00Z 1.424(3) . ?
C00G C00O 1.432(3) . ?
C00G C00H 1.435(3) . ?
C00H C00T 1.417(3) . ?
C00H C00J 1.428(3) . ?
C00I C00L 1.359(3) . ?
C00J C00W 1.367(3) . ?
C00J C00M 1.507(3) . ?
C00L C00N 1.418(3) . ?
C00O C00U 1.375(3) . ?
C00O C00Q 1.516(3) . ?
C00P C00V 1.341(3) . ?
C00S C00X 1.348(3) . ?
C00T C00Y 1.360(3) . ?
C00U C00W 1.400(3) . ?
C00Y C010 1.401(4) . ?
C00Z C010 1.364(3) . ?
 
loop_
 _geom_angle_atom_site_label_1
 _geom_angle_atom_site_label_2
 _geom_angle_atom_site_label_3
 _geom_angle
 _geom_angle_site_symmetry_1
 _geom_angle_site_symmetry_3
 _geom_angle_publ_flag
O2 Zn01 O1 100.48(8) . 4_666 ?
O2 Zn01 N009 122.88(8) . . ?
O1 Zn01 N009 115.76(8) 4_666 . ?
O2 Zn01 N008 97.36(8) . 4_576 ?
O1 Zn01 N008 112.01(7) 4_666 4_576 ?
N009 Zn01 N008 106.94(7) . 4_576 ?
N00A S002 N00B 101.05(10) . . ?
C00M O1 Zn01 111.19(14) . 4_565 ?
C00R N006 C00V 107.17(18) . . ?
C00R N006 C00I 125.23(18) . . ?
C00V N006 C00I 127.24(19) . . ?
C00K N007 C00S 107.59(18) . . ?
C00K N007 C00E 124.34(18) . . ?
C00S N007 C00E 128.05(18) . . ?
C00R N008 C00P 106.07(19) . . ?
C00R N008 Zn01 129.19(16) . 4_675 ?
C00P N008 Zn01 124.42(15) . 4_675 ?
C00K N009 C00X 106.38(18) . . ?
C00K N009 Zn01 126.10(15) . . ?
C00X N009 Zn01 127.52(15) . . ?
C00F N00A S002 106.18(15) . . ?
C00D N00B S002 106.11(15) . . ?
C00Q O2 Zn01 116.85(16) . . ?
N00B C00D C00E 126.9(2) . . ?
N00B C00D C00F 113.50(19) . . ?
C00E C00D C00F 119.56(19) . . ?
C00N C00E N007 121.50(19) . . ?
C00N C00E C00D 118.76(19) . . ?
N007 C00E C00D 119.61(19) . . ?
N00A C00F C00I 126.9(2) . . ?
N00A C00F C00D 113.15(19) . . ?
C00I C00F C00D 119.92(19) . . ?
C00Z C00G C00O 123.9(2) . . ?
C00Z C00G C00H 117.3(2) . . ?
C00O C00G C00H 118.7(2) . . ?
C00T C00H C00J 121.7(2) . . ?
C00T C00H C00G 119.0(2) . . ?
C00J C00H C00G 119.2(2) . . ?
C00L C00I C00F 118.7(2) . . ?
C00L C00I N006 121.03(19) . . ?
C00F C00I N006 120.24(18) . . ?
C00W C00J C00H 120.2(2) . . ?
C00W C00J C00M 117.2(2) . . ?
C00H C00J C00M 122.61(19) . . ?
N009 C00K N007 110.46(19) . . ?
C00I C00L C00N 121.3(2) . . ?
O004 C00M O1 123.4(2) . . ?
O004 C00M C00J 119.8(2) . . ?
O1 C00M C00J 116.71(19) . . ?
C00E C00N C00L 121.7(2) . . ?
C00U C00O C00G 119.4(2) . . ?
C00U C00O C00Q 117.1(2) . . ?
C00G C00O C00Q 123.5(2) . . ?
C00V C00P N008 109.9(2) . . ?
O00C C00Q O2 122.0(2) . . ?
O00C C00Q C00O 122.9(2) . . ?
O2 C00Q C00O 115.0(2) . . ?
N008 C00R N006 110.7(2) . . ?
C00X C00S N007 106.11(19) . . ?
C00Y C00T C00H 121.3(2) . . ?
C00O C00U C00W 121.8(2) . . ?
C00P C00V N006 106.1(2) . . ?
C00J C00W C00U 120.6(2) . . ?
C00S C00X N009 109.46(19) . . ?
C00T C00Y C010 120.2(2) . . ?
C010 C00Z C00G 121.6(2) . . ?
C00Z C010 C00Y 120.6(2) . . ?
 
_refine_diff_density_max    0.449
_refine_diff_density_min   -0.566
_refine_diff_density_rms    0.063

_shelx_res_file
;
TITL pvl854_auto_a.res in P2(1)/n
    pvl854_auto_a.res
    created by SHELXL-2018/3 at 09:59:09 on 22-Dec-2021
REM Old TITL pvl854_auto in P2(1)/n
REM SHELXT solution in P2(1)/n: R1 0.102, Rweak 0.009, Alpha 0.037
REM <I/s>   0.460 for  215 systematic absences,  Orientation as input
REM Formula found by SHELXT:  C24 N10 O2 S Zn
CELL  0.71073  10.7574  13.6295  16.4970   90.000  103.108   90.000
ZERR   27.000   0.0004   0.0004   0.0005    0.000    0.003    0.000
LATT  1
SYMM 1/2-X, 1/2+Y, 1/2-Z
SFAC C H N O S ZN
UNIT 27.00 27.00 27.00 27.00 27.00 27.00
ACTA
TEMP -103
L.S. 10
BOND
LIST 6
FMAP 2
PLAN 20
WGHT    0.033400    2.469000
FVAR       0.36616   0.97350
O3    4    0.351354    0.731854    0.861114    11.00000    0.09879    0.07686 =
         0.06272   -0.01179    0.01666    0.00478
ZN01  6    0.278966    0.484494    0.626929    11.00000    0.03066    0.01837 =
         0.01846    0.00004    0.00657   -0.00004
S002  5    0.262693    1.044511    0.445746    11.00000    0.04131    0.03120 =
         0.03367    0.00451    0.01321    0.01533
O1    4   -0.084013    0.106787    0.177115    11.00000    0.04537    0.02548 =
         0.02312   -0.00065    0.00210   -0.00996
O004  4   -0.062062    0.009936    0.286948    11.00000    0.04699    0.02587 =
         0.03037    0.00254    0.00469   -0.00619
N006  3    0.536075    0.960590    0.286573    11.00000    0.02839    0.01902 =
         0.02255    0.00126    0.00786    0.00080
N007  3    0.399541    0.748190    0.549248    11.00000    0.03141    0.01907 =
         0.02133    0.00174    0.00819   -0.00019
N008  3    0.644924    1.004551    0.194842    11.00000    0.03187    0.02443 =
         0.02345    0.00307    0.00878    0.00167
N009  3    0.333774    0.620145    0.608236    11.00000    0.03163    0.01883 =
         0.02344    0.00044    0.00857    0.00070
N00A  3    0.354427    1.036434    0.381132    11.00000    0.03420    0.02304 =
         0.02877    0.00227    0.00773    0.00675
N00B  3    0.294986    0.942795    0.496435    11.00000    0.03165    0.02774 =
         0.02857    0.00150    0.00982    0.00594
O00C  4    0.301027    0.454374    0.456819    11.00000    0.07472    0.05967 =
         0.06493   -0.03774    0.03766   -0.03980
O2    4    0.180620    0.402531    0.537522    11.00000    0.05482    0.04216 =
         0.02440   -0.01213    0.00746   -0.01204
C00D  1    0.382453    0.897056    0.463529    11.00000    0.02564    0.02008 =
         0.02196   -0.00104    0.00528   -0.00068
C00E  1    0.440137    0.804532    0.487592    11.00000    0.02929    0.01886 =
         0.02125    0.00042    0.00607   -0.00225
C00F  1    0.415915    0.950022    0.396974    11.00000    0.02638    0.01778 =
         0.02361    0.00030    0.00340    0.00001
C00G  1    0.202124    0.294534    0.336633    11.00000    0.02426    0.02408 =
         0.02252    0.00108    0.00165    0.00405
C00H  1    0.139630    0.216114    0.285039    11.00000    0.02510    0.02291 =
         0.02091    0.00085    0.00014    0.00481
C00I  1    0.505446    0.909728    0.354800    11.00000    0.02813    0.01866 =
         0.02111   -0.00023    0.00697   -0.00271
C00J  1    0.033217    0.168283    0.306285    11.00000    0.02789    0.02148 =
         0.02275   -0.00025    0.00090    0.00388
C00K  1    0.372486    0.651439    0.542409    11.00000    0.03439    0.01897 =
         0.02395   -0.00057    0.00810   -0.00159
AFIX  43
H00K  2    0.380235    0.611491    0.496622    11.00000   -1.20000
AFIX   0
C00L  1    0.558572    0.821127    0.379752    11.00000    0.03109    0.02047 =
         0.02831   -0.00043    0.01180    0.00083
AFIX  43
H00L  2    0.617814    0.793213    0.351516    11.00000   -1.20000
AFIX   0
C00M  1   -0.040647    0.087786    0.253845    11.00000    0.02977    0.02143 =
         0.02726   -0.00180    0.00580    0.00107
C00N  1    0.527342    0.769546    0.447067    11.00000    0.03246    0.01636 =
         0.02812    0.00244    0.00757    0.00299
AFIX  43
H00N  2    0.568558    0.708923    0.464225    11.00000   -1.20000
AFIX   0
C00O  1    0.156610    0.321411    0.408693    11.00000    0.02711    0.02382 =
         0.02162   -0.00161    0.00076    0.00363
C00P  1    0.521218    1.038344    0.169299    11.00000    0.03200    0.02942 =
         0.02762    0.00723    0.00568    0.00261
AFIX  43
H00P  2    0.488997    1.074589    0.119804    11.00000   -1.20000
AFIX   0
C00Q  1    0.218201    0.400111    0.469676    11.00000    0.03009    0.02588 =
         0.02762   -0.00433    0.00041    0.00456
C00R  1    0.650248    0.957728    0.265491    11.00000    0.02822    0.02719 =
         0.02592    0.00320    0.00806    0.00302
AFIX  43
H00R  2    0.724255    0.926283    0.297224    11.00000   -1.20000
AFIX   0
C00S  1    0.377053    0.779899    0.624189    11.00000    0.03896    0.02198 =
         0.02471   -0.00360    0.01053   -0.00125
AFIX  43
H00S  2    0.387382    0.844624    0.646054    11.00000   -1.20000
AFIX   0
C00T  1    0.186258    0.187357    0.214875    11.00000    0.03298    0.02866 =
         0.02470   -0.00187    0.00488    0.00631
AFIX  43
H00T  2    0.148059    0.133267    0.182196    11.00000   -1.20000
AFIX   0
C00U  1    0.052574    0.273647    0.425320    11.00000    0.03188    0.02969 =
         0.02223   -0.00368    0.00744    0.00337
AFIX  43
H00U  2    0.021176    0.293105    0.472253    11.00000   -1.20000
AFIX   0
C00V  1    0.453302    1.012396    0.224749    11.00000    0.02789    0.02863 =
         0.03155    0.00678    0.00532    0.00292
AFIX  43
H00V  2    0.366045    1.026659    0.222158    11.00000   -1.20000
AFIX   0
C00W  1   -0.008325    0.197154    0.374995    11.00000    0.02849    0.02694 =
         0.02652    0.00024    0.00613   -0.00151
AFIX  43
H00W  2   -0.079184    0.164995    0.388705    11.00000   -1.20000
AFIX   0
C00X  1    0.337507    0.700457    0.659992    11.00000    0.03625    0.02640 =
         0.02431   -0.00187    0.01086    0.00103
AFIX  43
H00X  2    0.315589    0.699728    0.712626    11.00000   -1.20000
AFIX   0
C00Y  1    0.284625    0.235705    0.193435    11.00000    0.03370    0.04095 =
         0.02703    0.00007    0.01010    0.00884
AFIX  43
H00Y  2    0.313491    0.215945    0.145612    11.00000   -1.20000
AFIX   0
C00Z  1    0.304792    0.342474    0.311497    11.00000    0.02746    0.03370 =
         0.03198   -0.00073    0.00330   -0.00025
AFIX  43
H00Z  2    0.347362    0.395137    0.344102    11.00000   -1.20000
AFIX   0
C010  1    0.343506    0.314597    0.241711    11.00000    0.02657    0.04458 =
         0.03406    0.00503    0.00902    0.00058
AFIX  43
H010  2    0.410958    0.348966    0.225709    11.00000   -1.20000
REM #####
REM #####
REM #####
AFIX   0
REM #####
O4    4   -0.047937   -0.066058    0.438134    21.00000    0.17941    0.07202 =
         0.05262    0.02032    0.03477   -0.02264
H4B   2    0.018213   -0.102281    0.427052    21.00000   -1.50000
H4A   2   -0.038493   -0.034531    0.401777    21.00000   -1.50000
PART 0
HKLF 4




REM  pvl854_auto_a.res in P2(1)/n
REM wR2 = 0.0853, GooF = S = 1.019, Restrained GooF = 1.019 for all data
REM R1 = 0.0343 for 4536 Fo > 4sig(Fo) and 0.0445 for all 5353 data
REM 350 parameters refined using 0 restraints

END

WGHT      0.0334      2.4690

REM Highest difference peak  0.449,  deepest hole -0.566,  1-sigma level  0.063
Q1    1   0.3306  0.7874  0.9051  11.00000  0.05    0.39
Q2    1  -0.1040 -0.1182  0.4196  11.00000  0.05    0.35
Q3    1   0.3911  0.9222  0.4279  11.00000  0.05    0.34
Q4    1   0.1668  0.2569  0.3098  11.00000  0.05    0.33
Q5    1   0.4813  0.9385  0.3895  11.00000  0.05    0.33
Q6    1   0.0062  0.1281  0.2828  11.00000  0.05    0.32
Q7    1   0.1796  0.3651  0.4304  11.00000  0.05    0.32
Q8    1   0.2728  0.5623  0.6235  11.00000  0.05    0.30
Q9    1   0.1037  0.1770  0.3121  11.00000  0.05    0.29
Q10   1   0.5249  0.9369  0.3208  11.00000  0.05    0.29
Q11   1   0.4268  0.8569  0.4823  11.00000  0.05    0.29
Q12   1   0.3976  0.8438  0.4687  11.00000  0.05    0.28
Q13   1   0.4227  0.7829  0.5186  11.00000  0.05    0.28
Q14   1   0.3115  1.0428  0.4165  11.00000  0.05    0.27
Q15   1   0.2807  0.9839  0.4632  11.00000  0.05    0.27
Q16   1   0.5621  0.8135  0.4207  11.00000  0.05    0.27
Q17   1   0.5491  0.8713  0.3755  11.00000  0.05    0.26
Q18   1   0.2356  0.4771  0.4440  11.00000  0.05    0.26
Q19   1   0.3999  0.7006  0.5502  11.00000  0.05    0.26
Q20   1   0.4132  0.9913  0.4010  11.00000  0.05    0.26
;
_shelx_res_checksum   96961

_shelx_hkl_file
;
   0   0   2   13.64    0.86
   0   0  -2   12.73    0.80
   0   0   3    0.71    0.77
   0   0  -3    0.92    0.64
   0   0  -4  566.08   11.29
   0   0   4  561.07   11.29
   0   0  -5    0.09    0.72
   0   0   5    1.00    1.10
   0   0  -6    7.58    1.29
   0   0   6    9.25    1.48
   0   0  -7    0.80    0.87
   0   0   7   -1.83    1.13
   0   0   8  130.56    5.08
   0   0  -8  130.92    5.09
   0   0  -9   -0.73    1.01
   0   0   9    0.37    1.13
   0   0 -10  201.45    7.15
   0   0  10  178.74    6.81
   0   0 -11    0.75    1.39
   0   0  11   -0.20    1.30
   0   0  12 2170.22   42.21
   0   0  13    1.85    1.68
   0   0  14   14.83    2.49
   0   0  15   -0.66    1.75
   0   0  16  351.63   12.59
   0   0  17    2.35    2.00
   0   0  18   31.58    4.05
   0   0  19   -1.49    2.15
   0  -1  -1   51.80    1.38
   0  -1   2  305.66    6.02
   0   1   2  312.20    6.15
   0   1  -2  305.03    6.03
   0  -1  -2  308.26    6.17
   0  -1  -3 1519.36   26.68
   0   1  -3 1538.45   26.50
   0   1   3 1525.34   26.66
   0  -1   3 1513.55   26.50
   0   1  -4  198.90    4.96
   0  -1   4  186.02    4.93
   0   1   4  191.74    5.01
   0  -1  -4  191.31    5.03
   0  -1   5   47.46    2.40
   0   1   5   48.05    2.48
   0  -1  -5   53.52    2.53
   0   1  -5   49.00    2.41
   0  -1  -6    2.05    1.03
   0   1   6    0.42    1.09
   0  -1   6    0.28    1.05
   0   1  -6    1.34    0.97
   0   1   7 1116.02   22.27
   0  -1   7 1123.46   22.18
   0   1  -7 1139.16   22.21
   0  -1  -7 1151.74   22.42
   0   1  -8   16.93    1.79
   0  -1  -8   19.08    1.97
   0  -1   8   16.64    1.95
   0   1   8   13.93    1.90
   0  -1  -9    5.88    1.38
   0   1  -9    3.98    1.19
   0   1   9    1.94    1.30
   0  -1   9    2.66    1.32
   0   1  10   77.02    4.35
   0  -1  10   82.43    4.35
   0   1 -10   91.16    4.58
   0  -1 -10   83.97    4.47
   0   1 -11    9.08    1.66
   0  -1 -11    8.33    1.74
   0  -1  11   10.70    2.02
   0   1  11    7.90    1.97
   0   1  12    0.44    1.45
   0  -1  12    0.00    1.40
   0  -1  13  383.67   11.77
   0   1  13  363.28   11.73
   0   1  14    0.71    1.62
   0  -1  14    0.69    1.63
   0  -1  15    6.48    2.23
   0   1  15    5.87    2.14
   0  -1  16    7.90    2.42
   0   1  16   13.66    2.78
   0   1  17    1.82    1.98
   0  -1  17    6.88    2.64
   0  -1  18   19.93    3.47
   0   1  18   15.63    3.09
   0   1  19  233.20   11.06
   0  -1  19  245.35   11.44
   0   2   0 2744.74   45.59
   0  -2   0 2725.68   45.56
   0   2   1   24.78    0.97
   0  -2  -1   23.07    0.94
   0   2  -1   23.00    0.89
   0  -2   1   23.97    0.90
   0  -2   2    0.93    0.52
   0   2  -2    0.76    0.47
   0  -2   2    3.31    0.51
   0   2  -2    1.08    0.49
   0   2   2    0.84    0.60
   0  -2  -2    1.53    0.56
   0   2  -3  876.35   15.86
   0  -2  -3  874.21   16.09
   0   2   3  871.41   16.11
   0  -2   3  893.48   15.85
   0  -2   3  861.14   15.55
   0  -2  -4    8.54    1.07
   0   2  -4   10.31    1.11
   0  -2   4    8.01    1.08
   0   2   4    8.58    1.21
   0   2   5  228.43    6.09
   0   2  -5  223.87    5.87
   0  -2  -5  234.91    6.14
   0  -2   5  218.65    5.83
   0  -2  -6   94.60    3.83
   0   2  -6   95.94    3.70
   0  -2   6  100.82    3.80
   0   2   6   96.54    3.85
   0  -2  -7    5.46    1.25
   0   2   7    3.90    1.18
   0   2  -7    2.63    0.94
   0  -2   7    7.52    1.44
   0  -2   8  453.36   11.20
   0   2   8  464.30   11.53
   0   2  -8  483.59   11.47
   0  -2  -8  459.66   11.56
   0  -2  -9   21.45    2.21
   0   2  -9   21.27    2.23
   0  -2   9   23.67    2.29
   0   2   9   18.63    2.14
   0  -2 -10    7.58    1.62
   0   2 -10    6.02    1.55
   0   2  10    4.23    1.51
   0  -2  10    7.58    1.73
   0  -2 -11    0.33    1.10
   0   2 -11    0.15    1.12
   0  -2  11    2.67    1.38
   0   2  11    2.24    1.37
   0   2  12  610.38   15.96
   0  -2  12  632.29   15.97
   0   2  13   94.36    5.47
   0  -2  13   95.32    5.41
   0  -2  14    0.77    1.54
   0   2  14    0.28    1.54
   0   2  15   83.76    5.64
   0  -2  15   81.49    5.43
   0   2  16  180.47    8.69
   0  -2  16  176.81    8.49
   0   2  17   20.38    3.37
   0  -2  17   22.89    3.38
   0   2  18   10.87    2.89
   0  -2  18   12.82    3.13
   0   2  19    7.30    2.47
   0  -2  19   16.36    3.21
   0  -3   0    0.89    0.54
   0   3   0    1.00    0.54
   0   3   1    4.44    0.55
   0  -3  -1    4.05    0.59
   0  -3   1    4.92    0.61
   0   3  -1    4.78    0.57
   0   3   1    4.83    0.84
   0   3   2 1243.98   21.69
   0   3  -2 1259.75   21.32
   0  -3   2 1213.30   21.34
   0   3  -2 1254.18   21.40
   0  -3  -2 1222.26   21.71
   0   3   3  762.28   14.34
   0  -3   3  768.53   13.92
   0   3  -3  776.59   13.95
   0  -3   3  735.16   13.68
   0   3  -3  777.01   13.77
   0  -3  -3  732.20   14.29
   0   3  -4  265.07    6.06
   0  -3   4  253.43    6.02
   0   3   4  266.83    6.39
   0  -3   4  246.16    5.65
   0  -3  -4  255.85    6.32
   0  -3   5  498.07   10.49
   0   3  -5  496.99   10.51
   0   3   5  514.03   10.92
   0  -3   5  489.00   10.12
   0  -3  -5  492.04   10.91
   0   3   6   15.39    1.70
   0   3  -6   14.07    1.45
   0  -3   6   15.84    1.61
   0  -3   6   16.35    1.36
   0  -3  -6   18.29    1.70
   0  -3  -7 1750.16   32.66
   0   3   7 1742.85   32.47
   0   3  -7 1737.00   32.14
   0  -3   7 1727.13   32.07
   0  -3  -8    0.36    1.01
   0  -3   8    3.50    1.33
   0   3  -8    1.97    1.14
   0   3   8    2.74    1.31
   0  -3  -9  544.96   13.46
   0   3  -9  540.72   13.05
   0  -3   9  533.11   12.91
   0   3   9  510.38   13.10
   0   3 -10    0.41    1.00
   0  -3 -10    1.12    1.17
   0   3  10    3.19    1.36
   0  -3  10    2.76    1.32
   0  -3 -11  364.78   10.94
   0   3  11  332.41   10.44
   0   3 -11  348.39   10.42
   0  -3  11  330.53   10.14
   0   3  12    5.52    1.74
   0  -3  12    4.74    1.66
   0  -3  13  163.61    7.18
   0   3  13  164.79    7.38
   0  -3  14   15.05    2.52
   0   3  14   16.58    2.71
   0  -3  15  329.32   11.66
   0   3  15  353.53   12.19
   0  -3  16   -2.49    2.20
   0   3  16    1.37    2.08
   0   3  17   64.85    5.43
   0  -3  17   60.14    5.31
   0  -3  18    7.83    2.50
   0   3  18    9.77    2.72
   0   3  19  316.24   13.01
   0  -3  19  303.10   12.74
   0   4   0 5587.21   92.78
   0  -4   0 5650.66   93.67
   0   4   0 5671.89   93.69
   0   4   1  458.51    8.44
   0  -4  -1  433.80    8.45
   0  -4   1  455.96    8.77
   0   4  -1  437.32    8.75
   0   4   1  458.69    9.29
   0   4   2  420.68    8.32
   0   4  -2  426.92    7.90
   0  -4  -2  408.63    8.34
   0   4  -2  419.45    8.21
   0   4   2  415.26    8.98
   0  -4   2  406.11    8.15
   0   4  -3  543.11   10.33
   0   4   3  559.79   10.89
   0  -4   3  526.85   10.26
   0   4  -3  545.14   10.36
   0  -4  -3  539.09   10.87
   0   4   4  857.46   16.16
   0  -4   4  854.59   15.62
   0   4  -4  837.84   15.57
   0   4  -4  824.06   15.32
   0  -4   4  802.67   15.24
   0  -4  -4  814.34   16.11
   0   4  -5   69.05    2.78
   0  -4   5   68.82    2.78
   0   4   5   66.22    3.03
   0  -4   5   68.48    2.55
   0  -4  -5   74.75    3.17
   0   4  -6   68.47    3.01
   0  -4   6   61.77    2.92
   0   4   6   69.70    3.28
   0  -4   6   67.04    2.72
   0  -4  -6   66.89    3.27
   0   4  -7    8.67    1.32
   0   4   7    8.19    1.55
   0  -4   7    6.87    1.35
   0  -4   7    8.21    1.13
   0  -4  -7    7.44    1.38
   0  -4   8  274.74    7.77
   0   4   8  260.50    7.97
   0   4  -8  271.35    7.76
   0  -4   8  258.50    7.13
   0  -4  -8  286.99    8.37
   0   4  -9  181.42    6.29
   0   4   9  164.37    6.33
   0  -4   9  169.66    6.13
   0  -4   9  169.09    5.60
   0  -4  -9  169.59    6.45
   0   4  10    6.34    1.72
   0  -4  10    7.71    1.68
   0  -4  10    7.66    1.37
   0  -4 -10    9.75    1.88
   0   4 -10    8.14    1.54
   0  -4  11  139.71    5.95
   0   4  11  130.69    6.14
   0   4 -11  147.84    6.22
   0  -4  11  138.98    5.50
   0  -4  12  786.67   18.55
   0   4  12  754.28   18.71
   0  -4  12  763.81   17.56
   0  -4  13   10.81    2.31
   0   4  13    4.78    1.85
   0  -4  13    5.88    1.51
   0   4  14  317.04   11.39
   0  -4  14  340.20   11.51
   0  -4  14  358.15   10.83
   0   4  15  140.61    7.50
   0  -4  15  160.13    7.65
   0   4  16  303.48   11.62
   0  -4  16  282.13   11.00
   0   4  17   11.84    2.75
   0  -4  17   10.54    2.69
   0   4  18   39.14    4.60
   0  -4  18   32.92    4.20
   0   4  19   10.59    2.76
   0  -4  19   10.11    2.83
   0   5   0    0.46    0.39
   0   5   0    0.12    0.59
   0  -5   0    0.76    0.65
   0   5   1   23.94    1.17
   0  -5   1   23.72    1.41
   0   5  -1   22.51    1.38
   0   5   1   22.54    1.62
   0   5  -2  719.49   12.80
   0   5   2  717.32   13.36
   0  -5  -2  701.50   13.46
   0   5  -2  710.91   13.44
   0   5   2  723.68   14.39
   0  -5   2  705.87   13.37
   0   5   3  649.43   12.62
   0   5  -3  643.55   11.98
   0  -5  -3  626.43   12.65
   0   5  -3  644.37   12.27
   0  -5   3  624.87   12.14
   0   5   3  657.23   13.50
   0   5  -4  824.58   15.43
   0   5   4  831.48   16.08
   0  -5   4  800.42   15.25
   0   5  -4  841.19   15.41
   0  -5  -4  813.84   16.15
   0   5  -5  251.87    6.27
   0   5   5  268.52    6.86
   0  -5   5  238.70    5.88
   0  -5  -5  252.38    6.83
   0   5  -6  273.08    7.06
   0  -5   6  284.45    7.16
   0   5   6  273.03    7.53
   0  -5   6  269.95    6.61
   0  -5  -6  279.39    7.70
   0   5  -7  134.65    4.72
   0   5   7  129.56    4.96
   0  -5   7  133.50    4.70
   0  -5   7  122.42    4.16
   0  -5  -7  140.34    5.23
   0   5   8   60.04    3.55
   0  -5   8   68.96    3.46
   0   5  -8   64.97    3.41
   0  -5   8   58.53    2.88
   0  -5  -8   63.55    3.63
   0   5   9    7.47    1.62
   0  -5   9    9.17    1.60
   0  -5   9   12.78    1.54
   0   5  -9    7.98    1.42
   0  -5  -9    7.40    1.54
   0  -5  10   80.05    4.24
   0   5 -10   74.69    4.22
   0   5  10   71.09    4.24
   0  -5  10   72.83    3.62
   0  -5 -10   77.90    4.46
   0   5  11   58.22    4.03
   0  -5  11   62.06    3.91
   0   5 -11   59.78    3.82
   0  -5  11   56.72    3.39
   0  -5  12   68.30    4.34
   0   5  12   74.93    4.77
   0  -5  12   68.77    3.94
   0  -5  13   11.86    2.21
   0   5  13   13.84    2.44
   0  -5  13   13.36    1.98
   0  -5  14    1.10    1.63
   0   5  14    2.15    1.81
   0  -5  14   -1.54    1.28
   0   5  15   92.37    5.97
   0  -5  15   84.30    5.52
   0  -5  16   27.13    3.40
   0   5  16   21.53    3.37
   0  -5  17    0.08    1.80
   0   5  17    2.61    2.26
   0   5  18    7.56    2.49
   0  -5  18   14.86    2.97
   0  -5  19   40.89    4.57
   0   6   0  291.17    5.89
   0   6   0  297.40    7.06
   0   6   1  169.74    4.04
   0   6  -1  168.10    4.66
   0   6   1  174.19    5.08
   0  -6   1  171.75    4.67
   0   6   2 1434.92   25.34
   0   6  -2 1444.97   24.68
   0  -6  -2 1372.35   25.38
   0   6  -2 1490.45   25.73
   0  -6   2 1421.51   25.62
   0   6   2 1463.70   26.71
   0   6   3  335.18    7.50
   0   6  -3  328.76    6.82
   0  -6  -3  323.90    7.53
   0   6  -3  323.42    7.30
   0  -6   3  324.86    7.23
   0   6   3  333.96    8.47
   0   6   4  650.09   13.43
   0   6  -4  674.97   12.77
   0  -6  -4  651.20   13.57
   0   6  -4  654.82   12.90
   0   6   4  663.31   14.44
   0  -6   4  652.17   12.81
   0   6  -5  171.61    4.86
   0   6   5  177.64    5.39
   0  -6  -5  171.01    5.45
   0  -6   5  170.06    4.66
   0   6  -5  181.98    4.85
   0  -6  -6    1.70    0.81
   0   6   6    0.42    0.88
   0   6  -6    0.70    0.76
   0  -6   6    0.48    0.58
   0   6  -7  160.62    5.23
   0   6   7  165.60    5.74
   0  -6   7  143.79    4.60
   0  -6  -7  162.86    5.83
   0   6   8  489.27   12.19
   0   6  -8  492.42   11.65
   0  -6   8  458.82   10.71
   0  -6  -8  504.74   12.49
   0   6   9   78.95    4.27
   0  -6   9   78.15    3.95
   0   6  -9   75.78    3.89
   0  -6   9   79.27    3.52
   0  -6  -9   87.53    4.57
   0   6 -10  318.53    9.47
   0  -6  10  338.96    9.61
   0   6  10  321.98    9.94
   0  -6  10  292.48    8.36
   0  -6 -10  328.56   10.17
   0   6 -11  321.47    9.71
   0   6  11  303.80   10.01
   0  -6  11  316.08    9.66
   0  -6  11  294.00    8.61
   0  -6  12  269.26    9.10
   0   6  12  267.33    9.52
   0  -6  12  252.17    8.03
   0   6  13  405.32   12.68
   0  -6  13  386.77   11.97
   0  -6  13  390.60   11.01
   0  -6  14   35.05    3.42
   0   6  14   32.23    3.50
   0  -6  14   32.97    3.06
   0  -6  15  140.00    7.17
   0   6  15  135.23    7.33
   0  -6  16   99.01    6.20
   0   6  16  103.94    6.71
   0   6  17   17.12    3.18
   0  -6  17   12.84    2.76
   0   6  18    4.12    2.28
   0   7   0    0.82    0.47
   0   7   0   -1.14    0.94
   0   7   1 1466.43   25.28
   0   7  -1 1417.42   24.86
   0   7  -1 1459.00   26.48
   0  -7   1 1474.25   26.44
   0   7   1 1453.66   26.99
   0   7   2    3.95    0.77
   0   7  -2    3.18    0.53
   0  -7   2    3.28    0.82
   0   7  -2    0.29    0.79
   0   7   2    3.17    1.12
   0   7  -3  217.40    4.99
   0   7   3  223.23    5.68
   0  -7  -3  213.91    5.73
   0   7  -3  227.13    5.76
   0   7   3  225.14    6.75
   0  -7   3  219.94    5.66
   0   7  -4   63.03    2.40
   0   7   4   64.05    2.82
   0  -7  -4   60.43    2.82
   0   7  -4   68.22    2.72
   0  -7   4   61.64    2.56
   0   7   4   61.38    3.37
   0   7   5  308.44    7.84
   0   7  -5  294.44    7.06
   0  -7  -5  303.25    7.94
   0   7  -5  298.97    7.14
   0   7   5  299.50    8.68
   0  -7   5  282.97    6.96
   0   7   6  600.36   13.20
   0   7  -6  592.62   12.37
   0  -7  -6  584.77   13.33
   0  -7   6  570.77   11.97
   0   7   6  548.35   14.06
   0   7   7  171.16    5.96
   0   7  -7  168.10    5.38
   0  -7   7  163.73    4.92
   0  -7  -7  166.31    6.00
   0   7   8  328.16    9.30
   0   7  -8  315.80    8.64
   0  -7   8  311.79    7.90
   0  -7  -8  327.38    9.54
   0   7  -9  312.56    8.78
   0   7   9  290.05    9.17
   0  -7   9  287.37    7.79
   0  -7  -9  320.84    9.67
   0   7 -10  623.71   14.77
   0   7  10  609.88   15.49
   0  -7  10  588.34   13.52
   0  -7 -10  640.10   15.89
   0   7  11  360.21   11.07
   0   7 -11  353.16   10.48
   0  -7  11  341.91    9.35
   0   7  12    1.26    1.46
   0  -7  12    7.02    1.53
   0   7  13  108.29    6.11
   0  -7  13   99.41    4.77
   0   7  14    8.25    2.03
   0  -7  14   11.39    1.90
   0   7  15  193.79    9.05
   0   7  16   10.90    2.81
   0   7  17  141.78    8.18
   0   7  18   96.96    7.07
   0   8   0    3.75    0.61
   0   8   0    1.19    0.87
   0   8  -1  173.96    3.97
   0   8   1  176.48    4.30
   0   8  -1  174.02    5.29
   0   8   1  175.67    5.66
   0   8   2   72.70    2.62
   0   8  -2   72.88    2.17
   0   8  -2   68.92    2.97
   0   8   2   70.35    3.51
   0  -8   2   69.65    3.01
   0   8   3  886.22   17.01
   0   8  -3  892.99   16.09
   0   8  -3  894.14   17.37
   0   8   3  904.70   18.76
   0  -8   3  863.57   17.16
   0   8  -4  359.67    7.73
   0   8   4  373.51    8.65
   0  -8  -4  344.71    8.67
   0   8  -4  358.90    8.43
   0   8   4  352.90    9.80
   0  -8   4  362.61    8.33
   0   8   5  276.08    7.50
   0   8  -5  275.21    6.71
   0  -8  -5  272.15    7.68
   0   8  -5  292.91    7.16
   0  -8   5  281.21    6.93
   0   8   5  282.25    8.65
   0   8  -6   15.55    1.45
   0   8   6   14.41    1.68
   0  -8  -6   14.21    1.68
   0   8  -6   15.65    1.48
   0  -8   6   13.16    1.28
   0   8   6   15.24    2.06
   0  -8  -7   -0.55    1.10
   0   8   7   -0.66    1.05
   0   8  -7    1.85    0.92
   0  -8   7    0.43    0.64
   0   8   7    1.16    1.34
   0  -8  -8   17.23    2.02
   0   8  -8   16.75    1.77
   0   8   8   17.32    2.45
   0   8   8   16.09    2.01
   0  -8   8   19.51    1.61
   0   8  -9  173.46    6.10
   0   8   9  166.70    6.59
   0  -8   9  166.36    5.36
   0  -8  -9  168.33    6.76
   0   8  10    0.66    1.23
   0  -8  10    0.41    0.83
   0   8 -10    0.82    1.19
   0  -8 -10   -1.15    1.28
   0   8  11    3.55    1.40
   0  -8  11    4.00    1.11
   0   8 -11    2.42    1.07
   0   8  12  301.24   10.39
   0  -8  12  294.03    8.58
   0   8  13  180.32    8.06
   0   8  14    0.06    1.60
   0   8  15    3.23    1.97
   0   8  16   41.66    4.39
   0   8  17   35.09    4.17
   0   8  18   25.15    3.81
   0   9   0   -0.01    0.44
   0   9   0   -0.34    1.04
   0   9  -1  800.06   14.33
   0   9   1  805.66   14.81
   0   9  -1  807.16   16.60
   0   9   1  794.80   17.06
   0   9   2  145.85    4.04
   0   9  -2  138.35    3.31
   0   9  -2  135.83    3.37
   0   9  -2  138.44    4.69
   0   9   2  138.68    5.32
   0  -9   2  137.16    4.69
   0   9  -3  182.38    4.28
   0   9   3  178.24    5.04
   0   9  -3  179.72    5.49
   0   9   3  181.07    6.44
   0  -9   3  176.98    5.36
   0   9   4  495.71   11.07
   0   9  -4  507.79   10.03
   0  -9  -4  488.33   11.23
   0   9  -4  510.04   11.22
   0  -9   4  487.81   10.92
   0   9   4  509.09   12.75
   0   9   5   37.04    2.41
   0   9  -5   36.55    1.96
   0  -9  -5   38.52    2.51
   0   9  -5   39.77    2.32
   0  -9   5   37.51    2.17
   0   9   5   38.81    3.12
   0   9  -6  638.07   13.23
   0   9   6  655.84   14.36
   0  -9  -6  624.30   14.58
   0   9  -6  662.63   13.69
   0   9   6  610.89   15.68
   0  -9   6  635.56   13.31
   0  -9  -7   20.54    2.22
   0   9   7   21.06    2.20
   0   9  -7   18.04    1.64
   0  -9   7   20.31    1.64
   0   9   7   21.90    2.62
   0  -9  -8   19.25    2.23
   0   9  -8   17.76    1.78
   0   9   8   15.85    1.97
   0  -9   8   16.35    1.53
   0   9   8   17.25    2.46
   0  -9  -9   31.96    2.97
   0   9  -9   37.28    2.68
   0   9   9   32.37    2.88
   0  -9   9   29.85    2.11
   0   9   9   29.83    3.17
   0   9  10   99.57    5.19
   0   9 -10   97.62    4.72
   0  -9  10   91.36    3.88
   0   9  10  100.63    5.77
   0   9 -11    7.68    1.72
   0   9  11    4.48    1.89
   0   9  11    3.31    1.67
   0  -9  11    6.35    1.25
   0   9  12   -1.39    2.03
   0   9  12    0.77    1.52
   0   9  13   47.41    4.60
   0   9  13   54.31    4.39
   0   9  14    1.22    1.79
   0   9  14    1.38    1.94
   0   9  15   44.47    4.49
   0   9  15   44.66    4.80
   0   9  16    3.24    2.24
   0   9  16    5.76    2.32
   0   9  17  119.15    7.48
   0  10   0  234.00    5.01
   0  10   0  224.14    7.08
   0  10  -1  449.79    8.32
   0  10   1  448.44    8.88
   0  10  -1  438.26    8.26
   0  10  -1  445.22   10.88
   0  10   1  425.94   11.16
   0  10  -2  256.03    5.17
   0  10   2  258.80    6.10
   0  10  -2  258.59    5.26
   0  10  -2  258.87    7.31
   0  10   2  231.37    7.73
   0  10  -3  182.44    4.15
   0  10   3  184.43    5.14
   0  10  -3  179.51    4.22
   0  10  -3  175.64    5.71
   0  10   3  190.14    6.81
   0 -10   3  172.72    5.56
   0  10  -4  157.03    4.05
   0  10   4  166.06    5.07
   0  10  -4  159.02    5.29
   0  10   4  151.50    6.25
   0 -10   4  148.66    4.99
   0  10   5  280.80    7.53
   0  10  -5  270.34    6.39
   0 -10  -5  257.19    7.55
   0  10  -5  272.47    7.37
   0  10   5  270.44    8.94
   0 -10   5  257.79    7.03
   0  10  -6  109.68    3.84
   0  10   6  111.61    4.61
   0 -10  -6  117.62    4.87
   0  10  -6  117.82    4.34
   0  10   6  115.50    5.68
   0 -10   6  108.49    4.05
   0 -10  -7  105.28    4.90
   0  10  -7  101.56    3.94
   0  10   7  106.14    4.70
   0 -10   7  109.46    3.98
   0  10   7  108.27    5.69
   0 -10  -8  410.91   11.57
   0  10  -8  411.64   10.15
   0  10   8  401.48   11.18
   0 -10   8  418.06    9.78
   0  10   8  408.57   12.57
   0 -10  -9  115.40    5.58
   0  10   9  103.71    5.23
   0  10  -9  103.67    4.53
   0 -10   9  109.67    4.15
   0  10   9   96.74    5.92
   0  10 -10    9.29    1.67
   0  10  10    6.03    1.72
   0 -10  10   10.56    1.43
   0  10  10    7.66    2.07
   0  10  11   98.58    5.60
   0  10 -11  105.94    5.09
   0  10  11  100.15    6.37
   0  10  12   13.82    2.52
   0  10  12   19.64    3.06
   0  10  13   85.03    5.64
   0  10  13   82.91    6.07
   0  10  14    2.91    1.88
   0  10  14    3.21    2.21
   0  10  15   38.71    4.33
   0  10  15   49.64    4.96
   0  10  16   -0.87    2.02
   0  10  17   62.03    5.48
   0  11   0   -0.26    0.34
   0  11   0    2.27    1.18
   0  11   1  310.08    6.49
   0  11  -1  305.65    8.69
   0  11   1  300.33    9.02
   0  11   2  180.00    4.66
   0  11  -2  175.50    6.00
   0  11   2  168.14    6.52
   0  11  -3   22.83    1.01
   0  11   3   25.27    1.71
   0  11  -3   22.24    1.07
   0  11  -3   25.02    2.13
   0  11   3   28.24    2.77
   0  11  -4    4.33    0.63
   0  11   4    4.49    1.03
   0  11  -4    6.02    1.31
   0 -11   4    5.98    1.17
   0  11   4    3.27    1.64
   0  11   5   19.44    1.80
   0  11  -5   21.06    1.35
   0  11  -5   22.11    1.99
   0 -11   5   17.46    1.70
   0  11   5   20.58    2.56
   0  11   6    3.32    1.18
   0  11  -6    4.31    0.88
   0 -11  -6    2.80    0.95
   0  11  -6    3.95    1.16
   0  11   6    3.45    1.67
   0 -11   6    2.91    0.87
   0 -11  -7    5.00    1.41
   0  11  -7    6.08    1.04
   0  11   7    5.78    1.40
   0  11   7    4.08    1.73
   0 -11   7    5.92    1.11
   0 -11  -8   31.93    2.88
   0  11  -8   32.29    2.38
   0  11   8   32.21    2.78
   0  11   8   26.38    3.15
   0 -11   8   29.64    2.09
   0 -11  -9   36.86    3.27
   0  11  -9   35.25    2.60
   0  11   9   33.96    3.03
   0  11   9   37.03    3.75
   0  11  10  144.19    6.59
   0  11  10  149.09    7.71
   0  11  11  116.02    6.04
   0  11  11  127.17    7.35
   0  11  12    3.27    1.59
   0  11  12    3.50    2.31
   0  11  13   16.40    3.01
   0  11  13   25.12    3.90
   0  11  14  107.31    6.62
   0  11  14  112.11    7.40
   0  11  15   12.32    2.91
   0  11  16    3.85    2.30
   0  11  17   20.24    3.64
   0  12   0    7.65    1.59
   0  12   1  299.43    6.11
   0  12  -1  305.20    8.92
   0  12   1  303.25    9.40
   0  12   2   46.70    1.98
   0  12  -2   44.76    3.04
   0  12   2   43.41    3.38
   0  12   3   98.45    3.42
   0  12  -3   97.19    4.36
   0  12   3   96.47    5.14
   0  12   4    1.92    0.84
   0  12  -4    2.32    0.40
   0  12  -4    2.03    0.38
   0  12  -4    3.26    1.21
   0  12   4    2.61    1.59
   0  12   5   65.34    3.21
   0  12  -5   60.68    2.12
   0  12  -5   65.21    3.42
   0  12   5   65.85    4.51
   0  12   6    3.84    1.10
   0  12  -6    3.21    0.80
   0  12  -6    2.40    0.93
   0 -12   6    3.90    1.02
   0  12   6    3.90    1.75
   0  12   7   32.36    2.66
   0  12  -7   34.52    2.44
   0  12   7   32.68    3.44
   0 -12  -8    3.83    1.46
   0  12   8   11.26    1.90
   0  12   8   12.97    2.60
   0  12   9   51.00    3.65
   0  12   9   48.30    4.40
   0  12  10   -0.39    1.27
   0  12  10   -1.82    2.02
   0  12  11   29.65    3.20
   0  12  11   27.08    3.73
   0  12  12   22.60    2.93
   0  12  12   26.87    3.91
   0  12  13  147.50    7.49
   0  12  13  143.17    8.42
   0  12  14   -0.83    1.88
   0  12  15   57.04    5.13
   0  12  16   15.64    3.20
   0  13   0    0.39    1.28
   0  13  -1   74.28    4.13
   0  13   1   71.50    4.30
   0  13   2  518.57    9.96
   0  13  -2  519.57   13.04
   0  13   2  503.25   13.92
   0  13   3   13.19    1.17
   0  13  -3   11.31    1.75
   0  13   3   11.21    2.06
   0  13   4   11.18    1.36
   0  13  -4   13.09    1.85
   0  13   4    8.34    1.89
   0  13   5    6.28    1.28
   0  13  -5    5.68    1.37
   0  13   5    3.63    1.61
   0  13   6  208.18    6.58
   0  13  -6  202.74    6.63
   0  13   6  189.47    8.39
   0  13   7    4.89    1.43
   0  13  -7    4.12    1.25
   0  13   7    6.96    2.27
   0  13   8   46.59    3.36
   0  13   8   44.23    4.33
   0  13   9   30.90    2.99
   0  13   9   32.32    3.96
   0  13  10  225.04    8.43
   0  13  10  222.77   10.19
   0  13  11   28.09    3.06
   0  13  11   29.42    3.98
   0  13  12   29.85    3.34
   0  13  12   29.58    4.03
   0  13  13   42.49    4.23
   0  13  14   87.42    6.07
   0  13  15   33.96    4.15
   0  14   0  107.55    5.38
   0  14  -1  271.08    8.92
   0  14   1  268.60    9.29
   0  14  -2   26.18    2.59
   0  14   2   24.23    2.77
   0  14  -3    2.13    1.30
   0  14   3    1.11    1.61
   0  14  -4    6.95    1.68
   0  14   4    7.57    2.07
   0  14  -5  149.11    5.76
   0  14   5  142.24    7.20
   0  14   6   13.91    2.68
   0  14   7  181.84    8.62
   0  14   8   23.30    3.47
   0  14   9   51.22    4.86
   0  14  10   19.00    3.51
   0  14  11  119.38    7.68
   0  15   0   -1.00    1.36
   0  15   1    5.74    1.85
   0  15  -1    4.09    1.27
   0  15  -2  145.03    6.28
   0  15   2  137.77    6.75
   0  15  -3   52.57    3.61
   0  15   3   47.75    4.07
   0  15   4   71.99    5.10
   0  15   5    2.53    2.00
   0  15   6  141.88    7.62
   0  15   7    4.46    2.25
   0  15   8   30.04    3.96
   0  15   9   -0.89    2.07
   0  15  10   52.81    5.17
   0  16   0   15.10    2.37
   0  16   1  104.01    5.80
   0  16   2    2.34    1.55
   0  16   3   35.95    3.76
   0  16   4    2.48    1.75
   0  16   5   11.10    2.67
   0  16   6   -2.06    1.96
   0  16   7  270.30   11.46
   0  16   8    4.41    2.08
   0  16   9   90.24    6.71
   0  17   3    6.03    2.16
   0  17   4    1.46    2.01
   0  17   5    4.14    2.12
   0  17   6   47.90    4.75
   0  17   7    3.27    1.99
   0  17   8   -1.54    2.49
  -1   0  19    0.25    2.00
  -1   0  18   -3.03    2.03
  -1   0  17   41.03    4.39
  -1   0  16    0.42    1.91
  -1   0  15   80.68    5.39
  -1   0  14    2.52    1.85
  -1   0  13   18.00    2.70
  -1   0  12    0.04    1.51
  -1   0  11  560.59   14.53
   1   0 -11  606.00   14.94
   1   0 -10    1.11    0.99
  -1   0  10    0.06    1.26
   1   0  -9  789.61   17.17
  -1   0   9  755.19   16.99
  -1   0   8    1.92    1.30
   1   0  -8    0.63    0.99
   1   0  -7 4159.68   71.71
  -1   0   7 4141.68   71.66
  -1   0   6    0.68    1.09
   1   0  -6    0.96    0.92
  -1   0   5 2048.21   36.10
   1   0  -5 2040.97   36.14
   1   0  -4    1.16    0.81
  -1   0   4    1.17    1.00
   1   0  -3   72.24    2.39
  -1   0   3   69.36    2.48
   1   0  -2    0.98    0.38
  -1   0   2    0.91    0.44
  -1   0   1  261.39    4.95
  -1   0   0    0.89    0.39
   1   0   1 2427.12   41.50
   1   0   1 2422.65   41.41
  -1   0  -1 2544.44   41.46
   1   0   2    0.45    0.65
  -1   0  -2    1.39    0.67
   1   0   3 1045.02   19.36
  -1   0  -3 1077.09   19.37
  -1   0  -4    2.25    0.89
   1   0   4    1.12    1.05
  -1   0  -5 4264.49   73.25
   1   0   5 4311.04   73.19
  -1   0  -6   -0.82    0.93
   1   0   6   -0.28    1.03
  -1   0  -7   11.04    1.55
   1   0   7    9.96    1.60
  -1   0  -8   -0.14    0.98
   1   0   8    0.74    1.20
  -1   0  -9  852.97   18.30
   1   0   9  771.02   17.83
  -1   0 -10    0.24    1.32
   1   0  10   -0.59    1.32
  -1   0 -11   38.24    3.18
   1   0  11   37.02    3.27
   1   0  12    2.97    1.46
   1   0  13  593.05   16.08
   1   0  14    1.14    1.66
   1   0  15  126.79    7.00
   1   0  16    0.25    1.76
   1   0  17  281.76   11.47
   1   0  18   -1.02    2.10
   1   0  19   71.13    6.25
  -1  -1  20    3.77    2.59
  -1  -1  19    3.39    2.62
  -1   1  19    2.22    2.43
  -1  -1  18  179.58    9.04
  -1   1  18  171.50    8.97
  -1   1  17    9.11    2.63
  -1  -1  17    9.49    2.68
  -1  -1  16  131.82    7.19
  -1   1  16  128.15    7.22
  -1  -1  15   26.10    3.41
  -1   1  15   25.97    3.33
  -1   1  14  792.07   19.60
  -1  -1  14  748.01   19.34
  -1  -1  13   -2.04    1.66
  -1   1  13    1.62    1.44
  -1  -1  12    1.39    1.32
  -1   1  12    1.51    1.55
   1  -1 -11   17.06    2.17
  -1  -1  11   18.23    2.41
   1   1 -11   15.74    2.02
  -1   1  11   15.63    2.25
   1   1 -10  736.97   16.64
  -1   1  10  666.38   16.27
  -1  -1  10  690.78   16.34
   1  -1 -10  743.96   16.76
   1   1  -9  299.63    8.54
  -1   1   9  283.63    8.51
   1  -1  -9  278.59    8.41
  -1  -1   9  278.45    8.30
   1   1  -8  421.37   10.38
  -1  -1   8  397.59   10.24
  -1   1   8  400.74   10.29
   1  -1  -8  411.55   10.42
   1   1  -7    7.32    1.30
  -1  -1   7    5.70    1.37
   1  -1  -7    4.78    1.20
  -1   1   7    4.29    1.30
  -1   1   6  737.64   14.92
   1   1  -6  739.80   14.94
  -1  -1   6  725.57   14.88
   1  -1  -6  704.11   14.85
  -1  -1   5   27.72    1.93
   1  -1  -5   26.76    1.77
  -1   1   5   27.44    1.92
   1   1  -5   27.53    1.82
   1  -1  -4  344.41    7.74
  -1  -1   4  358.41    7.81
   1   1  -4  366.44    7.76
  -1   1   4  345.80    7.73
   1  -1  -3   85.26    2.68
   1   1  -3   85.41    2.65
  -1   1   3   85.97    2.69
  -1   1   3   80.14    2.73
  -1   1   2 4191.30   69.74
   1  -1  -2 4151.22   69.78
   1  -1  -2 4178.65   69.91
  -1   1   2 4269.32   69.90
   1  -1  -1 1203.38   20.66
  -1   1   1 1188.85   20.67
   1  -1   0  151.81    3.44
  -1   1   0  154.11    3.45
  -1   1  -1  114.50    2.92
   1  -1   1  108.97    2.89
   1   1   1  114.78    2.94
  -1  -1  -1  115.41    2.95
  -1   1  -1  110.28    2.61
   1  -1   1  104.29    2.60
   1  -1   2 2907.37   49.96
   1   1   2 3042.16   50.02
  -1   1  -2 2902.78   49.67
  -1  -1  -2 2930.67   50.05
   1  -1   2 2987.86   49.65
  -1  -1  -3   42.90    2.06
  -1   1  -3   42.74    1.91
   1   1   3   42.15    2.15
   1  -1   3   46.83    2.06
  -1  -1  -4  376.02    8.27
  -1   1  -4  354.11    7.98
   1   1   4  359.49    8.23
   1  -1   4  342.87    7.95
  -1   1  -5   55.36    2.63
  -1  -1  -5   50.21    2.65
   1   1   5   53.74    2.80
   1  -1   5   53.67    2.70
  -1  -1  -6 1267.24   24.27
  -1   1  -6 1263.47   24.03
   1  -1   6 1256.55   23.98
   1   1   6 1252.08   24.21
  -1   1  -7   -1.07    0.99
  -1  -1  -7   -1.52    1.06
   1  -1   7   -0.13    1.11
   1   1   7    0.25    1.04
  -1   1  -8   50.36    3.14
  -1  -1  -8   44.87    3.03
   1   1   8   52.62    3.32
   1  -1   8   55.86    3.29
  -1  -1  -9   11.22    1.65
  -1   1  -9   12.49    1.79
   1   1   9   11.59    1.93
   1  -1   9    6.87    1.56
  -1  -1 -10  349.12   10.30
  -1   1 -10  347.69   10.13
   1   1  10  312.36    9.78
   1  -1  10  313.02    9.70
  -1   1 -11   40.74    3.36
  -1  -1 -11   40.29    3.55
   1   1  11   39.82    3.41
   1  -1  11   50.92    3.65
   1  -1  12    3.02    1.50
   1   1  12    2.14    1.75
   1   1  13    4.88    1.88
   1  -1  13    2.69    1.48
   1  -1  14  681.74   18.25
   1   1  14  699.90   18.47
   1   1  15   10.42    2.51
   1  -1  15    8.55    2.38
   1  -1  16   15.86    2.82
   1   1  16   15.80    2.92
   1  -1  17   29.32    3.75
   1   1  17   22.46    3.46
   1   1  18   57.10    5.44
   1  -1  18   77.72    6.05
   1   1  19   24.37    3.72
   1  -1  19   35.72    4.44
  -1  -2  20    9.97    2.91
  -1  -2  19   88.02    6.51
  -1   2  19   75.64    6.24
  -1   2  18   12.62    2.90
  -1  -2  18   13.38    2.87
  -1   2  17  331.32   12.54
  -1  -2  17  324.74   12.32
  -1   2  16    2.87    2.01
  -1  -2  16    0.96    1.84
  -1   2  15   10.68    2.20
  -1  -2  15   11.36    2.56
  -1  -2  14   36.11    3.56
  -1   2  14   34.46    3.49
  -1  -2  13   48.01    3.94
  -1   2  13   43.59    3.74
  -1  -2  12    0.87    1.46
  -1   2  12   -0.51    1.49
  -1   2  11  292.32    9.46
   1  -2 -11  311.22    9.75
   1   2 -11  315.11    9.60
  -1  -2  11  295.90    9.37
   1  -2 -10  276.95    8.67
   1   2 -10  271.70    8.49
  -1  -2  10  275.82    8.50
  -1   2  10  259.93    8.42
  -1  -2   9  198.25    6.76
   1   2  -9  204.87    6.75
  -1   2   9  196.13    6.77
   1  -2  -9  201.09    6.88
   1  -2  -8   11.28    1.58
  -1   2   8    9.68    1.58
   1   2  -8    9.99    1.54
  -1  -2   8    6.53    1.50
  -1  -2   7 1156.15   22.38
   1  -2  -7 1146.09   22.50
  -1   2   7 1135.95   22.37
   1   2  -7 1148.95   22.37
   1  -2  -6  139.64    4.68
   1   2  -6  143.06    4.64
  -1  -2   6  140.87    4.65
  -1   2   6  143.29    4.71
   1  -2  -5   89.65    3.36
   1   2  -5   98.17    3.45
  -1   2   5   96.04    3.51
  -1  -2   5   98.99    3.54
   1  -2  -4  240.75    5.82
   1   2  -4  244.40    5.82
  -1   2   4  236.81    5.79
  -1   2   3  338.73    7.00
   1  -2  -3  336.48    7.02
   1   2  -3  326.36    7.09
  -1   2   3  342.30    7.40
  -1   2   2   39.04    1.48
   1  -2  -2   36.13    1.42
   1  -2  -2   42.50    1.82
  -1   2   2   45.33    1.92
   1  -2  -1 2592.39   42.90
   1  -2  -1 2596.43   43.79
  -1   2   1 2556.85   43.79
  -1   2   0  503.28    9.61
   1  -2   0  507.38    9.62
  -1   2  -1 2072.63   35.00
   1  -2   1 2060.34   34.96
  -1   2  -1 2032.81   34.19
  -1  -2  -1 1974.16   35.01
   1  -2   1 2067.45   34.18
   1   2   1 2068.67   35.05
   1  -2   2 1295.47   23.04
  -1   2  -2 1355.54   23.56
   1  -2   2 1300.79   23.49
  -1   2  -2 1358.16   23.03
   1   2   2 1377.12   23.73
  -1  -2  -2 1322.93   23.74
   1  -2   3 2431.33   41.97
   1  -2   3 2432.18   42.28
  -1  -2  -3 2503.74   42.63
   1   2   3 2430.90   42.61
  -1   2  -3 2505.40   42.01
  -1   2  -4   23.53    1.60
   1  -2   4   29.12    1.74
   1  -2   4   26.03    1.71
  -1  -2  -4   30.10    1.92
   1   2   4   28.19    2.03
  -1   2  -5 2646.71   46.24
   1   2   5 2678.39   46.74
   1  -2   5 2633.49   46.16
   1  -2   5 2622.31   46.28
  -1  -2  -5 2695.96   46.84
  -1  -2  -6  474.98   11.17
   1   2   6  464.87   11.11
   1  -2   6  463.85   10.70
  -1   2  -6  488.76   10.82
  -1  -2  -7  124.84    4.92
   1  -2   7  114.08    4.53
   1   2   7  124.46    4.91
  -1   2  -7  125.98    4.65
  -1  -2  -8  102.93    4.66
   1  -2   8   94.77    4.32
  -1   2  -8  102.44    4.46
   1   2   8   99.01    4.60
  -1  -2  -9  150.30    6.07
   1  -2   9  154.54    5.95
   1   2   9  143.23    5.97
  -1   2  -9  158.77    5.96
  -1  -2 -10  229.93    8.08
  -1   2 -10  218.90    7.70
   1  -2  10  215.99    7.57
   1   2  10  209.85    7.64
  -1   2 -11  434.38   12.04
   1  -2  11  381.74   11.39
   1   2  11  401.95   11.81
   1  -2  12   32.78    3.13
   1   2  12   33.05    3.23
   1   2  13   36.79    3.57
   1  -2  13   37.82    3.52
   1   2  14   60.87    4.71
   1  -2  14   56.66    4.44
   1   2  15   14.84    2.84
   1  -2  15   12.68    2.59
   1  -2  16   -1.29    1.96
   1   2  16    2.14    1.79
   1  -2  17  167.67    8.56
   1   2  17  145.65    8.23
   1  -2  18  101.04    6.96
   1   2  18  110.78    7.23
   1  -2  19   -0.94    2.38
   1   2  19   -0.50    2.04
  -1  -3  20    2.67    2.40
  -1   3  19  100.08    7.07
  -1  -3  19   88.74    6.66
  -1   3  18  235.36   10.81
  -1  -3  18  259.53   11.02
  -1   3  17   44.05    4.48
  -1  -3  17   38.44    4.25
  -1   3  16   12.43    2.76
  -1  -3  16   15.50    2.89
  -1   3  15    9.99    2.39
  -1  -3  15    9.04    2.15
  -1  -3  14  891.26   21.64
  -1   3  14  896.37   21.84
  -1   3  13  124.65    6.30
  -1  -3  13  133.50    6.40
  -1   3  12    5.91    1.87
  -1  -3  12    7.44    1.84
   1  -3 -11  372.55   10.89
  -1  -3  11  336.87   10.29
   1   3 -11  386.02   10.80
  -1   3  11  331.85   10.46
   1  -3 -10  418.32   11.61
  -1   3  10  421.74   11.51
   1   3 -10  435.73   11.44
  -1  -3  10  410.95   11.26
   1  -3  -9   28.46    2.49
   1   3  -9   30.68    2.51
  -1   3   9   22.91    2.32
  -1  -3   9   28.79    2.47
   1  -3  -8   44.55    2.88
  -1  -3   8   44.61    2.84
  -1   3   8   39.48    2.87
   1   3  -8   48.28    2.90
   1  -3  -7  179.33    5.91
  -1  -3   7  184.87    5.79
   1   3  -7  194.26    5.93
  -1   3   7  184.68    5.91
  -1  -3   6 1482.44   26.93
   1  -3  -6 1439.78   27.01
   1   3  -6 1441.50   26.81
  -1   3   6 1430.64   26.95
  -1   3   5   73.39    3.06
   1  -3  -5   72.66    2.99
   1   3  -5   72.66    2.93
   1  -3  -4   35.69    1.91
   1   3  -4   39.35    1.94
  -1   3   4   38.72    1.98
  -1  -3   4   36.73    1.25
  -1   3   4   38.57    2.26
  -1   3   3  766.19   13.93
   1  -3  -3  742.34   13.90
  -1   3   3  737.56   14.65
   1  -3  -2  330.23    6.57
  -1   3   2  338.47    6.57
   1  -3  -2  343.07    7.48
  -1   3   2  335.13    7.48
   1  -3  -1 2369.58   41.08
   1   3  -1 2407.77   39.89
  -1   3   1 2383.57   41.10
  -1   3   0  760.50   14.00
   1  -3   0  732.22   13.91
  -1   3  -1  345.31    7.34
   1  -3   1  341.86    7.28
   1   3   1  353.18    7.37
   1  -3   2 9181.94  150.34
   1  -3   2 9066.62  151.22
  -1   3  -2 9262.24  151.31
  -1  -3  -2 8862.32  151.52
  -1   3  -2 9152.70  150.36
   1   3   2 9201.67  151.42
   1  -3   3  480.09    9.43
  -1   3  -3  479.39    9.47
  -1   3  -3  502.33   10.06
   1  -3   3  476.39    9.94
  -1  -3  -3  485.75   10.28
   1   3   3  483.24   10.25
   1  -3   4  123.30    3.71
  -1   3  -4  121.00    3.71
   1  -3   4  121.40    3.88
  -1  -3  -4  131.15    4.29
   1   3   4  130.72    4.28
   1  -3   5  386.26    8.64
  -1   3  -5  391.41    8.69
   1   3   5  377.37    9.15
   1  -3   5  361.72    8.69
  -1  -3  -5  375.60    9.27
  -1   3  -6 1757.65   31.69
   1  -3   6 1702.36   31.57
   1   3   6 1747.23   32.34
   1  -3   6 1752.47   31.78
  -1  -3  -6 1720.98   32.42
   1  -3   7   21.49    1.96
   1  -3   7   18.54    1.84
   1   3   7   18.24    1.99
  -1  -3  -7   16.44    1.87
  -1   3  -7   21.73    1.91
   1   3   8   92.54    4.43
   1  -3   8   87.19    4.10
  -1   3  -8   88.72    4.15
   1  -3   8   95.33    4.13
  -1  -3  -8   95.58    4.50
   1  -3   9  430.74   11.39
  -1   3  -9  466.68   11.73
   1   3   9  437.18   11.86
   1  -3   9  451.00   11.41
  -1  -3  -9  460.49   12.22
  -1   3 -10  121.23    5.37
   1   3  10  113.18    5.40
   1  -3  10  106.51    5.04
  -1  -3 -10  116.58    5.59
   1   3  11  286.35    9.63
   1  -3  11  276.77    9.16
  -1   3 -11  306.64    9.62
   1   3  12    1.19    1.49
   1  -3  12    2.49    1.56
   1   3  13  227.59    9.02
   1  -3  13  226.68    8.66
   1   3  14  343.78   11.86
   1  -3  14  326.89   11.30
   1  -3  15   11.42    2.30
   1   3  15   13.96    2.74
   1   3  16   35.23    4.13
   1  -3  16   48.11    4.55
   1  -3  17   29.02    3.79
   1   3  17   24.47    3.64
   1  -3  18  102.50    6.91
   1   3  18  112.40    7.44
   1  -3  19    1.50    1.98
  -1   4  19    6.41    2.74
  -1   4  18    2.34    2.31
  -1  -4  18    3.23    2.19
  -1   4  17  103.10    6.72
  -1  -4  17  102.24    6.60
  -1   4  16    2.45    1.85
  -1  -4  16    2.57    1.83
  -1   4  15   43.62    4.24
  -1  -4  15   38.33    3.97
  -1  -4  14  113.59    6.13
  -1   4  14  105.31    6.15
  -1  -4  13   94.66    5.35
  -1   4  13   96.42    5.51
  -1   4  12   61.96    4.14
  -1  -4  12   61.82    4.06
   1  -4 -11  472.21   12.93
  -1   4  11  465.81   12.78
  -1  -4  11  444.76   12.42
   1   4 -11  486.03   12.76
   1   4 -10    8.12    1.49
  -1   4  10    6.56    1.62
  -1  -4  10    7.28    1.61
   1  -4 -10    8.35    1.71
  -1   4   9  432.17   11.32
   1   4  -9  442.64   11.23
  -1  -4   9  428.43   11.16
   1  -4  -9  443.10   11.51
   1   4  -8  531.23   12.29
   1  -4  -8  531.89   12.57
  -1   4   8  504.72   12.27
  -1  -4   8  497.35   12.09
   1  -4  -7  380.10    9.50
  -1   4   7  361.46    9.28
   1   4  -7  378.32    9.20
  -1  -4   7  354.25    7.93
   1  -4  -6  319.92    8.01
  -1   4   6  307.36    7.84
   1   4  -6  309.56    7.71
  -1  -4   6  290.99    6.47
  -1   4   5  141.98    4.33
   1   4  -5  134.73    4.22
   1  -4  -5  137.38    4.34
  -1  -4   5  125.39    3.16
  -1   4   5  132.90    4.75
  -1   4   4   56.29    2.44
   1   4  -4   56.85    2.41
   1  -4  -4   57.33    2.41
  -1  -4   4   57.40    1.59
  -1   4   4   54.26    2.86
   1  -4  -3  338.40    7.05
  -1   4   3  326.67    6.95
   1   4  -3  328.78    6.07
  -1   4   3  310.19    7.85
  -1  -4   3  332.82    6.03
  -1   4   2   89.24    2.43
   1  -4  -2   88.22    2.44
  -1   4   2   86.31    3.24
   1  -4  -2   96.93    3.31
   1   4  -2   90.22    2.18
   1   4  -1  552.05   10.08
   1  -4  -1  534.55   11.12
  -1   4   1  553.12   11.26
   1  -4   0  301.21    6.71
  -1   4   0  274.06    6.60
   1   4   1  395.44    8.34
  -1   4  -1  399.17    8.53
   1  -4   1  399.45    8.47
   1  -4   2    8.08    0.63
   1   4   2   12.24    1.36
  -1  -4  -2    8.38    1.06
  -1   4  -2    7.98    0.64
  -1   4  -2    8.22    1.13
   1  -4   2    7.54    0.97
  -1   4  -3  944.56   16.94
   1  -4   3  951.82   16.93
  -1   4  -3  949.09   17.79
   1  -4   3  916.21   17.67
   1   4   3  955.53   18.09
  -1  -4  -3  942.64   18.09
   1  -4   4   34.59    1.77
  -1   4  -4   33.97    1.77
  -1   4  -4   38.80    2.16
   1  -4   4   32.77    1.92
  -1  -4  -4   30.78    2.11
   1   4   4   33.57    2.18
   1   4   5 2144.43   38.15
   1  -4   5 2109.88   37.12
  -1   4  -5 2144.17   37.16
   1  -4   5 2036.88   37.35
  -1  -4  -5 2117.33   38.26
   1   4   6  634.32   14.10
  -1   4  -6  635.82   13.32
   1  -4   6  640.24   13.34
   1  -4   6  603.16   13.31
  -1  -4  -6  658.86   14.34
   1  -4   7  122.30    4.53
  -1   4  -7  123.92    4.52
   1   4   7  126.77    5.06
   1  -4   7  111.61    4.38
  -1  -4  -7  121.64    5.09
  -1   4  -8   26.56    2.26
   1  -4   8   22.99    2.09
   1   4   8   23.68    2.37
   1  -4   8   24.12    2.07
  -1  -4  -8   30.66    2.62
   1   4   9  432.17   11.80
   1  -4   9  419.54   11.12
  -1   4  -9  454.60   11.45
   1  -4   9  422.98   11.08
  -1  -4  -9  465.41   12.26
   1  -4  10   52.49    3.46
  -1   4 -10   52.41    3.42
   1   4  10   53.24    3.78
   1  -4  10   51.68    3.32
  -1  -4 -10   57.35    3.92
  -1   4 -11   52.06    3.64
   1   4  11   53.31    3.99
   1  -4  11   50.74    3.59
   1  -4  11   51.10    3.47
   1   4  12  262.84    9.47
   1  -4  12  256.72    8.98
   1  -4  12  250.05    8.65
   1  -4  13  292.99   10.15
   1   4  13  297.57   10.70
   1  -4  13  310.78   10.04
   1   4  14  146.02    7.41
   1  -4  14  147.42    7.06
   1  -4  15   -1.18    1.70
   1   4  15    0.79    1.80
   1  -4  16    8.63    2.57
   1   4  16    8.80    2.49
   1   4  17  277.31   11.57
   1  -4  17  270.50   11.26
   1   4  18   73.66    6.12
   1  -4  18   69.91    5.78
   1  -4  19    8.11    2.68
  -1   5  19    0.20    2.39
  -1   5  18  250.66   11.16
  -1   5  17   23.90    3.67
  -1   5  16  104.59    6.67
  -1   5  15   68.13    5.06
  -1  -5  15   66.20    4.18
  -1   5  14  338.07   11.70
  -1  -5  14  350.43   10.18
  -1   5  13   40.68    3.79
  -1  -5  13   44.46    3.67
  -1  -5  13   42.52    3.03
  -1   5  12   99.75    5.34
  -1  -5  12   97.28    4.38
   1   5 -11  758.79   17.55
  -1   5  11  718.85   17.57
  -1  -5  11  721.44   15.77
   1  -5 -11  764.63   18.06
   1   5 -10  556.95   13.72
   1  -5 -10  584.64   14.36
  -1   5  10  539.97   13.88
  -1  -5  10  540.09   12.22
  -1   5   9   18.16    2.15
   1   5  -9   17.02    1.93
  -1  -5   9   14.78    1.39
   1  -5  -9   18.91    2.20
   1   5  -8    4.78    1.20
  -1   5   8    5.44    1.37
  -1  -5   8    4.47    0.83
   1  -5  -8    5.64    1.34
  -1   5   7  159.73    5.30
  -1   5   7  159.46    5.80
   1   5  -7  142.71    4.97
   1  -5  -7  142.43    5.18
  -1  -5   7  128.84    3.81
   1   5  -6  854.46   16.87
  -1   5   6  843.92   17.02
   1  -5  -6  849.50   17.15
  -1  -5   6  824.11   15.24
  -1   5   6  843.99   17.92
  -1   5   5   58.43    2.65
   1   5  -5   53.94    2.53
   1  -5  -5   52.58    2.56
  -1  -5   5   51.84    1.73
  -1   5   5   51.62    3.03
   1   5  -4    2.58    0.76
  -1   5   4    3.14    0.77
   1  -5  -4    3.16    0.81
   1   5  -4    4.61    0.60
  -1  -5   4    2.77    0.45
  -1   5   4    1.49    1.05
  -1   5   3  291.38    6.41
   1  -5  -3  287.17    6.45
   1   5  -3  296.37    5.83
  -1  -5   3  294.69    5.76
  -1   5   3  305.20    7.70
   1  -5  -2  212.45    4.65
  -1   5   2  208.45    4.58
  -1   5   2  209.66    5.93
   1   5  -2  220.40    4.67
   1  -5  -2  222.51    5.98
   1   5  -1 1003.52   17.97
  -1   5   1 1011.08   19.20
   1  -5  -1  995.46   19.05
   1   5   0   84.50    2.84
   1   5   0   90.48    2.90
   1  -5   0   90.79    3.24
  -1   5   0   89.12    3.27
   1   5   1  917.43   17.31
  -1   5  -1  949.89   17.73
   1  -5   1  928.37   17.65
   1   5   2   71.44    2.80
  -1   5  -2   67.45    1.79
  -1  -5  -2   65.00    2.71
  -1   5  -2   71.91    2.82
   1  -5   2   66.36    2.70
  -1   5  -3   66.97    2.19
   1  -5   3   70.10    2.21
  -1   5  -3   76.29    2.98
   1  -5   3   68.69    2.81
  -1  -5  -3   76.60    3.12
   1   5   3   73.13    3.05
   1  -5   4   36.10    1.75
  -1   5  -4   35.94    1.77
  -1   5  -4   38.83    2.19
   1  -5   4   32.79    2.00
   1   5   4   37.84    2.28
  -1  -5  -4   33.68    2.23
   1   5   5  651.20   14.02
   1  -5   5  648.80   12.97
  -1   5  -5  659.99   13.04
   1  -5   5  620.37   13.30
  -1   5  -5  643.18   13.47
  -1  -5  -5  659.83   14.25
   1   5   6  310.84    8.47
   1  -5   6  309.52    7.61
  -1   5  -6  307.14    7.68
   1  -5   6  288.19    7.72
  -1  -5  -6  307.48    8.57
   1   5   7   68.94    3.66
   1  -5   7   74.74    3.38
  -1   5  -7   70.35    3.33
   1  -5   7   68.86    3.32
  -1  -5  -7   72.60    3.82
   1  -5   8   90.73    4.02
   1   5   8   85.84    4.41
  -1   5  -8   90.40    4.08
   1  -5   8   82.96    3.84
  -1  -5  -8   95.57    4.68
   1  -5   9    7.08    1.45
   1   5   9    6.24    1.56
   1  -5   9    5.74    1.28
  -1   5  -9    6.26    1.44
  -1  -5  -9    5.57    1.46
  -1   5 -10  135.73    5.72
   1   5  10  135.18    6.04
   1  -5  10  128.33    5.49
   1  -5  10  127.97    5.36
  -1  -5 -10  136.14    6.26
  -1   5 -11  719.10   16.95
   1  -5  11  692.47   16.66
   1   5  11  667.80   17.22
   1  -5  11  686.94   16.27
   1   5  12  261.25    9.69
   1  -5  12  281.79    9.38
   1  -5  12  272.17    8.91
   1  -5  13   21.87    2.82
   1   5  13   25.26    3.19
   1  -5  13   20.29    2.41
   1   5  14   80.09    5.54
   1  -5  14   81.95    5.28
   1  -5  15    2.34    1.71
   1   5  15    0.34    2.00
   1   5  16    4.84    2.20
   1  -5  16    2.32    1.78
   1   5  17   59.22    5.44
   1  -5  17   56.74    5.05
   1   5  18   73.57    6.06
   1  -5  18   71.68    5.79
   1  -5  19    2.87    1.98
  -1   6  19   54.82    5.45
  -1   6  18    6.06    2.49
  -1   6  18    6.75    2.62
  -1   6  17   46.51    4.80
  -1   6  16   60.96    5.19
  -1   6  15   78.35    5.50
  -1   6  14   39.11    3.80
  -1  -6  14   33.64    2.77
  -1   6  13  191.58    7.95
  -1  -6  13  178.30    6.32
  -1   6  12    1.89    1.47
  -1  -6  12    2.30    0.89
   1   6 -11  301.45    9.39
  -1   6  11  290.40    9.56
  -1  -6  11  285.99    7.80
   1   6 -10  118.58    5.25
  -1   6  10  122.86    5.53
   1  -6 -10  129.72    5.77
  -1  -6  10  117.76    4.19
   1   6  -9  149.94    5.66
  -1   6   9  153.29    5.92
   1  -6  -9  152.04    5.97
  -1  -6   9  140.41    4.41
  -1   6   9  145.70    6.34
  -1   6   8 1035.54   21.05
   1   6  -8 1049.80   20.74
   1  -6  -8 1027.55   21.18
  -1  -6   8  965.57   18.70
  -1   6   8 1026.13   21.96
  -1   6   7  267.59    7.68
   1   6  -7  267.11    7.41
   1  -6  -7  277.82    7.85
  -1  -6   7  262.86    6.06
  -1   6   7  283.97    8.54
  -1   6   6   92.17    3.76
   1   6  -6   84.32    3.48
   1  -6  -6   97.21    3.91
  -1  -6   6   89.48    2.65
  -1   6   6   91.37    4.37
   1  -6  -5   20.82    1.67
   1   6  -5   23.96    1.67
  -1   6   5   16.86    1.57
  -1   6   5   21.48    2.17
  -1  -6   5   21.65    1.11
  -1   6   4    1.58    0.71
   1   6  -4    2.34    0.74
   1  -6  -4    2.38    0.74
   1   6  -4    1.32    0.48
  -1   6   4    1.38    1.08
  -1  -6   4    1.30    0.41
  -1   6   3   21.65    1.33
   1  -6  -3   21.93    1.37
   1   6  -3   23.83    1.23
  -1   6   3   24.35    2.12
  -1  -6   3   23.97    1.19
   1  -6  -2   23.03    1.19
  -1   6   2   23.40    1.15
   1   6  -2   27.52    1.43
  -1   6   2   26.64    2.02
   1  -6  -2   24.81    1.96
  -1   6   1  219.72    6.24
   1  -6  -1  228.11    6.25
   1   6  -1  221.65    5.34
   1   6   0    1.58    0.65
   1  -6   0    1.51    0.89
  -1   6   0    1.47    0.95
   1   6   0    2.96    0.83
   1   6   1   57.96    2.45
  -1   6  -1   60.71    2.79
   1  -6   1   59.96    2.69
   1   6   1   55.24    2.53
   1   6   2  160.80    4.63
  -1   6  -2  153.14    4.74
   1  -6   2  149.09    4.62
  -1   6  -3  650.18   12.02
   1   6   3  664.78   13.65
  -1  -6  -3  654.10   13.68
  -1   6  -3  696.48   13.69
   1  -6   3  638.92   13.39
  -1   6  -4 1793.35   31.38
   1  -6   4 1745.29   32.34
  -1   6  -4 1840.07   32.65
  -1  -6  -4 1802.02   33.25
   1   6   4 1850.36   33.01
   1   6   5 1016.73   20.28
   1  -6   5 1017.79   18.93
  -1   6  -5 1003.60   18.94
   1  -6   5  993.51   19.55
  -1   6  -5 1025.91   19.81
  -1  -6  -5 1004.73   20.45
   1  -6   6  309.43    7.57
   1   6   6  298.00    8.46
  -1   6  -6  306.32    7.55
   1  -6   6  289.30    7.74
  -1  -6  -6  307.71    8.67
   1  -6   7    6.89    1.21
   1  -6   7    6.05    1.12
  -1   6  -7    5.93    1.14
  -1  -6  -7    4.80    1.40
   1   6   7    6.25    1.44
  -1   6  -8  478.43   11.47
   1   6   8  471.99   12.32
   1  -6   8  471.45   11.35
   1  -6   8  458.96   11.25
  -1  -6  -8  480.03   12.60
   1   6   9  207.00    7.66
   1  -6   9  239.87    7.39
  -1   6  -9  227.41    7.26
   1  -6   9  212.07    6.97
  -1  -6  -9  240.55    8.28
  -1   6 -10  100.18    4.81
   1  -6  10  105.70    4.88
   1   6  10  112.28    5.48
   1  -6  10   99.31    4.64
   1  -6  11  185.25    7.04
   1   6  11  172.62    7.41
   1  -6  11  170.61    6.54
  -1   6 -11  190.64    7.12
   1   6  12    6.60    1.92
   1  -6  12    5.21    1.62
   1  -6  12   10.69    1.84
   1   6  13  116.64    6.50
   1  -6  13  129.12    6.31
   1  -6  13  118.48    5.68
   1   6  14   24.89    3.44
   1  -6  14   17.62    2.73
   1   6  15   10.32    2.61
   1  -6  15   11.26    2.30
   1   6  16   22.24    3.43
   1  -6  16   18.11    2.93
   1  -6  17   84.25    6.04
   1   6  17   92.27    6.66
   1  -6  18    9.11    2.73
   1   6  18   12.43    3.29
   1  -6  19    2.96    2.28
  -1   7  18   83.90    6.46
  -1   7  18   85.97    6.55
  -1   7  17  113.52    7.17
  -1   7  17  127.91    7.81
  -1   7  16    2.00    1.92
  -1   7  16    1.05    1.95
  -1   7  15  167.59    8.07
  -1   7  15  148.05    8.15
  -1   7  14  185.71    8.36
  -1   7  14  188.16    8.72
  -1   7  13  390.14   12.41
  -1  -7  13  392.04   10.16
  -1   7  13  389.81   12.98
  -1   7  12   19.66    2.48
  -1   7  12   19.37    2.91
  -1  -7  12   20.31    1.96
  -1   7  11    7.60    2.13
  -1   7  11    3.64    1.51
   1   7 -11    2.66    1.29
  -1  -7  11    6.91    1.16
   1   7 -10  159.90    6.12
  -1   7  10  144.65    6.17
   1  -7 -10  148.13    6.33
  -1  -7  10  152.28    4.74
  -1   7  10  154.19    6.82
  -1   7   9    2.00    1.15
   1   7  -9    1.38    1.01
   1  -7  -9    1.49    1.05
  -1  -7   9    1.03    0.56
  -1   7   9    1.56    1.38
   1  -7  -8    2.83    1.21
   1   7  -8    2.06    0.96
  -1   7   8    2.98    1.23
  -1  -7   8    1.35    0.57
  -1   7   8    0.93    1.32
   1  -7  -7  173.78    5.91
   1   7  -7  165.34    5.51
  -1   7   7  175.25    5.80
  -1  -7   7  165.02    4.27
  -1   7   7  167.54    6.53
   1  -7  -6  852.73   17.55
  -1   7   6  848.44   17.31
   1   7  -6  856.82   17.12
  -1  -7   6  841.15   15.53
  -1   7   6  879.43   18.92
  -1   7   5  664.33   13.76
   1   7  -5  672.41   13.66
   1  -7  -5  647.66   13.86
   1   7  -5  677.45   12.57
  -1  -7   5  664.38   12.44
  -1   7   5  679.10   15.41
   1   7  -4   10.69    1.16
  -1   7   4   12.17    1.21
   1  -7  -4   11.47    1.16
   1   7  -4   12.88    1.00
  -1  -7   4   11.66    0.91
  -1   7   4   13.13    1.84
  -1   7   3   81.45    2.66
   1  -7  -3   74.82    2.68
   1   7  -3   82.46    2.68
  -1   7   3   77.15    3.75
   1  -7  -2  321.70    6.66
  -1   7   2  324.66    6.55
   1   7  -2  346.08    7.34
  -1   7   2  326.64    8.63
   1   7  -1 1089.95   19.98
  -1   7   1 1089.05   21.21
   1  -7  -1 1041.07   21.05
   1   7   0  271.24    6.50
   1  -7   0  265.99    7.23
  -1   7   0  278.88    7.42
   1   7   0  280.03    6.88
   1   7   1  499.57   10.53
  -1   7  -1  497.54   11.17
   1   7   1  501.59   11.03
   1  -7   1  497.05   11.12
   1   7   2 1548.80   28.21
  -1   7  -2 1563.89   28.68
   1   7   2 1583.28   28.98
   1  -7   2 1523.08   28.53
   1   7   3  381.36    8.99
  -1   7  -3  371.89    7.30
  -1   7  -3  396.21    9.16
   1  -7   3  378.39    9.00
  -1   7  -4   77.84    2.53
   1   7   4   74.88    3.39
  -1  -7  -4   71.84    3.40
  -1   7  -4   73.41    3.26
   1  -7   4   67.40    3.08
   1   7   5  456.07   10.78
  -1   7  -5  430.33    9.32
   1  -7   5  427.55   10.10
  -1   7  -5  441.05   10.30
  -1  -7  -5  444.04   10.99
  -1   7  -6  451.40   10.08
   1   7   6  457.96   11.40
   1  -7   6  453.55   10.57
  -1   7  -6  455.52   10.73
  -1  -7  -6  449.90   11.51
  -1   7  -7  112.50    4.25
   1   7   7  123.49    5.14
   1  -7   7  112.88    4.22
   1  -7   7  108.81    4.31
  -1  -7  -7  117.01    5.15
   1   7   8   18.58    2.23
   1  -7   8   18.49    1.87
   1  -7   8   20.92    1.94
  -1  -7  -8   20.83    2.45
  -1   7  -8   21.65    1.95
   1   7   9   14.01    2.15
   1  -7   9   15.24    1.86
   1  -7   9   19.12    1.92
  -1  -7  -9   15.27    2.14
  -1   7  -9   17.96    2.01
   1   7  10  300.39    9.92
  -1   7 -10  305.53    9.15
   1  -7  10  311.44    9.14
   1  -7  10  289.57    8.69
   1  -7  11  750.29   17.40
   1   7  11  720.92   18.27
   1  -7  11  693.72   16.66
  -1   7 -11  776.86   17.70
   1   7  12   14.73    2.48
   1  -7  12   12.75    2.14
   1  -7  12   14.80    2.17
   1   7  13   43.04    4.00
   1  -7  13   41.68    3.66
   1  -7  13   38.22    3.20
   1   7  14  162.37    8.12
   1  -7  14  161.97    7.43
   1   7  15   36.37    4.12
   1  -7  15   43.22    3.98
   1  -7  16   13.57    2.72
   1   7  16   12.40    3.00
   1  -7  17   71.89    5.62
   1   7  17   74.24    6.00
   1  -7  18   78.00    6.08
  -1   8  18   28.49    4.06
  -1   8  17    5.84    2.70
  -1   8  17    3.79    2.42
  -1   8  16   70.93    5.78
  -1   8  16   76.27    6.04
  -1   8  15   74.09    5.46
  -1   8  15   68.14    5.68
  -1   8  14   27.39    3.34
  -1   8  14   26.95    3.76
  -1   8  13   36.55    3.52
  -1   8  13   24.50    4.53
  -1   8  12   70.43    4.66
  -1  -8  12   70.78    3.28
  -1   8  12   69.92    5.14
  -1   8  11  126.33    5.98
   1   8 -11  123.14    5.66
  -1  -8  11  127.33    4.34
  -1   8  11  133.72    6.71
   1   8 -10  317.30    9.36
  -1   8  10  321.68    9.78
   1  -8 -10  320.61   10.02
  -1  -8  10  309.69    7.52
  -1   8  10  293.62   10.46
  -1   8   9  464.53   12.11
   1   8  -9  452.60   11.64
   1  -8  -9  478.22   12.47
  -1  -8   9  452.58    9.73
  -1   8   9  479.79   13.47
   1  -8  -8  575.69   14.06
   1   8  -8  591.18   13.54
  -1   8   8  582.36   13.82
  -1  -8   8  593.38   11.64
  -1   8   8  579.07   15.22
   1  -8  -7   73.05    3.72
  -1   8   7   76.33    3.73
   1   8  -7   80.02    3.59
  -1   8   7   82.55    4.58
  -1  -8   7   81.88    2.69
   1  -8  -6   23.24    1.94
  -1   8   6   23.21    2.02
   1   8  -6   25.56    1.94
  -1   8   6   23.67    2.49
  -1  -8   6   22.34    1.32
  -1   8   5   65.52    2.91
   1   8  -5   62.89    2.78
   1  -8  -5   62.24    2.97
   1   8  -5   60.62    2.32
  -1  -8   5   62.90    2.28
  -1   8   5   64.22    3.83
  -1   8   4  132.88    4.04
   1   8  -4  130.55    4.08
   1  -8  -4  132.44    4.19
   1   8  -4  131.05    3.79
  -1   8   4  136.26    5.50
  -1   8   3  464.28    9.26
   1  -8  -3  442.64    9.36
   1   8  -3  460.33    9.57
  -1   8   3  453.90   11.47
  -1   8   2  386.90    7.64
   1   8  -2  416.24    8.83
  -1   8   2  390.98   10.20
   1   8  -1  569.63   11.75
   1  -8  -1  590.55   13.28
   1   8  -1  588.12   12.23
  -1   8   1  587.88   13.34
   1   8   0   11.85    1.16
  -1   8   0   16.83    1.76
   1   8   0   15.92    1.58
   1  -8   0   17.18    1.72
   1   8   1  981.51   18.64
  -1   8  -1 1004.86   19.71
   1   8   1  972.37   19.41
   1  -8   1  964.82   19.53
   1   8   2  114.73    3.95
  -1   8  -2  116.77    4.37
   1  -8   2  112.40    4.25
   1   8   2  108.75    4.37
   1   8   3  618.56   12.93
  -1   8  -3  583.08   10.61
  -1   8  -3  607.14   13.17
   1   8   3  618.16   13.83
   1  -8   3  600.86   13.02
   1   8   4 1086.39   21.36
  -1  -8  -4 1057.81   21.51
  -1   8  -4 1067.69   19.32
  -1   8  -4 1117.82   21.41
   1   8   4 1120.21   22.56
   1  -8   4 1080.62   21.18
  -1   8  -5  201.65    5.18
   1   8   5  200.63    6.45
  -1  -8  -5  197.20    6.58
  -1   8  -5  216.85    6.41
   1  -8   5  204.06    6.12
   1   8   6  233.19    7.35
  -1   8  -6  229.09    6.11
  -1  -8  -6  233.96    7.56
  -1   8  -6  228.84    6.87
   1  -8   6  228.77    6.70
  -1  -8  -7   12.09    1.85
   1   8   7   13.37    1.85
  -1   8  -7   12.49    1.48
   1  -8   7   12.94    1.56
   1   8   8   65.07    3.92
  -1   8  -8   60.76    3.23
  -1  -8  -8   68.94    4.13
   1  -8   8   62.66    3.34
  -1  -8  -9    2.69    1.46
  -1   8  -9    0.97    0.91
   1   8   9    1.04    1.28
   1  -8   9    1.95    0.92
   1   8  10   12.71    2.25
   1  -8  10   10.21    1.62
  -1   8 -10   11.47    1.79
   1   8  11   78.67    4.98
   1  -8  11   62.91    3.73
  -1   8 -11   76.88    4.32
   1   8  12    9.56    2.05
   1  -8  12    8.45    1.77
   1   8  13  232.52    9.52
   1  -8  13  227.22    8.12
   1   8  14   84.23    5.83
   1   8  15   67.85    5.49
   1   8  16   40.82    4.45
   1   8  17   36.08    4.39
  -1   9  18    1.51    2.06
  -1   9  17   73.43    5.89
  -1   9  16    3.65    2.35
  -1   9  16    6.04    2.54
  -1   9  15  198.07    8.97
  -1   9  15  182.59    9.36
  -1   9  14   17.10    2.83
  -1   9  14   22.01    3.56
  -1   9  13   33.90    3.51
  -1   9  13   39.85    4.27
  -1   9  12    8.54    2.06
  -1   9  12    5.18    2.31
  -1   9  11  209.15    8.09
   1   9 -11  216.17    7.74
  -1  -9  11  217.31    5.87
  -1   9  11  224.68    9.17
   1  -9 -10   16.97    2.31
  -1   9  10   18.97    2.42
   1   9 -10   18.30    2.09
  -1  -9  10   19.53    1.44
  -1   9  10   15.75    2.63
   1  -9  -9    2.76    1.13
  -1   9   9    2.98    1.41
   1   9  -9    3.16    1.15
  -1   9   9    2.54    1.61
  -1  -9   9    4.34    0.73
   1  -9  -8  229.15    7.58
   1   9  -8  227.44    7.05
  -1   9   8  221.42    7.35
  -1  -9   8  230.83    5.54
  -1   9   8  231.55    8.65
   1  -9  -7   46.55    3.00
   1   9  -7   46.83    2.78
  -1   9   7   45.18    2.85
  -1  -9   7   48.87    2.05
  -1   9   7   49.07    3.73
   1   9  -6  137.23    4.66
  -1   9   6  133.89    4.83
   1  -9  -6  133.29    4.98
   1   9  -6  142.94    4.05
  -1   9   6  137.71    6.10
  -1  -9   6  144.93    3.94
   1   9  -5   69.93    3.00
  -1   9   5   72.54    3.11
   1  -9  -5   67.98    3.14
   1   9  -5   74.18    2.73
  -1  -9   5   69.20    2.57
  -1   9   5   69.84    4.19
  -1   9   4    0.10    0.67
   1   9  -4   -0.48    0.65
   1  -9  -4    1.09    0.70
   1   9  -4    0.39    0.59
  -1   9   4    0.61    1.17
  -1   9   3  405.51    8.45
   1   9  -3  418.59    9.19
  -1   9   3  419.36   11.12
  -1   9   2  569.90   10.57
  -1   9   2  593.59   13.86
   1   9  -2  579.93   12.19
   1   9  -1   43.81    2.12
  -1   9   1   39.39    2.81
   1   9  -1   43.42    2.46
   1   9   0   16.49    1.39
  -1   9   0   21.51    2.08
   1   9   0   17.54    1.71
   1  -9   0   21.17    1.98
   1   9   1  507.08   10.83
  -1   9  -1  503.46   11.92
   1   9   1  508.50   11.82
   1  -9   1  493.84   11.85
   1   9   2   11.48    1.30
   1   9   2    8.29    1.34
  -1   9  -2    8.30    1.43
   1  -9   2   12.44    1.53
   1   9   3   91.31    3.73
  -1   9  -3   93.45    4.05
   1   9   3   99.11    4.46
   1  -9   3   90.60    3.92
   1   9   4  271.76    7.60
  -1   9  -4  280.49    5.76
  -1   9  -4  275.70    7.79
   1   9   4  278.26    8.53
   1  -9   4  270.06    7.59
   1   9   5  145.18    5.39
  -1  -9  -5  140.82    5.44
  -1   9  -5  146.88    4.02
  -1   9  -5  154.27    5.39
   1  -9   5  142.08    5.09
   1   9   5  145.84    6.04
   1   9   6  122.77    5.12
  -1  -9  -6  124.70    5.37
  -1   9  -6  119.09    3.95
  -1   9  -6  121.33    4.85
   1   9   6  129.17    5.87
   1  -9   6  112.16    4.47
  -1  -9  -7  143.97    6.06
  -1   9  -7  140.67    4.68
   1   9   7  137.49    5.71
   1  -9   7  134.45    5.03
   1   9   8   37.16    3.10
   1  -9   8   45.44    2.84
  -1  -9  -8   46.28    3.50
  -1   9  -8   41.19    2.63
   1   9   9  186.20    7.31
   1  -9   9  183.35    6.31
  -1   9  -9  181.35    6.29
   1   9  10  284.82    9.77
   1  -9  10  285.04    8.53
  -1   9 -10  300.33    8.86
   1   9  11  165.24    7.38
   1  -9  11  161.63    6.17
  -1   9 -11  163.33    6.49
   1   9  12   29.86    3.36
   1   9  13    1.08    1.72
   1   9  14   18.63    3.07
   1   9  15   84.64    6.20
   1   9  16   -0.92    2.03
   1   9  17   64.08    5.69
  -1  10  17   28.59    4.05
  -1  10  16  118.44    7.30
  -1  10  15  171.14    8.52
  -1  10  15  180.00    9.39
  -1  10  14    1.28    1.67
  -1  10  14    3.12    2.06
  -1  10  13  113.51    6.33
  -1  10  13  112.33    7.10
  -1  10  12   68.79    4.70
  -1  10  12   71.31    5.46
   1  10 -11    1.70    1.30
  -1  10  11    0.52    1.46
  -1  10  11    1.34    1.93
   1 -10 -10    0.65    1.26
  -1  10  10    1.22    1.16
   1  10 -10    0.70    1.14
  -1 -10  10   -0.28    0.56
  -1  10  10    0.54    1.60
   1 -10  -9   70.59    4.17
   1  10  -9   63.12    3.59
  -1  10   9   68.51    4.03
  -1 -10   9   71.95    2.63
  -1  10   9   59.82    4.54
   1 -10  -8  313.18    9.41
   1  10  -8  317.98    8.75
  -1  10   8  310.58    9.10
  -1 -10   8  331.35    7.19
  -1  10   8  310.05   10.62
   1 -10  -7  225.23    7.21
   1  10  -7  215.42    6.57
  -1  10   7  218.89    6.91
  -1  10   7  219.79    8.56
  -1 -10   7  231.81    5.56
  -1  10   6  103.77    4.04
   1  10  -6   93.94    3.74
   1 -10  -6   98.80    4.18
   1  10  -6   91.29    3.28
  -1  10   6   96.02    5.25
   1  10  -5   57.46    2.69
  -1  10   5   58.78    2.81
   1 -10  -5   58.10    2.89
   1  10  -5   61.20    2.62
  -1  10   5   56.25    3.94
   1  10  -4  364.87    8.31
  -1  10   4  361.24    8.16
   1  10  -4  358.84    8.45
  -1  10   4  366.97   10.73
  -1  10   3  388.09    8.04
   1  10  -3  380.76    8.55
   1  10  -3  389.62    9.09
  -1  10   3  406.80   11.14
   1  10  -2   16.52    1.35
  -1  10   2   19.11    0.91
  -1  10   2   19.09    2.28
   1  10  -2   16.83    1.62
   1  10  -1  317.23    7.46
   1  10  -1  327.86    8.45
  -1  10   1  316.89    9.29
   1  10   0   52.40    2.43
   1 -10   0   49.36    3.15
  -1  10   0   48.71    3.20
   1  10   0   52.19    2.97
   1  10   1  116.68    3.99
  -1  10  -1  125.55    5.04
   1 -10   1  120.28    4.89
   1  10   1  116.09    4.77
   1  10   2   54.58    2.71
  -1  10  -2   58.60    3.29
   1 -10   2   54.34    3.12
   1  10   2   53.86    3.32
   1  10   3  180.79    5.69
  -1  10  -3  178.06    6.16
   1 -10   3  189.49    6.15
   1  10   3  176.09    6.51
   1  10   4  338.33    8.74
  -1  10  -4  327.91    9.00
   1 -10   4  307.16    8.67
   1  10   4  328.10    9.76
   1  10   5  100.43    4.44
  -1  10  -5  109.35    3.06
  -1  10  -5  110.46    4.67
   1  10   5   96.91    5.06
   1 -10   5  105.77    4.38
   1  10   6  348.95    9.74
  -1  10  -6  345.03    7.84
  -1 -10  -6  343.85    9.94
  -1  10  -6  359.71    9.57
   1  10   6  353.50   10.86
   1 -10   6  339.57    9.16
   1  10   7  124.08    5.52
  -1 -10  -7  131.80    5.81
  -1  10  -7  134.82    4.43
  -1  10  -7  137.69    5.29
   1 -10   7  118.51    4.84
   1  10   7  128.46    6.26
  -1 -10  -8   24.87    2.72
  -1  10  -8   23.68    1.98
   1  10   8   24.72    2.65
   1 -10   8   24.65    2.16
   1  10   8   19.77    2.86
  -1  10  -9   19.89    2.00
   1  10   9   15.70    2.82
   1  10   9   14.78    2.16
   1 -10   9   19.01    2.00
  -1  10 -10   25.62    2.38
   1  10  10   22.85    3.10
   1  10  10   22.92    2.79
   1 -10  10   22.14    2.19
   1  10  11  150.61    7.18
   1  10  12  226.19    9.28
   1  10  13   32.09    3.82
   1  10  14   47.36    4.63
   1  10  15   77.94    5.94
   1  10  16   19.34    3.40
  -1  11  17   27.44    4.07
  -1  11  16   -2.82    2.29
  -1  11  15   61.83    5.24
  -1  11  15   65.75    5.80
  -1  11  14   10.79    2.48
  -1  11  14    6.25    2.29
  -1  11  13  107.60    6.14
  -1  11  13  112.65    7.19
  -1  11  12   -1.84    1.39
  -1  11  12    0.42    1.82
  -1  11  11   64.92    4.37
  -1  11  11   70.01    5.40
   1  11 -10   26.44    2.52
  -1  11  10   26.92    2.69
  -1  11  10   20.34    3.05
   1 -11  -9   62.88    4.03
  -1  11   9   64.14    3.85
   1  11  -9   66.18    3.60
  -1  11   9   57.76    4.63
   1 -11  -8   27.32    2.57
   1  11  -8   28.22    2.29
  -1  11   8   31.65    2.62
  -1  11   8   23.64    2.96
  -1 -11   8   33.46    1.71
   1 -11  -7  294.22    8.76
   1  11  -7  314.48    8.17
  -1  11   7  308.23    8.54
  -1  11   7  297.85   10.51
   1  11  -6    9.99    1.30
  -1  11   6    8.29    1.29
   1 -11  -6    8.96    1.45
   1  11  -6   10.04    1.20
  -1  11   6    9.27    2.02
   1  11  -5   19.88    1.58
  -1  11   5   21.64    1.74
   1  11  -5   19.07    1.58
  -1  11   5   19.86    2.64
   1  11  -4  111.00    3.70
  -1  11   4  113.11    3.62
   1  11  -4  111.45    4.04
  -1  11   4  114.82    5.60
  -1  11   3   27.05    1.40
   1  11  -3   30.06    1.73
   1  11  -3   25.31    1.67
   1  11  -3   30.73    2.05
  -1  11   3   25.54    2.72
   1  11  -2  206.03    5.49
   1  11  -2  207.60    6.29
  -1  11   2  213.47    7.59
   1  11  -1  446.82    9.73
   1  11  -1  470.40   11.21
  -1  11   1  452.92   12.13
   1  11   0  106.11    3.69
  -1  11   0  120.89    5.27
   1  11   0  118.88    4.85
   1  11   1  118.17    4.03
  -1  11  -1  118.88    5.11
   1 -11   1  122.13    5.15
   1  11   1  113.83    4.93
   1  11   2   14.90    1.50
   1 -11   2   13.58    1.79
  -1  11  -2   15.21    1.98
   1  11   2   13.95    1.89
   1  11   3  161.57    5.41
  -1  11  -3  159.96    6.03
   1  11   3  171.64    6.64
   1 -11   3  171.48    6.03
   1  11   4   91.89    4.10
  -1  11  -4   88.84    4.28
   1 -11   4   83.53    4.03
   1  11   4   89.43    4.80
   1  11   5  134.86    5.22
  -1  11  -5  116.25    2.87
  -1  11  -5  138.07    5.35
   1 -11   5  134.09    5.13
   1  11   5  127.05    6.01
   1  11   6  216.53    7.30
  -1  11  -6  222.52    5.29
  -1  11  -6  221.51    7.23
   1  11   6  213.83    8.29
   1 -11   6  204.51    6.77
   1  11   7   12.82    2.01
  -1 -11  -7   18.27    2.31
  -1  11  -7   14.68    1.32
  -1  11  -7   16.84    1.99
   1 -11   7   17.03    1.87
   1  11   7   16.49    2.46
  -1 -11  -8   15.93    2.38
  -1  11  -8   22.02    1.86
   1  11   8   14.69    2.15
   1  11   8   20.32    2.87
   1 -11   8   15.02    1.78
   1  11   9    2.04    1.24
   1  11   9    0.99    1.70
   1  11  10   51.29    4.00
   1  11  10   46.34    4.37
   1  11  11  165.92    7.60
   1  11  11  176.96    8.67
   1  11  12    4.42    2.01
   1  11  12    9.37    2.58
   1  11  13    1.80    2.01
   1  11  13    2.48    2.32
   1  11  14   18.41    3.22
   1  11  14   17.78    3.37
   1  11  15   51.88    5.05
   1  11  16   58.63    5.36
  -1  12  17   -3.34    2.14
  -1  12  16    7.27    2.40
  -1  12  15   40.96    4.41
  -1  12  14   14.79    2.77
  -1  12  14   12.62    3.03
  -1  12  13  108.99    6.28
  -1  12  13  111.27    7.40
  -1  12  12  126.80    6.47
  -1  12  12  119.05    7.44
  -1  12  11   17.19    2.43
  -1  12  11   18.36    3.11
  -1  12  10  117.05    5.59
  -1  12  10  106.54    6.74
  -1  12   9  215.49    7.62
  -1  12   9  213.60    9.45
  -1  12   8   59.28    3.56
  -1  12   8   61.19    4.76
   1 -12  -7   10.24    1.61
   1  12  -7   10.48    1.34
  -1  12   7   11.19    1.59
  -1  12   7   14.04    2.59
  -1  12   6   -0.66    0.81
   1  12  -6    0.63    0.76
   1  12  -6    1.46    0.90
  -1  12   6    0.09    1.51
   1  12  -5   84.29    3.17
  -1  12   5   75.21    3.17
   1  12  -5   87.05    3.50
  -1  12   5   67.92    4.62
  -1  12   4  117.35    3.61
   1  12  -4  123.47    3.81
   1  12  -4  121.57    3.93
   1  12  -4  121.04    4.47
  -1  12   4  109.55    5.80
   1  12  -3  114.52    3.51
   1  12  -3  106.07    3.54
   1  12  -3  106.31    4.32
  -1  12   3  114.05    5.73
   1  12  -2    1.29    0.67
   1  12  -2   -0.12    0.65
   1  12  -2    1.37    0.96
  -1  12   2    1.27    1.34
   1  12  -1  101.14    3.35
   1  12  -1   97.29    4.39
  -1  12   1   97.78    5.06
   1  12   0  557.43   11.55
  -1  12   0  536.47   14.03
   1  12   0  571.28   13.64
   1  12   1   23.99    1.68
  -1  12  -1   25.12    2.49
   1  12   1   24.03    2.37
   1 -12   2   19.62    2.17
   1  12   2   17.28    1.61
  -1  12  -2   17.18    2.12
   1  12   2   19.37    2.32
   1  12   3  214.86    6.47
  -1  12  -3  233.15    7.64
   1  12   3  213.06    7.86
   1 -12   3  216.12    7.24
   1  12   4  120.42    4.70
  -1  12  -4  119.32    5.26
   1  12   4  113.00    5.70
   1 -12   4  112.28    4.91
   1  12   5    4.43    1.23
  -1  12  -5    1.00    1.20
   1  12   5    2.68    1.48
   1 -12   5    4.14    1.30
   1  12   6    1.80    1.14
  -1  12  -6    2.34    1.31
   1 -12   6    1.95    1.10
   1  12   6   -1.02    1.66
   1  12   7  109.75    5.21
  -1  12  -7  119.44    5.15
   1  12   7   99.96    5.93
   1  12   8   47.81    3.60
   1  12   8   42.59    4.13
   1  12   9    1.79    1.27
   1  12   9    4.15    2.17
   1  12  10   20.87    2.65
   1  12  10   21.96    3.19
   1  12  11    4.99    1.74
   1  12  11    4.95    2.81
   1  12  12  251.69   10.11
   1  12  12  266.65   11.45
   1  12  13   72.91    5.50
   1  12  13   73.48    6.18
   1  12  14    2.70    2.29
   1  12  15   14.34    2.95
   1  12  16   74.90    6.24
  -1  13  13   83.22    5.57
  -1  13  13   76.26    6.20
  -1  13  12    3.74    1.80
  -1  13  12    2.65    2.28
  -1  13  11    4.97    1.74
  -1  13  11    2.27    1.99
  -1  13  10   16.91    2.32
  -1  13  10   12.46    2.89
  -1  13   9  216.76    7.56
  -1  13   9  223.70    9.89
  -1  13   8   19.51    2.12
  -1  13   8   20.31    3.21
  -1  13   7  260.19    7.59
  -1  13   7  257.72   10.21
  -1  13   6    8.58    1.30
   1  13  -6    7.37    1.24
  -1  13   6    4.31    1.91
  -1  13   5  300.53    7.30
   1  13  -5  301.73    7.19
   1  13  -5  300.45    7.92
  -1  13   5  283.11   10.52
   1  13  -4   76.08    2.83
   1  13  -4   86.57    3.82
  -1  13   4   73.44    4.99
   1  13  -3   80.27    2.74
   1  13  -3   76.75    3.79
  -1  13   3   72.25    4.78
   1  13  -2   10.84    0.99
   1  13  -2    8.56    0.87
  -1  13   2    5.51    1.66
   1  13  -2    7.15    1.45
   1  13  -1  365.50    7.88
  -1  13   1  354.98   11.07
   1  13  -1  374.89   10.23
   1  13   0   26.70    1.60
   1  13   0   27.90    2.60
  -1  13   0   28.21    2.80
   1  13   1   51.45    2.44
  -1  13  -1   47.90    3.53
   1  13   1   44.36    3.30
   1  13   2   24.53    1.79
  -1  13  -2   21.76    2.44
   1  13   2   18.22    2.26
   1  13   3  208.98    6.22
  -1  13  -3  201.84    7.39
   1  13   3  200.29    7.82
   1  13   4   -0.01    0.92
  -1  13  -4    2.70    1.35
   1  13   4    2.83    1.81
   1 -13   4    0.34    1.14
   1  13   5   45.39    2.95
  -1  13  -5   49.01    3.46
   1  13   5   50.04    4.18
   1  13   6   12.15    1.87
  -1  13  -6    7.21    1.42
   1  13   6    7.13    2.16
   1  13   7  271.58    8.81
  -1  13  -7  278.82    8.66
   1  13   7  259.99   10.24
   1  13   8    0.15    1.46
   1  13   8    2.44    1.79
   1  13   9   88.65    5.11
   1  13   9   80.59    5.85
   1  13  10   52.13    4.11
   1  13  10   48.63    4.75
   1  13  11   16.88    2.65
   1  13  11   17.28    3.54
   1  13  12    1.24    1.76
   1  13  12    3.60    2.53
   1  13  13   38.47    4.27
   1  13  14    0.89    1.89
   1  13  15   84.23    6.23
  -1  14  11    4.51    2.40
  -1  14  10    5.69    2.30
  -1  14   9   39.62    4.30
  -1  14   8   46.42    4.62
  -1  14   7   44.18    4.35
  -1  14   6  185.37    8.58
  -1  14   5   29.93    3.45
   1  14  -4  134.81    5.14
  -1  14   4  124.44    6.67
   1  14  -3   26.63    2.35
  -1  14   3   29.69    3.22
   1  14  -2    7.37    1.54
  -1  14   2    6.24    1.94
  -1  14   1   72.87    4.72
   1  14  -1   73.90    4.14
  -1  14   0  372.88   11.53
   1  14   0  387.58   11.04
  -1  14  -1    0.41    1.25
   1  14   1   -0.20    1.14
  -1  14  -2   11.29    2.23
   1  14   2    8.18    1.87
  -1  14  -3  129.96    5.95
   1  14   3  126.50    6.24
  -1  14  -4  255.36    8.62
   1  14   4  242.99    9.36
  -1  14  -5    1.76    1.30
   1  14   5    0.37    1.48
  -1  14  -6   60.58    3.89
   1  14   6   55.14    4.59
   1  14   7   26.98    3.50
   1  14   8   73.04    5.58
   1  14   9   -0.01    1.92
   1  14  10   37.28    4.25
   1  14  11   29.69    4.00
  -1  15  10   22.39    3.73
  -1  15   9  188.52    9.56
  -1  15   8    1.87    2.01
  -1  15   7  108.79    6.90
  -1  15   6    1.61    1.84
  -1  15   5   15.02    2.90
  -1  15   4   -0.95    1.64
  -1  15   3  128.89    6.75
   1  15  -2   -1.48    1.25
  -1  15   2    5.03    2.05
   1  15  -1   54.37    3.70
  -1  15   1   59.84    4.44
  -1  15   0   43.98    3.72
   1  15   0   51.11    3.66
   1  15   1   26.49    2.87
  -1  15  -1   27.31    2.99
  -1  15  -2   13.14    2.21
   1  15   2    9.73    1.99
  -1  15  -3  152.78    6.65
   1  15   3  133.12    6.80
  -1  15  -4   51.06    3.73
   1  15   4   45.40    4.11
   1  15   5   23.93    3.14
   1  15   6   37.33    3.98
   1  15   7   81.89    5.85
   1  15   8    4.57    2.00
   1  15   9   68.92    5.74
   1  15  10    6.13    2.46
  -1  16   9    4.34    2.26
  -1  16   8   61.90    5.54
  -1  16   7   -0.88    2.06
  -1  16   6    3.30    2.20
  -1  16   5   -0.41    2.13
  -1  16   4   83.00    5.81
  -1  16   3    2.21    2.02
  -1  16   2    4.31    2.04
  -1  16   1    3.68    1.80
  -1  16   0  210.05    8.63
  -1  16  -1    4.64    1.65
   1  16   1    2.19    1.28
   1  16   2   12.07    2.20
   1  16   3   36.99    3.72
   1  16   4  156.66    7.78
   1  16   5   -0.16    1.87
   1  16   6    0.65    1.95
   1  16   7    7.79    2.55
   1  16   8   67.67    5.60
   1  16   9    2.16    2.23
  -1  17   7   69.68    5.83
  -1  17   6   10.38    3.01
  -1  17   5  222.44   10.21
  -1  17   4    1.39    1.95
  -1  17   3   24.97    3.50
  -1  17   2    5.81    2.26
  -1  17   1    2.53    1.81
   1  17   4   -1.40    2.07
   1  17   5   15.98    2.95
   1  17   6   19.59    3.39
   1  17   7  194.32    9.73
   1  17   8   -2.40    2.10
  -1  18   5    2.27    2.20
  -2   0  22    2.33    2.02
  -2   0  20   25.50    4.16
  -2   0  19   -0.49    2.05
  -2   0  18   27.33    3.65
  -2   0  17   -2.26    2.23
  -2   0  16   63.75    5.02
  -2   0  15    0.55    1.86
  -2   0  14   22.77    3.04
  -2   0  13    1.13    1.56
  -2   0  12 1152.53   25.00
   2   0 -11    0.05    1.03
  -2   0  11   -1.03    1.45
  -2   0  10   33.10    2.81
   2   0 -10   28.89    2.63
   2   0  -9    0.05    1.02
  -2   0   9    1.63    1.16
   2   0  -8   97.74    4.24
  -2   0   8   98.43    4.28
  -2   0   7    0.14    1.03
   2   0  -7   -0.33    0.96
   2   0  -6    8.52    1.28
  -2   0   6   10.10    1.21
   2   0  -5   -1.23    0.75
  -2   0   5    0.27    0.81
   2   0  -4 1033.88   19.50
   2   0  -4 1046.41   18.90
  -2   0   4 1069.81   18.94
   2   0  -3   -0.61    0.64
  -2   0   3   -0.51    0.66
  -2   0   2 3406.97   56.03
   2   0  -2 3276.82   56.01
  -2   0   1    0.60    0.68
   2   0  -1    0.38    0.56
  -2   0   0  974.99   17.46
   2   0   0  955.94   17.41
  -2   0  -1    0.02    0.89
   2   0   1   -0.09    0.68
   2   0   1   -0.67    0.77
   2   0   2    1.57    0.90
  -2   0  -2    1.89    0.89
   2   0   2    2.44    1.01
  -2   0  -3    1.57    0.90
   2   0   3    1.29    1.04
  -2   0  -4   75.50    3.21
   2   0   4   69.71    3.18
  -2   0  -5    1.05    0.97
   2   0   5   -0.50    1.12
  -2   0  -6  598.06   13.31
   2   0   6  572.02   13.14
   2   0   7   -0.10    1.22
  -2   0  -7    0.56    0.93
  -2   0  -8  535.37   13.08
   2   0   8  502.01   12.75
  -2   0  -9    0.15    1.05
   2   0   9   -1.09    1.25
  -2   0 -10  138.73    6.18
   2   0  10  131.13    5.97
   2   0  11    0.04    1.38
   2   0  12  174.96    7.48
   2   0  13   -2.92    1.86
   2   0  14    8.70    2.34
   2   0  15   -0.02    1.71
   2   0  16  275.14   11.22
   2   0  17    0.77    1.84
   2   0  18   38.46    4.64
  -2  -1  22    3.97    2.32
  -2   1  22   -0.22    2.05
  -2   1  21   64.36    5.55
  -2  -1  20    6.22    2.45
  -2   1  20    6.34    2.70
  -2  -1  19   35.82    4.27
  -2   1  19   38.85    4.65
  -2  -1  18   32.89    4.04
  -2   1  18   33.66    4.24
  -2  -1  17   23.30    3.63
  -2   1  17   13.11    2.88
  -2  -1  16    8.78    2.38
  -2   1  16    9.74    2.44
  -2  -1  15   51.60    4.35
  -2   1  15   58.16    4.58
  -2  -1  14   -1.30    1.71
  -2   1  14   -0.28    1.51
  -2   1  13  427.18   12.63
  -2  -1  13  412.40   12.40
  -2  -1  12   35.75    3.15
  -2   1  12   28.53    2.95
  -2  -1  11  246.68    8.47
   2   1 -11  259.64    8.59
  -2   1  11  243.49    8.50
   2  -1 -11  270.54    8.76
   2  -1 -10   24.10    2.38
   2   1 -10   26.87    2.48
  -2  -1  10   22.38    2.44
  -2   1  10   26.44    2.62
   2   1  -9 1312.99   26.51
  -2   1   9 1321.83   26.48
   2  -1  -9 1343.76   26.63
  -2  -1   9 1355.47   26.55
   2  -1  -8  268.51    7.79
  -2  -1   8  271.29    7.79
  -2   1   8  252.86    7.64
   2   1  -8  270.62    7.75
  -2   1   7    1.55    1.03
   2  -1  -7    2.53    1.07
   2   1  -7    1.73    0.98
  -2   1   7    2.55    1.25
   2  -1  -6    0.69    0.90
   2   1  -6    2.21    1.01
  -2   1   6    1.35    1.18
  -2   1   6    0.15    0.94
   2   1  -5  815.06   16.28
   2  -1  -5  813.13   16.16
  -2  -1   5  827.19   15.12
  -2   1   5  841.82   15.96
   2  -1  -4  310.85    7.08
   2  -1  -4  305.43    6.94
  -2   1   4  296.11    7.04
  -2  -1   4  312.60    6.29
   2  -1  -3    2.75    0.80
  -2  -1   3    1.99    0.56
   2   1  -3    3.31    0.58
  -2   1   3    2.01    0.89
   2   1  -2  363.82    6.92
  -2  -1   2  368.96    6.96
  -2   1   2  361.27    7.61
   2  -1  -2  356.59    7.58
  -2  -1   1 3723.36   62.85
   2  -1  -1 3795.75   63.37
  -2   1   1 3845.45   63.44
   2   1  -1 3745.75   62.83
  -2   1   0 2770.25   46.91
   2   1   0 2701.36   46.54
   2  -1   0 2791.98   46.88
   2  -1   1  564.11   11.25
  -2   1  -1  577.88   11.39
   2  -1   1  569.81   10.92
   2   1   1  561.52   11.30
   2  -1   2 1762.35   31.79
  -2   1  -2 1800.48   31.85
   2  -1   2 1835.69   31.44
   2   1   2 1861.29   31.87
  -2   1  -2 1759.15   31.46
  -2  -1  -2 1761.29   31.80
   2  -1   3 5650.23   95.78
   2  -1   3 5605.07   95.35
  -2   1  -3 5832.05   95.37
  -2  -1  -3 5772.57   95.80
   2   1   3 5531.06   95.75
   2  -1   4   10.36    1.41
   2  -1   4    9.77    1.41
  -2  -1  -4    9.99    1.34
   2   1   4    7.74    1.51
  -2   1  -4   10.23    1.31
  -2   1  -5   47.00    2.75
   2   1   5   58.81    3.06
  -2  -1  -5   52.84    2.97
   2  -1   5   52.85    2.83
  -2   1  -6   21.41    2.04
   2   1   6   23.22    2.24
  -2  -1  -6   26.18    2.21
   2  -1   6   28.24    2.26
  -2  -1  -7  970.64   20.19
  -2   1  -7  968.45   19.84
   2   1   7  949.88   19.89
   2  -1   7  911.77   19.58
  -2   1  -8   66.85    3.73
  -2  -1  -8   69.52    3.92
   2  -1   8   60.88    3.56
   2   1   8   57.90    3.64
  -2   1  -9  293.08    8.85
  -2  -1  -9  281.39    8.96
   2   1   9  257.90    8.63
   2  -1   9  255.30    8.43
  -2  -1 -10   41.88    3.34
  -2   1 -10   38.85    3.16
   2  -1  10   35.65    3.07
   2   1  10   33.13    3.04
   2  -1  11  599.82   15.54
   2   1  11  607.07   15.81
   2   1  12   32.53    3.31
   2  -1  12   29.30    3.09
   2  -1  13  201.69    8.36
   2   1  13  188.88    8.21
   2  -1  14   65.05    4.79
   2   1  14   71.29    5.16
   2  -1  15  210.65    9.33
   2   1  15  218.97    9.52
   2   1  16  181.44    8.91
   2  -1  16  164.99    8.47
   2  -1  17   10.07    2.70
   2   1  17    9.15    2.71
   2  -1  18    1.15    1.96
   2   1  18    2.54    2.47
  -2   2  21   -0.81    2.21
  -2   2  20   94.37    6.67
  -2   2  19   27.01    3.85
  -2  -2  18   58.51    5.25
  -2   2  18   63.74    5.52
  -2  -2  17    1.89    2.23
  -2   2  17    5.07    2.05
  -2  -2  16 1034.62   24.98
  -2   2  16 1006.10   25.06
  -2   2  15   38.27    3.76
  -2  -2  15   31.60    3.42
  -2   2  14    7.25    2.01
  -2  -2  14    6.59    2.11
  -2  -2  13  265.00    9.51
  -2   2  13  263.66    9.50
  -2  -2  12 1012.42   22.82
  -2   2  12 1029.86   22.86
  -2  -2  11   62.54    4.04
  -2   2  11   57.07    3.98
   2  -2 -11   56.35    3.84
   2   2 -11   68.59    4.07
  -2   2  10   23.39    2.52
  -2  -2  10   20.92    2.43
   2   2 -10   24.58    2.40
   2  -2 -10   18.43    2.13
   2   2  -9  141.55    5.47
  -2   2   9  139.64    5.52
   2  -2  -9  138.41    5.47
  -2   2   8  557.20   12.78
  -2   2   8  551.30   12.99
   2  -2  -8  555.28   13.04
   2   2  -8  569.40   13.03
   2  -2  -7  110.04    4.30
  -2   2   7  111.20    4.31
   2   2  -7  112.91    4.35
  -2   2   7  102.17    4.12
   2  -2  -6 1034.56   20.21
  -2   2   6 1046.01   20.22
   2   2  -6 1043.51   20.34
  -2   2   6 1046.48   20.27
   2  -2  -5    3.43    0.85
  -2   2   5    1.67    0.99
   2   2  -5    0.99    0.83
  -2  -2   5    0.85    0.51
  -2   2   5    2.12    1.11
   2  -2  -4 1970.98   33.93
  -2   2   4 1929.18   34.28
  -2  -2   4 1905.77   32.46
   2  -2  -4 1980.04   34.23
   2  -2  -3  718.37   13.24
  -2  -2   3  700.07   12.06
  -2   2   3  714.38   13.72
   2  -2  -3  688.10   13.59
   2   2  -3  687.16   12.02
  -2  -2   2 1046.84   18.07
   2   2  -2 1060.09   18.03
  -2   2   2 1098.77   19.57
   2  -2  -2 1047.60   19.39
   2   2  -1    5.64    0.68
   2  -2  -1    3.80    0.88
  -2   2   1    5.06    1.11
   2  -2   0 1491.21   26.63
  -2   2   0 1512.07   26.74
  -2   2  -1  301.32    7.01
   2  -2   1  292.63    6.92
   2   2   1  302.45    7.06
   2  -2   1  310.14    6.37
   2  -2   2 9653.61  162.24
  -2   2  -2 9814.15  162.33
  -2  -2  -2 9999.00  162.38
  -2   2  -2 9625.89  161.58
   2   2   2 9855.39  162.40
   2  -2   2 9735.60  161.50
  -2   2  -3  522.18   11.14
   2  -2   3  497.75   10.95
   2   2   3  520.25   11.18
  -2   2  -3  508.01   10.53
   2  -2   3  511.42   10.52
  -2  -2  -3  525.40   11.33
   2  -2   4  145.86    4.51
   2  -2   4  150.19    4.84
  -2  -2  -4  143.80    4.93
  -2   2  -4  150.83    4.54
   2   2   4  146.26    4.94
   2  -2   5  403.86    9.70
   2  -2   5  429.70   10.13
  -2  -2  -5  430.94   10.43
  -2   2  -5  416.14    9.76
   2   2   5  421.43   10.22
   2  -2   6  373.95    9.41
   2   2   6  376.53    9.80
   2  -2   6  359.03    9.57
  -2  -2  -6  384.50    9.95
  -2   2  -6  396.40    9.57
   2  -2   7   21.98    2.11
   2  -2   7   20.14    2.08
   2   2   7   22.38    2.22
  -2   2  -7   19.31    1.97
  -2  -2  -7   17.85    2.05
   2   2   8  476.21   12.43
   2  -2   8  460.87   11.91
   2  -2   8  505.38   12.44
  -2  -2  -8  497.16   12.72
  -2   2  -8  491.01   12.19
  -2  -2  -9    1.66    1.05
   2   2   9    0.23    1.32
  -2   2  -9    1.29    1.26
   2  -2   9   -0.44    1.18
  -2  -2 -10  457.10   12.75
  -2   2 -10  476.42   12.45
   2   2  10  416.45   12.26
   2  -2  10  413.89   11.83
   2  -2  11   57.37    4.00
   2   2  11   62.74    4.28
   2  -2  12  414.26   12.42
   2   2  12  416.72   12.68
   2  -2  13  235.16    9.16
   2   2  13  263.56    9.84
   2  -2  14    1.75    1.69
   2   2  14    3.77    1.99
   2   2  15   51.85    4.70
   2  -2  15   59.66    4.80
   2   2  16  329.27   12.52
   2  -2  16  327.56   12.29
   2  -2  17   -0.94    1.94
   2   2  17   -2.02    2.21
   2  -2  18   61.89    5.52
   2   2  18   66.01    5.73
   2  -2  19    1.28    2.52
  -2   3  21   67.07    5.95
  -2   3  20    7.10    2.49
  -2   3  19   17.12    3.18
  -2   3  19   24.15    3.77
  -2   3  18   -0.71    1.89
  -2   3  17   28.32    3.72
  -2   3  16    3.11    1.96
  -2   3  15   46.81    4.20
  -2   3  14    8.02    2.09
  -2   3  13  488.03   14.05
  -2   3  12   29.34    2.95
   2  -3 -11   32.06    2.89
  -2   3  11   32.67    2.91
   2   3 -11   32.02    2.91
   2  -3 -10  262.07    8.44
   2   3 -10  278.70    8.62
  -2   3  10  255.82    8.37
  -2   3   9  705.65   16.08
   2  -3  -9  721.44   16.29
   2   3  -9  720.92   16.21
  -2   3   9  718.72   16.18
  -2   3   8   11.32    1.65
   2  -3  -8    7.00    1.39
   2   3  -8    7.53    1.43
  -2   3   8    6.96    1.53
   2  -3  -7  127.02    4.71
  -2   3   7  127.31    4.66
   2   3  -7  123.42    4.61
  -2   3   7  127.99    4.82
   2  -3  -6  396.05    9.58
   2   3  -6  428.04    9.85
  -2   3   6  416.95    9.66
  -2   3   6  396.48    9.89
   2  -3  -5  946.05   17.96
  -2   3   5  918.91   17.93
   2   3  -5  964.33   18.22
  -2  -3   5  917.79   15.99
  -2   3   5  953.92   18.47
   2  -3  -4    0.44    0.66
   2  -3  -4    0.80    0.80
  -2   3   4    0.59    1.04
   2  -3  -3  380.72    7.88
  -2   3   3  383.65    8.77
   2  -3  -3  376.61    8.68
   2  -3  -2    2.41    0.62
   2  -3  -2    3.17    0.92
  -2   3   2    3.03    1.23
  -2   3   1   41.17    2.25
   2  -3  -1   39.53    2.09
  -2   3   0  923.76   17.15
   2  -3   0  870.25   16.97
   2  -3   1  650.12   12.96
  -2   3  -1  671.46   13.09
   2  -3   1  633.18   11.75
   2   3   1  644.33   12.98
   2  -3   2 3404.76   57.67
  -2   3  -2 3310.72   57.69
   2  -3   2 3344.93   56.49
  -2   3  -2 3403.26   56.56
   2   3   2 3372.19   57.76
  -2  -3  -2 3277.96   57.77
   2  -3   3   19.04    1.36
  -2   3  -3   18.52    1.77
   2  -3   3   21.93    1.70
  -2  -3  -3   19.27    1.77
  -2   3  -3   19.66    1.40
   2   3   3   17.85    1.80
   2  -3   4  316.01    7.35
  -2   3  -4  311.94    7.95
   2  -3   4  308.27    7.84
   2   3   4  305.59    8.07
  -2  -3  -4  320.20    8.20
  -2   3  -4  306.52    7.38
   2  -3   5  227.88    6.29
   2  -3   5  218.71    6.62
  -2   3  -5  243.87    6.44
  -2  -3  -5  252.81    7.17
   2   3   5  233.72    6.97
   2  -3   6  246.44    6.94
   2  -3   6  246.70    7.30
  -2   3  -6  253.21    7.08
  -2  -3  -6  265.23    7.77
   2   3   6  243.35    7.48
   2  -3   7 1136.23   22.76
   2   3   7 1129.32   23.50
   2  -3   7 1135.98   23.23
  -2  -3  -7 1181.69   23.86
  -2   3  -7 1174.53   22.94
   2  -3   8    2.29    1.12
   2  -3   8    4.60    1.31
  -2   3  -8    1.81    1.04
   2   3   8    1.97    1.21
  -2  -3  -8    1.35    1.02
   2  -3   9   98.94    4.71
   2   3   9   91.52    4.89
   2  -3   9  102.87    4.85
  -2  -3  -9  105.18    5.19
  -2   3  -9   98.07    4.72
   2   3  10    7.49    1.89
   2  -3  10   10.67    1.88
   2  -3  10    6.06    1.69
  -2   3 -10    7.35    1.61
   2  -3  11  567.06   14.87
   2   3  11  572.78   15.44
   2  -3  11  580.08   15.11
  -2   3 -11  600.09   15.29
   2   3  12   -0.59    1.63
   2  -3  12    2.47    1.49
   2   3  13   48.33    4.14
   2  -3  13   42.88    3.80
   2   3  14   84.36    5.67
   2  -3  14   89.13    5.57
   2   3  15  196.94    9.23
   2  -3  15  197.97    8.91
   2   3  16   25.43    3.50
   2  -3  16   23.95    3.45
   2  -3  17   16.00    3.30
   2   3  17   12.64    2.98
   2  -3  18   26.15    3.89
   2   3  18   27.73    4.06
   2  -3  19  170.96    9.36
  -2   4  20   54.13    5.15
  -2   4  19    5.57    2.28
  -2   4  19    6.07    2.56
  -2   4  18    1.17    1.99
  -2   4  18    3.07    2.10
  -2   4  17   -0.71    1.88
  -2   4  17   -0.87    1.91
  -2   4  16  386.13   13.40
  -2   4  16  386.73   13.14
  -2   4  15   10.24    2.31
  -2   4  15   17.47    2.75
  -2   4  14    0.86    1.63
  -2   4  13  351.98   11.29
  -2   4  12  528.82   14.27
  -2   4  12  523.98   14.41
   2  -4 -11   15.92    2.15
  -2   4  11   10.08    1.97
  -2   4  11   13.53    2.19
   2   4 -11   14.84    2.07
   2  -4 -10    5.34    1.39
   2   4 -10    7.36    1.63
  -2   4  10    3.30    1.27
  -2   4  10    4.97    1.55
   2  -4  -9  112.62    4.95
  -2   4   9  113.46    4.87
   2   4  -9  118.30    4.99
  -2   4   9  117.19    5.15
  -2   4   8  799.92   17.24
   2   4  -8  793.93   17.33
   2  -4  -8  832.47   17.50
  -2   4   8  806.52   17.70
  -2   4   7    6.65    1.33
   2   4  -7    7.21    1.33
   2  -4  -7    8.43    1.40
  -2   4   7    9.31    1.71
   2  -4  -6  198.65    5.81
   2   4  -6  205.05    6.04
  -2   4   6  192.28    5.80
  -2  -4   6  190.34    4.04
  -2   4   6  204.62    6.35
   2  -4  -5    1.19    0.84
  -2   4   5    1.38    0.82
  -2   4   5    2.18    1.23
   2  -4  -4  760.05   14.70
  -2   4   4  752.94   14.64
   2  -4  -4  762.84   15.78
  -2   4   4  796.37   15.96
   2  -4  -3  625.64   12.04
  -2   4   3  640.24   13.41
   2  -4  -3  643.95   13.42
   2  -4  -2   38.42    1.51
  -2   4   2   36.62    2.33
   2  -4  -2   44.50    2.37
   2  -4  -1   17.63    0.84
   2  -4  -1   16.21    1.52
  -2   4   1   17.35    1.76
   2  -4   0  597.41   10.53
  -2   4   0  616.59   12.54
   2  -4   0  592.31   12.43
   2  -4   1 1271.44   23.53
  -2   4  -1 1294.69   23.65
   2  -4   1 1257.85   21.69
   2   4   1 1275.06   23.48
   2  -4   2   94.09    2.65
  -2   4  -2  100.27    3.71
   2  -4   2   96.84    3.58
   2   4   2   89.74    3.61
  -2   4  -2   98.41    2.72
   2  -4   3  719.52   13.36
  -2   4  -3  702.72   14.59
   2  -4   3  688.98   14.43
  -2   4  -3  697.79   13.40
   2   4   3  693.74   14.68
  -2  -4  -3  720.72   14.77
   2  -4   4 2100.13   36.89
   2  -4   4 2091.96   37.93
  -2   4  -4 2125.16   38.15
  -2   4  -4 2126.40   37.01
   2   4   4 2102.41   38.34
  -2  -4  -4 2117.78   38.59
   2  -4   5  480.38   10.53
   2  -4   5  467.56   11.19
  -2  -4  -5  499.72   11.84
   2   4   5  481.90   11.60
  -2   4  -5  490.53   10.67
   2  -4   6   27.02    2.09
   2  -4   6   23.42    2.09
  -2  -4  -6   22.80    2.22
   2   4   6   21.93    2.17
  -2   4  -6   24.07    1.94
   2  -4   7   -0.07    0.94
   2  -4   7    0.35    0.91
  -2   4  -7    0.41    0.81
   2   4   7    1.14    1.22
  -2  -4  -7   -0.75    1.17
   2   4   8  219.27    7.75
   2  -4   8  228.88    7.27
   2  -4   8  225.96    7.48
  -2  -4  -8  257.22    8.37
  -2   4  -8  245.76    7.53
   2  -4   9    5.57    1.42
   2  -4   9    3.49    1.26
   2   4   9    4.78    1.52
  -2   4  -9    5.63    1.37
  -2  -4  -9    6.00    1.57
   2  -4  10  250.95    8.36
   2   4  10  257.12    9.01
   2  -4  10  259.11    8.56
  -2   4 -10  260.98    8.57
   2   4  11    5.23    1.72
   2  -4  11    3.93    1.52
   2  -4  11    4.18    1.48
  -2   4 -11    4.64    1.51
   2   4  12    8.20    2.00
   2  -4  12    4.73    1.61
   2  -4  12    5.40    1.64
   2   4  13  124.82    6.71
   2  -4  13  124.39    6.33
   2   4  14   25.64    3.33
   2  -4  14   31.72    3.53
   2   4  15  110.06    6.92
   2  -4  15  109.27    6.52
   2   4  16  294.26   11.96
   2  -4  16  286.89   11.35
   2  -4  17    6.33    2.50
   2   4  17    0.25    1.92
   2  -4  18   43.10    4.55
   2   4  18   41.96    4.76
   2  -4  19    1.49    2.01
  -2   5  19    6.52    2.52
  -2   5  19    8.03    2.65
  -2   5  18   98.99    6.84
  -2   5  18   93.16    6.54
  -2   5  17   82.69    6.05
  -2   5  17   86.22    6.16
  -2   5  16   87.61    5.96
  -2   5  16   79.98    5.70
  -2   5  15  454.32   14.32
  -2   5  15  455.07   14.28
  -2   5  14    4.17    1.96
  -2   5  14    3.22    1.81
  -2   5  13  270.67    9.75
  -2   5  13  277.24    9.96
  -2   5  12  310.58   10.14
  -2   5  12  326.45   10.58
   2  -5 -11   51.42    3.61
   2   5 -11   50.39    3.54
  -2   5  11   46.75    3.53
  -2  -5  11   46.84    2.52
  -2   5  11   45.86    3.60
   2   5 -10  143.86    5.89
  -2   5  10  153.69    6.02
   2  -5 -10  142.34    5.96
  -2  -5  10  134.15    4.29
  -2   5  10  141.16    6.21
  -2   5   9  873.78   18.72
   2  -5  -9  886.33   18.99
   2   5  -9  892.96   18.82
  -2  -5   9  832.88   16.22
  -2   5   9  849.92   19.36
  -2   5   8   85.96    4.10
   2   5  -8   90.99    4.11
   2  -5  -8   87.00    4.12
  -2  -5   8   83.94    2.64
  -2   5   8   88.70    4.51
   2  -5  -7  213.41    6.54
   2   5  -7  214.20    6.53
  -2   5   7  217.83    6.49
  -2  -5   7  215.49    4.50
  -2   5   7  207.29    7.08
   2  -5  -6  579.51   12.63
   2   5  -6  602.64   12.91
  -2   5   6  561.01   12.43
  -2   5   6  588.08   13.54
  -2   5   5  219.15    5.87
   2  -5  -5  221.32    5.90
  -2   5   5  215.73    6.84
  -2   5   4  411.23    8.67
   2  -5  -4  399.89    8.68
  -2   5   4  405.43   10.04
   2  -5  -4  400.97    9.95
   2  -5  -3  500.65    9.92
  -2   5   3  528.13   11.69
   2  -5  -3  505.34   11.59
   2  -5  -2    5.89    0.59
   2  -5  -2    7.00    1.25
   2   5  -2    6.77    0.63
  -2   5   2    4.85    1.21
   2  -5  -1  189.58    5.65
  -2   5   1  191.22    5.71
  -2   5   0   63.76    3.03
   2  -5   0   63.03    2.92
   2   5   1  620.10   12.94
  -2   5  -1  624.13   13.21
   2  -5   1  618.14   13.11
   2  -5   2   37.69    1.40
   2  -5   2   39.35    2.34
  -2   5  -2   39.49    2.40
  -2   5  -2   39.48    1.44
   2   5   2   38.32    2.36
   2  -5   3 2925.82   49.54
   2  -5   3 2866.89   51.30
  -2   5  -3 3009.57   51.52
  -2  -5  -3 2961.67   51.64
  -2   5  -3 2897.29   49.60
   2   5   3 2949.19   51.50
   2  -5   4  118.52    3.61
   2  -5   4  114.01    4.32
  -2   5  -4  115.47    4.40
  -2  -5  -4  117.80    4.63
   2   5   4  114.27    4.54
  -2   5  -4  120.47    3.67
   2  -5   5   44.63    2.28
   2  -5   5   37.97    2.50
  -2   5  -5   40.10    2.64
  -2  -5  -5   40.44    2.82
  -2   5  -5   45.62    2.33
   2   5   5   42.54    2.85
   2  -5   6 1109.64   21.38
   2  -5   6 1066.22   22.15
  -2  -5  -6 1124.37   23.05
  -2   5  -6 1136.51   21.54
   2   5   6 1107.38   22.77
   2   5   7  406.55   11.10
   2  -5   7  421.40   10.13
   2  -5   7  386.63   10.41
  -2  -5  -7  427.35   11.40
  -2   5  -7  411.95   10.18
   2  -5   8    0.78    0.96
   2  -5   8   -0.83    0.99
  -2   5  -8    2.04    1.10
  -2  -5  -8    1.24    1.13
   2   5   8    1.63    1.35
   2  -5   9   57.23    3.48
   2   5   9   61.87    4.07
   2  -5   9   57.19    3.59
  -2  -5  -9   65.16    4.24
  -2   5  -9   66.31    3.78
   2   5  10   89.33    5.09
   2  -5  10   82.82    4.40
   2  -5  10   83.74    4.55
  -2   5 -10   83.97    4.57
   2   5  11   17.92    2.59
   2  -5  11   17.88    2.46
   2  -5  11   19.64    2.36
  -2   5 -11   21.60    2.51
   2   5  12   -1.15    1.59
   2  -5  12    0.11    1.43
   2  -5  12    1.00    1.30
   2   5  13   45.92    4.18
   2  -5  13   35.18    3.56
   2  -5  14    2.69    1.60
   2   5  14    2.57    1.75
   2  -5  15   76.60    5.37
   2   5  15   73.13    5.71
   2  -5  16   37.25    4.07
   2   5  16   37.72    4.48
   2  -5  17   36.25    4.34
   2   5  17   42.57    4.69
   2  -5  18   64.61    5.53
   2  -5  19   32.03    4.38
  -2   6  19   12.52    3.11
  -2   6  19   11.64    2.84
  -2   6  18    3.33    2.06
  -2   6  18    2.87    2.20
  -2   6  17   27.82    3.94
  -2   6  17   34.42    4.12
  -2   6  16  118.45    7.20
  -2   6  16  122.24    7.23
  -2   6  15  214.29    9.27
  -2   6  15  231.50    9.68
  -2   6  14    9.27    2.14
  -2  -6  14   15.45    1.89
  -2   6  14   14.28    2.70
  -2   6  13   77.00    4.99
  -2  -6  13   68.53    3.40
  -2   6  13   66.46    4.87
  -2   6  12   97.08    5.34
  -2  -6  12  100.59    3.90
  -2   6  12   98.81    5.66
   2  -6 -11  190.72    7.36
   2   6 -11  184.28    7.11
  -2   6  11  186.31    7.17
  -2  -6  11  178.09    5.24
  -2   6  11  190.69    7.74
  -2   6  10    1.36    1.44
   2   6 -10    1.50    1.17
   2  -6 -10    1.95    1.48
  -2  -6  10    0.94    0.55
  -2   6  10    0.65    1.42
   2  -6  -9  101.19    4.71
  -2   6   9   96.13    4.59
   2   6  -9   95.33    4.54
  -2  -6   9   96.16    2.94
  -2   6   9  104.42    5.22
   2  -6  -8  429.34   10.89
  -2   6   8  428.55   10.74
   2   6  -8  424.81   10.82
  -2  -6   8  416.92    8.03
  -2   6   8  413.22   11.59
   2  -6  -7  229.69    6.94
   2   6  -7  232.86    7.02
  -2   6   7  235.49    6.89
  -2   6   7  237.62    7.79
   2   6  -6  553.89   12.45
  -2   6   6  548.59   12.13
   2  -6  -6  567.77   12.33
  -2   6   6  556.13   13.51
  -2   6   5  373.90    8.48
   2  -6  -5  354.76    8.46
  -2   6   5  370.11    9.92
  -2   6   4  248.16    5.95
   2  -6  -4  250.95    6.07
  -2   6   4  248.11    7.43
   2  -6  -3   88.84    2.74
   2  -6  -3   93.60    4.05
   2   6  -3   89.65    2.25
  -2   6   3   94.68    4.06
   2  -6  -2   37.54    1.35
   2  -6  -2   36.43    2.43
   2   6  -2   35.50    1.51
  -2   6   2   39.40    2.62
   2  -6  -1   51.00    2.82
  -2   6   1   47.71    2.77
   2   6  -1   48.63    2.00
   2   6   0  468.08   10.33
  -2   6   0  469.06   10.83
   2  -6   0  452.51   10.70
   2   6   1  707.53   14.47
  -2   6  -1  692.37   14.74
   2  -6   1  690.14   14.71
   2  -6   2  121.17    2.67
   2   6   2  116.02    4.32
  -2   6  -2  118.69    4.48
   2  -6   2  118.57    4.39
   2  -6   3 1232.70   21.58
  -2   6  -3 1261.64   23.93
   2  -6   3 1205.15   23.66
  -2   6  -3 1215.28   21.65
   2   6   3 1277.42   23.96
   2  -6   4 1945.58   33.73
  -2  -6  -4 1919.13   35.94
  -2   6  -4 1941.44   33.82
   2   6   4 1936.63   35.87
   2  -6   4 1902.49   35.46
  -2   6  -4 1972.70   35.74
   2  -6   5    2.94    0.75
  -2  -6  -5    4.37    1.32
  -2   6  -5    4.11    0.89
   2   6   5    1.03    1.04
  -2   6  -5    3.18    1.19
   2  -6   5    2.62    0.97
   2  -6   6   41.51    2.33
  -2   6  -6   45.20    2.84
   2  -6   6   37.68    2.60
  -2   6  -6   43.24    2.42
  -2  -6  -6   42.35    3.11
   2   6   6   39.27    2.91
   2  -6   7   15.10    1.64
   2  -6   7   14.83    1.74
  -2  -6  -7   13.25    1.89
   2   6   7   12.91    2.02
  -2   6  -7   17.62    1.78
   2   6   8   44.60    3.41
   2  -6   8   41.79    2.73
   2  -6   8   36.16    2.77
  -2  -6  -8   47.04    3.53
  -2   6  -8   40.01    2.73
   2   6   9  134.97    6.12
   2  -6   9  125.15    5.20
   2  -6   9  117.62    5.33
  -2   6  -9  130.55    5.38
  -2  -6  -9  137.56    6.26
   2   6  10  444.72   12.75
   2  -6  10  390.46   11.19
   2  -6  10  411.86   11.56
  -2   6 -10  433.84   11.67
   2  -6  11   31.32    2.91
   2   6  11   34.00    3.44
   2  -6  11   30.56    2.86
  -2   6 -11   33.97    3.01
   2  -6  12    7.07    1.91
   2   6  12    1.73    1.48
   2  -6  12    7.45    2.00
   2   6  13  369.37   12.52
   2  -6  13  364.44   11.67
   2  -6  14    2.31    1.91
   2   6  14    1.86    1.96
   2  -6  15    6.93    2.12
   2   6  15    7.86    2.30
   2   6  16  174.45    9.15
   2  -6  16  166.13    8.31
   2   6  17   17.69    3.41
   2  -6  17   27.90    3.80
   2  -6  18    7.77    2.61
   2  -6  19   12.08    3.23
  -2   7  19    8.88    2.79
  -2   7  18   52.29    5.14
  -2   7  18   53.87    5.27
  -2   7  17    8.34    2.63
  -2   7  17   13.78    2.96
  -2   7  16    6.38    2.32
  -2   7  16    8.82    2.44
  -2   7  15  127.97    6.95
  -2   7  15  125.61    7.18
  -2   7  14    6.80    2.19
  -2   7  14    6.58    1.97
  -2   7  13  291.28   10.39
  -2  -7  13  296.23    7.75
  -2   7  13  316.67   11.23
  -2   7  12  434.32   12.78
  -2  -7  12  455.89   10.10
  -2   7  12  471.14   13.92
  -2   7  11   21.47    2.58
   2   7 -11   24.63    2.58
   2  -7 -11   22.83    2.60
  -2  -7  11   20.72    1.44
  -2   7  11   22.42    2.87
   2   7 -10  726.80   16.66
   2  -7 -10  713.34   16.85
  -2   7  10  703.65   16.57
  -2  -7  10  692.61   13.24
  -2   7  10  680.91   17.51
   2  -7  -9  503.15   12.71
  -2   7   9  494.83   12.40
   2   7  -9  497.88   12.47
  -2  -7   9  489.60    9.31
  -2   7   9  486.33   13.46
  -2   7   8  215.76    6.96
   2  -7  -8  213.47    7.02
   2   7  -8  223.89    7.06
  -2   7   8  229.19    8.03
  -2  -7   8  218.90    4.30
   2  -7  -7   16.99    1.81
   2   7  -7   18.30    1.86
  -2   7   7   20.55    1.90
  -2   7   7   20.35    2.43
   2  -7  -6  230.74    6.64
  -2   7   6  234.92    6.61
   2   7  -6  255.42    7.06
  -2   7   6  246.39    8.04
   2  -7  -5   31.77    1.96
  -2   7   5   31.03    1.95
  -2   7   5   35.90    2.86
  -2   7   4  154.46    4.30
   2  -7  -4  151.45    4.33
   2   7  -4  159.10    3.36
  -2   7   4  159.19    5.94
   2  -7  -3  146.98    3.82
   2   7  -3  153.05    3.62
   2  -7  -3  153.76    5.63
  -2   7   3  144.27    5.54
   2  -7  -2   17.07    0.84
   2  -7  -2   17.50    1.87
  -2   7   2   18.70    2.02
   2   7  -2   17.27    1.17
   2  -7  -1  217.85    6.86
  -2   7   1  225.17    6.89
   2   7  -1  232.70    5.65
   2   7   0  539.64   11.91
  -2   7   0  547.36   12.63
   2  -7   0  554.55   12.63
   2   7   0  561.10   11.56
   2   7   1   36.75    2.32
  -2   7  -1   34.56    2.44
   2  -7   1   37.30    2.49
   2   7   2  102.12    4.04
  -2   7  -2  100.18    4.22
   2  -7   2   96.57    4.06
  -2   7  -3  152.18    3.50
   2   7   3  159.28    5.36
  -2   7  -3  153.73    5.41
   2  -7   3  143.38    5.16
   2  -7   4  243.09    5.47
  -2   7  -4  238.82    7.19
   2  -7   4  237.04    7.04
  -2  -7  -4  229.45    7.23
   2   7   4  236.69    7.20
  -2   7  -4  231.84    5.51
   2  -7   5  164.51    4.59
   2  -7   5  158.40    5.57
  -2   7  -5  169.98    5.88
  -2  -7  -5  160.04    6.00
   2   7   5  161.67    5.90
  -2   7  -5  158.89    4.60
   2   7   6 1202.90   24.72
   2  -7   6 1226.35   22.72
  -2   7  -6 1208.99   24.24
   2  -7   6 1152.01   23.87
  -2  -7  -6 1212.56   25.03
  -2   7  -6 1217.53   22.80
   2  -7   7  275.59    7.44
   2   7   7  263.51    8.58
   2  -7   7  259.33    8.01
  -2  -7  -7  282.59    9.12
  -2   7  -7  273.03    7.46
   2  -7   8   95.59    4.17
   2   7   8   91.05    4.90
   2  -7   8   96.04    4.67
  -2   7  -8  100.74    4.37
  -2  -7  -8  103.37    5.30
   2  -7   9    4.68    1.25
   2  -7   9    2.87    1.08
  -2   7  -9    3.93    1.27
   2   7   9    6.25    1.83
   2  -7  10   24.20    2.42
   2  -7  10   20.69    2.32
  -2   7 -10   23.77    2.42
   2   7  10   21.64    2.85
   2  -7  11  213.14    7.73
   2   7  11  213.72    8.64
   2  -7  11  207.48    7.74
  -2   7 -11  205.07    7.73
   2  -7  12  180.10    7.31
   2   7  12  173.88    8.01
   2  -7  12  169.44    7.17
   2  -7  13   -0.45    1.49
   2   7  13    3.59    1.85
   2   7  14   39.93    4.29
   2  -7  14   45.88    3.93
   2   7  15  142.90    8.01
   2  -7  15  135.61    7.24
   2   7  16   85.30    6.45
   2  -7  16   83.14    5.82
   2  -7  17   59.57    5.16
   2   7  17   59.21    5.43
   2  -7  18   38.78    4.46
   2  -7  19   51.07    5.19
  -2   8  18    6.56    2.23
  -2   8  17    7.42    2.49
  -2   8  17   10.39    2.79
  -2   8  16   60.20    5.17
  -2   8  16   74.85    5.93
  -2   8  15   95.77    6.06
  -2   8  15  106.55    6.87
  -2   8  14   72.20    5.15
  -2   8  14   80.35    5.82
  -2   8  13   93.94    5.45
  -2   8  13   98.28    6.25
  -2   8  12  105.67    5.65
  -2  -8  12  110.57    3.50
  -2   8  12  107.13    6.32
  -2   8  11   16.86    2.29
   2   8 -11   19.35    2.32
  -2  -8  11   19.72    1.21
  -2   8  11   10.38    2.38
   2  -8 -10  129.87    5.81
   2   8 -10  132.69    5.69
  -2   8  10  132.14    5.77
  -2   8  10  132.49    6.60
  -2  -8  10  132.97    3.25
   2  -8  -9  387.39   10.58
  -2   8   9  390.46   10.36
   2   8  -9  395.59   10.43
  -2  -8   9  357.83    6.71
  -2   8   9  361.14   11.45
   2  -8  -8  606.73   14.24
  -2   8   8  620.28   14.10
   2   8  -8  586.67   14.04
  -2   8   8  611.71   15.73
   2  -8  -7  441.88   10.81
  -2   8   7  423.66   10.56
   2   8  -7  444.81   10.88
  -2   8   7  440.32   12.35
   2  -8  -6   -0.37    0.70
   2   8  -6    1.21    0.92
  -2   8   6    0.28    0.79
  -2   8   6   -0.29    1.35
   2  -8  -5   20.97    1.60
  -2   8   5   25.55    1.71
  -2   8   5   21.44    2.45
  -2   8   4  206.87    5.22
   2  -8  -4  198.76    5.26
   2   8  -4  211.67    4.59
  -2   8   4  219.62    7.36
   2  -8  -3   77.90    2.50
   2   8  -3   85.14    2.67
   2  -8  -3   85.29    4.20
  -2   8   3   84.06    4.22
   2   8  -2   47.27    2.13
   2  -8  -2   46.65    3.04
  -2   8   2   52.10    3.25
  -2   8   1  138.71    5.42
   2   8  -1  148.16    4.42
   2  -8  -1  145.98    5.45
   2   8   0  136.39    4.66
  -2   8   0  137.16    5.23
   2   8   0  132.15    4.41
   2  -8   0  131.67    5.12
   2   8   1   91.32    3.80
  -2   8  -1   91.35    4.20
   2   8   1   93.46    3.77
   2  -8   1   89.91    4.05
   2   8   2  140.93    4.99
  -2   8  -2  145.09    5.34
   2  -8   2  142.67    5.24
   2   8   3  341.31    8.91
  -2   8  -3  323.09    8.97
   2  -8   3  323.52    8.87
  -2   8  -4 1595.00   28.21
   2   8   4 1678.24   31.22
  -2   8  -4 1693.08   31.25
   2  -8   4 1608.92   30.90
  -2  -8  -5  246.75    7.93
   2   8   5  248.38    7.73
  -2   8  -5  245.85    5.97
  -2   8  -5  250.85    7.68
   2  -8   5  234.79    7.35
   2  -8   6   34.90    2.02
  -2   8  -6   35.57    2.76
   2  -8   6   33.81    2.54
   2   8   6   27.05    2.53
  -2   8  -6   32.57    1.98
  -2  -8  -6   32.98    2.89
   2  -8   7   76.33    3.34
   2   8   7   68.42    4.08
   2  -8   7   72.14    3.79
  -2   8  -7   75.87    3.37
  -2  -8  -7   73.60    4.36
   2   8   8  282.24    9.43
   2  -8   8  291.54    8.02
   2  -8   8  282.30    8.67
  -2   8  -8  291.10    8.12
  -2  -8  -8  298.76    9.88
   2   8   9   95.51    5.27
   2  -8   9   98.33    4.44
   2  -8   9   97.53    4.74
  -2   8  -9  103.59    4.64
   2  -8  10   -1.13    1.31
   2   8  10    0.30    1.56
   2  -8  10   -0.28    1.17
  -2   8 -10   -0.31    1.19
   2  -8  11   59.50    3.86
   2   8  11   59.52    4.53
   2  -8  11   62.68    3.99
  -2   8 -11   58.69    3.94
   2  -8  12  153.52    6.61
   2   8  12  161.00    7.68
   2  -8  12  134.88    6.41
   2   8  13   47.47    4.40
   2  -8  13   49.79    3.95
   2   8  14   12.52    2.73
   2  -8  14   11.49    2.32
   2  -8  15   44.52    4.16
   2   8  15   40.96    4.61
   2   8  16  170.53    9.21
   2  -8  16  165.56    8.28
   2  -8  17   14.41    2.95
   2   8  17   12.07    3.08
   2  -8  18   72.25    5.79
  -2   9  18   25.98    4.06
  -2   9  17   75.81    6.07
  -2   9  17   77.08    6.36
  -2   9  16   63.44    5.25
  -2   9  16   68.67    5.87
  -2   9  15   26.33    3.51
  -2   9  15   28.37    3.99
  -2   9  14   75.44    5.23
  -2   9  14   73.09    5.64
  -2   9  13   18.32    2.78
  -2   9  13   18.68    3.34
  -2   9  12   42.65    3.71
  -2   9  12   52.67    4.59
   2   9 -11  194.82    7.27
  -2   9  11  178.46    7.10
  -2  -9  11  170.81    3.75
  -2   9  11  180.58    8.19
   2  -9 -10   36.74    3.10
  -2   9  10   30.61    2.91
   2   9 -10   33.65    2.82
  -2   9  10   28.39    3.24
   2  -9  -9   35.82    2.87
  -2   9   9   36.47    2.82
   2   9  -9   35.63    2.79
  -2   9   9   31.04    3.33
   2  -9  -8    3.27    1.23
  -2   9   8    2.33    1.12
   2   9  -8    2.19    1.14
  -2   9   8    1.64    1.48
   2  -9  -7  153.54    5.53
  -2   9   7  167.86    5.57
   2   9  -7  158.21    5.62
  -2   9   7  168.75    7.05
   2  -9  -6  601.66   13.36
   2   9  -6  629.37   13.80
  -2   9   6  621.40   13.32
  -2   9   6  624.65   15.72
   2   9  -5  133.71    4.75
  -2   9   5  140.90    4.33
   2  -9  -5  136.52    4.39
   2   9  -5  135.97    3.28
  -2   9   5  130.84    5.88
   2  -9  -4   15.30    1.21
   2   9  -4   15.38    1.10
  -2   9   4   13.67    2.10
   2  -9  -3   48.39    1.75
   2   9  -3   46.73    2.10
  -2   9   3   45.02    3.30
  -2   9   2  303.28    9.26
   2   9  -2  316.81    7.49
   2  -9  -2  331.98    9.44
   2   9  -1 1003.61   19.98
   2   9  -1 1029.02   19.67
  -2   9   1 1010.97   21.49
   2  -9  -1 1042.59   21.56
   2   9   0  221.10    6.51
  -2   9   0  226.18    7.36
   2   9   0  237.26    6.59
   2  -9   0  225.74    7.30
   2   9   1   45.06    2.76
  -2   9  -1   38.29    2.87
   2  -9   1   39.55    2.81
   2   9   1   45.04    2.73
   2   9   2  108.62    4.37
  -2   9  -2  111.45    4.79
   2  -9   2  104.49    4.58
   2   9   2  113.21    4.61
   2   9   3   20.78    2.18
   2   9   3   22.36    2.06
  -2   9  -3   23.96    2.28
   2  -9   3   17.86    1.93
   2   9   4   58.09    3.36
  -2   9  -4   57.44    3.46
   2  -9   4   57.98    3.33
  -2   9  -5    1.54    0.52
   2   9   5    0.70    1.14
  -2   9  -5   -0.59    1.14
   2  -9   5   -0.32    0.93
   2   9   6  308.84    9.32
  -2   9  -6  305.78    7.33
  -2  -9  -6  309.97    9.61
  -2   9  -6  317.16    9.28
   2  -9   6  300.52    8.84
   2   9   7  112.24    5.41
  -2   9  -7  125.78    5.41
   2  -9   7  109.85    4.95
  -2  -9  -7  120.48    5.68
  -2   9  -7  116.91    4.20
   2   9   8   96.62    5.18
  -2   9  -8  101.40    4.17
   2  -9   8   98.16    4.72
   2   9   9   24.38    2.98
  -2   9  -9   28.51    2.34
   2  -9   9   21.72    2.34
   2   9  10  166.58    7.53
   2  -9  10  165.71    6.63
  -2   9 -10  182.25    6.60
   2  -9  11  149.17    6.17
   2   9  11  138.27    7.04
   2  -9  11  140.05    6.20
  -2   9 -11  141.21    6.10
   2   9  12   10.96    2.55
   2  -9  12   13.15    2.24
   2  -9  13   37.72    3.44
   2   9  13   35.06    3.89
   2   9  14   -1.71    3.57
   2  -9  14   -0.35    1.41
   2   9  15   24.09    3.71
   2   9  16   18.29    3.19
  -2  10  18    6.90    2.87
  -2  10  17   92.33    6.58
  -2  10  16    8.72    2.81
  -2  10  16   15.44    3.51
  -2  10  15  103.28    6.39
  -2  10  15  100.01    6.98
  -2  10  14   -1.33    1.69
  -2  10  14   -0.48    1.98
  -2  10  13   67.10    4.79
  -2  10  13   54.34    5.04
  -2  10  12   21.96    2.84
  -2  10  12   29.91    3.77
   2  10 -11  185.90    7.27
  -2  10  11  194.18    7.55
  -2  10  11  181.59    8.60
   2 -10 -10    0.10    1.18
   2  10 -10   -0.34    1.09
  -2  10  10   -0.30    1.25
  -2  10  10    0.39    1.62
   2 -10  -9   -0.14    1.20
   2  10  -9    1.91    1.12
  -2  10   9    2.20    1.30
  -2  10   9    4.54    2.00
   2 -10  -8   52.01    3.24
  -2  10   8   57.67    3.35
   2  10  -8   52.58    3.25
  -2  10   8   59.26    4.49
   2 -10  -7  163.50    5.64
  -2  10   7  163.74    5.51
   2  10  -7  145.07    5.43
  -2  10   7  151.04    7.03
   2 -10  -6  251.11    6.98
  -2  10   6  247.54    6.81
   2  10  -6  244.99    7.18
  -2  10   6  244.62    8.96
  -2  10   5    2.36    0.79
   2  10  -5    0.38    0.79
   2 -10  -5    1.13    0.70
   2  10  -5    0.70    0.46
  -2  10   5   -2.30    1.79
   2 -10  -4  345.25    7.68
   2  10  -4  367.91    7.82
  -2  10   4  364.24   10.93
   2  10  -3  381.48    8.54
  -2  10   3  382.99   11.08
   2  10  -2   36.05    2.31
  -2  10   2   39.89    3.19
   2 -10  -2   38.32    3.00
   2  10  -2   36.16    2.16
   2  10  -1  108.32    4.16
  -2  10   1  108.27    5.10
   2  10  -1  104.02    4.02
   2 -10  -1  110.91    5.12
   2  10   0    3.66    1.00
   2  10   0    2.36    1.04
   2 -10   0    2.65    1.14
  -2  10   0    0.22    1.16
   2  10   1  273.59    7.77
  -2  10  -1  291.07    8.76
   2 -10   1  287.59    8.61
   2  10   1  277.69    7.97
   2  10   2  232.34    7.05
  -2  10  -2  241.46    7.82
   2  10   2  239.78    7.54
   2 -10   2  233.98    7.63
   2  10   3   19.21    1.96
  -2  10  -3   16.71    2.06
   2  10   3   18.23    2.09
   2 -10   3   19.34    2.07
   2  10   4   94.33    4.37
  -2  10  -4   92.90    4.56
   2 -10   4   84.64    4.26
   2  10   4   96.56    4.80
   2  10   5   75.42    4.03
  -2  10  -5   71.63    2.10
  -2  10  -5   71.08    4.00
   2  10   5   61.04    4.18
   2 -10   5   65.23    3.77
   2  10   6  320.49    9.78
  -2  10  -6  334.60    7.43
  -2  10  -6  334.44    9.85
   2 -10   6  324.05    9.49
   2  10   7    0.52    1.29
  -2  10  -7    1.34    0.76
  -2 -10  -7    3.04    1.34
  -2  10  -7    0.54    1.19
   2 -10   7    2.71    1.32
  -2  10  -8   50.67    2.76
   2  10   8   45.82    3.63
   2 -10   8   40.61    3.05
   2  10   9   87.20    5.18
  -2  10  -9   95.91    4.22
   2 -10   9   88.62    4.62
   2  10  10   14.43    2.42
   2 -10  10   17.64    2.28
   2  10  11   -1.94    1.69
   2  10  12   32.87    3.63
   2  10  13   87.96    5.99
   2  10  14    7.51    2.41
   2  10  15   41.27    4.59
   2  10  16    4.77    2.60
  -2  11  17    5.43    2.48
  -2  11  16    8.43    2.54
  -2  11  15  101.16    6.45
  -2  11  15  104.53    7.47
  -2  11  14  238.97    9.73
  -2  11  14  215.62   10.47
  -2  11  13    4.38    1.93
  -2  11  13    3.63    2.20
  -2  11  12    1.56    1.53
  -2  11  12    1.12    2.28
  -2  11  11   86.82    4.97
  -2  11  11   89.93    6.09
   2 -11 -10  284.40    9.51
   2  11 -10  295.50    9.20
  -2  11  10  300.95    9.42
  -2  11  10  288.08   11.17
   2 -11  -9   20.81    2.51
   2  11  -9   18.74    2.19
  -2  11   9   16.13    2.06
  -2  11   9   16.83    2.86
   2 -11  -8   24.09    2.30
   2  11  -8   19.63    2.16
  -2  11   8   22.20    2.14
  -2  11   8   24.07    3.13
   2 -11  -7   29.46    2.31
  -2  11   7   34.96    2.42
   2  11  -7   31.87    2.44
  -2  11   7   31.56    3.47
   2 -11  -6  206.08    6.19
  -2  11   6  211.33    6.06
   2  11  -6  216.76    6.58
  -2  11   6  220.76    8.59
   2  11  -5   17.83    1.72
   2 -11  -5   17.94    1.42
   2  11  -5   17.49    1.23
  -2  11   5   16.75    2.53
   2  11  -4   63.36    2.61
  -2  11   4   57.65    4.26
   2  11  -3  100.26    3.66
  -2  11   3   97.01    5.18
   2  11  -2  158.28    5.25
   2  11  -2  156.72    5.10
  -2  11   2  154.04    6.52
   2  11  -1  498.21   11.51
  -2  11   1  496.10   13.29
   2  11  -1  495.45   11.62
   2 -11  -1  504.36   13.29
   2  11   0   37.26    2.46
  -2  11   0   37.86    3.16
   2  11   0   35.53    2.57
   2 -11   0   35.20    2.95
   2  11   1  294.58    8.13
  -2  11  -1  290.72    9.16
   2 -11   1  286.97    9.05
   2  11   1  297.11    8.61
   2  11   2  147.87    5.36
  -2  11  -2  144.26    5.97
   2  11   2  144.81    5.76
   2 -11   2  137.95    5.77
   2  11   3    0.10    1.06
  -2  11  -3    0.77    1.27
   2 -11   3    0.62    1.02
   2  11   3    0.01    1.15
   2  11   4    4.89    1.41
  -2  11  -4    5.34    1.55
   2 -11   4    3.79    1.22
   2  11   4    6.83    1.78
   2  11   5   29.78    2.64
  -2  11  -5   32.48    2.83
   2 -11   5   28.33    2.59
   2  11   5   33.99    3.20
   2  11   6  347.62   10.44
  -2  11  -6  352.31    7.06
  -2  11  -6  359.70   10.49
   2  11   6  346.17   11.14
   2 -11   6  338.02    9.97
   2  11   7   47.77    3.64
  -2  11  -7   54.99    2.39
  -2  11  -7   49.00    3.55
   2  11   7   45.94    4.04
   2 -11   7   47.29    3.30
   2  11   8    3.59    1.68
   2  11   8    6.30    2.06
   2 -11   8    3.58    1.27
   2  11   9    5.53    1.87
   2  11  10  107.76    6.01
   2  11  11   55.81    4.58
   2  11  12   38.86    4.04
   2  11  13    5.69    2.49
   2  11  14  100.86    6.78
   2  11  15    8.68    2.61
  -2  12  17   29.35    4.04
  -2  12  16    3.41    2.25
  -2  12  15    5.52    2.00
  -2  12  14   32.35    3.77
  -2  12  14   24.90    3.85
  -2  12  13   38.47    3.88
  -2  12  13   32.43    4.25
  -2  12  12    4.67    1.84
  -2  12  12    1.94    1.90
  -2  12  11  197.27    7.64
  -2  12  11  184.94    9.31
  -2  12  10  103.78    5.06
  -2  12  10   92.10    6.30
  -2  12   9  322.30    9.44
  -2  12   9  323.41   11.94
  -2  12   8  139.01    5.29
  -2  12   8  133.23    7.23
  -2  12   7  176.37    5.70
   2  12  -7  174.08    5.94
  -2  12   7  162.25    7.81
   2 -12  -6    0.16    0.78
   2  12  -6    0.81    1.00
  -2  12   6    3.30    1.64
   2  12  -5  201.41    6.14
   2  12  -5  193.05    5.06
  -2  12   5  191.98    8.23
   2  12  -4   17.98    1.69
   2  12  -4   12.23    1.28
  -2  12   4   16.48    2.57
   2  12  -3   12.93    1.48
   2  12  -3   15.23    1.57
  -2  12   3   15.46    2.43
   2  12  -2    0.41    0.76
   2  12  -2    1.65    0.94
  -2  12   2    2.04    1.55
   2  12  -1   21.02    1.87
   2  12  -1   20.98    2.02
  -2  12   1   19.48    2.56
   2  12   0   24.89    2.04
  -2  12   0   26.32    2.74
   2 -12   0   24.29    2.57
   2  12   0   26.87    2.40
   2  12   1   27.32    2.25
   2  12   1   25.24    2.43
   2 -12   1   27.82    2.73
  -2  12  -1   35.60    3.11
   2  12   2   21.31    2.08
  -2  12  -2   15.64    2.27
   2  12   2   18.25    2.16
   2 -12   2   17.55    2.17
   2  12   3  127.72    5.19
  -2  12  -3  129.52    5.91
   2  12   3  134.15    5.95
   2 -12   3  129.48    5.66
   2  12   4  291.95    8.87
  -2  12  -4  309.41    9.68
   2 -12   4  296.03    9.29
   2  12   4  313.46   10.01
   2  12   5  271.73    8.67
  -2  12  -5  270.59    8.97
   2 -12   5  270.39    8.74
   2  12   5  272.55    9.61
   2  12   6   72.10    4.31
  -2  12  -6   80.11    4.58
   2 -12   6   78.02    4.31
   2  12   6   73.39    4.88
   2  12   7   47.52    3.61
  -2  12  -7   47.30    3.54
   2  12   7   42.74    3.89
   2 -12   7   41.37    3.20
   2  12   8   22.45    2.71
   2  12   8   20.31    3.04
   2  12   9   28.12    3.19
   2  12   9   30.62    3.60
   2  12  10   46.02    4.04
   2  12  10   36.64    4.05
   2  12  11   45.62    4.32
   2  12  11   50.63    4.88
   2  12  12    9.10    2.41
   2  12  12    8.47    2.61
   2  12  13   74.01    5.64
   2  12  13   69.16    6.10
   2  12  14   12.95    3.01
   2  12  15    3.54    1.98
  -2  13  13   92.48    6.99
  -2  13  12    1.06    1.86
  -2  13  11   58.43    5.45
  -2  13  10   25.91    3.67
  -2  13   9   17.18    3.05
  -2  13   8   75.65    5.61
  -2  13   7   14.24    2.71
  -2  13   6   43.17    4.19
   2  13  -5   35.79    1.97
  -2  13   5   41.21    4.02
   2  13  -4   90.38    3.83
   2  13  -4   89.46    3.53
  -2  13   4   88.40    5.49
   2  13  -3   72.46    3.36
   2  13  -3   76.58    3.48
  -2  13   3   65.68    4.72
   2  13  -2  554.54   12.43
   2  13  -2  561.67   12.92
  -2  13   2  555.84   15.40
   2  13  -1   22.45    1.91
   2  13  -1   22.24    2.14
  -2  13   1   24.31    2.83
   2  13   0   94.60    3.97
  -2  13   0   94.57    5.24
   2  13   0   89.25    4.49
   2  13   1   33.38    2.38
  -2  13  -1   32.73    3.13
   2  13   1   31.19    2.75
   2  13   2   56.93    3.27
  -2  13  -2   51.90    3.89
   2  13   2   51.54    3.59
   2  13   3    5.31    1.36
  -2  13  -3    3.20    1.41
   2  13   3    5.27    1.47
   2 -13   3    2.89    1.58
   2  13   4   77.51    4.13
  -2  13  -4   77.31    4.58
   2  13   4   74.94    4.76
   2  13   5   33.36    2.89
  -2  13  -5   41.85    3.47
   2  13   5   34.00    3.33
   2  13   6   15.93    2.20
  -2  13  -6   15.17    2.28
   2  13   6   18.53    2.83
   2  13   7    1.17    1.23
  -2  13  -7    2.34    1.37
   2  13   7    1.86    1.82
   2  13   8  119.55    6.09
   2  13   8  128.09    7.13
   2  13   9  106.45    5.93
   2  13   9  108.04    6.78
   2  13  10  144.86    7.24
   2  13  10  137.07    7.95
   2  13  11    0.90    1.75
   2  13  11    4.01    2.26
   2  13  12    6.74    2.43
   2  13  12    1.58    2.31
   2  13  13    1.41    2.09
   2  13  14   47.33    4.86
  -2  14  11   63.82    5.58
  -2  14  10   68.42    5.78
  -2  14   9   48.86    4.82
  -2  14   8   58.06    5.10
  -2  14   7  147.45    7.94
  -2  14   6   26.03    3.43
  -2  14   5  145.24    7.52
  -2  14   4   10.07    2.49
   2  14  -3  615.50   13.71
  -2  14   3  598.79   16.87
   2  14  -2   29.87    2.41
  -2  14   2   26.47    3.17
  -2  14   1   29.12    3.32
   2  14  -1   38.19    2.81
   2  14   0   -0.91    0.78
   2  14   0    0.14    1.17
  -2  14   0    1.04    1.47
   2  14   1   94.98    4.08
  -2  14  -1   94.11    5.42
   2  14   1   89.13    4.80
   2  14   2   49.68    3.03
  -2  14  -2   57.29    4.19
   2  14   2   56.21    3.92
   2  14   3    2.39    1.15
  -2  14  -3    4.68    1.93
   2  14   3   -0.25    1.20
   2  14   4   76.83    4.09
  -2  14  -4   80.09    4.85
   2  14   4   81.04    5.15
   2  14   5  364.89   10.63
  -2  14  -5  390.48   11.73
   2  14   5  370.18   12.33
   2  14   6  103.53    5.18
  -2  14  -6  102.87    5.44
   2  14   6   92.08    5.86
   2  14   7   14.75    2.23
   2  14   7   15.07    2.81
   2  14   8   -0.23    1.53
   2  14   8    1.21    1.83
   2  14   9  124.30    6.40
   2  14   9  120.66    7.38
   2  14  10   -0.45    1.64
   2  14  10    0.13    2.07
   2  14  11   -1.16    1.94
  -2  15  10   32.83    4.35
  -2  15   9    3.87    2.44
  -2  15   8   19.27    3.36
  -2  15   7    1.47    1.86
  -2  15   6   60.53    5.17
  -2  15   5   19.07    3.28
  -2  15   4   87.93    5.89
  -2  15   3   13.56    2.78
  -2  15   2  185.55    8.35
  -2  15   1    9.20    2.15
  -2  15   0   14.64    2.54
   2  15   0   16.11    2.24
  -2  15  -1    0.59    1.56
   2  15   1   -0.78    1.18
  -2  15  -2  277.56   10.12
   2  15   2  305.94   10.15
  -2  15  -3    5.14    2.02
   2  15   3    2.87    1.60
  -2  15  -4    1.01    1.71
   2  15   4    1.92    1.57
   2  15   5   19.50    2.86
   2  15   6   99.84    6.30
   2  15   7    5.08    2.06
   2  15   8   16.98    3.18
   2  15   9    2.27    1.81
   2  15  10  122.83    7.85
  -2  16   8    8.11    2.62
  -2  16   7   44.69    4.73
  -2  16   6   13.19    3.07
  -2  16   5   48.24    4.65
  -2  16   4    7.44    2.39
  -2  16   3   14.07    2.79
  -2  16   2   12.69    2.99
  -2  16   1   -0.16    1.74
  -2  16   0   -2.38    2.03
  -2  16  -1   26.81    3.41
  -2  16  -2   13.31    2.49
   2  16   2   14.48    2.45
   2  16   3   14.61    2.49
   2  16   4    8.06    1.97
   2  16   5  320.37   11.78
   2  16   6   25.56    3.46
   2  16   7   27.48    3.71
   2  16   8   -0.21    1.72
   2  16   9  113.51    7.58
  -2  17   7   35.18    4.73
  -2  17   6    7.27    2.31
  -2  17   5   -2.52    2.22
  -2  17   4   21.34    3.40
  -2  17   3    5.34    2.64
  -2  17   2  175.62    8.66
  -2  17   1    2.57    2.04
  -2  17   0    5.89    2.45
   2  17   6   13.23    3.00
   2  17   7    8.05    2.79
  -2  18   5   64.77    5.72
  -2  18   4    6.56    2.61
  -3   0  22    2.64    2.28
  -3   0  21    9.74    2.77
  -3   0  20   -0.31    1.73
  -3   0  19   74.26    5.30
  -3   0  18    0.51    1.61
  -3   0  17    7.23    1.90
  -3   0  16   -1.89    1.63
  -3   0  15    1.57    1.52
  -3   0  14   -0.97    1.36
  -3   0  13  113.74    5.14
  -3   0  12   -0.23    1.13
   3   0 -11 1059.60   22.50
  -3   0  11  984.11   20.87
   3   0 -10   -0.38    1.09
  -3   0  10   -0.79    1.01
   3   0  -9    5.18    1.51
  -3   0   9    4.89    1.10
   3   0  -8    0.33    0.92
  -3   0   8   -0.05    0.91
   3   0  -7 3638.14   62.88
  -3   0   7 3555.05   61.71
   3   0  -6   -0.09    0.87
  -3   0   6    1.18    0.89
   3   0  -5  375.11    8.38
  -3   0   5  397.26    8.53
  -3   0   4   -0.02    0.79
   3   0  -4    1.18    0.65
  -3   0   3  469.04    9.59
   3   0  -3  464.20    9.56
  -3   0   2    0.41    0.86
   3   0  -2   -0.27    0.72
  -3   0   1 4243.45   70.73
   3   0  -1 4124.61   70.61
  -3   0   0    2.16    1.13
   3   0   0    0.09    0.80
  -3   0  -1  224.79    6.11
   3   0   1  225.26    6.04
   3   0   1  235.18    6.11
   3   0   2    0.04    0.84
   3   0   2   -0.82    1.18
   3   0   3  102.88    3.96
  -3   0  -3   91.49    3.79
   3   0   3   90.92    3.77
   3   0   4   -0.95    1.20
   3   0   4   -0.73    1.15
  -3   0  -5 1963.55   35.85
   3   0   5 1892.26   35.66
   3   0   6    0.34    1.13
  -3   0  -6   -0.98    1.04
  -3   0  -7 1032.54   21.55
   3   0   7  980.13   21.05
   3   0   8   -0.12    1.35
  -3   0  -8   -0.80    1.06
  -3   0  -9  568.27   14.64
   3   0   9  542.72   14.20
   3   0  10    2.88    1.56
   3   0  11   41.49    3.59
   3   0  12    1.92    1.82
   3   0  13   83.80    5.46
   3   0  14    1.24    1.74
   3   0  15  112.64    6.92
   3   0  16   -1.88    2.28
   3   0  17  594.23   18.61
   3   0  18    0.52    1.99
  -3   1  22   44.71    4.68
  -3   1  21   -1.01    2.01
  -3  -1  21   -3.89    2.08
  -3  -1  20   79.71    5.43
  -3   1  20   80.75    5.84
  -3  -1  19   19.34    2.83
  -3   1  19   16.11    2.97
  -3  -1  18   89.18    5.45
  -3   1  18   89.23    5.75
  -3  -1  17    7.59    1.90
  -3   1  17    8.84    2.49
  -3   1  17    7.80    2.23
  -3  -1  16    1.77    1.42
  -3   1  16   -2.32    1.92
  -3   1  16    2.91    1.61
  -3   1  15   32.43    3.66
  -3  -1  15   30.24    2.81
  -3   1  15   30.68    3.10
  -3   1  14  682.73   17.86
  -3   1  14  672.66   16.50
  -3  -1  14  648.73   15.85
  -3  -1  13    2.79    1.29
  -3   1  13   -0.62    1.50
  -3   1  13    1.47    1.30
  -3   1  12  204.39    7.77
  -3  -1  12  192.14    6.53
  -3   1  12  191.62    6.96
   3   1 -11  170.46    6.79
   3  -1 -11  181.23    6.97
  -3   1  11  158.55    6.68
  -3  -1  11  175.38    5.85
  -3   1  11  169.11    6.23
   3  -1 -10  984.89   20.84
   3   1 -10  977.37   20.83
  -3  -1  10  928.79   18.98
  -3   1  10  918.91   19.71
   3   1  -9  368.44   10.09
   3  -1  -9  367.60   10.02
  -3   1   9  349.01    9.30
  -3  -1   9  355.34    8.71
   3   1  -8  622.32   14.11
   3  -1  -8  605.34   13.96
  -3  -1   8  586.38   12.56
  -3   1   8  610.40   13.28
   3   1  -7   33.69    2.51
   3  -1  -7   36.52    2.49
  -3  -1   7   36.39    2.08
  -3   1   7   40.10    2.41
   3   1  -6  548.82   12.35
   3  -1  -6  540.52   12.15
  -3  -1   6  538.74   10.98
  -3   1   6  559.80   11.83
   3  -1  -5    1.79    0.92
   3   1  -5    2.09    0.66
  -3  -1   5    2.36    0.71
  -3   1   5    0.67    0.91
   3  -1  -5    0.98    0.85
  -3  -1   4 1715.56   29.69
   3   1  -4 1694.87   29.63
  -3   1   4 1726.28   30.57
   3  -1  -4 1692.53   30.48
  -3  -1   3    2.15    0.77
   3   1  -3    3.34    0.77
   3  -1  -3    0.50    0.78
  -3   1   3    0.22    0.98
  -3  -1   2 2139.50   36.68
   3   1  -2 2100.31   36.57
  -3   1   2 2143.52   37.30
   3  -1  -2 2141.47   37.22
  -3  -1   1  358.95    7.76
   3   1  -1  349.25    7.67
  -3   1   1  368.93    8.20
   3  -1  -1  358.22    8.08
   3  -1   0   47.53    2.32
  -3   1   0   41.67    2.36
   3   1   0   43.79    2.15
  -3  -1   0   43.73    2.21
  -3   1  -1 1883.82   34.04
   3   1   1 1876.50   33.79
   3  -1   1 1898.80   33.92
   3   1   1 1908.67   34.04
   3  -1   1 1916.36   33.57
   3   1   2  239.78    6.56
   3  -1   2  247.17    6.67
  -3   1  -2  231.80    6.69
   3  -1   2  246.35    6.34
   3   1   2  252.59    6.76
   3  -1   3 1617.26   29.40
   3   1   3 1538.92   29.29
  -3   1  -3 1576.97   28.92
  -3  -1  -3 1599.70   29.29
   3  -1   3 1551.54   28.84
   3  -1   4  364.66    9.42
   3   1   4  378.65    9.39
  -3   1  -4  353.95    9.16
   3  -1   4  363.94    8.99
  -3  -1  -4  375.75    9.43
   3  -1   5   18.04    1.98
  -3  -1  -5   18.20    1.99
   3   1   5   19.83    2.02
  -3   1  -5   19.16    1.94
   3  -1   5   18.15    1.87
   3  -1   6   82.81    4.18
   3  -1   6   82.48    3.98
  -3  -1  -6   81.44    4.12
   3   1   6   80.21    4.09
  -3   1  -6   91.01    4.10
   3   1   7  129.79    5.55
   3  -1   7  130.76    5.38
   3  -1   7  153.63    5.91
  -3   1  -7  138.68    5.54
  -3  -1  -7  134.12    5.66
   3  -1   8   17.74    2.26
  -3  -1  -8   16.81    2.25
   3  -1   8   16.54    2.18
  -3   1  -8   19.26    2.23
   3   1   8   12.69    2.04
  -3   1  -9   45.49    3.45
  -3  -1  -9   56.05    3.87
   3  -1   9   48.11    3.53
   3   1   9   44.49    3.56
  -3   1 -10  433.93   12.38
   3  -1  10  412.26   11.98
   3   1  10  402.91   12.10
   3   1  11   66.11    4.52
   3  -1  11   63.28    4.45
   3  -1  12  637.77   16.83
   3   1  12  620.90   16.98
   3   1  13   47.92    4.29
   3  -1  13   47.52    4.16
   3  -1  14  133.04    7.13
   3   1  14  146.31    7.56
   3  -1  15  171.79    8.54
   3   1  15  182.08    8.90
   3  -1  16   12.73    2.80
   3   1  16   17.27    3.25
   3   1  17   30.00    4.18
   3  -1  17   35.20    4.33
   3   1  18  121.39    7.92
   3  -1  18  107.92    7.38
  -3   2  21  104.20    7.06
  -3   2  20    4.38    2.21
  -3  -2  20    3.85    1.85
  -3   2  19   38.82    4.15
  -3  -2  19   40.25    3.70
  -3   2  18    4.09    2.15
  -3  -2  18    4.53    1.72
  -3   2  18    2.60    1.81
  -3  -2  17    9.84    2.09
  -3   2  17    7.06    2.46
  -3   2  17    9.43    2.29
  -3  -2  16   33.20    3.09
  -3   2  16   28.38    3.65
  -3   2  16   28.89    3.20
  -3   2  15  211.97    9.12
  -3   2  15  202.14    8.33
  -3   2  14    1.73    1.61
  -3   2  14    4.37    1.71
  -3   2  13   93.68    5.29
  -3  -2  13   94.57    4.33
  -3   2  13   83.53    4.91
  -3   2  12  176.56    7.28
  -3  -2  12  184.85    6.10
  -3   2  12  186.32    7.01
   3   2 -11 1113.04   23.50
  -3   2  11 1024.94   23.23
   3  -2 -11 1130.24   23.64
  -3  -2  11 1056.78   21.13
  -3   2  11 1060.22   22.60
   3  -2 -10   38.95    3.02
  -3   2  10   38.39    3.01
   3   2 -10   39.65    3.06
  -3   2  10   31.44    2.69
  -3  -2  10   34.05    2.18
   3  -2  -9  233.59    7.50
   3   2  -9  234.11    7.55
  -3  -2   9  225.57    6.02
  -3   2   9  213.80    7.07
   3   2  -8    0.20    0.93
   3  -2  -8    1.10    0.98
  -3   2   8    0.47    1.01
  -3  -2   8   -0.21    0.65
   3   2  -7 1652.47   31.89
   3  -2  -7 1703.35   31.65
  -3  -2   7 1718.40   29.78
  -3   2   7 1668.47   31.48
   3  -2  -6  226.11    6.42
  -3  -2   6  226.43    5.21
  -3   2   6  222.48    6.45
   3  -2  -5 1247.51   23.25
  -3   2   5 1243.62   23.40
   3  -2  -5 1240.05   23.36
   3   2  -5 1219.86   21.64
  -3  -2   5 1243.59   21.70
  -3  -2   4  554.51   10.25
   3   2  -4  541.86   10.18
   3  -2  -4  539.90   11.71
  -3   2   4  544.74   11.72
  -3  -2   3 1264.36   22.08
  -3   2   3 1259.73   23.55
   3  -2  -3 1263.11   23.47
   3   2  -3 1267.38   22.01
  -3   2   2  254.83    6.54
  -3  -2   2  249.81    5.60
   3   2  -2  254.80    5.55
   3  -2  -2  254.37    6.51
   3  -2  -1  266.60    6.66
   3   2  -1  259.33    6.00
  -3   2   1  273.00    6.87
  -3   2   0    3.87    1.27
   3   2   0    3.22    0.87
   3  -2   0    2.44    0.97
  -3   2  -1 2179.60   39.02
   3  -2   1 2189.63   38.92
   3  -2   1 2182.10   38.12
   3   2   1 2214.22   39.06
   3  -2   2   22.65    1.89
  -3   2  -2   15.83    1.89
   3   2   2   21.01    2.00
   3  -2   2   19.72    1.57
  -3   2  -3  373.88    9.40
   3  -2   3  389.67    9.39
   3   2   3  365.80    9.37
  -3  -2  -3  379.41    9.50
   3  -2   3  373.06    8.72
  -3   2  -3  382.66    8.79
   3  -2   4  161.15    5.53
   3   2   4  166.53    5.75
  -3   2  -4  156.93    5.15
  -3  -2  -4  163.75    5.66
   3  -2   4  162.31    5.12
   3  -2   5 2779.88   49.01
   3   2   5 2721.45   48.95
   3  -2   5 2685.55   48.10
  -3  -2  -5 2670.67   49.23
  -3   2  -5 2711.13   48.30
   3  -2   6  354.17    9.41
   3  -2   6  360.35    9.94
   3   2   6  357.97    9.84
  -3   2  -6  368.39    9.59
  -3  -2  -6  361.80   10.07
   3  -2   7  218.86    7.21
   3  -2   7  233.92    7.72
   3   2   7  224.86    7.57
  -3  -2  -7  212.66    7.64
  -3   2  -7  235.05    7.41
   3   2   8  163.55    6.58
   3  -2   8  156.88    6.23
   3  -2   8  180.14    6.83
  -3  -2  -8  176.89    6.93
  -3   2  -8  178.85    6.66
   3  -2   9  969.62   21.83
   3   2   9  981.02   22.43
   3  -2   9 1028.85   22.54
  -3  -2  -9 1050.10   23.00
  -3   2  -9 1044.73   22.37
   3  -2  10    2.78    1.49
   3  -2  10    1.60    1.31
  -3   2 -10    4.65    1.58
   3   2  10    3.23    1.72
   3   2  11   14.34    2.55
   3  -2  11   12.95    2.26
   3   2  12    9.12    2.17
   3  -2  12   12.20    2.23
   3  -2  13   49.49    4.21
   3   2  13   48.18    4.38
   3   2  14   10.25    2.48
   3  -2  14   11.24    2.52
   3  -2  15   72.90    5.48
   3   2  15   82.79    5.97
   3   2  16   12.31    2.96
   3  -2  16   17.39    3.23
   3   2  17  194.03    9.87
   3  -2  17  204.11    9.89
   3  -2  18   22.12    3.54
  -3   3  21   -0.86    2.26
  -3   3  20   68.89    5.80
  -3   3  19    4.30    2.18
  -3   3  19    3.46    2.15
  -3  -3  19    5.69    1.69
  -3   3  18  156.46    8.31
  -3  -3  18  138.24    6.41
  -3   3  18  128.07    7.27
  -3  -3  17   27.53    2.80
  -3   3  17   26.41    3.60
  -3   3  17   26.29    3.45
  -3  -3  16    6.22    1.63
  -3   3  16    6.01    2.18
  -3   3  16    1.03    1.68
  -3   3  15    0.76    1.78
  -3   3  15   -0.54    1.77
  -3   3  14  201.43    8.55
  -3   3  14  220.09    8.48
  -3   3  13  132.74    6.43
  -3   3  13  124.96    6.01
  -3  -3  12    3.60    1.09
  -3   3  12    2.51    1.51
  -3   3  12    2.62    1.55
  -3   3  11  374.58   10.99
   3  -3 -11  378.66   11.00
   3   3 -11  395.48   11.20
  -3  -3  11  364.02    8.96
  -3   3  11  370.20   10.82
  -3   3  10  672.10   16.28
   3  -3 -10  735.04   16.66
   3   3 -10  737.42   16.75
  -3   3  10  677.91   16.17
  -3  -3  10  687.81   14.12
   3   3  -9   14.35    1.81
   3  -3  -9   11.96    1.79
  -3   3   9   14.89    1.87
  -3   3   9   15.65    2.03
  -3  -3   9   13.57    1.22
   3  -3  -8   44.55    2.89
   3   3  -8   42.15    2.95
  -3   3   8   41.37    2.94
  -3  -3   8   42.60    1.91
   3   3  -7  112.87    4.58
   3  -3  -7  111.55    4.38
  -3  -3   7  109.22    3.04
  -3   3   7  105.49    4.56
   3  -3  -6  150.89    4.92
  -3   3   6  152.54    5.34
  -3  -3   6  143.89    3.45
   3  -3  -5  255.09    6.74
  -3  -3   5  263.10    5.20
  -3   3   5  274.15    7.33
   3  -3  -5  261.09    7.24
   3  -3  -4  200.75    5.35
  -3  -3   4  189.20    4.03
   3   3  -4  197.26    4.00
   3  -3  -4  204.53    5.95
  -3   3   4  200.69    5.94
   3   3  -3  224.71    4.68
   3  -3  -3  232.07    6.34
  -3   3   3  234.96    6.47
  -3   3   2  597.94   12.79
   3   3  -2  597.06   11.22
   3  -3  -2  618.48   12.86
   3   3  -1  497.57    9.88
  -3   3   1  497.22   10.98
   3  -3  -1  483.10   10.86
   3  -3   0   73.31    3.17
  -3   3   0   71.91    3.25
   3  -3   1  285.75    7.49
  -3   3  -1  302.03    7.73
   3   3   1  300.43    7.65
   3  -3   1  289.12    6.62
   3  -3   2 1707.11   31.68
  -3   3  -2 1735.36   31.83
   3  -3   2 1709.79   30.50
   3   3   2 1748.14   31.92
   3  -3   3   10.09    1.47
  -3   3  -3    5.76    1.39
  -3   3  -3    6.88    1.09
   3  -3   3    8.92    1.20
  -3  -3  -3    8.03    1.46
   3   3   3   10.51    1.62
  -3   3  -4 1333.93   25.46
   3  -3   4 1231.36   25.11
   3   3   4 1279.82   25.41
   3  -3   4 1270.92   24.29
  -3  -3  -4 1317.38   25.61
  -3   3  -4 1362.92   24.52
   3  -3   5    8.32    1.53
  -3   3  -5    3.92    1.09
  -3  -3  -5    8.17    1.60
   3   3   5    6.38    1.56
   3  -3   5    7.47    1.27
   3  -3   6  166.41    5.67
   3  -3   6  162.25    6.05
  -3   3  -6  168.46    5.75
  -3  -3  -6  172.18    6.45
   3   3   6  167.13    6.22
   3  -3   7   82.19    4.01
   3  -3   7   83.30    4.30
  -3  -3  -7   94.31    4.75
   3   3   7   72.81    4.23
  -3   3  -7   85.54    4.08
   3  -3   8  116.86    5.14
   3   3   8  122.51    5.63
   3  -3   8  124.51    5.53
  -3  -3  -8  114.07    5.59
  -3   3  -8  127.59    5.36
   3  -3   9    7.30    1.69
   3  -3   9    9.78    1.96
  -3   3  -9   10.62    1.91
  -3  -3  -9   10.35    1.99
   3   3   9   10.20    2.09
   3  -3  10  254.27    8.64
   3   3  10  231.63    8.81
   3  -3  10  245.74    8.86
  -3   3 -10  250.29    8.69
   3   3  11   78.55    5.12
   3  -3  11   84.79    4.90
   3   3  12  168.46    7.80
   3  -3  12  162.37    7.26
   3  -3  13   42.12    3.80
   3   3  13   38.12    3.86
   3  -3  14  123.65    6.82
   3   3  14  125.34    7.07
   3   3  15   18.96    3.40
   3  -3  15   16.61    3.00
   3   3  16   18.17    3.24
   3  -3  16   15.90    3.11
   3   3  17   63.71    5.73
   3  -3  17   62.48    5.48
   3  -3  18   15.66    3.21
  -3   4  20   21.45    3.33
  -3   4  19  191.04    9.99
  -3   4  19  189.73    9.42
  -3   4  18   36.38    4.21
  -3  -4  18   31.25    3.00
  -3   4  18   32.63    3.99
  -3   4  17   45.71    4.58
  -3  -4  17   49.93    3.49
  -3   4  17   58.03    4.86
  -3  -4  16   15.99    2.12
  -3   4  16   13.28    2.54
  -3   4  16   13.98    2.73
  -3   4  15   43.14    4.09
  -3   4  15   35.29    3.70
  -3   4  14   39.69    3.81
  -3   4  14   32.36    3.44
  -3  -4  13   -0.08    0.90
  -3   4  13    2.08    1.71
  -3   4  13    0.88    1.51
  -3   4  12   39.49    3.37
  -3  -4  12   37.75    2.31
  -3   4  12   40.29    3.47
  -3   4  11  561.46   14.94
   3  -4 -11  628.58   15.42
   3   4 -11  626.73   15.39
  -3  -4  11  587.77   12.48
  -3   4  11  615.59   15.35
   3  -4 -10   23.30    2.39
   3   4 -10   21.24    2.34
  -3   4  10   23.67    2.42
  -3   4  10   23.78    2.53
  -3  -4  10   21.49    1.48
   3  -4  -9   72.11    3.90
   3   4  -9   69.47    3.82
  -3   4   9   70.45    3.80
  -3  -4   9   66.32    2.45
  -3   4   9   72.42    4.06
   3  -4  -8  684.08   15.33
  -3   4   8  662.38   15.19
   3   4  -8  697.41   15.65
  -3  -4   8  681.98   12.59
  -3   4   8  686.18   15.75
   3  -4  -7 2047.35   37.58
   3   4  -7 2089.10   38.05
  -3  -4   7 2049.92   34.61
  -3   4   7 2054.38   38.33
   3  -4  -6   41.86    2.43
  -3   4   6   41.84    2.85
   3  -4  -5  101.18    3.75
  -3   4   5  111.66    4.48
   3  -4  -5  106.12    4.34
   3  -4  -4  173.82    4.89
   3  -4  -4  186.02    5.82
  -3   4   4  182.81    5.90
   3  -4  -3  105.58    3.30
   3   4  -3  107.48    2.50
  -3   4   3  109.04    4.28
   3  -4  -3  110.40    4.22
   3   4  -2   58.39    2.01
   3  -4  -2   59.02    2.95
  -3   4   2   63.71    3.18
   3  -4  -1    2.01    0.98
  -3   4   1    1.97    1.23
  -3   4   0   13.26    1.71
   3  -4   0   13.41    1.54
   3  -4   1  424.43   10.26
  -3   4  -1  450.26   10.48
   3   4   1  434.86   10.35
   3  -4   1  439.46    8.84
   3  -4   2   53.92    2.93
  -3   4  -2   55.91    3.13
   3   4   2   60.14    3.19
   3  -4   2   57.54    2.28
   3  -4   3  110.96    4.43
  -3   4  -3  113.50    4.57
   3   4   3  117.78    4.64
   3  -4   3  110.10    3.63
  -3   4  -3  108.29    3.65
   3  -4   4  197.84    5.65
   3  -4   4  204.80    6.53
  -3   4  -4  213.16    6.81
  -3   4  -4  207.05    5.89
  -3  -4  -4  210.90    6.84
   3   4   4  208.59    6.78
   3  -4   5 1747.45   32.61
  -3   4  -5 1826.36   33.97
   3  -4   5 1756.97   33.74
  -3   4  -5 1754.55   32.73
  -3  -4  -5 1855.79   34.42
   3   4   5 1808.13   34.06
   3  -4   6   87.96    3.84
   3  -4   6   85.90    4.23
   3   4   6   83.81    4.33
  -3  -4  -6   85.33    4.49
  -3   4  -6   87.95    3.89
   3  -4   7   59.09    3.33
   3  -4   7   54.14    3.53
  -3   4  -7   65.28    3.51
   3   4   7   57.56    3.86
  -3  -4  -7   67.78    4.02
   3  -4   8  297.94    8.94
   3   4   8  292.56    9.68
   3  -4   8  320.88    9.64
  -3  -4  -8  344.21   10.36
  -3   4  -8  316.17    9.18
   3   4   9  345.12   10.91
   3  -4   9  354.31   10.16
   3  -4   9  357.04   10.74
  -3   4  -9  352.36   10.39
   3  -4  10   73.06    4.31
   3   4  10   69.51    4.61
   3  -4  10   70.67    4.47
  -3   4 -10   79.47    4.56
   3   4  11   23.21    2.95
   3  -4  11   24.70    2.77
   3  -4  12    0.67    1.53
   3   4  12   -0.07    1.68
   3  -4  13   -0.12    1.64
   3   4  13   -2.00    1.71
   3  -4  14  120.06    6.68
   3   4  14  105.99    6.63
   3  -4  15    1.10    1.82
   3   4  15    2.99    2.02
   3  -4  16   -1.83    2.20
   3   4  16    4.76    2.35
   3   4  17  162.25    9.37
   3  -4  17  177.23    9.03
   3  -4  18    6.17    2.30
  -3   5  20   12.38    3.36
  -3   5  19   13.65    3.11
  -3   5  19   15.67    3.22
  -3   5  18   68.71    5.90
  -3   5  18   83.42    6.18
  -3   5  17   94.92    6.36
  -3  -5  17   94.88    4.61
  -3   5  17   85.95    6.07
  -3   5  16    1.37    1.84
  -3   5  16    3.39    1.87
  -3  -5  16    6.55    1.45
  -3  -5  15   -1.61    1.14
  -3   5  15   -0.51    1.59
  -3   5  15    0.18    1.65
  -3   5  14  268.65   10.02
  -3  -5  14  272.32    7.62
  -3   5  14  273.15   10.11
  -3   5  13   37.03    3.46
  -3  -5  13   35.04    2.23
  -3   5  13   26.41    3.13
  -3   5  12   29.17    2.95
  -3   5  12   29.23    3.05
  -3  -5  12   23.31    1.71
   3  -5 -11  190.90    7.32
  -3   5  11  176.38    7.13
   3   5 -11  193.14    7.32
  -3   5  11  182.10    7.42
  -3  -5  11  182.50    4.93
  -3   5  10 1254.47   26.42
   3   5 -10 1367.25   27.14
   3  -5 -10 1321.96   26.87
  -3  -5  10 1284.13   23.16
  -3   5  10 1327.02   27.32
   3   5  -9    1.12    1.01
  -3   5   9   -0.88    1.17
   3  -5  -9    0.40    1.06
  -3   5   9    0.38    1.29
  -3  -5   9    0.71    0.45
  -3   5   8   68.84    3.53
   3   5  -8   67.85    3.73
   3  -5  -8   68.32    3.55
  -3  -5   8   64.13    1.75
  -3   5   8   67.54    4.00
  -3  -5   8   64.44    1.70
   3  -5  -7   19.50    1.88
   3   5  -7   20.53    1.99
  -3   5   7   16.79    2.10
   3  -5  -6  238.90    6.64
  -3   5   6  235.45    7.54
   3  -5  -5  808.30   16.17
  -3   5   5  834.91   17.82
   3  -5  -5  831.07   17.75
   3  -5  -4  264.77    6.47
   3  -5  -4  278.29    7.85
  -3   5   4  274.96    7.89
   3  -5  -3  205.35    5.11
   3   5  -3  214.28    4.27
   3  -5  -3  212.83    6.63
  -3   5   3  224.20    6.73
   3  -5  -2  790.37   14.71
   3  -5  -2  826.75   16.98
  -3   5   2  826.79   17.05
  -3   5   1  430.38   10.43
   3  -5  -1  422.20   10.33
   3  -5   0  573.40   10.58
  -3   5   0  566.29   12.87
   3  -5   0  551.64   12.72
   3   5   1  155.89    5.26
   3  -5   1  149.11    3.75
  -3   5  -1  159.64    5.42
   3  -5   1  156.93    5.35
   3   5   2 1548.20   28.79
   3  -5   2 1476.18   26.35
   3  -5   2 1499.93   28.53
  -3   5  -2 1518.84   28.72
   3  -5   3   24.20    1.55
   3   5   3   36.22    2.64
  -3   5  -3   26.77    1.64
  -3   5  -3   26.95    2.33
   3  -5   3   26.17    2.15
   3  -5   4  275.42    6.89
  -3   5  -4  294.57    8.32
   3  -5   4  279.99    8.11
  -3  -5  -4  283.94    8.41
  -3   5  -4  278.95    7.03
   3   5   4  280.45    8.29
   3  -5   5   62.10    2.95
   3  -5   5   69.07    3.66
  -3   5  -5   69.44    3.81
  -3  -5  -5   67.74    3.87
  -3   5  -5   62.87    3.07
   3   5   5   69.75    3.93
   3  -5   6  385.12    9.52
   3  -5   6  380.08   10.54
  -3   5  -6  384.06    9.76
   3   5   6  390.91   10.83
  -3  -5  -6  417.20   11.40
   3  -5   7   31.08    2.34
   3  -5   7   26.94    2.45
  -3   5  -7   32.28    2.47
  -3  -5  -7   30.05    2.98
   3   5   7   28.45    2.77
   3   5   8   41.43    3.37
   3  -5   8   41.90    2.91
   3  -5   8   37.79    3.06
  -3   5  -8   44.73    3.03
  -3  -5  -8   45.38    3.59
   3  -5   9    9.56    1.75
   3  -5   9    9.57    1.76
  -3   5  -9   11.54    1.84
   3   5   9   10.27    2.07
   3  -5  10   41.41    3.22
   3  -5  10   43.44    3.48
   3   5  10   38.10    3.54
  -3   5 -10   42.31    3.34
   3  -5  11  187.86    7.46
   3   5  11  193.20    8.30
   3  -5  12  109.48    5.77
   3   5  12  108.17    6.35
   3   5  13  137.91    7.51
   3  -5  13  143.37    6.99
   3   5  14  104.52    6.61
   3  -5  14  101.21    6.03
   3  -5  15   21.16    3.21
   3   5  15   28.57    3.87
   3  -5  16   -2.03    1.83
   3   5  16    1.85    2.16
   3  -5  17    8.72    2.74
   3   5  17   11.29    2.93
   3  -5  18   70.66    5.88
  -3   6  19   38.52    4.50
  -3   6  19   42.93    4.85
  -3   6  18    8.28    2.56
  -3   6  18   13.63    3.15
  -3   6  17  123.70    7.30
  -3   6  17  124.06    7.53
  -3   6  16    0.95    1.84
  -3  -6  16    0.52    0.85
  -3   6  16    3.86    2.08
  -3   6  15  222.28    9.45
  -3   6  15  221.29    9.54
  -3  -6  15  232.73    6.76
  -3   6  14   85.94    5.33
  -3  -6  14   76.05    3.53
  -3  -6  14   85.82    3.49
  -3   6  14   86.57    5.70
  -3   6  13    0.34    1.43
  -3  -6  13    0.82    0.70
  -3   6  13    1.65    1.62
  -3  -6  13    0.30    0.72
  -3   6  12    9.72    2.10
  -3  -6  12    7.87    1.07
  -3  -6  12    9.57    1.03
  -3   6  12    7.28    2.01
  -3   6  11  331.97   10.39
   3  -6 -11  335.60   10.45
   3   6 -11  344.32   10.53
  -3  -6  11  338.05    7.35
  -3  -6  11  340.85    7.18
  -3   6  11  327.89   10.81
   3  -6 -10  191.10    6.98
  -3   6  10  163.39    6.67
   3   6 -10  180.59    6.93
  -3  -6  10  179.48    4.09
  -3  -6  10  179.76    4.01
  -3   6  10  183.00    7.41
   3  -6  -9  202.72    6.99
  -3   6   9  193.28    6.95
   3   6  -9  209.36    7.23
  -3   6   9  203.00    7.66
  -3   6   8  222.33    7.11
   3   6  -8  233.84    7.50
   3  -6  -8  223.05    7.11
  -3   6   8  230.59    8.10
   3   6  -7  262.88    7.88
   3  -6  -7  252.76    7.33
  -3   6   7  257.94    8.49
   3  -6  -6   52.25    2.71
  -3   6   6   55.43    3.54
   3  -6  -5  164.38    4.92
   3  -6  -5  180.46    6.33
  -3   6   5  167.45    6.24
   3  -6  -4   85.20    3.06
   3  -6  -4   95.70    4.33
  -3   6   4  101.90    4.50
   3  -6  -3 1154.52   21.37
   3   6  -3 1225.53   20.53
  -3   6   3 1204.05   24.03
   3  -6  -3 1172.45   23.86
   3  -6  -2  191.55    4.37
  -3   6   2  204.94    6.58
   3  -6  -2  195.54    6.42
   3  -6  -1   44.72    1.48
  -3   6   1   46.94    2.97
   3  -6  -1   45.08    2.83
   3  -6   0   60.90    1.73
  -3   6   0   68.33    3.52
   3  -6   0   65.40    3.47
   3   6   1  815.89   17.02
   3  -6   1  794.64   14.24
  -3   6  -1  836.87   17.39
   3  -6   1  816.73   17.25
   3  -6   2 1774.00   30.73
   3   6   2 1800.10   33.57
  -3   6  -2 1894.40   33.94
   3  -6   2 1726.43   33.49
   3  -6   3   60.46    2.28
   3  -6   3   55.11    3.19
  -3   6  -3   54.47    3.29
   3   6   3   54.87    3.29
   3  -6   4  174.18    4.83
  -3   6  -4  170.61    6.24
   3  -6   4  174.86    6.10
  -3   6  -4  176.72    4.93
   3   6   4  178.98    6.35
   3  -6   5   34.14    2.04
   3  -6   5   34.97    2.70
  -3   6  -5   34.17    2.76
  -3   6  -5   34.90    2.22
  -3  -6  -5   38.55    2.94
   3   6   5   34.22    2.90
   3  -6   6  399.31    9.63
   3  -6   6  405.83   10.91
  -3   6  -6  411.17   11.07
  -3   6  -6  394.96    9.72
  -3  -6  -6  417.27   11.48
   3   6   6  388.95   11.10
   3  -6   7    7.16    1.28
   3  -6   7    7.64    1.51
  -3   6  -7    7.57    1.32
   3   6   7    8.61    1.83
  -3  -6  -7    9.66    1.89
   3  -6   8  247.79    7.52
   3   6   8  245.80    8.67
   3  -6   8  227.35    8.00
  -3   6  -8  236.48    7.52
   3  -6   9  285.36    8.74
   3   6   9  276.91    9.74
   3  -6   9  287.77    9.45
  -3   6  -9  295.77    8.99
   3  -6  10  118.12    5.42
   3   6  10  109.63    6.04
   3  -6  10  112.89    5.75
  -3   6 -10  114.80    5.50
   3   6  11   91.92    5.66
   3  -6  11   86.04    4.84
   3   6  12   35.06    3.91
   3  -6  12   38.47    3.41
   3  -6  13  137.78    6.75
   3   6  13  127.72    7.32
   3   6  14   94.73    6.44
   3  -6  14   90.11    5.74
   3  -6  15    5.98    2.02
   3   6  15   11.97    2.92
   3  -6  16   45.08    4.53
   3   6  16   44.50    4.80
   3  -6  17   51.06    4.86
   3  -6  18    4.64    2.15
  -3   7  19    2.24    2.28
  -3   7  18    5.38    2.61
  -3   7  18    7.02    2.38
  -3   7  17   64.13    5.32
  -3   7  17   63.66    5.54
  -3   7  16   43.30    4.23
  -3   7  16   38.14    4.27
  -3   7  15   80.37    5.46
  -3   7  15   90.12    6.13
  -3   7  14    9.75    2.33
  -3   7  14    8.46    2.37
  -3  -7  14   11.87    1.24
  -3   7  13   20.96    2.76
  -3  -7  13   19.12    1.40
  -3   7  13   15.05    2.65
  -3  -7  13   15.03    1.20
  -3   7  12   66.38    4.33
  -3  -7  12   66.45    2.26
  -3   7  12   67.58    4.85
  -3  -7  12   62.65    2.16
   3  -7 -11   81.07    4.64
  -3   7  11   77.34    4.60
  -3  -7  11   76.49    2.02
  -3  -7  11   80.08    2.01
  -3   7  11   86.36    5.23
  -3   7  10  480.89   12.64
   3   7 -10  509.85   13.17
   3  -7 -10  476.74   12.86
  -3   7  10  487.52   13.86
   3  -7  -9    3.05    1.14
   3   7  -9    4.32    1.30
  -3   7   9    3.57    1.22
  -3   7   9    3.80    1.77
  -3   7   8  304.46    8.63
   3   7  -8  306.46    9.02
   3  -7  -8  306.14    8.71
  -3   7   8  320.79   10.13
   3  -7  -7   40.88    2.59
   3   7  -7   40.46    2.79
  -3   7   7   35.80    3.13
   3  -7  -6  174.18    5.46
  -3   7   6  186.68    6.96
   3  -7  -5  277.10    6.98
   3  -7  -5  287.65    8.86
  -3   7   5  284.54    8.84
   3  -7  -4    5.47    0.86
  -3   7   4    4.74    1.44
   3  -7  -4    4.59    1.41
   3  -7  -3   28.46    1.43
  -3   7   3   33.15    2.74
   3   7  -3   29.97    1.25
   3  -7  -3   28.62    2.48
   3  -7  -2   21.91    1.02
   3  -7  -2   19.97    2.01
   3   7  -2   23.55    1.36
  -3   7   2   20.00    2.19
  -3   7   1  593.13   13.74
   3  -7  -1  558.59   13.51
   3   7   0  153.64    5.38
  -3   7   0  148.88    5.67
   3  -7   0  149.46    5.61
   3   7   1   39.96    2.68
  -3   7  -1   46.09    3.04
   3  -7   1   40.05    2.80
   3  -7   2  504.75    9.27
   3   7   2  505.18   12.24
  -3   7  -2  520.79   12.55
   3  -7   2  510.48   12.42
   3  -7   3  436.66    8.64
   3   7   3  419.99   11.09
  -3   7  -3  452.14   11.38
   3  -7   3  434.89   11.16
   3  -7   4  507.33   10.40
  -3   7  -4  512.30   10.48
   3   7   4  505.55   12.74
  -3   7  -4  516.81   12.83
   3  -7   4  501.99   12.52
   3  -7   5    2.73    0.76
   3   7   5    3.42    1.32
  -3   7  -5    3.90    0.88
  -3   7  -5    1.04    1.20
   3  -7   5    2.69    1.14
   3  -7   6  264.49    7.04
  -3   7  -6  282.45    8.68
   3  -7   6  248.78    8.17
   3   7   6  265.06    8.70
  -3  -7  -6  271.94    8.96
  -3   7  -6  251.49    7.16
   3  -7   7  121.26    4.60
   3  -7   7  120.18    5.38
   3   7   7  115.79    5.62
  -3   7  -7  119.43    4.63
  -3  -7  -7  131.75    6.03
   3   7   8   86.55    4.98
   3  -7   8   86.99    4.07
   3  -7   8   85.22    4.65
  -3   7  -8   93.00    4.28
   3   7   9   47.26    3.82
   3  -7   9   44.69    3.11
   3  -7   9   45.26    3.48
  -3   7  -9   50.30    3.30
   3   7  10  172.96    7.68
   3  -7  10  164.14    6.48
   3  -7  10  151.16    6.78
  -3   7 -10  175.38    6.73
   3   7  11    3.67    2.06
  -3   7 -11    2.08    1.36
   3  -7  11    1.26    1.31
   3   7  12   10.83    2.39
   3  -7  12   10.35    2.05
   3   7  13    0.10    1.87
   3  -7  13    0.51    1.34
   3  -7  14   59.27    4.62
   3   7  14   61.62    5.35
   3  -7  15   27.93    3.35
   3   7  15   32.31    4.09
   3   7  16   85.65    6.52
   3  -7  16   80.92    5.87
   3  -7  17   59.61    5.18
   3  -7  18    9.23    2.45
  -3   8  19   87.68    6.81
  -3   8  18   18.18    3.49
  -3   8  17    9.31    2.51
  -3   8  17    7.30    2.39
  -3   8  16  139.90    7.73
  -3   8  16  138.53    8.03
  -3   8  15   20.36    2.97
  -3   8  15   15.02    2.93
  -3   8  14   22.91    3.03
  -3   8  14   31.32    3.85
  -3   8  13  143.36    6.75
  -3   8  13  133.26    7.34
  -3   8  12   38.06    3.35
  -3   8  12   40.40    3.98
   3  -8 -11   11.84    2.07
  -3   8  11    7.35    1.71
  -3   8  11    8.23    2.17
   3  -8 -10   94.80    4.82
  -3   8  10   97.29    4.85
   3   8 -10   95.76    4.93
  -3   8  10  103.00    5.79
   3  -8  -9   11.30    1.84
   3   8  -9   13.77    2.02
  -3   8   9   12.42    1.84
  -3   8   9    9.96    2.14
   3   8  -8   99.52    4.73
   3  -8  -8  100.93    4.48
  -3   8   8  104.39    5.53
   3   8  -7  268.80    8.16
   3  -8  -7  262.47    7.54
  -3   8   7  277.99    9.31
   3  -8  -6    3.17    0.95
  -3   8   6    2.13    1.31
   3  -8  -5  100.56    3.57
  -3   8   5  103.70    5.14
   3  -8  -4  218.02    5.42
   3  -8  -4  224.43    7.73
  -3   8   4  227.33    7.80
   3  -8  -3  383.81    7.87
   3  -8  -3  420.65   11.21
  -3   8   3  405.71   11.09
   3   8  -3  409.57    7.99
   3   8  -2   12.44    1.07
   3  -8  -2   14.02    1.89
  -3   8   2   14.64    2.08
  -3   8   1   64.72    3.79
   3  -8  -1   55.32    3.48
   3   8  -1   58.92    2.59
   3   8   0  442.76   10.90
  -3   8   0  437.23   11.47
   3  -8   0  434.50   11.38
   3   8   1   72.56    3.66
  -3   8  -1   65.09    3.78
   3  -8   1   71.19    3.88
   3   8   2  411.35   10.64
  -3   8  -2  405.76   10.95
   3  -8   2  404.98   10.87
   3  -8   3   72.51    2.02
   3   8   3   70.50    3.83
  -3   8  -3   69.64    3.95
   3  -8   3   74.31    3.95
   3  -8   4  101.40    2.98
   3   8   4   87.96    4.50
  -3   8  -4   97.74    4.76
   3  -8   4   93.43    4.53
   3  -8   5  359.02    8.04
  -3   8  -5  362.16    8.18
   3   8   5  357.38   10.40
   3  -8   5  355.15   10.14
  -3   8  -5  361.46   10.42
   3  -8   6   28.78    1.91
   3   8   6   25.03    2.64
  -3   8  -6   28.60    1.97
  -3  -8  -6   27.62    2.68
  -3   8  -6   26.92    2.66
   3  -8   6   30.11    2.64
   3  -8   7   16.23    1.65
  -3  -8  -7   19.89    2.52
  -3   8  -7   18.75    1.80
   3   8   7   15.77    2.29
  -3   8  -7   21.23    2.45
   3  -8   7   18.06    2.21
   3   8   8  423.91   12.47
   3  -8   8  414.58   10.50
   3  -8   8  408.55   11.69
  -3   8  -8  425.84   10.82
   3   8   9  475.93   13.87
   3  -8   9  468.99   11.94
   3  -8   9  460.75   12.97
  -3   8  -9  487.29   12.23
   3   8  10    2.44    1.61
  -3   8 -10    0.29    1.08
   3  -8  10    2.23    1.23
   3   8  11    1.53    1.64
  -3   8 -11    1.99    1.31
   3  -8  11    4.52    1.61
   3   8  12   93.37    6.06
   3  -8  12   81.85    4.86
   3  -8  13  102.54    5.69
   3   8  13   93.71    6.36
   3   8  14    6.72    2.47
   3  -8  14    8.23    2.10
   3   8  15   29.37    4.06
   3  -8  15   36.16    3.84
   3   8  16   80.27    6.42
   3  -8  16   77.70    5.77
   3  -8  17    9.54    2.61
   3  -8  18   32.26    4.11
  -3   9  18    0.04    2.07
  -3   9  17  177.12    9.01
  -3   9  17  194.45   10.15
  -3   9  16   -1.56    2.24
  -3   9  16    3.52    2.10
  -3   9  15   33.51    3.72
  -3   9  15   38.66    4.35
  -3   9  14  123.65    6.81
  -3   9  14  136.74    7.82
  -3   9  13   34.32    3.57
  -3   9  13   34.32    4.06
  -3   9  12    0.14    1.54
  -3   9  12    3.07    4.17
   3  -9 -11  281.26    9.42
  -3   9  11  275.74    9.28
  -3   9  11  272.93   10.58
   3  -9 -10  149.11    6.18
  -3   9  10  152.52    6.17
   3   9 -10  141.87    6.16
  -3   9  10  139.78    7.12
   3  -9  -9  324.78    9.53
  -3   9   9  321.58    9.37
   3   9  -9  345.41    9.97
  -3   9   9  327.53   11.13
   3  -9  -8  302.59    8.65
   3   9  -8  298.81    9.07
  -3   9   8  307.83   10.43
   3  -9  -7   78.92    3.61
   3   9  -7   74.29    3.92
  -3   9   7   78.38    4.90
   3  -9  -6  168.44    5.32
  -3   9   6  179.46    7.38
   3  -9  -5  599.13   12.34
  -3   9   5  600.23   15.47
   3  -9  -4   83.50    2.76
   3   9  -4   80.44    2.19
  -3   9   4   76.26    4.51
   3  -9  -4   86.53    4.71
   3  -9  -3   87.55    2.30
   3  -9  -3   85.61    4.64
   3   9  -3   93.03    2.88
  -3   9   3   86.94    4.78
   3  -9  -2   32.21    2.75
   3   9  -2   34.27    1.86
  -3   9   2   27.63    2.66
   3   9  -1  500.38   12.00
  -3   9   1  482.22   12.77
   3   9  -1  504.24   10.87
   3  -9  -1  472.19   12.72
   3   9   0   84.17    4.06
  -3   9   0   90.02    4.57
   3   9   0   78.92    3.47
   3  -9   0   80.43    4.26
   3   9   1  120.99    5.03
  -3   9  -1  121.94    5.43
   3  -9   1  133.21    5.58
   3   9   2  183.72    6.54
  -3   9  -2  190.38    6.97
   3  -9   2  199.17    7.04
   3   9   3   57.13    3.54
  -3   9  -3   65.88    3.97
   3  -9   3   61.28    3.72
   3   9   4  205.03    7.37
  -3   9  -4  227.84    7.78
   3  -9   4  212.94    7.43
   3   9   5    1.15    1.36
  -3   9  -5    1.64    1.34
   3  -9   5    0.70    1.10
   3  -9   6  527.94   11.03
  -3   9  -6  516.19   11.09
   3   9   6  505.36   13.67
  -3   9  -6  527.32   13.82
   3  -9   6  490.91   13.23
   3  -9   7   60.99    2.93
   3   9   7   67.72    4.36
  -3   9  -7   61.70    3.03
  -3   9  -7   60.53    4.03
   3  -9   7   56.85    3.78
   3   9   8    8.19    2.06
  -3   9  -8    8.19    1.35
   3  -9   8    8.51    1.37
   3  -9   8    6.28    1.33
   3  -9   9  135.57    5.30
   3   9   9  128.98    6.61
   3  -9   9  126.58    6.01
  -3   9  -9  133.73    5.36
  -3   9 -10  127.24    5.58
   3  -9  10  130.53    5.52
   3   9  10  130.04    6.80
   3   9  11   98.15    6.09
   3  -9  11   93.36    4.88
   3  -9  12    1.05    1.24
   3   9  12    0.57    1.96
   3  -9  13   64.01    4.46
   3   9  13   62.18    5.25
   3   9  14    0.53    1.95
   3  -9  14    0.52    1.54
   3  -9  15   77.21    5.39
   3   9  15   89.14    6.61
   3  -9  16   42.75    4.25
  -3  10  17    0.48    1.90
  -3  10  16    8.75    2.52
  -3  10  16    8.83    3.18
  -3  10  15  109.28    6.56
  -3  10  15  120.80    7.66
  -3  10  14   29.00    3.33
  -3  10  14   33.98    4.28
  -3  10  13  199.22    8.28
  -3  10  13  185.67    9.21
  -3  10  12  135.69    6.42
  -3  10  12  144.96    7.86
  -3  10  11   23.95    2.69
  -3  10  11   28.96    3.62
   3 -10 -10    8.56    1.66
   3  10 -10   10.98    1.86
  -3  10  10   10.37    2.45
   3 -10  -9    3.51    1.34
   3  10  -9    0.21    1.03
  -3  10   9    3.54    1.98
   3 -10  -8  699.40   15.75
   3  10  -8  711.30   16.42
  -3  10   8  692.42   18.34
   3 -10  -7    3.86    0.97
   3  10  -7    4.94    1.41
  -3  10   7   -0.70    1.80
   3 -10  -6  103.54    3.88
  -3  10   6  105.25    5.71
   3 -10  -5  411.54    9.06
  -3  10   5  422.98   12.47
   3 -10  -4   83.27    2.58
   3  10  -4   87.06    2.52
  -3  10   4   85.43    4.96
  -3  10   3  670.87   16.71
   3  10  -3  672.06   13.11
   3 -10  -2   13.64    1.96
  -3  10   2   11.42    2.05
   3  10  -2   10.47    1.21
   3  10  -1  213.07    6.80
  -3  10   1  195.51    7.42
   3  10  -1  201.55    5.91
   3 -10  -1  190.90    7.30
   3  10   0   71.24    3.75
  -3  10   0   70.68    4.19
   3  10   0   63.16    3.24
   3 -10   0   63.02    3.94
   3  10   1    3.74    1.27
  -3  10  -1    5.73    1.52
   3  10   1    3.32    1.06
   3 -10   1    3.94    1.25
   3  10   2   87.15    4.34
  -3  10  -2   93.38    4.86
   3 -10   2   87.75    4.59
   3  10   2   91.06    4.38
   3  10   3   27.65    2.58
  -3  10  -3   27.75    2.82
   3 -10   3   25.69    2.58
   3  10   4   71.69    4.14
  -3  10  -4   75.99    4.40
   3 -10   4   71.05    4.15
   3  10   5    2.15    1.25
  -3  10  -5   -0.43    1.61
   3 -10   5    2.55    1.24
   3  10   6   45.33    3.56
  -3  10  -6   42.81    3.46
   3 -10   6   43.41    3.34
   3  10   7   62.28    4.25
  -3  10  -7   69.97    3.03
  -3  10  -7   71.40    4.44
   3 -10   7   63.24    4.03
  -3  10  -8   66.76    3.32
   3  10   8   56.23    4.29
   3 -10   8   60.19    4.02
   3  10   9  300.91   10.73
   3  10  10   82.89    5.54
   3  10  11    4.02    1.98
   3 -10  11    2.51    1.25
   3  10  12   35.42    4.10
   3 -10  12   31.04    2.91
   3  10  13  115.69    7.15
   3  10  14   44.65    4.69
   3  10  15    1.06    2.05
  -3  11  15   36.99    3.96
  -3  11  15   31.36    4.58
  -3  11  14   26.56    3.25
  -3  11  14   23.25    3.65
  -3  11  13   50.40    4.21
  -3  11  13   60.07    5.34
  -3  11  12   22.78    3.52
  -3  11  11   38.06    4.16
  -3  11  10  129.15    7.22
   3 -11  -9  238.50    7.80
   3  11  -9  226.37    7.93
  -3  11   9  232.94    9.67
   3 -11  -8  390.67   10.24
   3  11  -8  384.07   10.75
  -3  11   8  393.15   12.96
   3 -11  -7  249.62    7.18
   3  11  -7  250.53    7.99
  -3  11   7  259.18    9.92
   3 -11  -6  336.82    8.10
   3  11  -6  316.35    9.21
  -3  11   6  335.17   11.41
   3 -11  -5   77.23    2.77
  -3  11   5   76.82    4.96
   3  11  -4    2.47    0.67
  -3  11   4    0.08    1.48
   3  11  -3   37.82    2.02
  -3  11   3   38.56    3.43
   3  11  -2   54.60    3.26
  -3  11   2   60.15    4.18
   3  11  -2   59.20    2.86
   3  11  -1  435.47   11.24
  -3  11   1  420.30   12.38
   3  11  -1  440.39   10.41
   3  11   0   10.45    1.64
   3  11   0   10.21    1.51
  -3  11   0   10.57    1.99
   3  11   1   28.04    2.53
  -3  11  -1   27.04    2.86
   3  11   1   26.40    2.33
   3 -11   1   30.92    2.88
   3  11   2    1.31    1.16
  -3  11  -2    1.64    1.50
   3 -11   2    1.23    0.97
   3  11   2    1.43    1.11
   3  11   3   48.21    3.44
  -3  11  -3   58.81    4.05
   3 -11   3   42.22    3.30
   3  11   3   46.97    3.36
   3  11   4  178.65    6.94
  -3  11  -4  176.96    7.23
   3 -11   4  175.61    6.98
   3  11   4  183.60    7.26
   3  11   5   24.19    2.63
  -3  11  -5   24.29    2.74
   3 -11   5   24.19    2.58
   3  11   6  206.49    7.94
  -3  11  -6  204.46    7.97
   3 -11   6  194.73    7.55
   3  11   7   50.11    3.96
  -3  11  -7   44.54    3.73
   3  11   8   47.43    4.00
   3  11   9   22.76    3.03
   3  11  10   39.82    3.88
   3  11  11   77.60    5.58
   3  11  12    3.73    2.22
   3  11  13   -0.33    2.08
   3  11  14    5.12    2.32
  -3  12  14    0.32    2.29
  -3  12  13   56.33    5.22
  -3  12  12  147.61    8.37
  -3  12  11    0.97    1.94
  -3  12  10   70.96    5.72
  -3  12   9    2.51    1.85
   3  12  -8   77.91    4.24
  -3  12   8   81.72    5.73
   3  12  -7   42.53    3.06
  -3  12   7   31.63    3.75
   3  12  -6   85.02    4.22
  -3  12   6   90.89    5.72
  -3  12   5   45.21    4.01
   3  12  -4  569.66   11.27
  -3  12   4  556.52   15.67
   3  12  -3   29.99    2.50
   3  12  -3   28.39    1.83
  -3  12   3   27.94    3.12
   3  12  -2  123.48    5.10
  -3  12   2  119.20    6.14
   3  12  -2  120.29    4.38
   3  12  -1  113.07    4.88
  -3  12   1  106.19    5.70
   3  12  -1  108.88    4.45
   3  12   0   95.97    4.60
  -3  12   0  106.99    5.63
   3  12   0  107.30    4.60
   3  12   1    4.16    1.14
  -3  12  -1    3.93    1.52
   3  12   1    2.11    1.10
   3  12   2  112.69    5.13
  -3  12  -2  113.18    5.79
   3  12   2  111.04    5.15
   3  12   3   33.01    2.88
  -3  12  -3   37.69    3.50
   3  12   3   43.13    3.38
   3  12   4  196.14    7.41
  -3  12  -4  194.00    7.84
   3  12   4  191.37    7.61
   3  12   5   10.69    2.02
  -3  12  -5   10.95    2.14
   3  12   5    9.99    2.08
   3  12   6    2.05    1.32
  -3  12  -6    3.23    1.59
   3  12   6    2.92    1.69
   3  12   7    4.28    1.95
  -3  12  -7    1.72    1.68
   3  12   7    4.46    1.91
   3  12   8  240.92    9.35
   3  12   9   19.05    2.80
   3  12  10   89.00    5.81
   3  12  11   18.24    2.98
   3  12  12   90.07    6.27
   3  12  13   18.90    3.22
   3  12  14    2.93    1.97
  -3  13  12   26.14    3.89
  -3  13  11   31.02    3.93
  -3  13  10  125.34    7.54
  -3  13   9  174.07    8.82
  -3  13   8    5.83    2.34
  -3  13   7   -0.15    2.03
  -3  13   6   33.52    3.84
  -3  13   5   47.28    4.27
   3  13  -4    3.86    1.24
  -3  13   4    6.29    2.05
   3  13  -3   75.28    3.95
  -3  13   3   83.93    5.41
   3  13  -3   84.89    3.41
   3  13  -2    4.57    1.15
  -3  13   2    2.28    1.72
   3  13  -2    3.81    1.13
   3  13  -1   94.04    4.46
  -3  13   1   92.97    5.52
   3  13  -1   91.48    4.20
   3  13   0    3.03    1.19
  -3  13   0    6.65    2.13
   3  13   0    5.32    1.42
   3  13   1   45.46    3.20
  -3  13  -1   47.40    3.93
   3  13   1   47.43    3.40
   3  13   2  138.73    5.86
  -3  13  -2  133.76    6.59
   3  13   2  149.10    6.28
   3  13   3  190.33    7.13
  -3  13  -3  194.83    8.04
   3  13   3  185.42    7.42
   3  13   4   55.12    3.83
  -3  13  -4   54.11    4.10
   3  13   4   50.16    3.91
   3  13   5    0.26    1.34
  -3  13  -5   -0.57    1.67
   3  13   5    1.61    1.44
   3  13   6   84.05    5.03
  -3  13  -6   84.68    5.21
   3  13   6   89.68    5.63
   3  13   7  107.26    5.89
  -3  13  -7  100.82    5.69
   3  13   7   91.23    5.88
   3  13   8    7.54    2.10
   3  13   8    5.20    2.14
   3  13   9    3.48    1.67
   3  13   9    5.93    2.33
   3  13  10    5.06    2.20
   3  13  10    4.45    2.30
   3  13  11  195.63    9.07
   3  13  11  178.00    9.44
   3  13  12    6.55    2.59
   3  13  13    0.11    2.14
   3  13  14   15.49    3.37
  -3  14  11   -4.46    2.66
  -3  14  10   14.55    3.15
  -3  14   9    0.73    2.13
  -3  14   8   75.49    5.84
  -3  14   7   -3.43    2.31
  -3  14   6  117.16    6.98
  -3  14   5   32.72    3.86
  -3  14   4  131.05    7.17
   3  14  -3    1.72    1.03
  -3  14   3    2.56    1.97
   3  14  -2  176.25    6.28
  -3  14   2  174.50    8.05
   3  14  -1    8.48    1.49
   3  14  -1   11.25    1.66
  -3  14   1    8.43    2.35
   3  14   0  234.76    7.64
  -3  14   0  231.68    9.31
   3  14   0  232.00    7.80
   3  14   1   38.68    2.97
  -3  14  -1   34.65    3.60
   3  14   1   39.71    3.20
   3  14   2    4.55    1.35
  -3  14  -2    5.91    1.97
   3  14   2    5.29    1.58
   3  14   3   31.61    2.88
  -3  14  -3   33.40    3.49
   3  14   3   32.99    3.17
   3  14   4   81.78    4.60
  -3  14  -4   80.17    5.17
   3  14   4   75.39    4.94
   3  14   5    1.87    1.52
  -3  14  -5    2.67    1.59
   3  14   5    0.99    1.56
   3  14   6  109.05    5.72
  -3  14  -6  105.65    5.96
   3  14   6  107.10    6.42
   3  14   7   10.29    2.09
  -3  14  -7    8.84    2.26
   3  14   7   11.95    2.81
   3  14   8   26.33    3.17
   3  14   8   30.09    3.97
   3  14   9    2.04    1.81
   3  14   9   -1.57    2.43
   3  14  10   76.57    5.56
   3  14  10   73.71    6.04
   3  14  11    4.94    2.05
  -3  15  10   -3.51    2.28
  -3  15   9  217.11   10.53
  -3  15   8    3.94    2.31
  -3  15   7   22.18    3.56
  -3  15   6    2.13    1.97
  -3  15   5   47.34    4.66
  -3  15   4   24.80    3.53
  -3  15   3   80.08    5.77
  -3  15   2    1.42    1.80
  -3  15   1   56.49    4.67
  -3  15   0   -0.25    1.64
  -3  15  -1    1.00    1.92
   3  15   1    2.97    1.58
  -3  15  -2   -0.41    1.79
   3  15   2    4.57    1.59
  -3  15  -3  356.08   12.11
   3  15   3  352.06   11.47
  -3  15  -4    5.35    2.05
   3  15   4    2.79    1.56
  -3  15  -5    0.63    1.67
   3  15   5   -2.54    1.76
   3  15   6    1.12    1.71
   3  15   7  170.90    8.56
   3  15   8   18.34    3.15
   3  15   9   33.18    4.34
  -3  16   8    5.14    2.07
  -3  16   7    2.34    2.05
  -3  16   6   55.24    5.16
  -3  16   5    3.02    2.22
  -3  16   4  138.83    7.92
  -3  16   3    1.12    1.91
  -3  16   2   31.62    3.65
  -3  16   1   -0.95    1.90
  -3  16   0  158.34    8.02
  -3  16  -1    1.92    1.77
  -3  16  -2    6.56    2.35
  -3  16  -3    0.72    1.87
   3  16   4  109.66    6.31
   3  16   5    2.41    1.93
   3  16   6   30.97    3.74
   3  16   7   -5.20    2.51
   3  16   8   -0.18    2.15
  -3  17   6   32.71    4.57
  -3  17   5   10.63    2.84
  -3  17   4   13.31    3.09
  -3  17   3   14.68    2.95
  -3  17   2    0.62    1.98
  -3  17   1   46.76    4.56
  -3  17   0    1.10    2.07
  -3  18   4   54.78    5.40
  -3  18   3    3.72    2.61
  -4   0  21   -0.02    2.22
  -4   0  20    9.10    2.60
  -4   0  19   -0.51    1.48
  -4   0  18   75.59    5.12
  -4   0  17    0.44    1.52
  -4   0  16  388.13   11.75
  -4   0  15    0.49    1.43
  -4   0  14  230.51    7.99
  -4   0  13   -1.01    1.29
  -4   0  12  169.25    6.19
   4   0 -11    0.28    1.17
  -4   0  11   -0.12    1.05
   4   0 -10   14.35    2.04
  -4   0  10   17.59    1.81
   4   0  -9    1.17    1.16
  -4   0   9   -0.32    0.96
   4   0  -8   24.43    2.29
  -4   0   8   18.42    1.98
   4   0  -7   -0.55    0.87
   4   0  -7   -0.58    1.05
  -4   0   7   -0.21    0.93
   4   0  -6 1346.03   25.27
  -4   0   6 1392.07   25.44
   4   0  -5   -0.20    0.77
  -4   0   5    0.93    0.87
  -4   0   4  418.19    9.33
   4   0  -4  413.35    9.24
  -4   0   3    0.22    0.91
   4   0  -3    0.27    0.74
  -4   0   2  498.16   10.71
   4   0  -2  476.16   10.48
   4   0  -1    1.15    0.85
  -4   0   1    0.03    1.10
  -4   0   0  334.55    8.43
   4   0   0  341.99    8.36
   4   0   1   -0.42    0.96
  -4   0  -1   -0.02    1.12
   4   0   1    1.40    1.27
   4   0   2    7.18    1.40
   4   0   2    6.98    1.50
   4   0   3   -0.39    0.96
   4   0   3    1.02    1.11
   4   0   4   76.27    3.96
   4   0   4   70.55    3.70
  -4   0  -4   76.16    3.75
   4   0   5    0.21    1.12
  -4   0  -5    0.21    1.12
   4   0   5    0.96    1.26
   4   0   6 1700.06   33.34
   4   0   6 1640.00   32.62
  -4   0  -6 1732.73   33.20
   4   0   7   -1.76    1.32
  -4   0  -7    0.32    1.09
   4   0   7    1.00    1.20
   4   0   8   78.42    4.62
   4   0   8   92.82    5.03
  -4   0  -8   85.51    4.77
   4   0   9    1.10    1.50
   4   0  10  442.41   13.06
   4   0  11    1.32    1.55
   4   0  12  148.68    7.32
   4   0  13   -0.26    1.75
   4   0  14   13.94    2.65
   4   0  15    0.72    1.92
   4   0  16  162.79    8.89
   4   0  17   -3.05    2.74
  -4   1  22    1.36    2.00
  -4   1  21  149.77    8.19
  -4  -1  21  145.59    7.60
  -4   1  20    0.84    2.08
  -4  -1  20    4.50    1.97
  -4  -1  19   53.64    4.37
  -4   1  19   46.89    4.45
  -4   1  18    2.05    1.59
  -4  -1  18    2.54    1.49
  -4   1  17  141.06    7.01
  -4  -1  17  148.73    6.71
  -4   1  16   81.19    5.04
  -4  -1  16   84.02    4.77
  -4   1  15   22.66    2.72
  -4  -1  15   21.97    2.58
  -4   1  14   25.05    2.78
  -4  -1  14   28.45    2.58
  -4   1  13  351.17   10.37
  -4  -1  13  347.29    9.71
  -4  -1  12    4.65    1.13
  -4   1  12    6.33    1.36
   4   1 -11    8.33    1.81
   4  -1 -11    8.03    1.77
  -4  -1  11    6.20    1.30
  -4   1  11    7.30    1.51
   4   1 -10    0.01    0.95
   4  -1 -10    1.70    1.14
  -4  -1  10    1.01    0.87
  -4   1  10   -0.36    1.18
   4   1  -9 1475.91   28.99
   4  -1  -9 1416.79   28.71
  -4  -1   9 1439.94   26.91
  -4   1   9 1437.05   27.78
   4   1  -8   18.80    2.07
   4  -1  -8   22.00    2.22
  -4   1   8   21.54    2.00
  -4  -1   8   20.47    1.71
   4  -1  -7   63.40    3.40
   4  -1  -7   63.04    3.03
  -4  -1   7   56.74    2.69
  -4   1   7   60.00    3.11
   4  -1  -6   11.17    1.46
  -4   1   6   10.15    1.53
   4   1  -6    9.88    1.15
  -4  -1   6   12.23    1.30
  -4  -1   5 3965.34   66.96
   4  -1  -5 3903.82   67.77
   4   1  -5 3929.73   66.88
  -4   1   5 3966.65   67.80
  -4  -1   4   35.39    1.97
  -4   1   4   32.16    2.19
   4   1  -4   34.63    1.87
   4  -1  -4   31.79    2.03
   4   1  -3  104.73    3.43
  -4  -1   3  104.50    3.54
  -4   1   3   98.62    3.84
   4  -1  -3  102.78    3.79
  -4   1   2    9.73    1.47
  -4  -1   2    8.79    1.24
   4   1  -2    9.30    1.20
   4  -1  -2    9.49    1.27
   4   1  -1    9.00    1.25
  -4  -1   1    6.82    1.10
  -4   1   1    7.20    1.42
   4  -1  -1    6.95    1.18
  -4  -1   0  152.08    4.93
  -4   1   0  148.18    5.10
   4  -1   0  152.44    5.00
   4   1   0  151.84    4.83
   4  -1   1   35.71    2.41
  -4   1  -1   36.06    2.54
   4   1   1   36.67    2.38
   4   1   1   35.40    2.48
   4  -1   1   35.23    2.30
  -4   1  -2  245.88    7.18
   4   1   2  234.72    6.95
   4  -1   2  228.89    6.94
   4   1   2  240.37    7.04
   4  -1   2  233.48    6.75
   4   1   3 1901.20   35.38
   4  -1   3 1899.60   35.44
   4  -1   3 1875.66   34.82
   4   1   3 1903.43   35.28
   4  -1   4  154.67    5.80
   4   1   4  155.09    5.80
   4   1   4  151.40    5.69
  -4  -1  -4  159.54    5.86
  -4   1  -4  147.23    5.46
   4  -1   4  142.21    5.41
   4  -1   5  122.98    5.20
   4   1   5  117.10    5.15
  -4   1  -5  107.30    4.73
  -4  -1  -5  122.92    5.21
   4  -1   5  109.65    4.76
   4   1   5  116.57    5.01
   4  -1   6   15.22    2.05
   4  -1   6   13.31    1.81
   4   1   6   12.84    1.94
  -4  -1  -6   12.85    1.95
  -4   1  -6   12.23    1.86
   4  -1   7 1303.10   26.96
  -4  -1  -7 1352.08   27.07
   4   1   7 1212.09   26.31
  -4   1  -7 1291.11   26.51
   4  -1   7 1238.92   26.01
   4  -1   8   73.77    4.34
   4  -1   8   91.09    4.94
  -4  -1  -8   83.86    4.77
  -4   1  -8   77.97    4.54
   4   1   8   74.95    4.57
  -4   1  -9   53.51    3.93
   4  -1   9   53.70    3.90
   4   1   9   54.66    3.96
   4   1  10   20.18    2.64
   4  -1  10   24.55    2.88
   4  -1  11  273.76    9.86
   4   1  11  263.37    9.86
   4   1  12    1.05    1.83
   4  -1  12    1.00    1.68
   4  -1  13   14.16    2.72
   4   1  13   10.44    2.47
   4  -1  14    3.37    1.89
   4   1  14   -0.11    1.94
   4   1  15   27.18    3.82
   4  -1  15   28.46    3.69
   4  -1  16   49.05    4.95
   4   1  16   51.62    5.13
   4  -1  17    0.27    2.31
   4   1  17    2.79    2.27
  -4   2  22    3.93    2.16
  -4   2  21    5.18    2.55
  -4  -2  20   57.31    4.45
  -4   2  20   47.09    4.71
  -4   2  19   -0.95    1.91
  -4  -2  19   -1.46    1.54
  -4   2  18  165.72    8.17
  -4  -2  18  169.78    7.29
  -4   2  17    9.36    2.24
  -4  -2  17    9.52    1.87
  -4   2  16  104.95    6.06
  -4  -2  16  114.44    5.44
  -4   2  15  337.55   11.12
  -4  -2  15  354.14   10.13
  -4  -2  14   50.59    3.31
  -4   2  14   53.82    3.97
  -4   2  13    5.01    1.65
  -4  -2  13    5.84    1.29
  -4  -2  12  576.77   13.13
  -4   2  12  573.35   14.47
   4   2 -11    2.08    1.25
   4  -2 -11    0.76    1.07
  -4  -2  11    2.14    0.89
  -4   2  11    2.29    1.42
   4   2 -10   49.89    3.46
   4  -2 -10   50.75    3.43
  -4   2  10   42.76    3.10
  -4  -2  10   48.81    2.63
   4  -2  -9    1.15    0.98
   4   2  -9    3.50    1.25
  -4  -2   9    1.48    0.79
  -4   2   9    2.75    1.33
   4   2  -8   69.89    3.79
   4  -2  -8   65.23    3.59
  -4   2   8   66.71    3.49
  -4  -2   8   64.28    2.74
   4  -2  -7  204.64    6.60
  -4   2   7  209.68    6.53
   4  -2  -7  216.90    6.56
  -4  -2   7  205.05    5.34
   4  -2  -6  691.86   14.59
  -4  -2   6  673.95   13.00
   4  -2  -6  668.62   14.54
  -4   2   6  678.05   14.59
   4   2  -6  651.57   12.92
  -4  -2   5  229.20    5.48
   4   2  -5  222.91    5.38
   4  -2  -5  224.61    6.60
  -4   2   5  230.92    6.73
  -4  -2   4   91.43    3.05
   4  -2  -4   95.52    3.84
  -4   2   4   92.02    3.86
   4   2  -4   90.55    2.97
  -4   2   3  142.26    4.89
  -4  -2   3  147.77    4.15
   4   2  -3  137.16    3.95
   4  -2  -3  135.83    4.77
   4   2  -2  970.00   18.43
  -4   2   2 1020.74   19.66
  -4  -2   2  974.60   18.59
   4  -2  -2 1001.49   19.50
   4   2  -1  692.70   14.23
  -4   2   1  739.70   15.25
  -4  -2   1  717.79   14.41
   4  -2  -1  729.42   15.05
   4  -2   0 2189.93   39.73
   4   2   0 2188.63   39.16
  -4   2   0 2232.93   39.92
   4   2   1   36.72    2.35
   4  -2   1   35.46    2.47
  -4   2  -1   34.99    2.56
   4   2   1   38.45    2.63
   4  -2   1   34.35    2.20
   4   2   2  133.33    4.89
   4  -2   2  142.33    5.19
  -4   2  -2  136.13    5.27
   4  -2   2  141.43    4.73
   4   2   2  137.58    5.23
   4  -2   3   61.27    3.40
   4   2   3   57.25    3.24
  -4   2  -3   62.79    3.55
   4  -2   3   56.92    3.08
   4   2   3   63.24    3.49
   4  -2   4  471.32   11.97
   4   2   4  480.91   12.10
  -4  -2  -4  507.19   12.22
   4  -2   4  472.72   11.34
  -4   2  -4  464.24   11.41
   4  -2   5   53.22    3.37
   4  -2   5   41.11    2.83
  -4  -2  -5   42.38    3.07
  -4   2  -5   49.24    3.15
   4   2   5   43.58    3.10
   4  -2   6  292.00    9.07
  -4  -2  -6  295.01    9.20
   4  -2   6  282.44    8.39
   4   2   6  274.48    8.85
  -4   2  -6  288.03    8.70
   4  -2   7    0.16    1.25
   4   2   7    2.80    1.43
  -4  -2  -7    1.59    1.29
  -4   2  -7    1.35    1.19
   4  -2   7    0.96    1.16
   4  -2   8  338.65   10.09
   4  -2   8  344.70   10.70
   4   2   8  323.84   10.43
  -4  -2  -8  339.96   10.82
  -4   2  -8  345.97   10.31
  -4   2  -9   82.16    4.74
   4   2   9   77.15    4.75
   4  -2   9   75.00    4.47
   4  -2  10  632.77   16.29
   4   2  10  622.65   16.64
   4   2  11    6.76    1.99
   4  -2  11   11.21    2.21
   4   2  12   95.87    5.97
   4  -2  12   91.28    5.56
   4  -2  13    1.76    1.79
   4   2  13   -0.15    1.93
   4  -2  14  318.44   11.80
   4   2  14  307.33   11.99
   4   2  15    1.35    2.10
   4  -2  15    0.32    1.87
   4  -2  16   21.86    3.63
   4   2  16   20.00    3.39
   4   2  17   -0.02    2.17
   4  -2  17   -0.38    1.93
  -4   3  21   94.65    6.69
  -4   3  20    2.48    2.03
  -4   3  19    6.74    2.33
  -4  -3  19    2.60    1.43
  -4  -3  18   -0.32    1.27
  -4   3  18    0.87    1.97
  -4  -3  17  318.32    9.92
  -4   3  17  321.02   11.65
  -4  -3  16   61.08    3.80
  -4   3  16   60.03    4.62
  -4   3  15    7.38    2.20
  -4  -3  15    7.98    1.48
  -4   3  14   -0.34    1.83
  -4  -3  14    0.09    0.97
  -4  -3  13  279.53    7.78
  -4   3  13  264.07    9.31
  -4  -3  12   49.73    2.74
  -4   3  12   45.05    3.62
   4  -3 -11    4.76    1.42
  -4   3  11    2.68    1.34
  -4  -3  11    4.78    1.06
   4  -3 -10  229.52    7.83
   4   3 -10  230.53    8.06
  -4  -3  10  222.95    5.99
  -4   3  10  226.89    7.75
   4   3  -9  882.77   19.29
   4  -3  -9  874.61   18.94
  -4   3   9  848.17   18.81
  -4  -3   9  843.21   16.37
   4  -3  -8   26.71    2.31
   4   3  -8   27.56    2.47
  -4   3   8   24.25    2.36
  -4  -3   8   24.49    1.53
   4  -3  -7  348.15    9.20
  -4  -3   7  344.46    7.34
  -4   3   7  342.46    9.43
   4  -3  -7  357.44    9.44
   4  -3  -6 1095.88   21.62
  -4  -3   6 1125.34   19.61
   4  -3  -6 1112.22   22.14
   4   3  -6 1061.70   19.45
  -4   3   6 1100.33   22.15
  -4  -3   5 1269.76   22.41
  -4   3   5 1308.68   24.89
   4   3  -5 1255.82   22.27
   4  -3  -5 1273.10   24.84
  -4  -3   4   43.24    1.84
   4  -3  -4   45.79    2.75
  -4   3   4   45.46    2.88
   4   3  -4   41.01    1.74
  -4   3   3  273.73    7.52
   4   3  -3  267.29    6.03
  -4  -3   3  259.29    6.08
   4  -3  -3  271.75    7.52
   4   3  -2   11.45    1.08
   4  -3  -2   11.79    1.55
  -4   3   2   12.70    1.69
   4   3  -1  434.10    9.56
  -4   3   1  442.23   10.64
   4  -3  -1  438.37   10.55
  -4   3   0    8.90    1.68
   4   3   0   10.22    1.33
   4  -3   0    9.94    1.49
   4  -3   1  265.27    7.63
   4   3   1  268.51    7.26
  -4   3  -1  268.80    7.77
   4  -3   1  266.23    6.80
   4   3   1  275.09    7.80
  -4   3  -2    4.84    1.52
   4  -3   2    5.09    1.15
   4  -3   2    4.64    1.04
   4   3   2    3.96    1.26
  -4   3  -3  812.90   17.53
   4  -3   3  800.10   17.34
   4  -3   3  764.78   16.16
   4   3   3  806.75   17.37
   4  -3   4 1306.96   25.87
  -4   3  -4 1289.23   25.82
   4   3   4 1248.99   25.74
  -4   3  -4 1280.41   24.71
   4  -3   4 1264.16   24.58
   4  -3   5  168.67    6.35
  -4   3  -5  175.35    5.96
  -4  -3  -5  178.23    6.68
   4   3   5  173.32    6.56
   4  -3   5  158.90    5.65
   4  -3   6 1006.82   21.45
   4  -3   6 1048.16   22.53
  -4  -3  -6 1097.12   22.99
   4   3   6 1021.77   22.50
  -4   3  -6 1068.90   21.84
   4  -3   7  553.56   13.72
   4  -3   7  566.14   14.61
  -4  -3  -7  599.27   15.17
   4   3   7  552.12   14.52
  -4   3  -7  583.19   14.14
   4  -3   8    0.85    1.30
   4  -3   8    3.03    1.34
  -4   3  -8    0.55    1.16
   4   3   8    0.42    1.44
  -4   3  -9   -0.19    1.26
   4   3   9   -0.75    1.53
   4  -3   9   -0.97    1.48
   4   3  10    2.19    1.64
   4  -3  10    3.63    1.68
   4   3  11  131.67    6.83
   4  -3  11  129.44    6.36
   4   3  12   27.64    3.45
   4  -3  12   28.09    3.27
   4   3  13    1.61    1.82
   4  -3  13    1.13    1.81
   4   3  14   15.39    3.10
   4  -3  14   13.32    2.80
   4  -3  15   47.27    4.65
   4   3  15   54.92    5.12
   4   3  16   42.35    4.57
   4  -3  16   38.56    4.36
   4   3  17   10.67    2.76
   4  -3  17   17.66    3.02
  -4   4  20   81.85    6.33
  -4   4  19    8.27    2.67
  -4   4  18  119.96    7.13
  -4   4  17    3.38    2.03
  -4  -4  17    4.53    1.39
  -4   4  16  127.91    6.98
  -4  -4  16  130.98    5.32
  -4  -4  15   91.93    4.20
  -4   4  15   96.40    5.82
  -4  -4  14  120.04    4.60
  -4   4  14  107.36    5.91
  -4  -4  13  229.89    6.59
  -4   4  13  231.51    8.71
  -4  -4  12   79.16    3.29
  -4   4  12   74.68    4.73
   4  -4 -11   20.33    2.37
  -4   4  11   13.57    2.30
  -4  -4  11   19.13    1.49
   4   4 -10   20.37    2.33
   4  -4 -10   16.06    2.11
  -4   4  10   25.06    2.72
  -4  -4  10   18.22    1.34
   4  -4  -9   32.18    2.71
   4   4  -9   28.60    2.71
  -4   4   9   28.96    2.77
  -4  -4   9   30.18    1.54
   4   4  -8  115.27    5.09
   4  -4  -8  106.44    4.62
  -4  -4   8  111.54    2.99
  -4   4   8  106.91    5.01
   4  -4  -7  175.97    5.96
  -4  -4   7  182.01    4.06
  -4   4   7  188.92    6.58
   4  -4  -7  186.06    6.47
   4  -4  -6  181.27    5.78
  -4  -4   6  181.71    3.97
   4  -4  -6  193.86    6.52
  -4   4   6  198.48    6.62
   4  -4  -5  112.59    4.12
  -4  -4   5  109.72    2.80
   4   4  -5  113.92    2.74
  -4   4   5  125.92    5.01
   4  -4  -5  124.94    4.91
   4  -4  -4 1587.27   29.98
   4   4  -4 1550.26   26.91
  -4   4   4 1604.26   30.04
   4   4  -3  147.11    3.80
  -4   4   3  148.47    5.44
   4  -4  -3  140.97    5.26
   4   4  -2  897.51   16.98
  -4   4   2  932.16   19.03
   4  -4  -2  920.41   18.92
   4   4  -1   -0.35    0.78
  -4   4   1    0.70    1.28
   4  -4  -1    1.52    1.19
   4   4   0  587.82   12.49
   4  -4   0  575.40   13.34
  -4   4   0  596.14   13.60
   4   4   1   11.23    1.77
   4  -4   1    8.66    1.18
  -4   4  -1    9.67    1.72
   4  -4   1    9.65    1.58
   4  -4   2   25.27    2.30
  -4   4  -2   21.62    2.22
   4  -4   2   24.46    1.83
   4   4   2   24.68    2.38
  -4   4  -3    4.15    1.39
   4  -4   3    2.98    1.22
   4  -4   3    2.97    1.08
   4   4   3    2.32    1.43
  -4   4  -4   78.47    4.19
   4  -4   4   70.77    3.93
   4  -4   4   74.75    3.36
  -4   4  -4   71.05    3.45
   4   4   4   68.92    3.98
   4  -4   5  400.38   11.03
  -4   4  -5  406.62   11.22
  -4   4  -5  399.42   10.07
   4  -4   5  383.24    9.93
   4   4   5  412.13   11.27
  -4  -4  -5  416.12   11.46
   4  -4   6  104.89    4.55
   4  -4   6  117.32    5.40
  -4  -4  -6  108.86    5.44
  -4   4  -6  123.36    5.00
   4   4   6  116.03    5.54
   4  -4   7   55.82    3.40
   4  -4   7   60.17    3.95
  -4  -4  -7   57.59    4.03
  -4   4  -7   55.18    3.57
   4   4   7   57.37    3.97
   4  -4   8    2.20    1.30
   4  -4   8    1.23    1.28
   4   4   8   -0.11    1.50
  -4   4  -8    2.72    1.22
  -4   4  -9  122.72    5.79
   4  -4   9  116.33    5.52
   4   4   9  107.95    5.88
   4   4  10  115.86    6.30
   4  -4  10  130.06    6.02
   4   4  11   -3.39    2.08
   4  -4  11   -0.20    1.38
   4  -4  12  154.67    7.22
   4   4  12  145.00    7.54
   4   4  13    2.61    1.80
   4  -4  13    3.34    1.83
   4  -4  14   22.23    3.33
   4   4  14   20.57    3.35
   4   4  15    6.55    2.45
   4  -4  15    2.38    1.78
   4  -4  16   23.57    3.50
   4   4  16   21.70    3.66
   4  -4  17    3.65    2.07
  -4   5  20   18.74    3.40
  -4   5  19   32.26    4.08
  -4   5  18    9.11    2.59
  -4   5  17  155.52    8.09
  -4  -5  16    1.59    1.01
  -4   5  16    0.49    1.78
  -4  -5  15   21.39    1.96
  -4   5  15   17.47    3.05
  -4   5  14   -0.37    1.54
  -4  -5  14   -0.04    0.84
  -4   5  13   11.86    2.39
  -4  -5  13   14.99    1.44
  -4  -5  12  228.42    5.82
  -4   5  12  227.41    8.73
   4  -5 -11  222.24    7.98
  -4   5  11  213.50    8.20
  -4  -5  11  217.82    5.29
   4  -5 -10  271.71    8.77
   4   5 -10  282.29    9.13
  -4   5  10  267.25    9.16
  -4  -5  10  277.13    5.90
   4  -5  -9  829.65   18.61
   4   5  -9  871.64   19.23
  -4  -5   9  849.70   14.80
  -4   5   9  804.97   19.24
   4   5  -8   18.21    2.11
   4  -5  -8   14.34    1.76
  -4   5   8   10.91    1.90
   4  -5  -7  325.45    8.74
   4  -5  -7  330.17    9.75
  -4   5   7  333.95    9.78
   4  -5  -6   18.26    1.72
  -4   5   6   18.90    2.20
   4  -5  -6   23.03    2.33
   4  -5  -5 1497.67   28.21
  -4   5   5 1592.98   30.26
   4  -5  -5 1540.88   30.02
   4  -5  -4    7.69    1.11
   4   5  -4    6.61    0.58
   4  -5  -4    9.61    1.52
  -4   5   4    9.52    1.68
   4   5  -3   18.55    1.15
   4  -5  -3   19.40    2.05
  -4   5   3   17.68    2.10
   4   5  -2   13.24    1.15
  -4   5   2   17.92    2.09
   4  -5  -2   13.82    1.80
  -4   5   1  644.40   14.88
   4   5  -1  664.32   13.33
   4  -5  -1  652.72   14.98
   4  -5   0  489.77   10.10
  -4   5   0  498.54   12.16
   4  -5   0  487.12   11.99
   4   5   1    0.80    1.26
   4  -5   1    3.76    0.83
  -4   5  -1    2.37    1.39
   4  -5   1    2.08    0.99
  -4   5  -2  678.35   15.16
   4  -5   2  633.33   14.79
   4   5   2  649.01   15.02
   4  -5   2  623.71   12.91
  -4   5  -3 1910.10   36.00
   4  -5   3 1880.86   35.73
   4   5   3 1876.25   35.85
   4  -5   3 1854.57   33.62
   4  -5   4 1482.04   29.74
  -4   5  -4 1558.61   30.17
   4  -5   4 1486.71   27.89
   4   5   4 1505.04   30.03
   4  -5   5  118.42    4.59
   4  -5   5  127.94    5.55
  -4   5  -5  130.35    5.70
   4   5   5  123.33    5.68
  -4   5  -5  131.15    4.80
   4  -5   6  395.86   10.12
   4  -5   6  389.69   11.20
   4   5   6  391.56   11.40
  -4  -5  -6  416.12   11.95
  -4   5  -6  394.15   10.33
   4  -5   7  243.35    7.63
   4  -5   7  238.84    8.45
  -4   5  -7  253.69    7.87
   4   5   7  232.65    8.61
   4  -5   8    0.52    1.20
   4  -5   8    2.23    1.22
  -4   5  -8    1.34    1.29
   4   5   8    0.63    1.37
  -4   5  -9    0.62    1.08
   4   5   9   -0.35    1.66
   4  -5   9   -0.12    1.26
   4   5  10    4.18    1.81
   4  -5  10    7.96    1.88
   4  -5  11   53.79    4.00
   4   5  11   55.21    4.58
   4   5  12    7.51    2.24
   4  -5  12   12.63    2.34
   4   5  13    2.60    1.81
   4  -5  13    2.88    1.89
   4  -5  14   77.52    5.49
   4   5  14   77.26    5.97
   4   5  15  234.61   10.80
   4  -5  15  233.80   10.11
   4   5  16   43.72    4.86
   4  -5  16   35.87    4.26
   4  -5  17    5.22    2.14
   4  -5  18   35.33    4.45
  -4   6  19   33.94    4.27
  -4   6  18   20.19    3.38
  -4   6  17   20.85    3.60
  -4   6  16   70.50    5.53
  -4  -6  15  208.69    5.94
  -4   6  15  208.42    9.25
  -4   6  14    5.77    2.06
  -4  -6  14    6.32    1.03
  -4  -6  13   28.74    1.71
  -4  -6  13   29.21    1.61
  -4   6  13   35.40    3.65
  -4  -6  12  423.75    8.72
  -4   6  12  415.10   13.06
  -4  -6  12  444.18    8.66
   4  -6 -11    5.55    1.66
  -4  -6  11    6.90    0.58
  -4  -6  11    5.07    0.49
  -4   6  11    5.98    1.75
   4   6 -10   84.62    4.79
   4  -6 -10   90.62    4.63
  -4   6  10   88.56    5.24
   4   6  -9    7.20    1.64
   4  -6  -9    5.73    1.41
  -4   6   9    7.34    1.80
   4  -6  -8  661.92   15.07
  -4   6   8  663.46   16.41
   4  -6  -7   41.66    2.69
  -4   6   7   38.62    3.24
   4  -6  -6   54.55    2.86
   4  -6  -6   64.20    3.82
  -4   6   6   60.01    3.84
   4  -6  -5   30.64    1.98
   4  -6  -5   35.21    2.86
  -4   6   5   36.84    2.98
   4  -6  -4   50.64    2.38
   4   6  -4   54.50    1.48
  -4   6   4   56.99    3.58
   4  -6  -4   52.52    3.42
   4  -6  -3  175.44    4.76
   4   6  -3  177.36    4.27
  -4   6   3  185.77    6.56
   4  -6  -3  182.55    6.52
  -4   6   2  276.93    8.40
   4   6  -2  269.46    6.40
   4  -6  -2  276.03    8.34
   4  -6  -1   -0.52    1.08
  -4   6   1   -0.64    1.22
   4  -6   0  127.03    3.57
  -4   6   0  127.38    5.30
   4  -6   0  121.01    5.14
   4   6   1  638.39   14.82
   4  -6   1  624.23   12.34
  -4   6  -1  670.39   15.24
   4  -6   1  647.17   14.97
  -4   6  -2  242.14    7.73
   4  -6   2  219.99    7.31
   4  -6   2  210.70    5.47
   4   6   2  225.73    7.50
   4  -6   3   30.71    1.84
   4  -6   3   34.37    2.80
  -4   6  -3   30.98    2.83
   4   6   3   30.66    2.69
   4  -6   4  814.69   16.36
   4  -6   4  819.18   18.50
  -4   6  -4  828.49   18.67
   4   6   4  823.40   18.66
   4  -6   5   80.67    3.51
   4  -6   5   79.32    4.34
  -4   6  -5   77.84    4.44
  -4   6  -5   81.70    3.61
   4   6   5   81.46    4.55
   4  -6   6  169.45    5.79
  -4   6  -6  181.13    7.14
   4  -6   6  177.20    6.94
  -4  -6  -6  185.74    7.37
   4   6   6  171.46    7.00
  -4   6  -6  184.93    6.07
   4  -6   7   15.60    1.78
   4  -6   7   18.16    2.35
   4   6   7   17.69    2.61
  -4   6  -7   19.02    2.11
   4  -6   8   10.87    1.75
   4  -6   8    9.15    1.93
  -4   6  -8    7.77    1.59
   4   6   8   10.22    2.12
  -4   6  -9   86.80    4.90
   4   6   9   97.22    5.60
   4  -6   9   98.80    4.85
  -4   6 -10   63.40    4.15
   4  -6  10   63.50    4.10
   4   6  10   59.41    4.57
   4  -6  11  103.51    5.56
   4   6  11  106.20    6.34
   4   6  12   48.83    4.50
   4  -6  12   46.94    3.89
   4  -6  13   95.07    5.72
   4   6  13  101.37    6.57
   4   6  14   13.57    2.92
   4  -6  14   19.00    2.89
   4  -6  15    1.82    2.08
   4   6  15    1.33    2.20
   4   6  16   27.61    4.10
   4  -6  16   32.03    3.94
   4  -6  17   22.83    3.66
   4  -6  18    5.88    2.69
  -4   7  18   39.60    4.66
  -4   7  17  214.73   10.21
  -4   7  16   21.37    3.39
  -4   7  15    4.54    2.25
  -4   7  14  214.89    9.43
  -4   7  13    6.89    2.01
  -4   7  12  168.99    7.99
   4  -7 -11   22.39    2.54
  -4   7  11   13.92    2.33
   4  -7 -10  402.58   11.40
  -4   7  10  405.34   12.41
   4   7  -9  163.93    6.56
   4  -7  -9  162.68    6.21
  -4   7   9  170.13    7.22
   4   7  -8   35.74    2.85
   4  -7  -8   31.65    2.52
  -4   7   8   27.17    2.97
   4  -7  -7   10.34    1.46
  -4   7   7    7.15    1.93
   4  -7  -6  371.16    9.30
  -4   7   6  403.50   11.45
   4  -7  -6  405.99   11.39
   4  -7  -5  161.14    4.96
   4  -7  -5  172.65    6.65
  -4   7   5  166.21    6.67
   4  -7  -4    2.81    0.77
   4  -7  -4    3.20    1.40
  -4   7   4    2.96    1.49
   4  -7  -3  230.75    5.58
   4   7  -3  231.71    5.32
  -4   7   3  244.78    8.05
   4  -7  -3  244.51    8.01
   4  -7  -2    1.34    0.45
   4  -7  -2    1.21    1.22
  -4   7   2   -0.95    1.37
   4  -7  -1  158.85    3.86
  -4   7   1  157.26    6.19
   4  -7  -1  159.19    6.17
   4  -7   0  471.46    9.19
   4   7   0  481.72   12.17
  -4   7   0  505.35   12.71
   4  -7   0  486.93   12.49
   4   7   1   46.95    3.23
   4  -7   1   40.56    1.68
  -4   7  -1   43.71    3.21
   4  -7   1   45.33    3.19
   4  -7   2  180.82    4.59
   4   7   2  186.15    6.79
  -4   7  -2  200.76    7.13
   4  -7   2  189.56    6.84
   4  -7   3  291.03    6.77
   4  -7   3  289.18    8.97
  -4   7  -3  288.10    9.12
   4   7   3  288.73    9.05
   4  -7   4  259.71    6.65
   4  -7   4  263.78    8.56
  -4   7  -4  267.89    8.85
   4   7   4  258.20    8.64
   4  -7   5  116.60    4.16
   4  -7   5  113.83    5.40
  -4   7  -5  111.83    5.50
   4   7   5  117.28    5.61
   4  -7   6  161.02    5.36
   4  -7   6  157.36    6.54
  -4   7  -6  160.44    6.74
  -4   7  -6  153.37    5.37
   4   7   6  162.69    6.92
   4  -7   7  598.50   13.82
   4  -7   7  613.65   15.64
  -4   7  -7  604.71   14.02
   4   7   7  593.01   15.86
   4   7   8   70.77    4.77
  -4   7  -8   77.58    4.19
   4  -7   8   76.22    3.97
  -4   7  -9   62.75    3.91
   4  -7   9   59.64    3.74
   4   7   9   68.85    4.93
   4   7  10    8.87    2.18
  -4   7 -10    6.25    1.52
   4  -7  10    3.46    1.22
   4   7  11  197.90    9.02
   4  -7  11  205.95    7.90
   4   7  12    4.53    1.96
   4  -7  12    2.89    1.51
   4  -7  13    0.55    1.54
   4   7  13    1.97    1.79
   4  -7  14   39.79    3.92
   4   7  14   44.74    4.73
   4  -7  15   87.62    5.91
   4   7  15   83.04    6.44
   4  -7  16  105.28    6.70
   4  -7  17   -0.46    2.03
   4  -7  18   -1.13    2.52
  -4   8  17    1.26    2.14
  -4   8  16   26.71    3.96
  -4   8  15   41.22    4.72
  -4   8  14  110.42    6.99
  -4   8  13    8.12    2.49
  -4   8  12    5.21    2.18
   4  -8 -11   20.08    2.39
  -4   8  11   14.00    2.65
   4  -8 -10  343.44   10.22
  -4   8  10  337.01   11.46
   4  -8  -9   44.75    3.12
   4   8  -9   42.70    3.34
  -4   8   9   40.18    3.69
   4  -8  -8  165.73    6.00
   4   8  -8  179.58    6.76
  -4   8   8  174.91    7.51
   4  -8  -7  128.97    4.80
  -4   8   7  120.26    6.08
   4  -8  -6  184.34    5.67
  -4   8   6  199.09    7.71
   4  -8  -5   20.09    1.55
  -4   8   5   20.62    2.58
   4  -8  -4  153.46    4.42
  -4   8   4  177.75    6.96
   4  -8  -4  173.45    6.81
   4  -8  -3  551.90   11.14
  -4   8   3  572.71   14.75
   4   8  -3  589.70   11.32
   4   8  -3  606.63   11.17
   4  -8  -3  605.91   14.89
   4  -8  -2    2.99    0.48
   4  -8  -2    2.70    1.37
  -4   8   2    0.61    1.30
   4  -8  -1   11.31    0.62
   4  -8  -1   11.34    0.62
   4  -8  -1   14.03    1.99
  -4   8   1   15.13    2.14
   4   8   0    2.39    1.16
  -4   8   0    2.82    1.36
   4  -8   0    5.26    1.52
   4  -8   1  709.81   12.55
   4   8   1  751.06   16.94
  -4   8  -1  761.08   17.32
   4  -8   1  725.63   17.01
   4  -8   2  194.47    4.32
   4   8   2  192.52    7.03
  -4   8  -2  199.43    7.38
   4  -8   2  194.56    7.19
   4  -8   3   42.54    1.84
   4   8   3   47.08    3.45
  -4   8  -3   42.72    3.34
   4  -8   3   43.08    3.25
   4  -8   4   66.23    2.66
   4   8   4   76.07    4.43
   4  -8   4   72.91    4.24
  -4   8  -4   72.34    4.39
   4  -8   5   22.84    1.70
   4   8   5   21.67    2.66
  -4   8  -5   25.47    2.80
   4  -8   5   22.11    2.49
   4  -8   6    2.64    0.97
  -4   8  -6    3.91    1.12
   4   8   6    2.67    1.59
  -4   8  -6    2.90    1.50
   4  -8   6    1.96    1.31
   4  -8   7  150.06    5.35
  -4   8  -7  160.95    7.04
  -4   8  -7  149.74    5.41
   4   8   7  145.10    6.84
  -4   8  -8  311.98    8.91
   4   8   8  286.20   10.36
   4  -8   8  292.48    8.58
  -4   8  -9   60.41    3.83
   4   8   9   53.42    4.41
   4  -8   9   62.16    3.66
  -4   8 -10  121.22    5.66
   4   8  10  111.70    6.49
   4  -8  10  112.60    5.38
   4   8  11   11.75    2.44
   4  -8  11    9.00    1.94
   4   8  12    5.42    2.21
   4  -8  12    5.25    1.73
   4   8  13  164.49    8.82
   4  -8  13  169.07    7.60
   4  -8  14  146.79    7.32
   4   8  14  148.16    8.51
   4  -8  15    9.34    2.50
   4   8  15   15.47    3.26
   4  -8  16    5.28    2.47
   4  -8  17    3.25    2.34
  -4   9  16   77.21    6.31
  -4   9  15   12.94    3.01
  -4   9  14   17.82    3.24
  -4   9  13   47.92    4.60
  -4   9  12  148.08    7.88
   4  -9 -11  115.60    5.67
  -4   9  11  123.12    6.88
   4  -9 -10  460.67   12.55
  -4   9  10  493.96   14.67
   4   9  -9  191.14    7.34
   4  -9  -9  189.32    6.76
  -4   9   9  190.33    8.35
   4  -9  -8   14.24    1.74
   4   9  -8   14.23    2.07
  -4   9   8   15.16    2.65
   4  -9  -7   35.57    2.45
  -4   9   7   38.14    3.57
   4  -9  -6  164.48    5.17
  -4   9   6  162.73    7.18
   4  -9  -5  197.96    5.42
  -4   9   5  201.33    7.97
   4  -9  -4  213.02    5.17
   4   9  -4  214.97    4.27
   4   9  -4  207.19    4.20
  -4   9   4  205.83    8.00
   4  -9  -3  118.34    2.98
  -4   9   3  114.09    5.67
   4   9  -3  120.35    3.39
  -4   9   2  187.48    7.34
   4  -9  -2  197.17    7.51
   4   9  -2  191.69    5.21
   4   9  -1  286.83    8.77
  -4   9   1  276.48    9.27
   4  -9  -1  283.17    9.31
   4   9   0  502.72   12.85
  -4   9   0  496.72   13.46
   4  -9   0  494.46   13.32
   4   9   1  251.03    8.15
  -4   9  -1  222.61    8.16
   4  -9   1  224.34    8.10
   4   9   2  152.87    6.26
  -4   9  -2  168.89    6.84
   4  -9   2  142.73    6.28
   4  -9   3   73.02    2.00
   4   9   3   76.25    4.39
  -4   9  -3   79.17    4.67
   4  -9   3   77.23    4.57
   4  -9   4  250.07    5.59
   4   9   4  232.23    8.43
  -4   9  -4  244.10    8.71
   4  -9   4  235.99    8.41
   4  -9   5   37.15    1.98
   4   9   5   30.57    3.03
  -4   9  -5   33.98    3.24
   4  -9   5   39.49    3.35
   4  -9   6   50.55    2.56
  -4   9  -6   56.62    4.22
   4   9   6   48.81    3.87
   4  -9   7   86.22    3.75
  -4   9  -7   82.85    5.03
   4   9   7   85.94    5.21
  -4   9  -7   84.75    3.80
  -4   9  -8   59.21    3.40
   4  -9   8   61.47    3.35
   4   9   8   60.80    4.62
  -4   9  -9   43.09    3.11
   4   9   9   36.33    3.73
   4  -9   9   37.59    2.78
   4   9  10   43.55    4.23
   4  -9  10   40.89    3.09
   4  -9  11  163.25    6.76
   4   9  11  167.37    8.41
   4   9  12    5.84    2.17
   4  -9  12    9.13    1.94
   4  -9  13   17.89    2.59
   4   9  13   19.64    3.36
   4  -9  14  117.87    6.49
   4   9  14  111.10    7.36
  -4  10  15  146.57    8.58
  -4  10  14   17.82    3.25
  -4  10  13   19.91    3.38
  -4  10  12   72.67    5.64
  -4  10  11   81.46    5.73
   4 -10 -10   30.04    2.78
  -4  10  10   29.17    3.57
   4 -10  -9   75.00    4.08
  -4  10   9   69.37    5.11
   4 -10  -8  640.65   14.64
   4  10  -8  648.17   15.91
  -4  10   8  647.23   17.70
   4 -10  -7    1.83    0.89
  -4  10   7    1.35    1.58
   4 -10  -6    9.27    1.12
  -4  10   6    8.50    2.00
   4 -10  -5   63.09    2.55
  -4  10   5   60.79    4.33
   4 -10  -4  108.14    2.98
   4  10  -4  109.51    2.70
   4  10  -4  109.38    2.64
  -4  10   4  107.27    5.75
  -4  10   3  286.91    9.92
   4  10  -3  298.19    6.72
  -4  10   2  126.79    6.12
   4  10  -2  117.96    3.96
   4  10  -1   30.19    2.64
  -4  10   1   30.05    3.07
   4  10  -1   26.20    1.99
   4  10   0    4.44    1.15
  -4  10   0    4.95    1.61
   4  10   0    4.77    1.50
  -4  10  -1  217.76    8.17
   4  10   1  209.56    7.55
  -4  10  -2  130.53    6.16
   4  10   2  123.85    5.73
  -4  10  -3    6.98    1.84
   4  10   3    9.57    1.87
  -4  10  -4  198.14    7.93
   4  10   4  193.98    7.65
  -4  10  -5  129.81    6.40
   4  10   5  126.11    6.16
   4 -10   6    0.37    0.63
  -4  10  -6    1.08    1.49
   4  10   6    0.74    1.38
   4 -10   7   24.19    1.86
  -4  10  -7   23.46    3.01
   4  10   7   20.19    2.79
   4 -10   8  143.52    5.13
   4  10   8  141.87    7.09
   4 -10   9   98.64    4.45
   4  10   9  106.68    6.28
   4 -10  10   69.31    3.92
   4  10  10   76.99    5.56
   4  10  11   18.77    3.17
   4  10  12    5.06    2.57
   4  10  13   51.56    5.08
   4  10  14   16.82    3.41
  -4  11  14   65.18    5.80
  -4  11  13   17.09    3.26
  -4  11  12   14.84    3.06
  -4  11  11   79.21    5.81
  -4  11  10  109.50    6.79
  -4  11   9   16.20    3.00
   4 -11  -8  605.27   13.76
   4  11  -8  585.25   14.99
  -4  11   8  588.88   17.17
   4 -11  -7  104.84    4.09
  -4  11   7   97.14    6.02
   4 -11  -6  262.29    6.69
  -4  11   6  269.19   10.19
   4 -11  -5  117.15    3.37
  -4  11   5  118.98    6.36
   4  11  -4    0.11    0.49
   4  11  -4    1.61    0.45
  -4  11   4    2.72    1.80
  -4  11   3  581.56   16.02
   4  11  -3  600.76   11.97
   4  11  -2    9.54    1.75
   4  11  -2   10.09    1.26
  -4  11   2    7.40    2.03
   4  11  -1    5.64    1.55
   4  11  -1    4.97    1.20
  -4  11   1    3.67    1.73
   4  11   0   23.73    2.62
  -4  11   0   22.97    2.84
   4  11   0   18.19    1.94
   4  11   1   98.18    5.03
  -4  11  -1  100.66    5.55
   4  11   1  106.20    4.70
  -4  11  -2  235.41    8.90
   4  11   2  238.70    8.41
  -4  11  -3    1.34    1.35
   4  11   3   -0.27    1.48
  -4  11  -4  232.60    8.91
   4  11   4  234.16    8.64
  -4  11  -5   33.58    3.42
   4  11   5   28.79    3.15
  -4  11  -6  261.17    9.73
   4  11   6  242.99    9.32
  -4  11  -7   25.76    3.18
   4  11   7   25.42    3.26
   4  11   8  110.79    6.40
   4  11   9   30.00    3.62
   4  11  10   57.39    5.01
   4  11  11   74.92    5.74
   4  11  12    7.96    2.64
   4  11  13   12.44    3.12
  -4  12  13    1.19    2.08
  -4  12  12   25.06    3.52
  -4  12  11  176.24    9.16
  -4  12  10   77.72    5.90
  -4  12   9    9.11    2.62
  -4  12   8  152.66    8.02
   4  12  -7  345.80   10.37
  -4  12   7  345.66   12.39
  -4  12   6    1.46    1.86
  -4  12   5   76.44    5.35
   4  12  -4   19.46    1.09
  -4  12   4    8.86    2.31
   4  12  -3  220.50    7.82
  -4  12   3  219.03    8.99
   4  12  -3  225.20    5.78
   4  12  -2  101.48    5.07
  -4  12   2   92.79    5.71
   4  12  -2  111.74    4.08
   4  12  -1  110.99    5.35
  -4  12   1   97.37    5.77
   4  12  -1  111.05    4.43
   4  12   0    1.58    1.22
  -4  12   0    2.23    1.66
   4  12   0    4.94    1.33
   4  12   1   53.99    3.82
  -4  12  -1   54.49    4.25
   4  12   1   51.83    3.36
   4  12   2   53.97    3.85
  -4  12  -2   63.93    4.57
   4  12   2   59.49    3.80
   4  12   3    2.70    1.68
  -4  12  -3    1.71    1.78
   4  12   3    0.15    1.26
   4  12   4  129.85    6.28
  -4  12  -4  141.36    6.92
   4  12   4  136.91    6.45
  -4  12  -5  380.59   12.42
   4  12   5  391.53   12.18
  -4  12  -6    1.80    1.53
   4  12   6    3.93    1.86
  -4  12  -7   10.14    2.28
   4  12   7   18.04    2.79
   4  12   8  187.70    8.53
   4  12   9  110.97    6.61
   4  12  10    0.73    1.90
   4  12  11   12.23    2.78
   4  12  12    3.23    2.23
   4  12  13   68.70    6.05
  -4  13  12    2.55    2.47
  -4  13  11    1.79    2.26
  -4  13  10   26.27    3.96
  -4  13   9   43.41    4.61
  -4  13   8   43.19    4.53
  -4  13   7   -2.30    2.26
  -4  13   6  367.50   12.97
  -4  13   5   33.95    3.82
   4  13  -4  180.69    6.98
  -4  13   4  182.67    8.54
   4  13  -3    3.64    1.42
  -4  13   3    7.61    2.32
   4  13  -2  161.54    6.76
  -4  13   2  184.03    8.34
   4  13  -2  187.50    5.76
   4  13  -1    0.91    1.34
  -4  13   1    1.03    1.65
   4  13  -1    0.12    1.05
   4  13   0    5.41    1.64
  -4  13   0    5.30    1.94
   4  13   0    5.21    1.45
   4  13   1   35.55    3.14
  -4  13  -1   25.47    3.19
   4  13   1   36.86    3.00
   4  13   2   84.27    4.84
  -4  13  -2   76.40    5.31
   4  13   2   75.08    4.39
   4  13   3   24.61    2.88
  -4  13  -3   22.97    3.05
   4  13   3   26.48    2.92
   4  13   4   45.66    3.72
  -4  13  -4   44.44    4.12
   4  13   4   49.75    3.89
   4  13   5   11.17    2.06
  -4  13  -5   13.73    2.75
   4  13   5   15.86    2.43
   4  13   6   32.09    3.48
  -4  13  -6   26.02    3.31
   4  13   6   30.77    3.46
   4  13   7   -1.52    2.03
  -4  13  -7    0.49    1.56
   4  13   7   -0.63    2.25
   4  13   8   60.98    4.88
   4  13   9    6.89    2.26
   4  13  10   18.80    3.20
   4  13  11   12.23    2.79
   4  13  12   46.45    4.70
  -4  14  10    8.35    2.48
  -4  14   9    1.69    2.10
  -4  14   8   63.84    5.57
  -4  14   7   55.81    5.12
  -4  14   6    0.92    2.01
   4  14  -5   -0.34    1.13
  -4  14   5    0.79    2.04
   4  14  -4   32.17    2.83
  -4  14   4   36.26    3.95
   4  14  -3  100.48    5.08
  -4  14   3   99.55    6.40
   4  14  -2   34.54    3.02
  -4  14   2   27.58    3.41
   4  14  -1   69.68    4.23
  -4  14   1   74.04    5.38
   4  14   0   -1.12    1.38
  -4  14   0    2.93    2.14
   4  14   0   -0.05    1.13
   4  14   1  197.46    7.65
  -4  14  -1  201.52    8.90
   4  14   1  207.76    7.51
   4  14   2   22.19    2.70
  -4  14  -2   26.04    3.39
   4  14   2   27.96    2.84
   4  14   3   91.84    5.26
  -4  14  -3   88.39    5.87
   4  14   3   90.40    5.17
   4  14   4   -0.25    1.36
  -4  14  -4    2.50    2.30
   4  14   4    1.51    1.56
   4  14   5  195.77    8.10
  -4  14  -5  177.45    8.40
   4  14   5  182.96    8.18
   4  14   6    6.57    2.30
  -4  14  -6    6.10    2.12
   4  14   6    5.43    2.00
   4  14   7    2.89    2.06
  -4  14  -7    3.24    2.06
   4  14   7    1.06    2.01
   4  14   8   21.38    3.16
   4  14   8   22.44    3.46
   4  14   9   46.92    4.59
   4  14   9   41.18    4.52
   4  14  10    3.42    2.07
   4  14  10    3.83    1.93
   4  14  11    2.69    1.92
  -4  15   9    4.22    2.62
  -4  15   8   30.85    4.22
  -4  15   7   10.70    2.73
  -4  15   6   54.67    5.22
  -4  15   5    7.70    2.62
  -4  15   4  187.81    9.21
  -4  15   3    5.66    2.30
  -4  15   2  123.17    7.19
  -4  15   1   13.08    2.70
  -4  15   0   12.66    2.82
  -4  15  -1    0.92    1.93
  -4  15  -2  144.93    7.71
  -4  15  -3   -0.60    1.99
   4  15   3   -0.66    1.52
  -4  15  -4  114.57    6.79
   4  15   4  110.99    6.15
  -4  15  -5    4.29    2.16
   4  15   5   -1.12    1.56
  -4  15  -6    8.32    2.25
   4  15   6    2.11    1.79
   4  15   7   10.66    2.59
   4  15   8   88.04    6.37
   4  15   9   11.38    3.03
  -4  16   7   83.22    6.55
  -4  16   6    5.67    2.54
  -4  16   5   -0.34    2.09
  -4  16   4    4.74    2.39
  -4  16   3   61.15    5.29
  -4  16   2   11.76    2.85
  -4  16   1    0.44    1.99
  -4  16   0   11.65    2.76
  -4  16  -1   55.36    4.97
  -4  16  -2    0.32    1.97
  -4  16  -3    5.23    2.32
   4  16   7   17.34    3.26
   4  16   8   21.42    3.75
  -4  17   5   10.07    3.11
  -4  17   4   66.68    5.66
  -4  17   3    5.80    2.37
  -4  17   2   21.10    3.44
  -4  17   1    2.09    2.02
  -4  17   0    6.17    2.45
  -4  17  -1    6.39    2.90
  -5   0  21   36.94    4.25
  -5   0  20    1.47    1.68
  -5   0  19   43.87    4.06
  -5   0  18   -0.76    1.63
  -5   0  17    1.10    1.49
  -5   0  16    0.41    1.50
  -5   0  15  523.83   14.08
  -5   0  14   -0.63    1.21
  -5   0  13  110.41    5.17
  -5   0  12    0.85    1.24
  -5   0  11  650.17   15.00
   5   0 -10   -0.01    1.12
  -5   0  10   -0.16    1.13
   5   0  -9  166.51    6.42
  -5   0   9  155.63    5.54
   5   0  -8    0.87    1.06
  -5   0   8    1.19    1.00
   5   0  -8    0.82    0.82
   5   0  -7 1105.04   21.64
  -5   0   7 1108.32   21.73
   5   0  -6    0.70    0.81
  -5   0   6   -0.72    1.07
  -5   0   5   85.76    3.67
   5   0  -5   84.91    3.55
  -5   0   4    0.50    1.10
   5   0  -4    0.70    0.80
  -5   0   3   20.13    1.89
   5   0  -3   20.42    1.81
  -5   0   2    1.51    1.18
   5   0  -2    1.54    0.92
   5   0  -1  208.83    6.41
  -5   0   1  221.49    6.65
   5   0   0    0.80    0.94
  -5   0   0   -0.31    1.15
   5   0   1  391.30   10.16
  -5   0  -1  390.06   10.26
   5   0   1  401.26   10.30
   5   0   2   -0.64    1.05
   5   0   2   -0.58    1.12
   5   0   3  307.60    9.09
   5   0   3  300.28    8.85
   5   0   4   -0.54    1.18
   5   0   4    0.08    1.15
   5   0   5  636.51   15.46
   5   0   5  578.35   14.75
  -5   0  -5  629.61   15.21
   5   0   6    2.30    1.37
  -5   0  -6    0.71    1.24
   5   0   6    0.98    1.26
   5   0   7  289.33    9.87
  -5   0  -7  295.83    9.60
   5   0   7  267.92    9.18
   5   0   8   -0.22    1.53
   5   0   9  503.02   14.21
   5   0  10   -2.21    1.65
   5   0  11   13.49    2.66
   5   0  12    0.27    1.77
   5   0  13    8.22    2.39
   5   0  14    0.28    1.90
   5   0  15  193.07    9.61
   5   0  16    0.01    2.03
  -5   1  22   -2.58    2.28
  -5   1  21    7.33    2.33
  -5  -1  20   32.62    3.53
  -5   1  20   35.22    4.12
  -5  -1  19    3.10    1.73
  -5   1  19    5.56    2.09
  -5  -1  18  230.10    8.85
  -5   1  18  232.52    9.46
  -5  -1  17   21.76    2.65
  -5   1  17   18.15    2.74
  -5  -1  16  204.27    7.83
  -5   1  16  195.59    8.14
  -5  -1  15   -0.45    1.23
  -5   1  15   -0.14    1.36
  -5  -1  14   49.10    3.41
  -5   1  14   52.01    3.88
  -5  -1  13  190.65    6.73
  -5   1  13  183.30    7.08
  -5  -1  12  185.91    6.35
  -5   1  12  177.19    6.82
  -5  -1  11   46.97    2.94
  -5   1  11   51.33    3.39
   5  -1 -10   22.45    2.45
   5   1 -10   20.87    2.36
  -5  -1  10   18.18    1.79
  -5   1  10   20.37    2.17
   5   1  -9    0.85    1.21
   5  -1  -9    2.60    1.25
  -5  -1   9   -0.01    0.84
  -5   1   9   -0.94    1.27
   5  -1  -8  132.48    5.51
  -5  -1   8  135.77    4.68
   5   1  -8  134.16    4.65
  -5   1   8  134.98    5.18
   5  -1  -8  134.52    5.09
  -5  -1   7  124.95    4.31
   5  -1  -7  119.22    4.65
   5   1  -7  118.49    4.18
  -5   1   7  118.26    4.72
  -5   1   6   91.00    4.03
  -5  -1   6   95.70    3.68
   5   1  -6   87.20    3.51
   5  -1  -6   98.52    4.07
  -5  -1   5   29.99    2.08
   5  -1  -5   30.25    2.19
  -5   1   5   29.56    2.25
   5   1  -5   24.87    1.78
  -5   1   4 1600.21   30.19
  -5  -1   4 1623.02   29.56
   5   1  -4 1605.08   29.38
   5  -1  -4 1608.19   30.11
  -5   1   3   17.76    1.90
  -5  -1   3   16.04    1.62
   5   1  -3   18.05    1.60
   5  -1  -3   17.25    1.73
   5   1  -2  116.33    4.29
  -5   1   2  114.20    4.59
   5  -1  -2  126.86    4.69
  -5  -1   2  123.91    4.50
  -5  -1   1  259.98    7.37
   5  -1  -1  260.48    7.53
   5   1  -1  263.87    7.27
  -5   1   1  273.69    7.77
   5   1   0  109.12    4.31
  -5   1   0  105.99    4.57
  -5  -1   0  100.39    4.29
   5  -1   0  107.63    4.47
   5  -1   1   94.80    4.37
  -5   1  -1  101.54    4.56
   5   1   1  102.33    4.37
   5   1   1  101.21    4.54
   5  -1   1  104.97    4.40
   5   1   2   28.37    2.47
  -5   1  -2   26.90    2.62
   5  -1   2   27.69    2.41
   5   1   2   29.93    2.57
   5  -1   2   26.27    2.38
   5   1   3   96.79    4.58
   5  -1   3  102.34    4.76
   5  -1   3   90.72    4.39
   5   1   3   92.99    4.52
   5   1   4  376.65   10.58
   5  -1   4  357.43   10.37
   5  -1   4  352.23    9.90
   5   1   4  354.53   10.25
   5  -1   5   11.26    1.94
   5   1   5   13.48    2.06
  -5   1  -5    7.76    1.56
   5  -1   5    7.60    1.68
   5   1   5   11.42    1.79
   5  -1   6  676.77   16.80
   5   1   6  699.41   17.02
  -5   1  -6  694.40   16.44
   5  -1   6  637.50   15.97
   5   1   6  674.66   16.51
  -5  -1  -6  691.07   16.86
   5  -1   7    0.79    1.41
   5  -1   7    3.90    1.75
   5   1   7    2.75    1.65
  -5   1  -7    4.11    1.45
  -5  -1  -7    3.97    1.58
   5   1   8  809.56   19.49
   5  -1   8  813.48   19.27
   5  -1   9  213.74    8.31
   5   1   9  214.90    8.56
   5  -1  10    3.85    1.78
   5   1  10    3.13    1.81
   5   1  11    7.49    2.10
   5  -1  11    7.92    2.18
   5  -1  12  267.02   10.48
   5   1  12  283.30   10.91
   5   1  13    6.09    2.43
   5  -1  13    4.67    2.10
   5  -1  14   64.88    5.35
   5   1  14   61.26    5.29
   5  -1  15   -1.41    1.90
   5   1  15   -1.61    1.97
   5   1  16   60.27    5.54
   5  -1  16   68.51    5.84
  -5   2  22   23.16    3.75
  -5   2  21   25.01    3.75
  -5   2  20    4.58    2.28
  -5  -2  19  139.43    6.61
  -5   2  19  125.99    7.25
  -5  -2  18    0.83    1.31
  -5   2  18   -0.52    1.81
  -5  -2  17   10.94    1.92
  -5   2  17    9.64    2.25
  -5  -2  16    0.87    1.24
  -5   2  16    4.44    2.11
  -5   2  15  221.10    8.66
  -5  -2  15  224.01    7.62
  -5  -2  14    4.75    1.37
  -5   2  14    6.20    1.79
  -5  -2  13   22.07    2.18
  -5   2  13   25.30    2.75
  -5   2  12    1.94    1.42
  -5  -2  12    1.22    0.90
  -5   2  11  953.06   20.75
  -5  -2  11  936.40   19.10
   5   2 -10  131.99    5.94
   5  -2 -10  117.74    5.54
  -5   2  10  120.76    5.29
  -5  -2  10  119.33    4.38
   5  -2  -9    4.19    1.29
   5   2  -9    3.80    1.28
  -5  -2   9    3.23    0.86
  -5   2   9    5.50    1.50
   5  -2  -8  164.57    6.07
  -5  -2   8  148.91    4.71
  -5   2   8  157.00    5.84
   5  -2  -8  145.01    5.59
   5  -2  -7  742.34   16.23
  -5  -2   7  726.60   14.56
   5  -2  -7  712.26   15.95
   5   2  -7  708.72   14.40
  -5   2   7  746.14   16.20
  -5  -2   6   47.61    2.35
  -5   2   6   40.84    2.79
   5   2  -6   44.75    2.23
   5  -2  -6   46.04    2.85
  -5   2   5  635.15   14.38
  -5  -2   5  633.43   13.08
   5  -2  -5  652.14   14.34
   5   2  -5  641.44   12.96
  -5   2   4  120.27    4.75
  -5  -2   4  115.14    3.98
   5   2  -4  116.16    3.89
   5  -2  -4  121.33    4.72
   5   2  -3  668.01   13.74
  -5  -2   3  679.10   13.96
  -5   2   3  685.22   14.97
   5  -2  -3  661.39   14.80
   5  -2  -2  217.19    6.71
  -5   2   2  214.66    6.79
  -5  -2   2  210.83    6.16
   5   2  -2  216.13    6.07
   5   2  -1  289.11    7.71
  -5   2   1  303.82    8.49
  -5  -2   1  294.48    7.85
   5  -2  -1  299.54    8.36
   5  -2   0   33.49    2.54
  -5   2   0   35.87    2.81
   5   2   0   28.17    2.21
   5   2   1 1985.17   37.08
   5  -2   1 1942.50   37.34
  -5   2  -1 2043.35   37.77
   5   2   1 2037.38   37.73
   5  -2   1 2001.66   36.72
   5   2   2    0.85    1.04
   5  -2   2    2.93    1.41
  -5   2  -2    3.48    1.55
   5   2   2    0.85    1.24
   5  -2   2    1.38    1.17
   5  -2   3    7.76    1.67
  -5   2  -3    5.20    1.62
   5   2   3    5.51    1.39
   5   2   3    6.49    1.61
   5  -2   3    4.94    1.43
   5   2   4  284.46    8.87
   5  -2   4  287.72    8.97
   5   2   4  287.00    8.94
   5  -2   4  265.55    8.19
   5   2   5 1432.26   28.05
   5  -2   5 1322.00   27.66
   5  -2   5 1306.25   26.74
  -5   2  -5 1325.35   26.99
   5   2   5 1295.43   27.49
   5  -2   6   18.80    2.36
   5   2   6   21.02    2.54
  -5   2  -6   19.40    2.19
   5  -2   6   15.92    2.20
   5   2   6   16.92    2.35
  -5  -2  -6   15.34    2.09
   5  -2   7   53.50    3.97
   5   2   7   51.09    3.95
  -5   2  -7   56.97    3.82
   5  -2   7   49.91    3.56
  -5   2  -8  150.01    6.58
   5   2   8  137.39    6.65
   5  -2   8  146.70    6.38
   5   2   9  282.57   10.12
   5  -2   9  269.52    9.55
   5  -2  10    7.99    1.92
   5   2  10    9.73    2.27
   5   2  11   35.73    3.83
   5  -2  11   27.69    3.18
   5   2  12   28.22    3.50
   5  -2  12   27.32    3.33
   5   2  13  120.20    7.18
   5  -2  13  120.07    6.93
   5  -2  14    2.21    2.09
   5   2  14    0.20    2.06
   5  -2  15  141.94    8.09
   5   2  15  141.55    8.38
   5   2  16   -1.97    2.09
   5  -2  16    2.58    2.04
   5  -2  17  174.07    9.56
  -5   3  21   -2.33    2.10
  -5   3  20   24.95    3.81
  -5   3  19    2.32    2.00
  -5  -3  18  111.55    5.43
  -5   3  18  104.98    6.64
  -5  -3  17  116.74    5.34
  -5   3  17  110.28    6.46
  -5  -3  16  270.58    8.49
  -5   3  16  266.17   10.21
  -5  -3  15  223.79    7.28
  -5   3  15  218.87    8.91
  -5  -3  14   56.59    3.27
  -5   3  14   58.06    4.25
  -5  -3  13   61.58    3.22
  -5   3  13   60.57    4.29
  -5   3  12    5.03    1.68
  -5  -3  12   12.86    1.51
  -5   3  11    0.33    1.28
  -5  -3  11    0.61    0.73
   5  -3 -10  367.41   10.58
  -5   3  10  330.89   10.21
  -5  -3  10  350.68    8.35
   5  -3  -9   12.62    1.69
   5   3  -9    8.23    1.75
  -5   3   9   11.18    1.98
  -5  -3   9   11.44    1.23
   5  -3  -8    3.16    1.30
   5  -3  -8    2.46    1.05
  -5   3   8    2.47    1.42
  -5  -3   8    2.91    0.78
   5  -3  -7  248.80    7.61
  -5  -3   7  249.21    6.09
   5  -3  -7  252.36    7.88
  -5   3   7  261.25    8.01
   5   3  -7  239.47    5.92
  -5  -3   6  407.50    8.71
   5   3  -6  387.74    8.49
  -5   3   6  393.51   10.53
   5  -3  -6  404.58   10.62
  -5  -3   5  129.83    3.99
  -5   3   5  139.06    5.41
   5  -3  -5  132.06    5.16
   5   3  -5  132.14    3.90
  -5   3   4 1831.36   34.53
  -5  -3   4 1845.78   32.56
   5   3  -4 1815.08   32.31
   5  -3  -4 1824.52   34.49
   5   3  -3  473.97   10.33
  -5  -3   3  477.93   10.49
  -5   3   3  480.24   11.89
   5  -3  -3  504.30   12.01
   5   3  -2   44.49    2.39
  -5   3   2   41.79    2.89
   5  -3  -2   42.56    2.85
   5  -3  -1   42.54    2.87
  -5   3   1   42.00    2.97
   5   3  -1   43.09    2.51
  -5   3   0  123.07    5.21
   5   3   0  121.21    4.61
   5  -3   0  121.84    5.06
  -5   3  -1  266.26    8.30
   5  -3   1  261.61    8.14
   5   3   1  274.35    7.82
   5  -3   1  262.65    7.43
   5   3   1  268.17    8.32
   5   3   2  552.22   13.31
   5  -3   2  553.76   13.65
  -5   3  -2  558.35   13.76
   5   3   2  569.44   13.83
   5  -3   2  557.51   12.69
  -5   3  -3  110.91    5.26
   5   3   3  116.23    5.10
   5  -3   3  116.59    5.18
   5  -3   3  111.60    4.58
   5   3   3  114.58    5.27
   5  -3   4    6.77    2.08
   5   3   4    8.17    1.70
  -5   3  -4    6.81    1.73
   5  -3   4    7.63    1.45
   5   3   4    7.36    1.82
   5  -3   5  210.98    7.77
   5   3   5  206.17    7.63
   5  -3   5  199.65    6.84
   5  -3   6  255.89    8.99
  -5   3  -6  282.38    8.75
  -5  -3  -6  272.45    9.38
   5  -3   6  250.53    8.19
   5   3   6  262.74    9.11
  -5   3  -7  141.61    6.06
   5  -3   7  134.62    5.80
   5   3   7  130.13    6.21
  -5   3  -8  529.54   13.92
   5   3   8  494.95   14.27
   5  -3   8  491.00   13.37
   5   3   9   22.83    3.05
   5  -3   9   23.48    2.81
   5  -3  10    3.72    1.71
   5   3  10    5.56    2.10
   5   3  11   26.13    3.39
   5  -3  11   25.27    3.09
   5   3  12  218.01    9.67
   5  -3  12  218.95    9.12
   5   3  13    7.79    2.47
   5  -3  13   12.08    2.73
   5   3  14   75.56    6.07
   5  -3  14   81.46    5.87
   5   3  15    6.40    2.55
   5  -3  15    6.31    2.40
   5  -3  16    7.80    2.61
   5   3  16    6.07    2.96
   5  -3  17   50.91    5.19
  -5   4  20   40.79    4.84
  -5   4  19  128.93    7.77
  -5   4  18    0.35    1.98
  -5  -4  17   13.57    1.87
  -5   4  17   12.32    2.71
  -5  -4  16   65.85    3.60
  -5   4  16   59.00    4.85
  -5  -4  15   95.59    4.19
  -5   4  15   96.81    5.89
  -5   4  14  534.29   15.44
  -5  -4  14  555.59   12.53
  -5   4  13    0.46    1.50
  -5  -4  13   -0.07    0.79
  -5   4  12   20.90    2.61
  -5  -4  12   24.52    1.85
  -5   4  11 1125.93   24.81
  -5  -4  11 1135.56   21.20
   5  -4 -10  195.64    7.24
  -5  -4  10  187.57    4.98
  -5   4  10  187.76    7.33
   5  -4  -9   13.98    1.88
  -5  -4   9   18.15    1.29
  -5   4   9   11.48    2.02
   5  -4  -8  314.79    9.19
  -5  -4   8  323.34    7.02
   5  -4  -8  335.15    9.81
  -5   4   8  314.81    9.80
   5  -4  -7  310.51    8.89
  -5  -4   7  319.07    6.86
   5  -4  -7  333.12    9.64
  -5   4   7  316.09    9.55
   5  -4  -6  356.71    9.23
  -5  -4   6  341.22    7.37
  -5   4   6  350.65    9.92
   5   4  -6  344.65    7.25
   5  -4  -6  362.68   10.04
  -5  -4   5   58.32    2.28
   5  -4  -5   61.58    3.56
  -5   4   5   55.96    3.52
   5   4  -5   54.79    2.14
   5   4  -4   88.86    3.00
  -5   4   4   86.95    4.41
   5  -4  -4   98.58    4.54
  -5   4   3  121.42    5.18
   5   4  -3  116.30    3.77
   5  -4  -3  127.86    5.19
  -5   4   2  102.51    4.71
   5   4  -2  100.22    3.64
   5  -4  -2   97.63    4.55
  -5   4   1  226.94    7.50
   5   4  -1  224.10    6.40
   5  -4  -1  227.68    7.35
  -5   4   0    3.83    1.58
   5   4   0    2.87    1.03
   5  -4   0    2.63    1.18
   5   4   1  528.44   12.36
   5  -4   1  492.35   12.77
  -5   4  -1  519.72   13.11
   5  -4   1  509.70   11.57
   5   4   1  524.45   13.09
   5  -4   2  496.88   12.86
   5   4   2  511.57   12.52
  -5   4  -2  515.16   13.13
   5   4   2  518.17   13.12
   5  -4   2  496.90   11.56
  -5   4  -3   49.69    3.56
   5  -4   3   48.30    3.40
   5   4   3   48.26    3.46
   5  -4   3   44.80    2.72
  -5   4  -4  371.66   10.99
   5  -4   4  390.98   11.00
   5   4   4  364.87   10.83
   5  -4   4  360.21    9.60
  -5   4  -5  147.81    6.57
   5  -4   5  161.94    6.71
   5  -4   5  165.17    5.87
   5   4   5  154.36    6.55
   5  -4   6   23.59    2.72
  -5   4  -6   22.43    2.37
   5  -4   6   18.00    2.09
   5   4   6   21.49    2.76
   5   4   7    5.28    1.83
  -5   4  -7    3.25    1.28
   5  -4   7    5.18    1.64
  -5   4  -8  351.61   10.70
   5   4   8  334.95   11.29
   5  -4   8  335.50   10.39
   5   4   9  159.25    7.45
   5  -4   9  146.64    6.51
   5   4  10    4.40    2.05
   5  -4  10    4.70    1.62
   5   4  11   -0.59    1.68
   5  -4  11    0.46    1.64
   5   4  12    0.04    1.79
   5  -4  12    0.62    1.51
   5   4  13  192.78    9.42
   5  -4  13  191.58    8.69
   5   4  14    2.56    2.35
   5  -4  14   -0.11    1.85
   5  -4  15    5.80    2.65
   5   4  15    3.41    2.23
   5  -4  16   31.26    3.93
   5  -4  17    4.46    2.47
  -5   5  20   24.21    3.83
  -5   5  19   35.59    4.31
  -5   5  18   80.50    6.14
  -5   5  17  120.03    7.24
  -5   5  16  130.82    7.35
  -5   5  15   26.12    3.33
  -5  -5  15   29.95    2.15
  -5   5  14   84.02    5.51
  -5  -5  14   98.11    3.69
  -5  -5  13   17.11    1.41
  -5   5  13   19.66    3.05
  -5   5  12  358.58   11.57
  -5  -5  12  360.66    7.95
  -5  -5  11    3.15    0.64
  -5   5  11    2.56    1.63
   5  -5 -10  216.73    7.68
  -5  -5  10  212.83    4.77
  -5   5  10  199.70    7.94
   5  -5  -9   43.56    3.11
  -5  -5   9   38.68    1.42
  -5   5   9   40.95    3.48
   5  -5  -8   70.84    3.87
  -5  -5   8   75.35    2.02
   5  -5  -8   75.38    4.38
  -5   5   8   81.59    4.66
   5  -5  -7  198.64    6.54
   5  -5  -7  193.45    7.20
  -5   5   7  203.96    7.46
   5  -5  -6  775.73   16.39
   5   5  -6  759.70   13.56
   5  -5  -6  794.53   17.80
  -5   5   6  750.49   17.62
   5  -5  -5  402.35   10.00
  -5   5   5  429.61   11.52
   5  -5  -5  426.51   11.49
   5   5  -5  419.57    8.22
  -5   5   4 1606.22   30.90
   5   5  -4 1522.31   27.30
   5  -5  -4 1613.57   30.88
   5   5  -3  138.31    4.12
  -5   5   3  144.44    5.89
   5  -5  -3  142.91    5.79
  -5   5   2   88.75    4.54
   5   5  -2   85.43    3.32
   5  -5  -2   81.04    4.26
   5   5  -1  218.63    6.22
  -5   5   1  207.86    7.34
   5  -5  -1  210.04    7.28
   5  -5   0  905.71   17.69
   5   5   0  873.38   18.32
  -5   5   0  898.40   19.83
   5  -5   0  913.34   19.76
   5   5   1   18.74    2.18
   5  -5   1   22.43    1.77
   5   5   1   23.70    2.16
  -5   5  -1   19.11    2.27
   5  -5   1   21.57    2.33
   5  -5   2   88.97    3.68
   5   5   2   91.19    4.80
  -5   5  -2   97.62    4.94
   5  -5   2   94.01    4.73
   5   5   3    7.68    1.77
   5  -5   3    9.34    1.33
  -5   5  -3   12.66    2.15
   5  -5   3    8.76    1.74
   5  -5   4    8.63    1.85
  -5   5  -4    8.92    2.05
   5  -5   4    5.71    1.31
   5   5   4    9.34    1.92
   5  -5   5    5.02    1.39
  -5   5  -5    6.56    1.84
   5   5   5    3.38    1.41
   5  -5   5    5.33    1.33
   5  -5   6   75.40    3.96
   5  -5   6   80.08    4.74
  -5   5  -6   77.18    4.07
   5   5   6   78.37    4.91
   5  -5   7   14.14    2.00
   5   5   7   13.60    2.36
  -5   5  -7   11.65    1.88
  -5   5  -8  550.71   14.12
   5   5   8  512.79   14.94
   5  -5   8  513.45   13.55
  -5   5  -9  301.66    9.89
   5   5   9  291.94   10.71
   5  -5   9  279.49    9.51
   5   5  10   79.23    5.48
   5  -5  10   69.58    4.60
   5   5  11   52.05    4.61
   5  -5  11   42.42    3.72
   5  -5  12   77.84    5.20
   5   5  12   80.89    5.88
   5   5  13   22.22    3.57
   5  -5  13   25.85    3.34
   5  -5  14   10.40    2.68
   5   5  14    7.21    2.58
   5  -5  15   54.02    5.23
   5   5  15   70.18    5.98
   5  -5  16   92.68    6.61
   5  -5  17    5.36    2.44
  -5   6  19  139.27    8.28
  -5   6  18   -1.15    2.14
  -5   6  17   -0.48    2.17
  -5   6  16    3.03    2.13
  -5   6  15   30.71    3.84
  -5   6  14   -1.24    1.87
  -5  -6  13   29.72    1.44
  -5  -6  13   27.44    1.34
  -5   6  13   26.91    3.34
  -5  -6  12    0.55    0.30
  -5  -6  12    0.55    0.28
  -5   6  12   -0.47    1.85
  -5   6  11  348.83   11.52
   5  -6 -10   56.69    3.71
  -5   6  10   48.41    4.01
   5  -6  -9   13.09    1.79
  -5   6   9   12.48    2.33
   5  -6  -8  203.59    6.83
  -5   6   8  190.66    7.59
   5  -6  -7  398.11   10.41
   5  -6  -7  427.93   12.06
  -5   6   7  430.29   12.19
   5  -6  -6    0.57    0.73
  -5   6   6    0.31    1.35
   5  -6  -6    3.16    1.36
   5  -6  -5  111.31    4.29
  -5   6   5  120.85    5.65
   5  -6  -5  134.89    5.81
   5   6  -5  121.90    2.81
   5  -6  -4  242.03    6.68
   5   6  -4  254.86    5.61
  -5   6   4  253.85    8.46
   5  -6  -4  253.70    8.40
  -5   6   3  956.67   20.63
   5   6  -3  891.15   17.22
   5  -6  -3  951.86   20.51
   5   6  -2   26.96    1.85
  -5   6   2   28.44    2.71
   5  -6  -2   30.08    2.76
   5   6  -1   34.74    2.30
  -5   6   1   40.96    3.19
   5  -6  -1   40.67    3.08
   5  -6   0   14.77    1.35
   5   6   0   16.67    1.76
  -5   6   0   15.35    2.25
   5  -6   0   14.11    2.02
   5  -6   1  484.33   10.66
   5   6   1  502.12   13.01
  -5   6  -1  507.90   13.23
   5  -6   1  481.17   12.89
   5  -6   2  317.93    8.00
   5   6   2  338.44   10.22
   5  -6   2  338.74   10.09
  -5   6  -2  331.80   10.16
   5  -6   3    6.29    1.15
   5   6   3    6.50    1.83
  -5   6  -3    9.92    2.00
   5  -6   3    8.93    1.77
   5   6   4   25.01    2.89
   5  -6   4   22.09    1.93
  -5   6  -4   24.01    2.75
   5  -6   4   21.98    2.41
   5  -6   5  161.96    5.72
   5  -6   5  168.07    7.05
  -5   6  -5  181.82    7.42
   5   6   5  173.84    7.21
   5  -6   6  246.54    7.64
  -5   6  -6  252.58    9.17
   5   6   6  246.21    9.19
  -5   6  -7  135.67    5.64
   5   6   7  133.43    6.63
   5  -6   7  124.06    5.33
  -5   6  -8  273.77    8.86
   5   6   8  264.48    9.97
   5  -6   8  262.18    8.62
  -5   6  -9  153.76    6.61
   5   6   9  139.97    7.23
   5  -6   9  147.03    6.31
   5   6  10    2.47    1.74
   5  -6  10   -0.08    1.27
   5   6  11   -1.98    2.04
   5  -6  11   -0.51    1.36
   5   6  12   -1.20    2.05
   5  -6  12    0.32    1.51
   5  -6  13  213.72    9.14
   5   6  13  217.24   10.25
   5   6  14   47.05    5.01
   5  -6  14   37.06    3.95
   5   6  15    3.56    2.14
   5  -6  15    3.55    1.87
   5  -6  16    3.74    2.30
   5  -6  17   21.22    3.41
  -5   7  18   27.60    3.94
  -5   7  17  104.45    7.05
  -5   7  16   37.73    4.37
  -5   7  15   52.20    4.80
  -5   7  14   44.41    4.50
  -5   7  13   73.60    5.32
  -5   7  12   10.49    2.36
  -5   7  11    1.40    1.67
   5  -7 -10   10.30    1.78
  -5   7  10   11.73    2.38
   5  -7  -9   30.54    2.68
  -5   7   9   30.40    3.39
   5  -7  -8   11.46    1.74
  -5   7   8    9.43    2.02
   5  -7  -7   52.80    3.04
  -5   7   7   54.56    3.99
   5  -7  -6  352.78    8.98
  -5   7   6  345.47   10.88
   5  -7  -5  147.02    4.87
  -5   7   5  154.82    6.64
   5  -7  -4  130.34    4.36
   5   7  -4  136.58    3.44
  -5   7   4  142.59    6.22
   5  -7  -4  141.41    6.19
   5  -7  -3   61.99    2.65
  -5   7   3   64.20    4.10
   5   7  -3   59.44    2.43
   5  -7  -3   63.57    4.02
   5   7  -2   46.80    2.44
  -5   7   2   45.83    3.54
   5  -7  -2   43.21    3.29
   5  -7  -1  254.55    6.21
  -5   7   1  247.83    8.60
   5   7  -1  250.59    6.99
   5  -7  -1  254.63    8.56
   5  -7   0  361.24    8.14
   5   7   0  375.31   10.82
  -5   7   0  379.61   11.09
   5  -7   0  366.88   10.93
   5   7   1    8.00    1.77
   5  -7   1    5.67    0.89
  -5   7  -1    8.28    1.96
   5  -7   1    7.16    1.58
   5  -7   2   52.60    2.48
   5   7   2   48.37    3.67
  -5   7  -2   52.85    3.82
   5  -7   2   52.64    3.71
   5  -7   3   46.80    3.58
  -5   7  -3   48.04    3.78
   5  -7   3   49.00    2.52
   5   7   3   45.95    3.60
   5  -7   4   88.24    3.69
   5  -7   4   92.82    5.09
  -5   7  -4   92.61    5.21
   5   7   4   93.18    5.16
   5  -7   5  141.13    5.06
  -5   7  -5  151.38    6.87
   5   7   5  139.95    6.60
   5  -7   6    4.00    1.15
  -5   7  -6    4.55    1.77
   5   7   6    2.00    1.45
   5   7   7   56.13    4.36
   5  -7   7   44.99    3.07
   5   7   8   33.31    3.55
  -5   7  -8   32.29    2.98
   5  -7   8   31.84    2.69
  -5   7  -9   61.47    4.02
   5   7   9   58.87    4.74
   5  -7   9   60.86    3.87
   5   7  10   -0.42    1.84
   5  -7  10    1.86    1.51
   5  -7  11  325.08   10.74
   5   7  11  324.87   12.30
   5   7  12   52.08    5.04
   5  -7  12   54.29    4.30
   5   7  13    0.89    2.02
   5  -7  13   -1.82    1.77
   5   7  14   -3.62    2.42
   5  -7  14    1.33    2.05
   5  -7  15   66.14    5.33
   5  -7  16   60.02    5.24
   5  -7  17    1.29    2.16
  -5   8  17    3.18    2.29
  -5   8  16   15.65    3.16
  -5   8  15   45.67    4.75
  -5   8  14  225.01   10.06
  -5   8  13    6.06    2.35
  -5   8  12  146.10    7.66
  -5   8  11   14.48    2.58
   5  -8 -10  117.90    5.48
  -5   8  10  124.47    6.66
   5  -8  -9   22.20    2.27
  -5   8   9   24.72    3.19
   5  -8  -8  206.20    6.79
  -5   8   8  199.79    8.31
   5  -8  -7   62.26    3.30
  -5   8   7   61.61    4.53
   5  -8  -6  186.36    5.87
  -5   8   6  194.13    7.88
   5  -8  -5  184.15    5.50
  -5   8   5  196.62    7.75
   5  -8  -4   73.01    3.01
  -5   8   4   80.11    4.80
   5   8  -4   79.77    2.33
   5   8  -4   87.15    2.38
   5  -8  -3  509.43   10.67
  -5   8   3  527.67   14.17
   5   8  -3  529.02   10.74
   5  -8  -2  387.93    8.23
   5   8  -2  384.52    9.06
  -5   8   2  407.49   11.81
   5  -8  -1    2.04    0.58
  -5   8   1    3.44    1.65
   5  -8   0    4.89    0.74
   5   8   0    5.87    1.70
  -5   8   0    5.51    1.76
   5  -8   0    6.87    1.72
  -5   8  -1    1.32    1.68
   5   8   1   -0.93    1.42
   5  -8   1    2.30    0.64
   5  -8   2  150.27    4.27
  -5   8  -2  154.77    6.83
   5   8   2  153.73    6.62
   5  -8   3  100.83    3.50
  -5   8  -3   94.89    5.34
   5   8   3  102.78    5.43
   5  -8   4  226.63    6.23
  -5   8  -4  236.76    8.88
   5   8   4  227.35    8.61
   5  -8   5  400.99    9.69
  -5   8  -5  405.71   12.46
   5   8   5  397.90   12.31
   5  -8   6  295.80    8.15
  -5   8  -6  296.86   10.44
   5   8   6  287.48   10.35
   5  -8   7  209.81    6.88
  -5   8  -7  212.59    8.73
   5   8   7  204.53    8.67
   5   8   8  111.14    6.37
  -5   8  -8  117.26    5.24
   5  -8   8  107.74    4.94
  -5   8  -9  265.66    8.90
   5   8   9  265.36   10.51
   5  -8   9  267.01    8.70
   5  -8  10   92.22    4.98
   5   8  10   89.44    6.09
   5   8  11    3.50    2.20
   5  -8  11    1.62    1.34
   5   8  12   18.42    3.39
   5  -8  12   17.92    2.61
   5   8  13   58.60    5.46
   5  -8  13   50.65    4.25
   5   8  14   22.06    3.54
   5  -8  14   18.34    2.96
   5  -8  15    6.15    2.32
  -5   9  16   31.63    4.36
  -5   9  15    2.56    2.34
  -5   9  14   82.05    6.20
  -5   9  13  140.93    7.95
  -5   9  12   32.84    3.80
   5  -9 -11    1.42    1.33
  -5   9  11   -0.47    1.89
   5  -9 -10   97.41    4.92
  -5   9  10  100.28    6.21
   5  -9  -9   84.92    4.33
  -5   9   9   85.79    5.69
   5  -9  -8   61.47    3.44
  -5   9   8   58.37    4.58
   5  -9  -7    3.96    1.13
  -5   9   7    3.26    1.83
   5  -9  -6  466.18   10.75
  -5   9   6  462.46   13.74
   5  -9  -5   57.07    2.65
  -5   9   5   58.15    4.40
   5  -9  -4   39.16    1.98
   5   9  -4   39.79    1.49
   5   9  -4   41.44    1.47
  -5   9   4   33.36    3.41
   5  -9  -3  210.31    5.13
   5   9  -3  213.55    5.52
  -5   9   3  218.34    8.47
   5   9  -3  228.65    5.48
   5  -9  -2   80.42    2.38
  -5   9   2   84.39    5.02
   5   9  -2   81.22    3.36
   5  -9  -2   82.06    2.43
   5  -9  -1  198.67    4.14
  -5   9   1  211.67    8.16
   5   9  -1  203.31    7.59
   5  -9  -1  194.76    4.13
   5  -9   0   18.84    0.83
   5  -9   0   17.40    0.85
  -5   9   0   20.62    2.71
   5   9   0   22.56    2.65
   5  -9   1  105.99    2.66
  -5   9  -1  105.31    5.68
   5   9   1  115.83    5.75
   5  -9   2   12.63    0.90
  -5   9  -2   11.09    2.22
   5   9   2   13.78    2.31
   5  -9   3   22.16    1.38
  -5   9  -3   30.75    3.27
   5   9   3   23.93    2.83
   5  -9   4  113.61    3.77
  -5   9  -4  115.02    6.11
   5   9   4  118.54    6.03
   5  -9   5   30.40    2.02
  -5   9  -5   35.25    3.51
   5   9   5   30.53    3.22
   5  -9   6  543.52   12.22
  -5   9  -6  554.58   15.68
   5   9   6  523.66   15.27
   5  -9   7   38.25    2.60
  -5   9  -7   32.90    3.63
   5   9   7   39.48    3.81
   5   9   8  263.27   10.32
   5  -9   8  259.99    7.98
   5  -9   9   57.05    3.59
   5   9   9   64.05    5.11
   5   9  10   14.20    2.85
   5  -9  10   17.32    2.27
   5   9  11   58.27    5.19
   5  -9  11   57.69    3.99
   5   9  12   26.39    3.85
   5  -9  12   21.59    2.71
   5   9  13    2.54    2.06
  -5  10  15  112.55    7.63
  -5  10  14   32.04    4.14
  -5  10  13   36.06    4.40
  -5  10  12   39.96    4.35
  -5  10  11    1.39    2.20
   5 -10 -10  168.77    6.63
  -5  10  10  165.81    8.42
   5 -10  -9    3.29    1.26
  -5  10   9    5.34    2.35
   5 -10  -8  209.07    6.78
  -5  10   8  199.52    8.88
   5 -10  -7   63.44    3.25
  -5  10   7   63.66    4.89
   5 -10  -6  167.95    5.20
  -5  10   6  162.27    7.72
   5 -10  -5  216.35    5.64
  -5  10   5  204.53    8.65
   5 -10  -4  377.63    7.85
  -5  10   4  379.02   12.20
   5  10  -4  371.30    7.26
   5  10  -4  381.41    7.21
   5 -10  -3  283.71    5.68
   5 -10  -3  289.64    5.68
  -5  10   3  320.77   10.76
   5  10  -3  322.83    7.17
   5  10  -3  311.65    6.87
  -5  10   2   27.60    3.17
   5  10  -2   33.24    2.05
  -5  10   1  129.89    6.45
   5  10  -1  114.55    5.66
  -5  10   0  281.58   10.03
   5  10   0  278.75    9.46
  -5  10  -1   22.01    2.92
   5  10   1   24.20    2.82
  -5  10  -2   86.59    5.33
   5  10   2   77.68    4.84
  -5  10  -3   58.07    4.41
   5  10   3   43.13    3.66
   5 -10   4  141.25    3.67
  -5  10  -4  147.53    7.14
   5  10   4  133.82    6.68
   5 -10   5   20.70    1.45
  -5  10  -5   22.03    2.92
   5  10   5   20.90    2.88
   5 -10   6   79.56    3.28
  -5  10  -6   76.52    5.29
   5  10   6   83.72    5.41
   5 -10   7    4.84    0.98
  -5  10  -7    2.08    1.82
   5  10   7    6.06    2.14
   5  10   8   48.41    4.37
   5 -10   8   39.66    2.64
   5  10   9  111.83    6.78
   5  10  10   16.33    3.11
   5  10  11   19.93    3.36
   5  10  12    9.56    2.79
   5  10  13   36.21    4.46
  -5  11  14   10.68    2.97
  -5  11  13   91.59    6.73
  -5  11  12   86.89    6.55
  -5  11  11   15.57    3.03
  -5  11  10    2.56    1.92
  -5  11   9   67.38    5.34
  -5  11   8   25.71    3.64
  -5  11   7    0.36    1.82
  -5  11   6   53.37    4.54
   5 -11  -5  475.48    9.61
  -5  11   5  494.22   14.82
   5  11  -4    3.05    0.48
  -5  11   4    5.26    1.84
   5  11  -4    2.96    0.44
   5  11  -3    3.20    0.83
   5  11  -3    2.21    0.75
  -5  11   3    1.98    1.78
   5  11  -2    6.02    1.83
  -5  11   2    1.19    1.59
   5  11  -2    5.06    1.07
   5  11  -1  211.34    8.08
  -5  11   1  210.64    8.83
   5  11  -1  215.56    6.52
   5  11   0  107.11    5.63
  -5  11   0   97.91    5.83
   5  11   1    0.16    1.44
  -5  11  -1   -1.90    1.73
   5  11   2    0.95    1.40
  -5  11  -2   -0.26    1.64
   5  11   3  129.73    6.48
  -5  11  -3  139.85    7.06
   5  11   4    1.38    1.54
  -5  11  -4   -0.45    1.54
   5  11   5    4.43    1.95
  -5  11  -5    8.44    2.31
   5  11   6   33.95    3.67
  -5  11  -6   34.19    3.77
   5  11   7  272.45   10.62
  -5  11  -7  279.61   10.76
   5  11   8    8.14    2.41
   5  11   9   22.04    4.01
   5  11  10    3.68    2.46
   5  11  11   48.62    4.93
   5  11  12    5.69    2.73
  -5  12  13   -3.45    2.41
  -5  12  12   26.96    4.13
  -5  12  11   27.35    3.65
  -5  12  10  122.65    7.65
  -5  12   9    1.91    2.17
  -5  12   8   28.46    3.84
  -5  12   7  276.44   11.05
  -5  12   6    4.68    2.24
  -5  12   5   67.76    5.21
  -5  12   4   88.16    5.81
   5  12  -3  462.28   13.45
  -5  12   3  459.05   14.68
   5  12  -3  497.22   10.22
   5  12  -2  107.48    5.68
  -5  12   2  114.18    6.53
   5  12  -2  107.49    4.03
   5  12  -1   15.22    2.35
  -5  12   1   18.36    2.91
   5  12  -1   18.77    1.87
   5  12   0   63.28    4.38
  -5  12   0   63.27    4.88
   5  12   0   61.86    3.50
   5  12   1   19.07    2.72
  -5  12  -1   18.06    2.96
   5  12   1   19.23    2.20
  -5  12  -2   60.30    4.83
   5  12   2   51.91    4.05
  -5  12  -3    3.74    1.92
   5  12   3    1.52    1.48
  -5  12  -4   29.79    3.58
   5  12   4   26.42    3.11
  -5  12  -5    0.07    1.89
   5  12   5   -0.30    1.51
  -5  12  -6  116.84    6.90
   5  12   6  108.56    6.42
  -5  12  -7    6.60    2.38
   5  12   7    6.44    2.25
   5  12   8   28.58    3.73
   5  12   9   56.47    5.00
   5  12  10   94.67    6.67
   5  12  11    6.53    2.28
   5  12  12   36.24    4.61
  -5  13  11   -3.66    2.33
  -5  13  10   33.45    4.22
  -5  13   9  208.30   10.18
  -5  13   8   -0.30    2.13
  -5  13   7    1.62    2.09
  -5  13   6  339.82   12.76
  -5  13   5   33.72    4.03
   5  13  -4    4.76    1.73
  -5  13   4    4.45    2.16
   5  13  -3   10.34    1.80
  -5  13   3   16.28    2.85
   5  13  -2    7.65    1.92
  -5  13   2    9.08    2.39
   5  13  -1  138.77    6.56
  -5  13   1  123.69    7.11
   5  13  -1  138.70    5.18
   5  13   0    2.11    1.57
  -5  13   0   -0.27    1.94
   5  13   0    1.53    1.24
   5  13   1   13.49    2.33
  -5  13  -1   12.45    2.58
   5  13   1   17.92    2.26
   5  13   2    8.41    1.97
  -5  13  -2   11.35    2.74
   5  13   2    6.36    1.69
   5  13   3  206.10    8.57
  -5  13  -3  200.82    9.03
   5  13   3  198.13    7.89
   5  13   4   39.88    3.61
  -5  13  -4   42.43    4.29
   5  13   4   43.01    3.89
  -5  13  -5    3.89    2.06
   5  13   5    3.11    1.84
  -5  13  -6  106.53    6.69
   5  13   6   98.66    6.15
   5  13   7  152.93    7.96
  -5  13  -7  159.87    8.33
   5  13   8   -0.40    1.90
   5  13   9    2.74    2.40
   5  13  10   18.60    3.49
   5  13  11   40.10    4.65
  -5  14  10   17.53    3.59
  -5  14   9    1.41    2.02
  -5  14   8   17.39    3.41
  -5  14   7   -0.44    2.04
  -5  14   6  224.74   10.33
   5  14  -5   10.83    2.02
  -5  14   5    5.51    2.34
   5  14  -4   16.21    2.44
  -5  14   4   14.16    3.00
   5  14  -3   -3.40    1.81
  -5  14   3   -1.32    2.00
   5  14  -2   43.62    3.69
  -5  14   2   44.17    4.55
   5  14  -1   53.20    4.06
  -5  14   1   51.85    4.91
   5  14   0   32.52    3.37
  -5  14   0   31.00    3.81
   5  14   1    8.08    2.01
  -5  14  -1   10.03    2.61
   5  14   2   16.62    2.53
  -5  14  -2   17.42    3.13
   5  14   2   22.36    2.64
   5  14   3    0.84    1.60
  -5  14  -3    0.03    1.82
   5  14   3    0.16    1.29
   5  14   4   23.84    3.11
  -5  14  -4   25.81    3.62
   5  14   4   21.29    3.03
   5  14   5   41.32    3.97
  -5  14  -5   35.17    4.05
   5  14   5   36.80    3.73
   5  14   6   40.64    4.09
  -5  14  -6   41.90    4.42
   5  14   6   36.91    3.95
   5  14   7    6.89    2.30
  -5  14  -7    6.19    2.40
   5  14   7    6.87    2.40
   5  14   8    8.11    2.50
   5  14   8    5.49    2.25
   5  14   9    1.68    1.95
   5  14   9    1.27    1.90
   5  14  10  178.87    9.31
  -5  15   8    4.65    2.54
  -5  15   7   20.18    3.41
  -5  15   6    5.68    2.10
  -5  15   5  244.35   10.96
  -5  15   4   48.29    4.84
  -5  15   3   79.47    6.07
  -5  15   2    7.09    2.44
  -5  15   1  125.73    7.56
  -5  15   0   20.81    3.34
  -5  15  -1   28.49    3.82
  -5  15  -2    4.09    2.12
  -5  15  -3  137.15    7.77
  -5  15  -4   10.95    2.97
  -5  15  -5    2.00    2.19
   5  15   5    9.01    2.41
  -5  15  -6   -5.70    2.64
   5  15   6   -1.21    1.81
   5  15   7  132.13    7.58
   5  15   8    5.22    2.37
  -5  16   6    7.32    2.80
  -5  16   5    3.24    2.08
  -5  16   4   71.74    6.06
  -5  16   3    0.79    1.99
  -5  16   2  121.17    7.71
  -5  16   1   16.67    3.45
  -5  16   0  153.30    8.49
  -5  16  -1    5.45    2.74
  -5  16  -2   25.66    3.67
  -5  16  -3   38.99    4.48
  -5  16  -4    5.57    2.56
  -5  17   3    4.36    2.34
  -5  17   2   -2.35    2.38
  -5  17   1   29.45    4.05
  -5  17   0   -0.85    2.15
  -5  17  -1   73.66    6.17
  -6   0  20   64.37    4.95
  -6   0  19    1.34    1.64
  -6   0  18  219.35    8.85
  -6   0  17    0.98    1.40
  -6   0  16  442.03   12.88
  -6   0  15    0.17    1.27
  -6   0  14  170.16    6.91
  -6   0  13    0.20    1.23
  -6   0  12   38.40    3.00
  -6   0  11   -0.85    1.17
  -6   0  10  143.67    5.62
  -6   0   9   -1.89    1.14
   6   0  -9    0.09    0.96
  -6   0   8   69.63    3.63
   6   0  -8   69.19    3.57
  -6   0   7    0.51    1.07
   6   0  -7    0.54    0.87
  -6   0   6 1275.27   24.85
   6   0  -6 1252.70   24.64
  -6   0   5    0.34    1.10
   6   0  -5    0.65    0.97
  -6   0   4  295.68    8.33
   6   0  -4  295.14    8.19
  -6   0   3    1.72    1.13
   6   0  -3    1.20    0.95
  -6   0   2 2052.08   37.98
   6   0  -2 2015.85   37.67
  -6   0   1    1.24    1.33
   6   0  -1   -0.35    0.98
   6   0   0   22.12    2.26
  -6   0   0   18.58    2.26
   6   0   1    1.47    1.00
  -6   0  -1    0.28    1.30
   6   0   1   -0.23    1.22
   6   0   2   47.81    3.38
   6   0   2   42.45    3.26
   6   0   3   -2.03    1.39
   6   0   3   -1.57    1.44
   6   0   4   57.73    3.94
   6   0   4   51.16    3.59
   6   0   5   -0.29    1.32
   6   0   5    1.34    1.51
   6   0   6  443.83   12.76
   6   0   7    2.66    1.86
   6   0   8    6.66    2.01
   6   0   9    2.12    1.52
   6   0  10  162.91    7.73
   6   0  11   -4.14    2.10
   6   0  12   72.13    5.57
   6   0  13    1.19    2.11
   6   0  14  113.17    7.32
   6   0  15    1.16    2.05
  -6   1  21   43.74    4.50
  -6   1  20    2.75    1.92
  -6   1  19   22.23    3.67
  -6  -1  19   24.98    3.15
  -6   1  18    4.83    1.96
  -6  -1  18    6.50    2.00
  -6  -1  17  279.76    9.60
  -6   1  17  263.00    9.88
  -6  -1  16   16.11    2.28
  -6   1  16   18.78    2.72
  -6  -1  15    0.18    1.21
  -6   1  15   -0.98    1.48
  -6   1  14   34.62    3.28
  -6  -1  14   37.55    3.07
  -6  -1  13  104.46    4.86
  -6   1  13   96.40    5.08
  -6  -1  12  790.86   17.56
  -6   1  12  800.59   18.46
  -6  -1  11    0.40    1.04
  -6   1  11    2.90    1.32
  -6   1  10   21.59    2.33
  -6  -1  10   20.56    1.95
   6  -1  -9  814.25   18.82
  -6  -1   9  825.39   17.18
  -6   1   9  809.88   17.89
   6   1  -9  794.38   17.00
   6  -1  -9  797.52   17.74
   6   1  -8   25.42    2.02
   6  -1  -8   21.73    2.19
  -6  -1   8   23.80    2.09
  -6   1   8   21.78    2.24
   6  -1  -7    2.03    1.14
  -6  -1   7    1.66    0.97
  -6   1   7    2.74    1.19
   6   1  -7    2.56    0.91
  -6   1   6   41.63    2.97
  -6  -1   6   38.91    2.51
   6   1  -6   42.38    2.57
   6  -1  -6   39.44    2.74
  -6   1   5  206.30    6.80
  -6  -1   5  209.73    6.42
   6   1  -5  199.77    6.18
   6  -1  -5  210.28    6.75
  -6   1   4    5.85    1.46
  -6  -1   4    5.16    1.33
   6  -1  -4    1.89    0.98
   6   1  -4    3.70    1.08
   6   1  -3   74.76    3.55
  -6   1   3   70.77    3.87
  -6  -1   3   73.27    3.65
   6  -1  -3   72.57    3.75
   6   1  -2   93.18    4.14
   6  -1  -2   93.04    4.29
  -6  -1   2   91.53    4.18
  -6   1   2   92.44    4.44
   6  -1  -1  110.01    4.85
  -6  -1   1  107.91    4.73
  -6   1   1  113.74    5.02
   6   1  -1  106.08    4.54
   6   1   0  213.57    7.13
  -6  -1   0  217.64    7.25
  -6   1   0  223.34    7.51
   6  -1   0  227.22    7.47
   6  -1   1  774.31   17.64
  -6   1  -1  798.66   18.00
   6   1   1  756.33   17.37
   6  -1   1  761.61   17.28
   6   1   1  799.67   17.82
  -6   1  -2   52.93    3.63
   6  -1   2   57.20    3.66
   6   1   2   58.26    3.71
   6   1   2   58.92    3.77
   6  -1   2   50.27    3.39
   6  -1   3  384.59   10.94
   6   1   3  363.95   10.62
   6  -1   3  340.38   10.20
   6   1   3  350.98   10.67
   6   1   4  186.43    7.28
   6  -1   4  191.30    7.34
   6  -1   4  178.07    6.94
   6   1   4  173.51    7.02
   6  -1   5   -0.06    1.44
   6  -1   5    2.17    1.28
   6   1   5   -0.02    1.51
   6  -1   6  154.02    6.70
   6   1   6  165.13    7.08
   6  -1   7  835.35   20.06
   6   1   7  856.40   20.52
   6   1   8   14.56    2.65
   6  -1   8   14.95    2.48
   6  -1   9   19.64    2.83
   6   1   9   18.47    2.72
   6  -1  10   13.94    2.57
   6   1  10   16.75    2.74
   6   1  11   73.14    5.48
   6  -1  11   71.04    5.24
   6  -1  12    3.05    2.29
   6   1  12    1.80    2.14
   6  -1  13   90.28    6.31
   6   1  13   96.82    6.67
   6   1  14   -2.24    2.31
   6  -1  14    2.62    2.10
   6  -1  15   73.89    6.13
   6   1  15   83.56    6.54
  -6   2  21    8.14    2.51
  -6   2  20   15.49    2.95
  -6   2  19    0.57    1.80
  -6  -2  18  148.34    6.62
  -6   2  18  145.97    7.55
  -6   2  17   16.94    2.85
  -6  -2  17   18.73    2.42
  -6   2  16   84.61    5.35
  -6  -2  16   97.74    4.98
  -6   2  15   76.67    4.96
  -6  -2  15   73.27    4.15
  -6   2  14   78.16    4.86
  -6  -2  14   75.94    4.11
  -6  -2  13    1.03    1.01
  -6   2  13   -1.27    1.62
  -6  -2  12   73.56    3.69
  -6   2  12   72.14    4.53
  -6  -2  11  255.10    7.43
  -6   2  11  243.03    8.43
  -6  -2  10  571.26   12.97
  -6   2  10  586.62   14.58
   6  -2  -9   27.99    2.75
  -6  -2   9   25.66    2.06
  -6   2   9   24.11    2.50
   6  -2  -9   26.00    2.58
   6  -2  -8    8.64    1.55
  -6  -2   8    7.81    1.28
   6   2  -8    7.32    1.18
  -6   2   8    8.50    1.70
  -6  -2   7   18.00    1.68
   6  -2  -7   18.70    2.09
  -6   2   7   19.40    2.23
   6   2  -7   20.83    1.74
  -6   2   6  983.71   20.95
  -6  -2   6 1001.58   19.65
   6   2  -6  980.60   19.45
   6  -2  -6 1005.26   20.96
  -6  -2   5   25.67    2.03
  -6   2   5   26.47    2.47
   6   2  -5   28.55    2.01
   6  -2  -5   22.86    2.26
   6   2  -4  536.41   12.16
  -6  -2   4  547.68   12.39
  -6   2   4  566.34   13.54
   6  -2  -4  563.98   13.42
  -6  -2   3    6.26    1.35
  -6   2   3   11.38    2.04
   6   2  -3    8.63    1.29
   6  -2  -3    9.17    1.58
  -6   2   2  231.33    7.64
  -6  -2   2  236.93    7.08
   6   2  -2  222.01    6.79
   6  -2  -2  236.56    7.49
   6   2  -1  133.31    5.14
  -6   2   1  136.45    5.68
  -6  -2   1  137.28    5.29
   6  -2  -1  140.03    5.60
   6  -2   0  481.29   12.53
  -6   2   0  508.54   12.92
   6   2   0  489.54   12.14
  -6   2  -1  103.37    5.08
   6  -2   1  102.84    4.93
   6   2   1  107.63    4.82
   6  -2   1  100.09    4.59
   6   2   1  103.04    5.05
  -6   2  -2  386.28   11.16
   6  -2   2  377.04   10.86
   6   2   2  391.75   10.78
   6   2   2  368.80   10.82
   6  -2   2  359.27   10.19
   6   2   3    2.20    1.22
  -6   2  -3    2.05    1.45
   6  -2   3    5.38    1.66
   6   2   3    4.50    1.72
   6  -2   3    2.75    1.27
   6  -2   4   25.33    2.68
   6   2   4   24.22    2.64
   6   2   4   22.44    2.64
   6  -2   4   22.51    2.42
   6   2   5    7.56    1.77
   6   2   5    6.11    1.77
   6  -2   5    6.38    1.66
   6  -2   6  201.27    7.74
   6   2   6  197.42    8.00
   6  -2   7   12.78    2.13
   6   2   7   13.02    2.42
   6  -2   8   67.15    4.55
   6   2   8   68.96    4.89
   6  -2   9   10.47    2.24
   6   2   9   16.67    2.99
   6  -2  10  590.52   16.72
   6   2  10  628.22   17.60
   6  -2  11    1.78    1.84
   6   2  11    1.08    1.88
   6   2  12   77.36    5.73
   6  -2  12   64.42    5.14
   6   2  13   -0.96    2.07
   6  -2  13    0.35    1.83
   6   2  14  124.70    7.80
   6  -2  14  123.24    7.54
   6   2  15    6.29    2.61
   6  -2  15    4.73    2.45
   6  -2  16    3.54    2.42
  -6   3  21  140.67    8.16
  -6   3  20    2.28    1.84
  -6   3  19   16.33    3.03
  -6   3  18   25.11    3.41
  -6   3  17   79.65    5.62
  -6  -3  17   82.25    4.45
  -6  -3  16    3.44    1.26
  -6   3  16    1.71    1.56
  -6   3  15  111.91    6.23
  -6  -3  15  111.83    4.87
  -6  -3  14    8.36    1.45
  -6   3  14   10.88    2.33
  -6  -3  13  314.31    8.57
  -6   3  13  315.99   10.58
  -6  -3  12   53.17    2.92
  -6   3  12   43.95    3.73
  -6  -3  11  114.09    4.26
  -6   3  11  106.63    5.59
   6  -3 -10   24.74    2.66
  -6  -3  10   28.23    1.98
  -6   3  10   25.62    2.78
   6  -3  -9  603.77   15.08
  -6  -3   9  606.16   12.79
  -6   3   9  583.10   14.94
   6  -3  -9  596.99   14.94
   6  -3  -8   53.72    3.56
  -6  -3   8   54.86    2.68
   6  -3  -8   52.33    3.57
  -6   3   8   49.61    3.50
   6   3  -8   52.11    2.53
  -6  -3   7   76.72    3.21
  -6   3   7   71.17    4.13
   6   3  -7   81.09    3.16
   6  -3  -7   79.54    4.24
  -6  -3   6   21.65    1.74
   6  -3  -6   30.09    2.65
  -6   3   6   18.30    2.24
   6   3  -6   23.16    1.70
  -6  -3   5  364.29    8.88
  -6   3   5  386.49   10.59
   6  -3  -5  383.11   10.47
   6   3  -5  361.22    8.68
  -6   3   4    0.04    1.40
  -6  -3   4    3.95    1.06
   6  -3  -4    2.00    1.22
   6   3  -4    2.97    0.91
  -6   3   3   10.69    1.93
  -6  -3   3   13.25    1.58
   6   3  -3   12.58    1.44
   6  -3  -3   12.88    1.81
  -6   3   2   70.38    4.10
   6   3  -2   72.73    3.44
   6  -3  -2   72.22    3.96
   6   3  -1  800.93   17.16
  -6   3   1  811.20   18.39
   6  -3  -1  800.91   18.09
   6   3   0   10.22    1.57
  -6   3   0   12.70    2.15
   6  -3   0    8.85    1.58
   6  -3   1  235.35    8.07
   6   3   1  241.97    7.77
  -6   3  -1  233.39    8.21
   6  -3   1  236.63    7.38
   6   3   1  252.04    8.37
  -6   3  -2   -0.21    1.50
   6   3   2    0.53    1.07
   6  -3   2    1.42    1.35
   6   3   2    0.87    1.28
   6  -3   2   -0.50    1.19
   6  -3   3  298.91    9.66
  -6   3  -3  306.98    9.93
   6   3   3  307.14    9.60
   6  -3   3  292.71    8.83
   6   3   3  294.02    9.72
   6  -3   4    0.07    1.29
  -6   3  -4    0.96    1.42
   6   3   4   -0.48    1.32
   6   3   4   -0.17    1.44
   6  -3   4    2.03    1.25
   6   3   5    9.96    1.85
   6  -3   5   14.06    2.04
   6   3   5   14.62    2.43
   6  -3   6  161.00    6.53
   6   3   6  155.27    7.12
   6  -3   7  292.36    9.66
   6   3   7  302.95   10.53
   6   3   8   14.96    2.72
   6  -3   8   19.09    2.67
   6  -3   9   17.92    2.59
   6   3   9   17.83    2.77
   6  -3  10   12.10    2.35
   6   3  10   21.74    3.21
   6   3  11  139.71    7.68
   6  -3  11  132.89    7.03
   6   3  12   21.83    3.47
   6  -3  12   17.33    2.95
   6   3  13  113.82    7.30
   6  -3  13   93.18    6.34
   6   3  14   -0.85    2.12
   6  -3  14    0.38    1.84
   6   3  15   65.86    6.07
   6  -3  15   66.56    5.75
   6  -3  16    1.33    1.87
  -6   4  20   14.61    3.19
  -6   4  19   63.05    5.46
  -6   4  18  114.50    7.18
  -6   4  17   15.27    2.97
  -6   4  16   71.58    5.38
  -6  -4  16   77.83    3.88
  -6   4  15   88.50    5.73
  -6  -4  15   95.24    4.16
  -6   4  14  127.94    6.82
  -6  -4  14  140.79    4.97
  -6  -4  13  235.41    6.68
  -6   4  13  237.13    9.17
  -6  -4  12  189.02    5.56
  -6   4  12  183.15    7.79
  -6  -4  11   89.29    3.45
  -6   4  11   95.78    5.29
   6  -4 -10   60.59    4.02
  -6  -4  10   63.16    2.73
  -6   4  10   58.24    4.12
   6  -4  -9   79.32    4.40
  -6  -4   9   76.69    2.99
  -6   4   9   71.47    4.56
   6  -4  -8    7.75    1.60
  -6  -4   8    6.60    0.92
   6  -4  -8    7.08    1.67
  -6   4   8   10.50    2.03
   6  -4  -7  116.85    5.05
  -6  -4   7  119.46    3.86
  -6   4   7  110.59    5.46
   6   4  -7  115.72    3.63
   6  -4  -7  124.57    5.57
  -6   4   6  724.42   17.06
  -6  -4   6  728.80   14.47
   6  -4  -6  726.59   17.08
   6   4  -6  707.74   14.12
  -6   4   5  333.00   10.03
  -6  -4   5  328.48    7.99
   6  -4  -5  346.33   10.05
   6   4  -5  335.81    7.83
  -6   4   4  224.85    7.87
   6   4  -4  224.83    6.11
   6  -4  -4  228.09    7.78
  -6   4   3  104.88    5.10
   6   4  -3  106.65    3.98
   6  -4  -3  108.21    5.08
  -6   4   2 1145.02   23.92
   6   4  -2 1090.18   21.83
   6  -4  -2 1132.43   23.68
  -6   4   1    1.96    1.57
   6   4  -1    0.96    0.81
   6  -4  -1   -1.14    1.21
   6   4   0  229.81    7.21
   6  -4   0  217.69    7.72
  -6   4   0  223.77    7.97
   6  -4   0  223.59    6.90
   6   4   1  130.21    5.39
  -6   4  -1  117.33    5.72
   6  -4   1  136.36    5.92
   6  -4   1  124.12    4.94
   6   4   1  133.05    5.97
  -6   4  -2  132.85    6.16
   6  -4   2  128.93    5.89
   6   4   2  135.04    5.75
   6   4   2  134.88    6.15
   6  -4   2  135.13    5.26
   6   4   3   38.68    3.15
   6  -4   3   41.89    3.37
  -6   4  -3   41.73    3.52
   6  -4   3   38.71    2.79
   6   4   3   42.47    3.59
  -6   4  -4    4.11    1.75
   6   4   4    5.32    1.54
   6   4   4    3.84    1.54
   6  -4   4    1.86    1.15
  -6   4  -5   92.35    5.39
   6   4   5   87.23    5.17
   6  -4   5   83.44    4.45
   6  -4   6   45.35    3.43
   6   4   6   43.16    3.82
   6  -4   7  120.00    5.71
   6   4   7  121.88    6.51
   6   4   8   39.86    3.92
   6  -4   8   40.44    3.49
   6   4   9  172.79    8.26
   6  -4   9  174.43    7.51
   6   4  10   78.83    5.67
   6  -4  10   86.79    5.35
   6  -4  11    8.14    2.16
   6   4  11    4.28    2.04
   6   4  12   44.92    4.57
   6  -4  12   39.71    4.04
   6  -4  13   66.75    5.27
   6   4  13   64.62    5.74
   6   4  14  107.11    7.35
   6  -4  14  107.02    6.91
   6  -4  15    8.53    2.39
   6  -4  16    0.49    2.10
  -6   5  20   -0.56    2.49
  -6   5  19    3.10    2.34
  -6   5  18    8.70    2.59
  -6   5  17  164.04    8.45
  -6   5  16    1.41    2.07
  -6   5  15   -1.07    2.14
  -6  -5  14    1.42    0.72
  -6   5  14    0.09    1.71
  -6  -5  13  413.67    9.11
  -6   5  13  404.74   13.05
  -6  -5  12  584.88   11.70
  -6   5  12  564.63   16.03
  -6  -5  11   -0.32    0.54
  -6   5  11    0.69    1.53
   6  -5 -10  148.00    6.29
  -6  -5  10  142.37    3.82
  -6   5  10  141.99    6.66
   6  -5  -9  496.04   13.19
  -6  -5   9  513.72   10.08
  -6   5   9  537.45   14.39
   6  -5  -8   19.25    2.20
  -6  -5   8   17.18    1.16
  -6   5   8   21.42    2.65
   6  -5  -7    0.59    1.06
   6   5  -7    0.47    0.51
  -6   5   7   -0.13    1.39
   6  -5  -6  143.62    5.45
  -6   5   6  145.91    6.41
   6   5  -6  146.01    4.00
   6  -5  -6  156.11    6.44
  -6   5   5  805.37   18.76
   6  -5  -5  834.17   18.84
   6   5  -5  788.63   15.34
   6   5  -4   13.92    1.31
  -6   5   4   15.78    2.32
   6  -5  -4   15.41    2.14
  -6   5   3  143.91    6.26
   6   5  -3  143.81    4.72
   6  -5  -3  159.71    6.46
  -6   5   2    5.04    1.69
   6   5  -2    2.91    0.94
   6  -5  -2    2.17    1.11
  -6   5   1  546.07   14.19
   6   5  -1  520.07   12.39
   6  -5  -1  550.04   14.05
  -6   5   0  277.77    9.21
   6  -5   0  269.20    8.97
   6   5   0  270.78    8.08
   6  -5   0  272.96    7.67
   6   5   1  204.29    7.05
   6  -5   1  198.60    7.52
  -6   5  -1  191.89    7.60
   6   5   1  206.19    7.74
   6  -5   1  199.69    6.39
   6   5   2  158.24    6.34
  -6   5  -2  162.05    6.96
   6  -5   2  168.22    6.92
   6  -5   2  168.56    5.78
   6   5   2  162.13    6.96
  -6   5  -3   51.03    3.92
   6   5   3   52.85    3.65
   6   5   3   41.86    3.54
   6  -5   3   49.31    3.03
  -6   5  -4   69.50    4.61
   6   5   4   82.33    4.70
   6   5   4   75.88    4.82
   6  -5   4   66.74    3.74
  -6   5  -5    0.76    1.57
   6  -5   5    2.49    1.18
   6   5   5    1.93    1.64
   6  -5   6  230.28    7.88
   6   5   6  229.11    9.03
   6   5   7   94.51    5.74
   6  -5   7   96.20    4.97
   6   5   8   10.91    2.48
   6  -5   8   10.31    2.00
   6  -5   9    1.03    1.42
   6   5   9    3.54    2.00
   6  -5  10    4.78    1.70
   6   5  10    1.93    2.04
   6   5  11  310.24   11.90
   6  -5  11  262.86   10.20
   6   5  12   64.26    5.59
   6  -5  12   68.37    5.01
   6   5  13    6.98    2.61
   6  -5  13    6.90    2.43
   6   5  14   23.48    4.34
   6  -5  14   16.35    3.14
   6  -5  15   10.54    2.60
   6  -5  16   35.27    4.32
  -6   6  19   28.53    4.07
  -6   6  18  101.36    7.10
  -6   6  17    4.23    2.37
  -6   6  16    8.51    2.54
  -6   6  15   26.45    3.57
  -6   6  14   60.89    4.96
  -6   6  13   23.90    3.21
  -6   6  12  132.43    6.93
  -6   6  11   20.76    3.06
   6  -6 -10   96.10    5.00
  -6   6  10   98.97    5.76
   6  -6  -9   -0.02    1.00
  -6   6   9    1.46    1.59
   6  -6  -8  169.36    6.38
  -6   6   8  183.15    7.63
   6  -6  -7   69.82    3.98
  -6   6   7   73.02    4.65
   6  -6  -6  243.67    7.46
  -6   6   6  253.83    8.98
   6   6  -6  253.21    5.39
   6  -6  -5  287.81    8.09
  -6   6   5  298.95    9.85
   6   6  -5  297.88    6.60
   6   6  -4  136.81    4.15
  -6   6   4  136.82    6.29
   6   6  -3   15.01    1.45
  -6   6   3    9.26    1.90
   6  -6  -3   12.79    2.11
   6   6  -2  324.54    8.43
  -6   6   2  334.98   10.51
   6  -6  -2  345.07   10.50
   6   6  -1   24.41    2.09
  -6   6   1   26.94    2.93
   6  -6  -1   25.56    2.71
   6   6   0   12.24    2.21
   6  -6   0   10.40    1.42
  -6   6   0   13.42    2.31
   6   6   0   13.97    1.84
   6  -6   0   12.05    1.96
  -6   6  -1   79.80    4.91
   6   6   1   81.93    4.24
   6  -6   1   74.93    3.52
   6   6   1   81.19    4.79
  -6   6  -2  106.36    5.66
   6   6   2  109.74    5.13
   6  -6   2   99.07    4.20
   6   6   2  101.82    5.51
  -6   6  -3   37.11    3.45
   6  -6   3   35.23    2.50
   6   6   3   38.27    3.47
  -6   6  -4   26.90    3.20
   6  -6   4   26.04    2.30
   6   6   4   27.44    3.12
  -6   6  -5   24.53    3.11
   6  -6   5   31.45    2.57
   6   6   5   20.38    2.82
   6  -6   6  275.96    8.70
  -6   6  -6  294.76   10.63
   6   6   6  289.37   10.45
   6   6   7  257.38   10.19
   6  -6   7  279.45    8.98
   6   6   8  148.51    7.52
   6  -6   8  140.68    6.24
   6   6   9  193.74    8.92
   6  -6   9  199.07    7.88
   6   6  10  187.76    9.06
   6  -6  10  177.84    7.71
   6   6  11   44.29    4.61
   6  -6  11   39.54    3.70
   6   6  12   14.81    3.07
   6  -6  12   15.74    2.76
   6  -6  13   89.30    5.95
   6   6  13   84.04    6.53
   6  -6  14  153.08    8.15
   6   6  14  166.95    9.52
   6  -6  15   -1.20    2.03
   6  -6  16    4.11    2.57
  -6   7  18    0.87    2.01
  -6   7  17   35.84    4.32
  -6   7  16    0.75    2.13
  -6   7  15    2.14    1.88
  -6   7  14   28.18    3.70
  -6   7  13  146.01    7.76
  -6   7  12  319.58   11.70
  -6   7  11   42.25    4.13
   6  -7 -10  111.92    5.39
  -6   7  10  105.57    6.15
   6  -7  -9   33.55    2.79
  -6   7   9   34.07    3.43
   6  -7  -8    0.96    1.05
  -6   7   8    3.93    1.99
   6  -7  -7    6.92    1.38
  -6   7   7    9.38    2.18
   6  -7  -6  141.33    5.22
  -6   7   6  146.46    6.75
   6  -7  -5  310.11    8.50
  -6   7   5  329.00   10.73
   6   7  -5  334.04    6.81
   6  -7  -4  338.00    8.71
  -6   7   4  353.99   11.15
   6   7  -4  352.40    7.78
   6   7  -3   31.74    2.01
  -6   7   3   28.29    3.09
   6   7  -2   28.74    2.10
  -6   7   2   25.11    2.94
   6   7  -1  102.99    4.32
  -6   7   1   96.50    5.39
   6  -7  -1  103.04    3.91
  -6   7   0   59.06    4.31
   6   7   0   67.45    3.67
   6  -7   0   58.10    2.87
   6   7   0   56.10    4.09
   6   7   1    1.11    1.14
  -6   7  -1   -0.59    1.64
   6  -7   1    1.08    0.74
   6   7   1    1.29    1.50
  -6   7  -2  170.34    7.47
   6   7   2  164.67    7.25
   6  -7   2  168.96    5.45
  -6   7  -3    2.53    1.75
   6  -7   3    3.07    1.12
   6   7   3    2.33    1.60
  -6   7  -4   34.01    3.47
   6   7   4   30.37    3.24
   6  -7   4   29.87    2.35
   6  -7   5   34.08    2.57
  -6   7  -5   38.40    3.75
   6   7   5   34.89    3.57
   6  -7   6  301.14    8.96
  -6   7  -6  306.65   11.00
   6   7   6  297.30   10.86
   6   7   7  223.07    9.34
   6  -7   7  214.87    7.55
   6   7   8   48.19    4.54
   6  -7   8   51.93    3.65
   6   7   9   32.35    3.80
   6  -7   9   39.27    3.35
   6   7  10   33.17    4.09
   6  -7  10   37.79    3.40
   6   7  11   91.86    6.45
   6  -7  11   72.51    4.92
   6   7  12   43.32    4.79
   6  -7  12   47.94    4.19
   6   7  13   42.67    4.89
   6  -7  13   25.61    3.23
   6  -7  14    2.54    2.12
   6  -7  15   -1.60    2.05
  -6   8  17    1.38    2.20
  -6   8  16    6.61    2.47
  -6   8  15   38.76    4.42
  -6   8  14   24.42    3.68
  -6   8  13    1.82    2.00
  -6   8  12   21.59    3.20
  -6   8  11  288.07   11.06
   6  -8 -10   48.76    3.51
  -6   8  10   50.71    4.56
   6  -8  -9   -0.24    1.03
  -6   8   9    1.87    1.99
   6  -8  -8   66.45    3.72
  -6   8   8   68.40    4.90
   6  -8  -7   72.91    3.72
  -6   8   7   69.33    4.93
   6  -8  -6    0.03    0.95
  -6   8   6   -0.10    1.55
   6  -8  -5  382.93    9.50
  -6   8   5  388.05   12.22
   6   8  -5  388.22    7.31
   6  -8  -4    2.35    0.83
   6   8  -4    3.40    0.75
  -6   8   4    1.51    1.57
   6  -8  -3  159.11    4.92
  -6   8   3  162.30    7.27
   6   8  -3  163.21    4.92
   6   8  -2   51.78    2.81
  -6   8   2   53.92    4.18
  -6   8   1  341.90   11.20
   6   8  -1  331.59    9.08
   6  -8  -1  342.38    8.14
  -6   8   0  118.52    6.20
   6   8   0  109.45    4.85
   6  -8   0  110.85    3.87
   6   8   0  122.24    6.03
  -6   8  -1  528.21   14.77
   6   8   1  517.29   14.37
   6  -8   1  489.05   10.93
  -6   8  -2  513.62   14.59
   6  -8   2  483.45   10.94
   6   8   2  495.98   14.25
  -6   8  -3    8.92    2.27
   6   8   3    7.31    1.92
   6  -8   3    5.41    1.10
  -6   8  -4   21.10    2.81
   6   8   4   23.78    3.07
   6  -8   4   23.38    2.00
   6  -8   5   34.86    2.51
  -6   8  -5   41.03    3.97
   6   8   5   40.27    3.87
   6  -8   6   18.60    2.07
  -6   8  -6   24.74    3.31
   6   8   6   21.01    3.06
   6   8   7   16.66    2.84
   6  -8   7   17.84    2.16
   6   8   8    7.79    2.44
   6  -8   8    7.18    1.71
   6   8   9   71.86    5.57
   6  -8   9   59.88    4.00
   6  -8  10  100.09    5.41
   6   8  10   95.75    6.64
   6   8  11   46.03    4.83
   6  -8  11   46.28    3.90
   6   8  12   -5.05    2.55
   6  -8  12   -0.61    1.39
   6   8  13  153.83    9.05
   6  -8  13  142.66    7.37
  -6   9  16   -1.08    2.30
  -6   9  15    5.70    2.25
  -6   9  14   44.84    4.91
  -6   9  13   73.33    5.89
  -6   9  12  288.56   11.67
  -6   9  11   95.11    6.42
   6  -9 -10  100.40    5.10
  -6   9  10  101.37    6.49
   6  -9  -9   15.11    2.03
  -6   9   9   14.67    2.72
   6  -9  -8   32.53    2.65
  -6   9   8   31.30    3.64
   6  -9  -7   40.19    2.72
  -6   9   7   38.10    3.89
   6  -9  -6  269.80    7.55
  -6   9   6  270.07   10.28
   6  -9  -5  353.39    8.80
  -6   9   5  384.36   12.31
   6  -9  -4    2.37    0.76
   6   9  -4    2.21    0.65
  -6   9   4   -0.18    1.60
   6  -9  -3   11.36    1.14
   6   9  -3   11.65    1.30
  -6   9   3   13.75    2.56
   6  -9  -2    5.23    0.85
   6   9  -2    3.74    1.10
  -6   9   2    3.03    1.88
   6  -9  -2    2.12    0.66
   6  -9  -1 1067.33   19.66
   6   9  -1 1099.10   21.94
  -6   9   1 1108.67   25.11
   6  -9  -1 1058.80   19.77
   6   9  -1 1083.05   24.38
  -6   9   0  406.79   12.79
   6   9   0  394.88   10.73
   6   9   0  434.56   12.64
   6  -9   0  390.51    8.51
  -6   9  -1   58.27    4.55
   6  -9   1   51.02    2.27
   6   9   1   60.46    4.38
  -6   9  -2    6.83    1.92
   6  -9   2    5.41    0.90
   6   9   2    3.64    1.71
  -6   9  -3   10.79    2.42
   6   9   3   13.10    2.35
   6  -9   3   11.51    1.26
   6  -9   4   40.44    2.40
  -6   9  -4   43.32    4.02
   6   9   4   38.89    3.76
   6  -9   5   31.02    2.26
  -6   9  -5   33.13    3.71
   6   9   5   36.60    3.69
   6  -9   6   36.74    2.54
  -6   9  -6   31.14    3.65
   6   9   6   35.99    3.89
   6  -9   7   26.26    2.34
  -6   9  -7   25.84    3.36
   6   9   7   27.42    3.58
   6   9   8   -1.80    1.96
   6  -9   8    2.04    1.31
   6   9   9    5.13    2.44
   6  -9   9    4.41    1.43
   6   9  10   30.46    4.17
   6  -9  10   30.10    2.96
   6   9  11  170.04    9.20
   6   9  12   57.39    5.49
  -6  10  15   81.59    6.50
  -6  10  14   36.95    4.31
  -6  10  13    3.35    2.57
  -6  10  12    3.89    2.34
  -6  10  11  214.46    9.97
  -6  10  10   90.44    6.32
  -6  10   9   12.64    2.77
  -6  10   8  317.12   11.83
   6 -10  -7  160.21    5.54
  -6  10   7  152.65    7.87
   6 -10  -6   29.84    2.10
  -6  10   6   27.82    3.50
   6 -10  -5   63.56    2.83
  -6  10   5   65.54    4.97
   6 -10  -4   60.15    2.50
  -6  10   4   66.43    4.92
   6  10  -4   63.86    2.21
   6  10  -4   62.81    2.13
   6 -10  -3  180.42    4.56
  -6  10   3  178.17    8.12
   6  10  -3  181.59    5.25
   6 -10  -3  185.44    4.61
   6 -10  -2   52.53    1.85
   6  10  -2   53.22    2.92
  -6  10   2   51.16    4.30
   6  10  -2   57.08    4.18
   6 -10  -2   53.06    1.84
   6 -10  -1   14.89    0.80
  -6  10   1   15.14    2.67
   6  10  -1   15.39    1.86
   6 -10  -1   13.56    0.77
   6  10  -1   14.48    2.41
  -6  10   0   12.72    2.59
   6  10   0   10.34    2.19
   6 -10   1   84.51    2.28
  -6  10  -1  100.47    6.00
   6  10   1   86.23    5.37
   6 -10   2  252.17    5.51
  -6  10  -2  269.51   10.25
   6  10   2  246.29    9.54
   6 -10   3    2.17    0.63
  -6  10  -3    5.65    2.05
   6  10   3    2.58    1.54
   6 -10   4   28.46    1.77
  -6  10  -4   23.08    3.30
   6  10   4   29.60    3.43
   6 -10   5  127.39    4.37
   6  10   5  125.69    6.92
  -6  10  -5  142.81    7.47
   6  10   6   22.81    3.16
  -6  10  -6   21.69    3.29
   6  10   7   44.84    4.33
  -6  10  -7   40.67    4.29
   6  10   8   13.40    3.14
   6  10   9   97.93    6.73
   6  10  10    7.12    2.59
   6  10  11    6.84    2.72
   6  10  12    8.02    2.77
  -6  11  13   16.39    3.39
  -6  11  12  110.94    7.43
  -6  11  11    1.72    2.23
  -6  11  10    5.95    2.58
  -6  11   9   -1.16    2.09
  -6  11   8   90.84    6.22
  -6  11   7   -0.27    2.15
  -6  11   6   77.63    5.66
  -6  11   5  101.00    6.31
  -6  11   4   86.40    5.81
  -6  11   3    4.12    2.16
   6  11  -3    4.66    0.89
   6  11  -2  178.20    7.87
  -6  11   2  187.72    8.67
   6  11  -2  194.18    5.81
   6  11  -1  115.53    4.87
  -6  11   1  110.13    6.53
   6  11  -1  117.44    6.31
  -6  11   0   69.40    5.13
   6  11   0   67.90    4.92
  -6  11  -1    2.74    1.79
   6  11   1    2.81    1.71
  -6  11  -2   32.04    3.80
   6  11   2   24.56    3.17
  -6  11  -3   -0.07    1.68
   6  11   3   -0.63    1.55
  -6  11  -4   91.80    6.09
   6  11   4   86.14    5.72
  -6  11  -5    0.32    1.88
   6  11   5    4.71    1.92
  -6  11  -6   98.72    6.56
   6  11   6   97.48    6.43
  -6  11  -7   36.69    4.09
   6  11   7   31.75    3.88
   6  11   8  176.47    8.93
   6  11   9   90.60    6.58
   6  11  10   56.29    5.23
   6  11  11   25.34    3.82
  -6  12  12    2.61    2.41
  -6  12  11   28.88    4.13
  -6  12  10   41.92    4.75
  -6  12   9   43.42    4.79
  -6  12   8  106.05    6.98
  -6  12   7  154.42    8.34
  -6  12   6    3.22    2.10
  -6  12   5   42.93    4.49
  -6  12   4   17.85    3.12
   6  12  -3  107.93    6.04
  -6  12   3  110.24    6.75
   6  12  -2   10.53    2.26
  -6  12   2    9.03    2.43
   6  12  -2    5.35    1.19
   6  12  -1    2.06    1.75
  -6  12   1   -0.58    1.98
   6  12  -1    0.89    1.06
   6  12   0   -2.16    1.71
  -6  12   0    1.72    1.84
   6  12   1  131.11    6.86
  -6  12  -1  133.88    7.45
   6  12   2  138.72    7.23
  -6  12  -2  145.56    7.79
   6  12   3   53.44    4.53
  -6  12  -3   57.89    4.97
   6  12   4    8.11    2.39
  -6  12  -4    8.76    2.74
   6  12   5  244.03   10.25
  -6  12  -5  252.58   10.71
   6  12   6    5.32    2.24
  -6  12  -6    4.00    2.27
   6  12   7    4.62    2.00
  -6  12  -7    0.14    1.91
   6  12   8   31.05    3.99
   6  12   9   13.83    2.97
   6  12  10    8.90    2.78
  -6  13  10    3.44    2.47
  -6  13   9   30.43    4.11
  -6  13   8  179.28    9.40
  -6  13   7   36.07    4.35
  -6  13   6   57.79    5.21
  -6  13   5   64.38    5.55
   6  13  -4   88.04    5.53
  -6  13   4   92.19    6.41
   6  13  -3   -1.93    1.76
  -6  13   3    1.62    2.17
   6  13  -2   15.36    2.71
  -6  13   2   18.67    3.21
   6  13  -1  265.27   10.11
  -6  13   1  276.32   11.24
   6  13   0  153.05    7.46
  -6  13   0  160.25    8.39
   6  13   1    1.33    1.88
  -6  13  -1   -0.66    1.98
   6  13   1   -0.68    1.45
   6  13   2    0.37    1.25
  -6  13  -2    2.90    2.11
   6  13   2    0.16    1.69
  -6  13  -3    7.98    2.44
   6  13   3    3.68    1.86
  -6  13  -4   73.49    5.80
   6  13   4   71.48    5.45
  -6  13  -5    1.73    2.29
   6  13   5    1.85    1.82
  -6  13  -6   30.45    4.17
   6  13   6   21.08    3.46
  -6  13  -7   13.61    3.00
   6  13   7   13.47    2.90
   6  13   8   68.81    5.65
   6  13   9    5.02    2.37
   6  13  10    0.13    2.48
  -6  14   8   61.56    5.66
  -6  14   7   66.98    5.79
  -6  14   6   14.80    3.29
   6  14  -5   10.56    2.16
  -6  14   5   13.26    3.18
   6  14  -4    0.04    1.55
  -6  14   4   -1.69    2.06
   6  14  -3  225.72    9.19
  -6  14   3  217.77   10.30
   6  14  -2   16.76    2.71
  -6  14   2   17.18    3.20
   6  14  -1   -0.01    1.45
  -6  14   1    0.98    1.97
   6  14   0    6.44    2.22
  -6  14   0   -1.52    2.28
   6  14   1   74.27    5.23
  -6  14  -1   74.99    6.04
   6  14   2   10.60    2.43
  -6  14  -2   14.12    3.09
   6  14   3   94.77    6.08
  -6  14  -3   87.58    6.43
   6  14   4    4.83    2.79
  -6  14  -4    4.16    2.51
   6  14   4    4.66    1.79
   6  14   5  109.73    6.97
  -6  14  -5  113.01    7.28
   6  14   5  118.67    6.74
   6  14   6   -0.14    2.05
  -6  14  -6    0.58    2.09
   6  14   7   10.54    2.84
  -6  14  -7    0.08    2.33
   6  14   8   12.76    2.93
   6  14   9   20.14    3.64
  -6  15   6    3.98    2.59
  -6  15   5   15.92    3.23
  -6  15   4   29.40    4.22
  -6  15   3   28.82    4.11
  -6  15   2   41.04    4.61
  -6  15   1   31.12    4.10
  -6  15   0  141.63    8.39
  -6  15  -1   37.91    4.46
  -6  15  -2   25.04    3.70
  -6  15  -3   -1.52    2.16
  -6  15  -4   17.34    3.23
  -6  15  -5   13.36    3.16
  -6  15  -6   14.13    3.27
  -6  16   3    4.40    2.54
  -6  16   2    4.66    2.74
  -6  16   1   56.09    5.52
  -6  16   0   -4.34    2.47
  -6  16  -1  131.18    8.21
  -6  16  -2   -2.46    2.12
  -6  16  -3    2.59    2.59
  -6  16  -4    4.64    2.77
  -7   0  19   56.92    4.64
  -7   0  18    1.51    1.66
  -7   0  17    3.58    1.88
  -7   0  16    0.25    1.55
  -7   0  15  163.75    7.12
  -7   0  14    1.09    1.38
  -7   0  13  165.21    6.78
  -7   0  12    0.30    1.17
  -7   0  11  143.23    5.99
  -7   0  10    0.01    1.19
   7   0 -10    1.14    1.16
  -7   0   9  259.96    8.16
   7   0  -9  251.05    7.97
   7   0  -8   -0.42    0.93
  -7   0   8   -0.21    1.16
  -7   0   7  349.50    9.85
   7   0  -7  349.41    9.70
  -7   0   6   -1.47    1.31
   7   0  -6   -1.27    1.17
  -7   0   5   11.22    1.82
   7   0  -5   13.90    1.82
  -7   0   4   -0.30    1.21
   7   0  -4   -0.03    0.95
  -7   0   3   73.26    4.06
   7   0  -3   73.39    3.95
  -7   0   2   -0.43    1.33
   7   0  -2   -0.93    1.24
   7   0  -1  420.84   11.53
  -7   0   1  432.64   11.81
   7   0   0    3.30    1.37
  -7   0   0   -1.70    1.69
   7   0   1  522.92   13.78
   7   0   1  525.96   13.77
  -7   0  -1  518.06   13.84
   7   0   2   -0.88    1.34
   7   0   2    0.92    1.16
   7   0   3  245.47    8.81
   7   0   4    1.81    1.53
   7   0   5  347.02   11.18
   7   0   6    1.92    1.62
   7   0   7   46.06    4.00
   7   0   8   -1.44    1.65
   7   0   9   54.36    4.56
   7   0  10    2.11    1.90
   7   0  11    3.96    1.99
   7   0  12   -0.49    2.05
   7   0  13   59.95    5.51
   7   0  14    0.25    2.05
  -7   1  20  119.71    7.09
  -7   1  19   41.48    4.38
  -7  -1  18   58.88    4.32
  -7   1  18   59.39    4.80
  -7  -1  17    3.24    1.58
  -7   1  17    5.29    1.86
  -7  -1  16  217.68    8.24
  -7   1  16  212.60    8.75
  -7  -1  15    0.64    1.41
  -7   1  15    0.51    1.38
  -7  -1  14  114.67    5.45
  -7   1  14  117.45    5.97
  -7  -1  13  151.94    6.20
  -7   1  13  157.08    6.84
  -7  -1  12   46.47    3.24
  -7   1  12   46.57    3.59
  -7  -1  11    5.39    1.36
  -7   1  11    1.60    1.28
  -7  -1  10  106.16    4.75
  -7   1  10  107.04    5.15
   7  -1 -10  103.49    5.01
   7   1 -10  103.78    4.59
  -7  -1   9  321.62    9.01
  -7   1   9  318.95    9.54
   7  -1  -9  313.26    9.41
   7   1  -9  295.86    8.65
  -7   1   8  329.78    9.80
  -7  -1   8  342.49    9.36
   7   1  -8  323.83    9.02
   7  -1  -8  328.62    9.65
  -7  -1   7    1.96    1.05
   7   1  -7    0.03    0.91
   7  -1  -7    0.24    1.11
  -7   1   7    0.39    1.31
  -7  -1   6   47.36    3.06
  -7   1   6   45.83    3.32
   7   1  -6   42.01    2.79
   7  -1  -6   47.03    3.16
  -7   1   5   29.97    2.73
  -7  -1   5   30.91    2.59
   7   1  -5   30.32    2.39
   7  -1  -5   34.65    2.73
  -7   1   4  856.86   19.06
   7   1  -4  842.54   18.26
  -7  -1   4  858.82   18.55
   7  -1  -4  855.90   18.86
  -7  -1   3    7.83    1.54
  -7   1   3    4.85    1.52
   7   1  -3    6.27    1.36
   7  -1  -3    5.42    1.37
   7  -1  -2 1100.22   23.32
   7   1  -2 1104.50   22.90
  -7   1   2 1089.78   23.49
  -7  -1   2 1121.20   23.24
   7  -1  -1   45.87    3.33
  -7  -1   1   45.06    3.24
  -7   1   1   44.93    3.44
   7   1  -1   41.95    3.08
  -7  -1   0  609.21   15.14
   7   1   0  620.35   14.99
  -7   1   0  592.73   15.25
   7  -1   0  607.72   15.20
   7   1   1  226.33    8.04
   7  -1   1  230.70    8.18
  -7   1  -1  236.97    8.50
   7  -1   1  225.67    8.02
   7   1   1  239.41    8.46
   7  -1   2    1.73    1.28
  -7   1  -2    5.52    2.02
   7   1   2    0.03    1.19
   7  -1   2    3.06    1.52
   7   1   2    0.45    1.36
   7   1   3   50.54    3.82
   7  -1   3   50.11    3.76
   7   1   3   51.30    3.87
   7  -1   4  302.33    9.94
   7   1   4  303.04   10.22
   7  -1   5   35.44    3.35
   7   1   5   36.50    3.54
   7  -1   6   79.63    5.01
   7   1   6   84.93    5.32
   7  -1   7   31.01    3.21
   7   1   7   33.28    3.52
   7  -1   8   61.54    4.69
   7   1   8   79.96    5.45
   7  -1   9    0.35    1.80
   7   1   9    3.10    2.01
   7  -1  10   32.86    3.65
   7   1  10   32.67    3.97
   7  -1  11   -0.83    1.99
   7   1  11    5.18    2.43
   7   1  12  249.75   10.99
   7  -1  12  252.72   10.93
   7  -1  13   -2.08    2.30
   7   1  13    0.97    2.15
   7   1  14    7.26    2.71
   7  -1  14    5.47    2.44
  -7   2  21    6.13    2.51
  -7   2  20    8.32    2.46
  -7   2  19   44.64    4.49
  -7   2  18   -1.19    1.83
  -7  -2  17   10.85    2.13
  -7   2  17   10.90    2.43
  -7  -2  16   26.25    2.65
  -7   2  16   28.69    3.40
  -7  -2  15  130.42    5.65
  -7   2  15  118.33    6.47
  -7   2  14   -0.04    1.54
  -7  -2  14    1.62    1.20
  -7  -2  13  155.45    5.98
  -7   2  13  162.94    7.14
  -7  -2  12  127.60    5.21
  -7   2  12  128.39    6.13
  -7  -2  11   67.48    3.62
  -7   2  11   62.35    4.18
  -7  -2  10   97.49    4.34
  -7   2  10  101.95    5.30
   7  -2 -10  106.43    5.24
  -7   2   9  131.88    5.91
  -7  -2   9  131.12    5.08
   7  -2  -9  150.77    6.19
   7   2  -9  135.12    4.99
  -7   2   8  164.57    6.71
  -7  -2   8  185.25    6.05
   7   2  -8  172.75    5.78
   7  -2  -8  171.74    6.67
  -7  -2   7  576.45   13.24
  -7   2   7  577.10   14.47
   7   2  -7  558.53   12.91
   7  -2  -7  585.89   14.44
  -7   2   6   21.35    2.43
  -7  -2   6   25.76    2.20
   7   2  -6   22.44    1.97
   7  -2  -6   23.15    2.38
  -7  -2   5   42.00    2.87
  -7   2   5   38.37    3.15
   7   2  -5   38.68    2.63
   7  -2  -5   43.19    3.16
   7   2  -4  134.78    5.10
  -7   2   4  127.75    5.74
  -7  -2   4  135.97    5.30
   7  -2  -4  143.39    5.87
  -7   2   3  119.28    5.60
  -7  -2   3  118.87    5.05
   7   2  -3  114.27    4.76
   7  -2  -3  118.71    5.35
   7   2  -2    5.59    1.37
  -7  -2   2    5.35    1.49
  -7   2   2    6.32    1.81
   7  -2  -2    4.01    1.31
   7   2  -1  755.21   17.33
  -7   2   1  799.74   18.47
   7  -2  -1  776.43   18.11
  -7   2   0    0.75    1.49
   7   2   0   -0.06    1.06
   7  -2   0   -0.37    1.19
  -7   2  -1   64.80    4.33
   7  -2   1   67.32    4.23
   7   2   1   69.00    4.12
   7  -2   1   66.11    4.06
   7   2   1   63.10    4.27
  -7   2  -2  288.81    9.96
   7   2   2  289.36    9.51
   7   2   2  308.76   10.04
   7  -2   2  279.05    9.22
  -7   2  -3  126.96    6.27
   7   2   3  118.93    5.85
   7  -2   3  110.06    5.45
   7   2   3  117.31    6.01
   7  -2   4   52.12    3.74
   7   2   4   41.86    3.72
   7   2   5  532.13   15.01
   7  -2   5  516.84   14.24
   7  -2   6    2.60    1.69
   7   2   6    2.17    1.81
   7  -2   7   11.31    2.38
   7   2   7    9.02    2.36
   7   2   8   26.74    3.47
   7  -2   8   24.80    3.00
   7   2   9   -0.61    2.01
   7  -2   9    2.78    1.90
   7   2  10   16.01    3.01
   7  -2  10   11.23    2.53
   7  -2  11    0.65    1.88
   7   2  11    2.72    2.48
   7  -2  12    1.31    2.00
   7   2  12    1.36    2.07
   7  -2  13   74.85    5.91
   7   2  13   72.28    6.06
   7   2  14    4.71    2.57
   7  -2  14   10.38    2.86
   7  -2  15   58.17    5.53
  -7   3  21   -1.97    2.06
  -7   3  20  147.51    8.41
  -7   3  19   13.00    2.83
  -7   3  18   21.94    3.37
  -7   3  17  119.33    7.00
  -7  -3  16  191.94    6.89
  -7   3  16  191.38    8.66
  -7   3  15    0.18    1.71
  -7  -3  15    2.37    1.20
  -7  -3  14   52.47    3.22
  -7   3  14   53.79    4.35
  -7   3  13    2.93    1.78
  -7  -3  13    0.40    0.98
  -7  -3  12  230.84    7.01
  -7   3  12  220.31    8.71
  -7  -3  11  160.95    5.49
  -7   3  11  150.04    6.78
  -7  -3  10  160.51    5.42
  -7   3  10  154.22    6.78
  -7   3   9   59.00    4.10
  -7  -3   9   60.46    3.13
   7   3  -9   62.18    3.05
  -7  -3   8  660.08   14.08
  -7   3   8  644.28   16.05
   7   3  -8  608.53   13.55
   7  -3  -8  651.86   15.96
  -7  -3   7   58.92    3.09
  -7   3   7   64.37    4.14
   7   3  -7   52.66    2.83
   7  -3  -7   57.00    3.79
  -7  -3   6   12.24    1.56
   7  -3  -6   15.97    2.14
   7   3  -6   11.19    1.40
  -7   3   6   11.31    2.10
  -7  -3   5  281.42    7.99
  -7   3   5  280.71    9.28
   7   3  -5  286.07    7.79
   7  -3  -5  295.03    9.29
   7   3  -4  410.77   10.25
  -7   3   4  413.89   11.85
  -7  -3   4  412.98   10.54
   7  -3  -4  426.71   11.75
  -7  -3   3    1.76    1.09
  -7   3   3    3.63    1.65
   7  -3  -3    2.37    1.22
   7   3  -3    2.04    1.02
  -7   3   2  274.06    9.22
   7   3  -2  273.95    8.20
   7  -3  -2  281.65    9.08
   7   3  -1  153.53    5.98
   7  -3  -1  159.49    6.62
  -7   3   1  163.26    6.82
   7  -3   0 1353.60   27.22
  -7   3   0 1352.97   28.43
   7  -3   0 1342.80   28.15
   7   3   0 1321.04   27.20
   7   3   1   -0.01    1.42
   7  -3   1    1.44    1.23
  -7   3  -1   -1.89    1.69
   7   3   1   -0.01    1.28
   7  -3   1   -1.07    1.28
   7   3   2    0.29    1.11
  -7   3  -2   -0.03    1.52
   7  -3   2    0.21    1.23
   7   3   2    1.24    1.47
   7   3   3    0.98    1.17
  -7   3  -3    1.34    1.62
   7   3   3    0.31    1.59
   7  -3   3    2.15    1.45
  -7   3  -4  212.62    8.67
   7  -3   4  210.39    7.75
   7   3   4  212.01    8.56
   7   3   5    4.62    1.91
   7  -3   5    4.64    1.60
   7  -3   6   11.05    2.04
   7   3   6   11.26    2.44
   7  -3   7    0.76    1.52
   7   3   7   -0.26    1.77
   7  -3   8  188.71    8.10
   7   3   8  200.21    9.00
   7   3   9   -0.49    1.83
   7  -3   9    8.76    2.05
   7  -3  10   22.01    3.13
   7   3  10   18.93    3.22
   7  -3  11  108.39    6.63
   7   3  11  102.07    6.84
   7  -3  12  239.63   10.38
   7   3  12  248.13   11.14
   7   3  13   -4.47    2.71
   7  -3  13    0.79    1.84
   7  -3  14    6.92    2.56
   7  -3  15   39.61    4.71
  -7   4  20   81.83    6.36
  -7   4  19   27.61    3.85
  -7   4  18   24.48    3.57
  -7   4  17    0.58    1.84
  -7   4  16    3.17    2.10
  -7  -4  15  116.76    4.68
  -7   4  15  113.27    6.74
  -7   4  14   16.05    2.75
  -7  -4  14   24.61    2.03
  -7  -4  13  115.88    4.47
  -7   4  13  124.09    6.58
  -7  -4  12   -0.23    0.79
  -7   4  12   -0.35    1.67
  -7  -4  11  491.96   11.07
  -7   4  11  474.82   13.99
  -7  -4  10  172.66    5.30
  -7   4  10  156.83    7.18
   7  -4  -9   19.19    2.34
  -7  -4   9   22.40    1.77
  -7   4   9   19.52    2.60
   7  -4  -8  104.50    5.14
  -7   4   8  109.83    5.62
  -7  -4   8  112.62    4.10
   7   4  -8  106.04    3.80
  -7   4   7  734.85   17.93
  -7  -4   7  732.46   15.25
   7   4  -7  724.73   14.85
  -7  -4   6   35.85    2.30
  -7   4   6   35.15    3.24
   7   4  -6   34.77    2.18
  -7   4   5  134.17    6.20
  -7  -4   5  138.47    4.94
   7  -4  -5  139.24    6.24
   7   4  -5  129.34    4.62
  -7   4   4    3.18    1.70
   7  -4  -4    3.69    1.38
   7   4  -4    5.95    1.16
  -7   4   3  189.50    7.63
   7   4  -3  199.67    6.36
   7  -4  -3  207.97    7.74
  -7   4   2   30.56    3.07
   7   4  -2   31.57    2.49
   7  -4  -2   33.67    2.98
   7   4  -1  273.99    8.44
  -7   4   1  302.07    9.91
  -7   4   0   16.53    2.48
   7   4   0   11.57    1.77
   7  -4   0   13.02    1.91
  -7   4  -1  395.28   12.07
   7   4   1  389.16   11.10
   7   4   1  378.15   11.78
   7  -4   1  382.35   10.62
  -7   4  -2  165.08    7.34
   7   4   2  170.29    6.90
   7  -4   2  164.97    6.39
   7   4   2  156.92    7.21
   7   4   3    7.60    1.87
  -7   4  -3    5.65    2.10
   7  -4   3    4.94    1.55
   7   4   3    7.72    2.25
  -7   4  -4   29.74    3.22
   7   4   4   27.14    3.16
   7  -4   4   30.14    2.83
   7   4   5  126.42    6.67
   7  -4   5  121.07    5.76
   7  -4   6    1.69    1.40
   7   4   6    2.51    1.60
   7   4   7   27.77    3.60
   7  -4   7   29.71    3.13
   7   4   8    2.83    1.92
   7  -4   8    1.35    1.61
   7   4   9  194.33    9.24
   7  -4   9  204.38    8.56
   7  -4  10    0.06    1.58
   7   4  10    0.69    1.81
   7   4  11   59.37    5.38
   7  -4  11   70.86    5.32
   7   4  12    4.76    2.61
   7  -4  12    4.43    2.45
   7   4  13   58.44    5.60
   7  -4  13   63.35    5.32
   7  -4  14   12.84    2.86
   7  -4  15   11.55    2.80
  -7   5  19    2.31    1.94
  -7   5  18    2.93    2.27
  -7   5  17   86.70    6.33
  -7   5  16   96.30    6.48
  -7   5  15   49.32    4.55
  -7   5  14   34.33    3.82
  -7  -5  13    3.48    0.89
  -7   5  13    3.01    1.97
  -7  -5  12  218.88    5.70
  -7   5  12  205.13    8.79
  -7  -5  11   58.45    2.50
  -7   5  11   51.91    4.31
  -7  -5  10    9.49    1.09
  -7   5  10   10.71    2.38
   7  -5  -9    0.94    1.10
  -7  -5   9    0.40    0.85
  -7   5   9   -0.16    1.71
   7  -5  -8  325.54    9.85
  -7  -5   8  323.39    7.54
  -7   5   8  321.46   10.64
   7   5  -8  302.60    7.19
   7  -5  -7  104.33    4.98
  -7   5   7  104.15    5.72
   7   5  -7  109.90    3.65
   7   5  -6   16.65    1.45
  -7   5   6   17.30    2.56
  -7   5   5  406.56   12.14
   7   5  -5  401.17    9.40
   7   5  -4  305.32    8.03
  -7   5   4  325.32   10.48
  -7   5   3   73.62    4.66
   7   5  -3   64.79    3.31
   7   5  -2   33.64    2.54
  -7   5   2   34.19    3.35
  -7   5   1   37.64    3.51
   7   5  -1   37.57    2.83
   7   5   0  133.60    5.64
  -7   5   0  136.70    6.55
   7   5   0  144.22    6.66
   7  -5   0  136.43    5.42
   7   5   1   21.68    2.51
  -7   5  -1   15.34    2.41
   7  -5   1   18.62    2.09
   7   5   1   20.24    2.60
   7   5   2  163.83    6.74
  -7   5  -2  160.44    7.35
   7  -5   2  151.44    6.00
   7   5   2  163.67    7.38
  -7   5  -3   25.13    3.15
   7   5   3   22.00    3.02
   7  -5   3   18.77    2.18
  -7   5  -4   49.66    4.30
   7   5   4   49.59    4.14
   7  -5   4   45.03    3.35
  -7   5  -5  255.51   10.07
   7   5   5  258.69    9.90
   7  -5   5  245.34    8.54
   7   5   6   18.80    2.95
   7  -5   6   18.15    2.48
   7   5   7   85.04    5.83
   7  -5   7   90.06    5.10
   7   5   8    8.47    2.65
   7  -5   8   10.85    2.13
   7   5   9    3.24    1.95
   7  -5   9    8.16    2.06
   7   5  10   78.29    6.11
   7  -5  10   67.90    4.96
   7   5  11   36.29    4.33
   7  -5  11   30.51    3.70
   7   5  12  223.89   10.65
   7  -5  12  201.40    9.24
   7   5  13    3.32    2.28
   7  -5  13    5.13    2.12
   7  -5  14    5.96    2.39
   7  -5  15    6.90    2.33
  -7   6  18    2.64    1.99
  -7   6  17    3.15    2.13
  -7   6  16    1.30    2.12
  -7   6  15  175.11    8.84
  -7   6  14    5.20    2.15
  -7   6  13   90.38    5.93
  -7   6  12  281.30   10.78
  -7   6  11  106.98    6.24
  -7   6  10   21.44    3.03
   7  -6  -9   18.05    2.37
  -7   6   9   16.71    2.67
   7  -6  -8   94.89    4.77
  -7   6   8   91.88    5.52
   7  -6  -7  170.25    6.44
  -7   6   7  175.70    7.65
   7   6  -7  175.26    4.48
   7  -6  -6   20.15    2.13
  -7   6   6   25.41    3.07
   7   6  -6   19.82    1.43
   7   6  -5  211.98    5.80
  -7   6   5  220.40    8.55
   7   6  -4   40.12    2.39
  -7   6   4   42.21    3.79
  -7   6   3  206.06    8.26
   7   6  -3  205.91    6.31
  -7   6   2    7.40    2.00
   7   6  -2    7.26    1.33
  -7   6   1   14.97    2.44
   7   6  -1   10.40    1.67
   7  -6  -1   12.23    1.66
   7   6   0   10.43    1.79
  -7   6   0    7.31    2.02
   7  -6   0    7.95    1.45
   7   6   0    7.95    2.01
   7   6   1  530.35   13.89
  -7   6  -1  548.77   15.40
   7   6   1  556.53   15.33
   7  -6   1  541.00   13.06
   7   6   2  266.74    9.04
  -7   6  -2  261.12    9.83
   7  -6   2  244.00    7.82
   7   6   2  253.55    9.67
  -7   6  -3  162.00    7.65
   7   6   3  163.76    7.62
   7  -6   3  170.86    6.30
  -7   6  -4   -0.49    2.01
   7  -6   4    0.81    1.05
   7   6   4    0.43    1.61
  -7   6  -5   46.60    4.33
   7  -6   5   41.55    3.24
   7   6   5   42.37    3.97
   7   6   6    1.35    1.96
   7  -6   6    2.61    1.39
   7   6   7   59.53    4.92
   7  -6   7   61.52    4.22
   7   6   8   24.74    3.44
   7  -6   8   23.02    2.82
   7   6   9  106.36    6.97
   7  -6   9  100.80    5.71
   7   6  10    3.72    2.33
   7  -6  10    1.11    1.41
   7   6  11    2.12    2.46
   7  -6  11   -0.53    1.61
   7   6  12   10.97    2.83
   7  -6  12   12.80    2.78
   7  -6  13   36.23    4.12
   7  -6  14   42.83    4.46
   7  -6  15   23.00    3.73
  -7   7  17   66.80    5.93
  -7   7  16   63.75    5.62
  -7   7  15   -2.24    2.22
  -7   7  14   32.11    3.82
  -7   7  13   31.63    4.00
  -7   7  12  127.82    7.23
  -7   7  11   12.03    2.80
  -7   7  10    0.94    1.66
   7  -7  -9    2.94    1.30
  -7   7   9    4.81    1.97
   7  -7  -8   54.98    3.57
  -7   7   8   52.11    4.32
   7  -7  -7   79.03    4.19
  -7   7   7   81.15    5.32
   7   7  -7   72.76    2.00
   7  -7  -6   84.47    4.18
  -7   7   6   88.88    5.56
   7   7  -6   90.46    2.82
   7  -7  -5  225.35    7.19
  -7   7   5  222.02    8.93
   7   7  -5  238.07    5.94
  -7   7   4   18.41    2.78
   7   7  -4   22.20    1.72
   7   7  -3  243.91    7.00
  -7   7   3  256.82    9.58
   7   7  -2   14.94    1.73
  -7   7   2   12.99    2.53
  -7   7   1  374.05   12.16
   7   7  -1  366.66   10.08
   7  -7  -1  369.82    9.61
  -7   7   0  620.02   17.03
   7   7   0  612.75   15.02
   7  -7   0  636.56   14.27
   7   7   0  632.68   16.93
  -7   7  -1    1.98    1.80
   7   7   1    0.13    1.22
   7   7   1    0.10    1.60
   7  -7   1   -0.36    1.16
  -7   7  -2    5.43    2.17
   7   7   2    2.22    1.36
   7   7   2    7.32    2.25
   7  -7   2    4.35    1.20
  -7   7  -3   26.61    3.32
   7  -7   3   30.92    2.55
   7   7   3   34.94    3.73
  -7   7  -4  203.37    8.92
   7   7   4  202.42    8.73
   7  -7   4  175.02    6.52
  -7   7  -5   99.30    6.30
   7   7   5   93.99    6.03
   7  -7   5  101.62    4.88
  -7   7  -6   -0.58    2.06
   7  -7   6    0.35    1.33
   7   7   6    1.42    1.72
   7   7   7   27.68    3.67
   7  -7   7   29.48    2.87
   7   7   8   42.59    4.52
   7  -7   8   39.86    3.42
   7   7   9  129.27    7.73
   7  -7   9  128.28    6.37
   7   7  10   43.96    4.70
   7  -7  10   37.54    3.66
   7  -7  11  244.23    9.70
   7   7  11  264.21   11.68
   7   7  12   27.59    4.22
   7  -7  12   27.37    3.48
   7  -7  13   17.60    3.06
   7  -7  14    8.55    2.45
  -7   8  16   -0.08    2.12
  -7   8  15  105.36    7.21
  -7   8  14   48.68    4.84
  -7   8  13    4.09    2.09
  -7   8  12   15.21    3.27
  -7   8  11    4.91    2.23
  -7   8  10  226.03    9.75
   7  -8  -9   20.64    2.36
  -7   8   9   21.43    3.37
   7  -8  -8  120.42    5.37
  -7   8   8  138.00    7.23
   7  -8  -7  117.09    5.07
  -7   8   7  129.75    6.92
   7  -8  -6  128.51    5.13
  -7   8   6  132.61    6.94
   7   8  -6  128.77    2.95
   7  -8  -5   23.05    2.19
   7   8  -5   22.60    1.45
  -7   8   5   25.26    3.12
   7  -8  -4    7.10    1.27
   7   8  -4    6.78    1.09
  -7   8   4    8.45    2.12
   7   8  -3  352.60    8.98
  -7   8   3  387.59   12.44
  -7   8   2   43.03    3.93
   7   8  -2   42.76    2.77
   7  -8  -2   41.80    2.60
  -7   8   1   59.27    4.67
   7   8  -1   52.93    3.37
   7   8  -1   56.55    4.45
   7  -8  -1   60.79    3.12
   7   8   0    0.25    1.09
  -7   8   0    1.86    1.75
   7  -8   0    1.04    0.80
   7   8   0    1.71    1.71
  -7   8  -1   -0.22    1.66
   7   8   1    1.77    1.24
   7  -8   1    0.20    0.92
   7   8   1    2.16    1.61
   7   8   2  119.92    5.88
  -7   8  -2  113.65    6.51
   7   8   2  117.73    6.49
   7  -8   2  115.59    4.64
  -7   8  -3   62.61    4.98
   7   8   3   68.27    5.08
   7  -8   3   67.03    3.51
  -7   8  -4   -2.68    2.05
   7   8   4    1.18    1.88
   7  -8   4    0.09    1.08
   7  -8   5   45.34    3.10
  -7   8  -5   54.49    4.79
   7   8   5   48.50    4.50
  -7   8  -6   24.82    3.56
   7  -8   6   27.44    2.58
   7   8   6   28.24    3.57
   7   8   7   59.62    5.25
   7  -8   7   68.94    4.20
   7   8   8   31.69    4.09
   7  -8   8   31.88    3.05
   7   8   9   -1.46    2.33
   7  -8   9    6.86    1.94
   7   8  10    7.61    2.94
   7  -8  10   -0.48    1.69
   7   8  11   36.00    4.54
   7  -8  11   34.28    3.56
  -7   9  15   -0.93    2.01
  -7   9  14   -3.48    2.53
  -7   9  13  166.47    9.00
  -7   9  12   92.52    6.47
  -7   9  11   39.07    4.36
  -7   9  10    1.07    2.11
   7  -9  -9   43.29    3.28
  -7   9   9   43.09    4.44
   7  -9  -8   29.93    2.60
  -7   9   8   25.60    3.34
   7  -9  -7   78.70    4.00
  -7   9   7   79.87    5.66
   7  -9  -6   16.18    1.84
  -7   9   6   15.24    2.80
   7  -9  -5  464.13   11.31
  -7   9   5  494.45   15.01
   7   9  -5  488.92    9.38
   7  -9  -4    2.15    0.92
   7   9  -4    2.34    0.86
  -7   9   4    0.68    1.76
   7  -9  -3  170.50    5.39
   7   9  -3  177.54    5.55
  -7   9   3  184.41    8.45
  -7   9   2   19.28    3.12
   7   9  -2   18.72    1.96
   7  -9  -2   21.44    1.75
  -7   9   1   91.32    5.83
   7   9  -1   86.85    4.31
   7  -9  -1   90.85    3.58
   7   9  -1   89.81    5.60
  -7   9   0  141.05    7.30
   7   9   0  136.72    5.84
   7   9   0  145.17    7.13
   7  -9   0  130.02    4.51
  -7   9  -1   15.43    2.84
   7   9   1   13.27    2.03
   7  -9   1   14.13    1.51
   7   9   1   11.26    2.33
  -7   9  -2    4.84    2.10
   7   9   2    7.77    2.20
   7  -9   2    5.26    1.05
   7  -9   3   94.58    3.98
  -7   9  -3  101.25    6.40
   7   9   3  103.13    6.27
   7  -9   4  174.61    5.92
  -7   9  -4  165.88    8.42
   7   9   4  186.56    8.66
   7  -9   5   34.53    2.60
  -7   9  -5   31.61    3.95
   7   9   5   41.96    4.34
   7  -9   6    0.60    1.03
  -7   9  -6   -0.30    1.92
   7   9   6   -0.14    1.90
   7   9   7  147.18    8.09
   7  -9   7  145.63    5.96
   7   9   8   48.40    4.87
   7   9   9   25.71    3.81
   7   9  10    6.33    2.68
   7   9  11   62.95    5.81
  -7  10  14   49.88    5.23
  -7  10  13    5.11    2.59
  -7  10  12    3.71    2.26
  -7  10  11    5.05    2.29
  -7  10  10   64.97    5.52
  -7  10   9  154.50    8.39
  -7  10   8   64.93    5.38
  -7  10   7   55.32    4.94
  -7  10   6  130.41    7.36
  -7  10   5    6.58    2.26
  -7  10   4    2.54    1.77
   7 -10  -3   77.79    3.10
  -7  10   3   74.95    5.53
   7  10  -2  111.52    6.35
   7 -10  -2  105.90    3.57
  -7  10   2  122.83    7.01
   7  10  -2  108.60    4.52
   7 -10  -1    6.96    0.96
   7  10  -1    6.98    2.06
   7  10  -1    6.98    1.46
  -7  10   1    5.33    2.42
   7 -10   0   32.49    1.78
   7  10   0   30.07    3.54
  -7  10   0   35.33    4.06
   7  10   0   40.12    3.20
   7  10   1    7.78    2.30
   7 -10   1    6.12    0.93
   7  10   1    7.01    1.87
  -7  10  -1    9.09    2.46
   7  10   2  160.14    7.91
  -7  10  -2  158.77    8.17
   7  10   3   45.15    4.32
  -7  10  -3   48.47    4.56
   7  10   4    8.82    2.40
  -7  10  -4    6.58    2.61
   7  10   5   30.13    3.69
  -7  10  -5   30.76    3.98
   7  10   6   38.17    4.22
  -7  10  -6   36.07    4.27
   7  10   7    2.01    1.89
  -7  10  -7   -0.75    2.34
   7  10   8   88.30    6.49
   7  10   9   32.06    4.28
   7  10  10   20.72    3.53
  -7  11  12   57.53    5.55
  -7  11  11    2.99    2.02
  -7  11  10    0.41    2.20
  -7  11   9   27.38    3.82
  -7  11   8    2.12    2.21
  -7  11   7   12.60    2.84
  -7  11   6  147.48    8.17
  -7  11   5  126.80    7.40
  -7  11   4    2.47    1.98
  -7  11   3   17.97    3.03
   7  11  -2   -1.00    1.67
  -7  11   2    2.91    2.15
   7  11  -1  436.83   13.98
  -7  11   1  432.06   14.57
   7  11   0  132.59    7.23
  -7  11   0  124.52    7.34
   7  11   1   19.51    3.07
  -7  11  -1   25.98    3.69
   7  11   2    1.57    2.05
  -7  11  -2    0.83    2.04
   7  11   3  116.73    6.96
  -7  11  -3  113.35    7.08
   7  11   4  135.69    7.62
  -7  11  -4  143.65    7.98
   7  11   5   77.07    5.77
  -7  11  -5   76.71    6.00
   7  11   6   69.14    5.64
  -7  11  -6   66.90    5.77
   7  11   7    3.85    2.40
  -7  11  -7    1.00    2.52
   7  11   8   12.28    2.93
   7  11   9    5.75    2.34
  -7  12  11   -2.09    2.36
  -7  12  10   98.69    7.13
  -7  12   9   50.98    5.09
  -7  12   8   33.84    4.26
  -7  12   7    8.90    2.66
  -7  12   6  135.40    7.97
  -7  12   5   69.00    5.66
  -7  12   4   90.25    6.46
   7  12  -3  153.20    7.74
  -7  12   3  150.90    8.28
   7  12  -2  109.77    6.49
  -7  12   2  111.39    7.07
   7  12  -1   35.33    3.90
  -7  12   1   34.96    4.19
   7  12   0   33.96    3.85
  -7  12   0   37.84    4.36
   7  12   1   49.85    4.66
  -7  12  -1   53.00    5.07
   7  12   2  148.93    7.89
  -7  12  -2  143.40    8.22
   7  12   3    9.18    2.50
  -7  12  -3    9.21    2.71
   7  12   4   20.79    3.31
  -7  12  -4   19.47    3.48
   7  12   5   10.74    2.72
  -7  12  -5   12.92    3.19
   7  12   6  158.46    8.63
  -7  12  -6  184.37    9.52
   7  12   7   37.33    4.27
  -7  12  -7   39.26    4.63
   7  12   8   10.67    2.75
   7  12   9   -0.48    2.07
  -7  13   9  130.82    8.32
  -7  13   8   12.03    3.09
  -7  13   7   13.01    2.98
  -7  13   6   20.20    3.36
  -7  13   5   23.65    3.65
   7  13  -4   16.07    3.00
  -7  13   4    7.23    2.75
   7  13  -3    2.92    2.12
  -7  13   3    0.95    2.14
   7  13  -2    0.13    1.83
  -7  13   2   -3.22    2.50
   7  13  -1   37.70    4.04
  -7  13   1   47.38    5.00
   7  13   0   32.48    3.91
  -7  13   0   25.27    3.85
   7  13   1   91.01    6.23
  -7  13  -1   92.03    6.68
   7  13   2   -0.60    2.15
  -7  13  -2    1.46    2.19
   7  13   3   50.38    4.79
  -7  13  -3   48.91    5.04
   7  13   4   12.93    2.73
  -7  13  -4   15.38    3.47
   7  13   5   -2.50    2.16
  -7  13  -5    1.24    2.17
   7  13   6    9.10    2.70
  -7  13  -6    1.11    2.15
   7  13   7   20.78    3.59
  -7  13  -7   24.41    3.90
   7  13   8   25.19    4.06
  -7  14   6   57.82    5.60
   7  14  -5    0.39    1.78
  -7  14   5   -1.13    2.17
   7  14  -4   -0.23    1.81
  -7  14   4   -0.27    2.08
   7  14  -3   16.91    2.95
  -7  14   3   14.42    3.16
   7  14  -2  118.26    6.96
  -7  14   2  109.55    7.43
   7  14  -1   11.07    2.67
  -7  14   1    3.48    2.17
   7  14   0   18.17    3.07
  -7  14   0    7.24    2.64
   7  14   1   -1.72    2.22
  -7  14  -1   -0.57    2.00
   7  14   2    6.91    2.46
  -7  14  -2   11.94    3.32
   7  14   3   15.20    3.01
  -7  14  -3   18.47    3.46
   7  14   4   13.47    3.14
  -7  14  -4   11.89    3.56
   7  14   5   14.31    3.12
  -7  14  -5    5.34    2.14
   7  14   6   97.62    6.93
  -7  14  -6  102.15    7.32
   7  14   7   10.49    2.89
  -7  14  -7    5.00    2.76
  -7  15   3   42.24    4.99
  -7  15   2   -3.73    2.29
  -7  15   1   22.91    3.94
   7  15   0   19.45    3.41
  -7  15   0   24.56    3.92
   7  15   1   33.10    4.02
  -7  15  -1   31.53    4.21
   7  15   2    2.63    2.14
  -7  15  -2    3.94    2.39
   7  15   3   87.16    6.34
  -7  15  -3   91.31    6.95
  -7  15  -4    4.92    2.35
  -7  15  -5   10.45    3.60
  -8   0  18  162.41    7.71
  -8   0  17    2.35    1.61
  -8   0  16  110.36    5.97
  -8   0  15   -1.90    1.60
  -8   0  14  303.02   10.08
  -8   0  13    0.14    1.31
  -8   0  12   26.92    2.79
   8   0 -11    1.27    1.10
  -8   0  11   -0.70    1.38
  -8   0  10    1.13    1.23
   8   0 -10    0.95    1.12
  -8   0   9   -1.28    1.17
   8   0  -9   -0.61    1.08
  -8   0   8  206.94    7.49
   8   0  -8  204.37    7.31
  -8   0   7   -0.03    1.32
   8   0  -7    1.10    1.18
  -8   0   6  793.54   18.28
   8   0  -6  779.46   17.92
  -8   0   5    1.35    1.61
   8   0  -5    0.02    1.20
  -8   0   4  407.21   11.67
   8   0  -4  414.94   11.50
  -8   0   3    0.73    1.45
   8   0  -3    0.47    1.06
  -8   0   2  434.92   12.51
   8   0  -2  460.39   12.51
  -8   0   1    0.51    1.49
   8   0  -1   -1.40    1.36
  -8   0   0    5.78    1.98
   8   0   0    5.83    1.89
   8   0   1   -0.97    1.58
   8   0   2   65.96    4.57
   8   0   3   -2.30    1.68
   8   0   4    1.62    1.61
   8   0   5   -1.80    1.87
   8   0   6  302.60   11.09
   8   0   7   -1.19    1.84
   8   0   8  141.95    7.46
   8   0   9   -1.60    2.16
   8   0  10  333.54   12.69
   8   0  11    1.52    1.91
   8   0  12   90.43    6.68
   8   0  13   -1.14    2.22
  -8   1  19   12.73    2.84
  -8   1  18    0.30    1.80
  -8   1  17   35.69    3.72
  -8  -1  17   41.36    3.65
  -8   1  16    0.67    1.43
  -8  -1  16    3.56    1.61
  -8  -1  15   20.70    2.55
  -8   1  15   13.28    2.27
  -8  -1  14   13.93    2.18
  -8   1  14   12.95    2.45
  -8   1  13   98.21    5.52
  -8  -1  13  103.02    5.18
  -8  -1  12    0.56    1.25
  -8   1  12    0.58    1.52
  -8   1  11  331.93   10.57
  -8  -1  11  341.04   10.05
  -8   1  10  376.23   11.20
  -8  -1  10  374.44   10.57
   8   1 -10  348.35   10.13
  -8   1   9  452.21   12.69
  -8  -1   9  455.40   12.09
   8   1  -9  457.38   11.87
   8  -1  -9  463.33   12.57
  -8  -1   8   60.97    3.73
  -8   1   8   61.47    4.04
   8   1  -8   62.09    3.69
   8  -1  -8   71.33    4.24
  -8  -1   7   23.72    2.46
  -8   1   7   25.28    2.73
   8  -1  -7   27.47    2.59
   8   1  -7   23.31    2.39
  -8   1   6   59.59    3.98
  -8  -1   6   56.10    3.67
   8   1  -6   55.97    3.54
   8  -1  -6   56.76    3.75
  -8   1   5   52.74    4.01
  -8  -1   5   51.73    3.54
   8   1  -5   50.27    3.37
   8  -1  -5   52.90    3.60
  -8  -1   4   31.12    2.89
  -8   1   4   28.76    2.88
   8  -1  -4   34.64    2.94
   8   1  -4   31.46    2.72
   8   1  -3   71.69    4.08
  -8  -1   3   70.40    4.28
   8  -1  -3   71.63    4.25
  -8   1   3   73.70    4.53
  -8   1   2    0.08    1.46
  -8  -1   2    3.78    1.67
   8   1  -2    4.96    1.46
   8  -1  -2    3.75    1.42
  -8  -1   1  204.64    7.93
   8  -1  -1  208.47    7.91
  -8   1   1  207.61    8.12
   8   1  -1  208.10    7.70
   8   1   0   31.57    2.98
  -8   1   0   27.30    3.07
   8  -1   0   25.84    2.85
   8   1   0   30.28    3.22
  -8   1  -1  789.28   19.35
   8  -1   1  757.08   18.70
   8   1   1  770.94   19.15
   8  -1   2   44.26    3.70
   8   1   2   44.73    3.84
   8  -1   3  169.26    7.41
   8   1   3  162.98    7.55
   8  -1   4   95.80    5.61
   8   1   4   90.61    5.59
   8   1   5   84.32    5.46
   8  -1   5   76.29    5.11
   8  -1   6    1.79    1.81
   8   1   6    4.07    1.83
   8  -1   7    4.70    2.00
   8   1   7    7.19    2.21
   8  -1   8    9.66    2.49
   8   1   8   10.03    2.50
   8   1   9    2.86    2.23
   8  -1   9    2.23    2.05
   8  -1  10   -2.69    2.15
   8   1  10    0.48    1.94
   8  -1  11    4.72    2.31
   8   1  11    2.92    2.12
   8  -1  12   -0.85    2.21
   8   1  12    3.45    2.16
   8   1  13   67.22    6.01
   8  -1  13   72.63    6.09
  -8   2  20    6.37    2.50
  -8   2  19   76.38    5.77
  -8   2  18  122.07    7.14
  -8   2  17    6.42    2.45
  -8  -2  16   81.15    4.61
  -8   2  16   78.03    5.44
  -8  -2  15    3.37    1.32
  -8   2  15    0.93    1.60
  -8  -2  14  116.20    5.36
  -8   2  14  113.83    6.24
  -8  -2  13    2.58    1.36
  -8   2  13    0.57    1.52
  -8  -2  12   40.01    3.04
  -8   2  12   33.99    3.47
  -8  -2  11    1.55    1.16
  -8   2  11    1.57    1.63
  -8   2  10   62.43    4.29
  -8  -2  10   64.30    3.71
   8   2 -10   60.11    3.53
  -8  -2   9  140.14    5.55
  -8   2   9  125.83    6.05
   8   2  -9  126.72    5.13
  -8  -2   8   17.70    2.17
  -8   2   8   15.69    2.45
   8   2  -8   11.42    1.65
  -8  -2   7   67.72    3.78
  -8   2   7   67.56    4.39
   8   2  -7   71.57    3.77
  -8   2   6  408.77   11.92
  -8  -2   6  397.12   10.87
   8   2  -6  399.09   10.63
   8  -2  -6  411.60   11.80
  -8  -2   5    2.15    1.29
  -8   2   5    0.31    1.54
   8  -2  -5    0.38    1.26
   8   2  -5    1.79    1.13
  -8   2   4   99.35    5.36
   8   2  -4  101.91    4.71
  -8  -2   4  102.20    4.94
   8  -2  -4  101.49    5.27
  -8  -2   3  248.96    8.32
   8   2  -3  239.30    7.96
  -8   2   3  248.39    8.88
   8   2  -2  418.33   11.55
  -8  -2   2  413.68   11.71
  -8   2   2  417.26   12.40
  -8   2   1   34.57    3.31
   8   2  -1   38.61    3.14
  -8   2   0   31.00    3.21
   8   2   0   30.93    2.91
   8  -2   0   34.08    3.16
   8   2   0   30.20    3.32
  -8   2  -1  128.67    6.51
   8  -2   1  126.80    6.05
   8   2   1  127.98    6.48
  -8   2  -2  170.18    7.81
   8  -2   2  189.79    7.68
   8   2   2  185.11    8.04
   8   2   3    9.38    2.35
   8  -2   3   10.78    2.12
   8  -2   4   -0.71    1.78
   8   2   4   -0.82    1.60
   8   2   5   66.62    4.92
   8  -2   5   62.67    4.59
   8  -2   6  324.95   11.23
   8   2   6  325.76   11.72
   8  -2   7   -2.00    1.58
   8   2   7   -0.45    1.89
   8  -2   8   20.36    3.00
   8   2   8   17.11    2.94
   8   2   9    8.71    2.56
   8  -2   9    2.22    1.91
   8   2  10  111.04    7.17
   8  -2  10  101.26    6.56
   8  -2  11    4.83    2.29
   8   2  11    4.43    2.21
   8  -2  12    1.22    1.94
   8   2  12   -3.74    2.64
   8  -2  13   -1.27    1.99
  -8   3  20    3.83    2.11
  -8   3  19   11.87    2.76
  -8   3  18   30.37    3.97
  -8   3  17    7.74    2.38
  -8   3  16   16.05    2.93
  -8   3  15    7.31    2.15
  -8  -3  15    7.22    1.59
  -8  -3  14   21.56    2.25
  -8   3  14   20.25    3.06
  -8  -3  13   99.05    4.59
  -8   3  13   99.41    5.86
  -8  -3  12  105.29    4.64
  -8   3  12  104.25    5.92
  -8  -3  11  145.94    5.52
  -8   3  11  139.18    6.80
  -8  -3  10  338.48    9.12
  -8   3  10  310.85   10.55
   8   3 -10  302.79    8.53
  -8   3   9  211.94    8.47
  -8  -3   9  226.40    7.05
   8   3  -9  207.45    6.63
  -8  -3   8   26.29    2.33
  -8   3   8   24.95    3.01
   8   3  -8   24.93    2.14
  -8   3   7  142.30    6.60
  -8  -3   7  153.86    5.73
   8   3  -7  141.57    5.34
  -8  -3   6   20.46    2.13
  -8   3   6   18.19    2.63
   8   3  -6   20.40    2.04
  -8   3   5   92.07    5.28
  -8  -3   5   88.41    4.41
   8   3  -5   95.13    4.35
  -8   3   4    5.51    1.82
  -8  -3   4    7.06    1.52
   8   3  -4    7.14    1.43
  -8   3   3    6.71    1.97
   8   3  -3    5.32    1.42
  -8   3   2   35.32    3.45
   8   3  -2   40.71    3.11
   8   3  -1  238.42    8.19
  -8   3   1  245.47    9.15
  -8   3   0    2.57    1.63
   8   3   0    3.73    1.44
   8  -3   0    4.17    1.51
   8   3   0    0.03    1.83
  -8   3  -1  156.66    7.37
   8   3   1  146.77    6.62
   8  -3   1  153.94    6.60
   8   3   1  157.60    7.30
  -8   3  -2   49.09    4.34
   8  -3   2   56.17    4.02
   8   3   2   51.69    4.33
  -8   3  -3  810.99   20.75
   8  -3   3  796.40   19.27
   8   3   3  819.63   20.66
   8  -3   4  158.62    7.05
   8   3   4  160.94    7.73
   8   3   5  226.18    9.57
   8  -3   5  235.73    8.92
   8  -3   6    4.65    1.79
   8   3   6    7.91    2.41
   8  -3   7   83.52    5.40
   8   3   7   81.38    5.72
   8   3   8   25.91    3.65
   8  -3   8   27.86    3.32
   8   3   9   10.56    3.01
   8  -3   9   10.50    2.51
   8  -3  10   -1.78    1.88
   8   3  10   -1.29    2.24
   8  -3  11   12.03    2.77
   8   3  11   13.44    2.97
   8  -3  12    7.31    2.37
   8   3  12   11.95    3.02
   8  -3  13   25.79    3.80
   8  -3  14    2.35    2.19
  -8   4  20   13.40    3.19
  -8   4  19    0.51    1.88
  -8   4  18   91.29    6.49
  -8   4  17   56.63    5.06
  -8   4  16  124.41    7.22
  -8   4  15   41.91    4.25
  -8   4  14  420.33   13.84
  -8  -4  13    6.50    1.24
  -8   4  13    6.03    2.20
  -8  -4  12    2.16    1.14
  -8   4  12    0.20    1.63
  -8  -4  11   -0.18    0.85
  -8   4  11   -0.34    1.54
  -8  -4  10  160.52    5.48
  -8   4  10  153.95    7.40
  -8   4   9  221.52    8.78
  -8  -4   9  224.78    6.79
   8   4  -9  216.49    6.41
  -8  -4   8    7.69    1.24
  -8   4   8    7.40    2.03
   8   4  -8   10.67    1.43
  -8  -4   7   22.54    2.10
  -8   4   7   19.84    2.76
   8   4  -7   24.23    2.03
  -8  -4   6  570.83   13.42
  -8   4   6  584.53   15.80
   8   4  -6  575.26   13.12
  -8   4   5   50.78    4.02
   8   4  -5   42.24    2.81
  -8   4   4   94.99    5.48
   8   4  -4   91.34    4.25
   8   4  -3  233.13    7.54
  -8   4   3  227.38    8.84
   8   4  -2  415.40   11.36
  -8   4   2  425.83   12.97
   8   4  -1   74.61    4.28
  -8   4   1   76.05    5.01
  -8   4   0   23.29    3.08
   8   4   0   25.30    2.64
   8   4   0   21.64    2.85
   8  -4   0   25.94    2.71
  -8   4  -1    0.27    1.80
   8   4   1   -0.18    1.30
   8   4   1    0.24    1.74
   8  -4   1    0.02    1.46
  -8   4  -2  329.53   11.70
   8  -4   2  335.32   10.46
   8   4   2  344.90   11.78
  -8   4  -3   47.96    4.37
   8  -4   3   43.32    3.60
   8   4   3   49.81    4.40
  -8   4  -4    3.12    2.04
   8   4   4    1.67    1.76
   8  -4   4    0.07    1.51
   8   4   5   60.68    4.97
   8  -4   5   61.43    4.41
   8  -4   6  286.87   10.25
   8   4   6  305.13   11.52
   8  -4   7   58.33    4.50
   8   4   7   62.46    5.21
   8   4   8   -3.48    2.45
   8  -4   8    0.15    1.48
   8   4   9   21.44    3.55
   8  -4   9   27.30    3.49
   8   4  10   74.31    6.07
   8  -4  10   69.90    5.39
   8   4  11    1.08    1.88
   8  -4  11   -0.85    1.98
   8  -4  12   28.33    3.78
   8   4  12   25.43    3.97
   8  -4  13    8.46    2.58
   8  -4  14   49.71    5.01
  -8   5  19   -0.42    2.11
  -8   5  18    3.31    2.25
  -8   5  17   26.77    3.69
  -8   5  16   19.24    3.30
  -8   5  15  122.43    7.29
  -8   5  14    3.81    1.93
  -8   5  13  227.33    9.70
  -8  -5  12   35.03    2.14
  -8   5  12   36.95    3.95
  -8   5  11   75.87    5.30
  -8  -5  11   79.84    3.29
  -8   5  10   97.95    5.90
  -8  -5  10  102.08    3.86
  -8  -5   9   53.08    2.76
  -8   5   9   50.87    4.33
   8   5  -9   54.23    2.60
   8   5  -8    1.53    0.81
  -8   5   8    0.90    1.56
  -8   5   7   88.77    5.44
   8   5  -7   85.44    3.56
  -8   5   6   51.03    4.19
   8   5  -6   54.75    2.94
   8   5  -5   28.96    2.22
  -8   5   5   24.69    3.05
  -8   5   4   30.13    3.32
   8   5  -4   32.03    2.43
   8   5  -3   17.81    2.01
  -8   5   3   14.03    2.58
  -8   5   2   14.66    2.71
   8   5  -2   16.87    2.07
   8   5  -1  307.31    9.50
  -8   5   1  306.72   10.86
   8  -5  -1  304.33    9.45
  -8   5   0    3.87    1.96
   8   5   0   -0.78    1.28
   8  -5   0    0.23    1.39
   8   5   0    2.30    1.74
  -8   5  -1   78.72    5.43
   8   5   1   98.54    5.24
   8   5   1   71.88    5.16
   8  -5   1   89.79    4.77
  -8   5  -2    2.10    1.67
   8  -5   2   -0.56    1.35
   8   5   2   -2.65    2.04
  -8   5  -3    3.43    1.97
   8   5   3    2.84    1.74
   8  -5   3    3.44    1.41
  -8   5  -4   89.85    5.98
   8   5   4   94.78    6.06
   8  -5   4   86.39    4.91
   8   5   5   88.17    5.95
   8  -5   5   90.25    5.17
   8  -5   6    1.72    1.60
   8   5   6   -1.24    1.82
   8  -5   7  179.03    7.82
   8   5   7  188.27    9.11
   8   5   8    9.69    2.71
   8  -5   8    9.08    2.37
   8   5   9   25.85    3.86
   8  -5   9   22.09    3.09
   8  -5  10   19.20    3.02
   8   5  10   15.37    3.20
   8  -5  11   14.62    2.83
   8   5  11   21.20    3.83
   8  -5  12   22.20    3.48
   8  -5  13   13.74    3.17
   8  -5  14   18.72    3.40
  -8   6  18   31.75    4.35
  -8   6  17   18.21    3.39
  -8   6  16   32.54    4.15
  -8   6  15   86.19    6.34
  -8   6  14  235.70   10.52
  -8   6  13    6.00    2.28
  -8   6  12   -2.15    2.12
  -8   6  11   14.01    2.61
  -8   6  10   88.90    5.75
  -8   6   9   23.85    3.20
   8  -6  -8    3.44    1.60
  -8   6   8    0.57    1.78
   8   6  -8    0.44    0.63
   8  -6  -7   -0.29    1.26
   8   6  -7   -0.68    0.75
  -8   6   7    2.63    1.72
  -8   6   6  343.35   11.68
   8   6  -6  327.69    8.24
   8   6  -5   71.12    3.34
  -8   6   5   76.47    5.24
  -8   6   4    0.55    1.61
   8   6  -4    2.89    1.11
  -8   6   3  538.62   15.33
   8   6  -3  499.85   12.41
  -8   6   2  233.93    9.44
   8   6  -2  222.02    7.45
  -8   6   1   -1.64    2.16
   8   6  -1    1.76    1.19
   8  -6  -1   -0.85    1.30
  -8   6   0    9.31    2.55
   8   6   0    8.91    1.87
   8   6   0    8.84    2.34
   8  -6   0    7.88    1.58
  -8   6  -1  283.54   10.86
   8   6   1  293.89    9.80
   8   6   1  300.18   10.97
   8  -6   1  286.92    9.09
  -8   6  -2   22.05    3.33
   8  -6   2   19.46    2.32
   8   6   2   26.84    3.41
  -8   6  -3   27.19    3.65
   8  -6   3   24.91    2.65
   8   6   3   27.91    3.53
  -8   6  -4    3.59    2.21
   8  -6   4    7.73    1.88
   8   6   4    6.74    2.37
  -8   6  -5   -0.83    2.18
   8  -6   5    3.86    1.61
   8   6   5    2.07    1.88
   8  -6   6  163.91    7.11
   8   6   6  164.32    8.46
   8   6   7  114.22    7.15
   8  -6   7  100.17    5.66
   8   6   8    0.93    1.98
   8  -6   8    1.30    1.58
   8   6   9  146.90    8.51
   8  -6   9  148.80    7.39
   8   6  10   72.06    6.09
   8  -6  10   83.15    5.63
   8   6  11    7.15    2.80
   8  -6  11    5.73    2.06
   8  -6  12   19.60    3.34
   8  -6  13   13.05    2.89
   8  -6  14   17.50    3.52
  -8   7  17   82.56    6.61
  -8   7  16   25.83    3.80
  -8   7  15    2.26    2.18
  -8   7  14    9.95    2.83
  -8   7  13   76.82    5.86
  -8   7  12  173.18    8.72
  -8   7  11   11.71    2.65
  -8   7  10   22.08    3.19
  -8   7   9   26.31    3.49
   8  -7  -8   10.53    1.86
  -8   7   8    5.42    2.08
   8  -7  -7  104.43    5.12
  -8   7   7  105.43    6.40
   8   7  -7  112.99    3.47
   8  -7  -6    6.98    1.47
   8   7  -6    8.71    1.16
  -8   7   6   10.00    2.36
   8   7  -5  246.39    6.71
  -8   7   5  236.65    9.76
  -8   7   4    1.21    1.82
   8   7  -4    3.10    1.10
   8   7  -3    0.94    0.97
  -8   7   3    2.45    1.74
   8   7  -2  241.14    7.87
  -8   7   2  256.15   10.14
   8  -7  -2  263.89    8.19
  -8   7   1  178.69    8.35
   8   7  -1  177.36    6.80
   8  -7  -1  174.61    6.46
   8   7  -1  194.08    8.54
   8   7   0  101.96    5.17
  -8   7   0  113.29    6.57
   8   7   0  103.51    6.16
   8  -7   0  101.44    4.79
   8   7   1    1.66    1.23
  -8   7  -1    5.99    2.30
   8  -7   1    5.18    1.43
   8   7   1    5.49    2.17
  -8   7  -2   15.12    3.13
   8   7   2   15.78    3.00
   8  -7   2   13.18    1.93
  -8   7  -3   85.57    6.04
   8   7   3   99.71    6.37
   8  -7   3   89.00    4.68
  -8   7  -4  191.43    9.21
   8   7   4  195.00    9.11
   8  -7   4  178.95    7.06
  -8   7  -5  145.29    7.97
   8   7   5  144.17    7.84
   8  -7   5  136.32    6.16
   8   7   6    0.99    1.86
   8  -7   6    1.46    1.40
   8   7   7   43.95    4.58
   8  -7   7   36.58    3.39
   8   7   8    4.86    2.70
   8  -7   8    0.85    1.37
   8   7   9   53.57    5.34
   8  -7   9   46.53    4.08
   8   7  10   90.94    6.81
   8  -7  10   84.21    5.54
   8  -7  11   72.40    5.28
   8  -7  12   14.45    2.73
  -8   8  15   86.35    6.66
  -8   8  14   86.00    6.42
  -8   8  13    6.59    2.71
  -8   8  12    3.38    2.31
  -8   8  11   26.51    3.66
  -8   8  10   73.66    5.63
  -8   8   9  101.25    6.60
   8  -8  -8   17.91    2.21
  -8   8   8   16.15    3.01
   8  -8  -7   14.18    2.05
  -8   8   7   11.86    2.76
   8  -8  -6    2.31    1.07
  -8   8   6    7.54    2.62
   8  -8  -5   55.13    3.43
   8   8  -5   64.08    2.85
  -8   8   5   70.27    5.28
  -8   8   4   -1.72    2.00
   8   8  -4   -0.53    0.98
   8   8  -3  240.93    7.34
  -8   8   3  252.40   10.22
   8   8  -2  386.68   10.57
  -8   8   2  390.77   13.31
   8  -8  -2  394.61   10.38
  -8   8   1   17.27    2.99
   8   8  -1   17.96    2.29
   8  -8  -1   15.62    1.78
   8   8  -1   16.31    2.98
   8   8   0   13.69    2.11
  -8   8   0   10.33    2.68
   8   8   0   14.01    2.78
   8  -8   0   13.57    1.81
  -8   8  -1  109.26    6.64
   8   8   1  111.24    6.69
   8  -8   1  105.58    4.72
  -8   8  -2  149.33    8.09
   8   8   2  149.73    7.84
   8  -8   2  149.83    5.83
  -8   8  -3   10.59    2.63
   8  -8   3   10.13    1.61
   8   8   3   12.36    2.72
  -8   8  -4    3.54    2.04
   8   8   4    3.40    2.10
   8  -8   4    5.65    1.34
  -8   8  -5   11.11    2.85
   8  -8   5   13.48    1.99
   8   8   5   16.61    3.14
  -8   8  -6   33.21    4.20
   8   8   6   36.59    4.32
   8  -8   6   34.26    3.05
   8   8   7  134.30    7.95
   8  -8   7  112.48    5.75
   8   8   8    0.43    2.06
   8  -8   8    4.59    1.70
   8   8   9  122.00    7.87
   8  -8   9  103.90    5.84
   8   8  10   13.72    3.29
  -8   9  14   -0.59    2.10
  -8   9  13   22.94    3.72
  -8   9  12  122.85    7.77
  -8   9  11   36.96    4.25
  -8   9  10   44.20    4.60
  -8   9   9    5.69    2.23
  -8   9   8  221.26   10.04
  -8   9   7   12.14    2.84
  -8   9   6   38.09    4.15
  -8   9   5   44.93    4.48
  -8   9   4   31.37    3.83
  -8   9   3   41.85    4.29
   8  -9  -3   41.68    2.83
  -8   9   2    1.99    2.20
   8   9  -2    4.20    1.32
   8   9  -2    4.63    1.81
   8  -9  -2    3.21    1.07
  -8   9   1    1.52    2.23
   8   9  -1    0.01    1.19
   8  -9  -1    0.70    0.90
   8   9  -1   -2.26    2.04
   8   9   0  122.31    5.81
  -8   9   0  128.68    7.45
   8   9   0  117.24    6.90
   8  -9   0  116.56    4.70
  -8   9  -1   49.12    4.78
   8   9   1   53.43    4.82
   8  -9   1   51.87    3.10
  -8   9  -2    3.70    2.34
   8   9   2   -1.64    2.04
   8  -9   2   -0.06    1.01
  -8   9  -3   22.24    3.59
   8   9   3   20.17    3.32
   8  -9   3   16.87    1.93
   8  -9   4  150.83    5.89
   8   9   4  162.58    8.55
  -8   9  -4  172.09    8.95
   8   9   5   72.83    5.82
  -8   9  -5   85.08    6.51
   8   9   6   -0.21    2.39
  -8   9  -6   -3.59    2.58
   8   9   7    8.46    2.73
   8   9   8   27.91    4.00
   8   9   9   21.24    3.71
  -8  10  13   41.89    4.90
  -8  10  12    0.82    2.31
  -8  10  11   18.65    3.37
  -8  10  10  131.05    7.99
  -8  10   9   10.52    2.87
  -8  10   8   20.50    3.63
  -8  10   7   27.03    3.81
  -8  10   6    6.70    2.82
  -8  10   5   52.02    4.97
  -8  10   4   14.29    3.01
  -8  10   3  184.04    9.15
   8  10  -2   74.88    5.60
  -8  10   2   85.09    6.07
   8  10  -1   33.12    3.86
  -8  10   1   37.74    4.36
   8  10   0   17.28    3.05
  -8  10   0   18.05    3.16
   8  10   1  182.77    9.02
  -8  10  -1  187.37    9.35
   8  10   2  110.33    7.01
  -8  10  -2  115.76    7.36
   8  10   3   34.30    4.04
  -8  10  -3   31.86    4.09
   8  10   4   20.43    3.44
  -8  10  -4   18.73    3.49
   8  10   5   24.71    3.75
  -8  10  -5   24.60    3.90
   8  10   6    4.15    2.15
  -8  10  -6    2.91    2.30
   8  10   7   11.04    2.76
   8  10   8    5.05    2.56
  -8  11  11   18.47    3.42
  -8  11  10    2.18    2.27
  -8  11   9   34.39    4.40
  -8  11   8   61.53    5.60
  -8  11   7   34.15    4.08
  -8  11   6    8.14    2.59
  -8  11   5  170.90    9.12
  -8  11   4  137.00    8.05
   8  11  -3   16.18    2.98
  -8  11   3   10.41    2.68
   8  11  -2    0.47    1.97
  -8  11   2   -1.27    2.05
   8  11  -1   14.63    2.95
  -8  11   1   12.49    2.94
   8  11   0   85.77    6.15
  -8  11   0   85.46    6.38
   8  11   1   10.99    2.60
  -8  11  -1    6.00    2.73
   8  11   2    4.05    2.18
  -8  11  -2    2.55    2.09
   8  11   3   11.06    2.79
  -8  11  -3    8.85    2.81
   8  11   4   77.74    6.17
  -8  11  -4   77.92    6.25
   8  11   5   22.09    3.81
  -8  11  -5   30.15    4.29
   8  11   6   -2.81    2.22
  -8  11  -6   -1.22    2.29
   8  11   7   -3.13    1.96
  -8  12   9    7.49    2.95
  -8  12   8    5.06    2.45
  -8  12   7   90.40    6.80
  -8  12   6   41.01    4.65
  -8  12   5   21.30    3.52
   8  12  -4   11.51    2.99
  -8  12   4    7.37    2.97
   8  12  -3  160.77    8.52
  -8  12   3  174.13    9.30
   8  12  -2   76.51    5.87
  -8  12   2   76.05    6.18
   8  12  -1  117.39    7.20
  -8  12   1  119.07    7.76
   8  12   0    7.61    2.71
  -8  12   0    4.51    2.58
   8  12   1   28.92    3.96
  -8  12  -1   28.37    4.31
   8  12   2   13.46    3.14
  -8  12  -2   11.36    2.99
   8  12   3   54.79    5.17
  -8  12  -3   50.58    5.16
   8  12   4   23.43    3.70
  -8  12  -4   20.52    3.77
   8  12   5  101.00    6.98
  -8  12  -5  109.66    7.69
   8  12   6    3.84    1.91
  -8  12  -6   -0.10    2.28
   8  12   7    8.96    2.93
  -8  13   6   23.70    4.01
  -8  13   5   28.75    4.30
   8  13  -4  140.63    7.96
  -8  13   4  153.12    8.84
   8  13  -3   38.44    4.40
  -8  13   3   40.81    4.80
   8  13  -2   14.14    3.00
  -8  13   2   16.67    3.23
   8  13  -1    7.49    2.57
  -8  13   1    5.00    2.35
   8  13   0   50.13    4.85
  -8  13   0   44.45    4.88
   8  13   1   12.43    2.92
  -8  13  -1    9.50    2.69
   8  13   2   -1.67    2.29
  -8  13  -2    1.20    2.45
   8  13   3   22.26    3.67
  -8  13  -3   18.85    3.71
   8  13   4  108.66    7.40
  -8  13  -4  111.57    7.74
   8  13   5    4.16    2.05
  -8  13  -5   14.73    3.44
   8  13   6    4.51    2.51
   8  14  -6    0.56    2.16
   8  14  -5    5.60    2.09
   8  14  -4   -0.61    2.35
   8  14  -3    2.27    2.37
   8  14  -2   -0.28    2.01
   8  14  -1  116.79    7.35
  -8  14   1  100.56    7.43
   8  14   0    1.50    2.02
  -8  14   0    0.55    2.18
   8  14   1   15.17    3.22
  -8  14  -1   15.32    3.52
   8  14   2   20.37    3.72
   8  14   3   24.08    3.73
   8  14   4   -2.05    2.02
   8  15   0   45.45    4.85
   8  15   1   48.02    5.04
  -9   0  17   20.23    2.86
  -9   0  16   -0.94    1.61
  -9   0  15   84.75    5.24
  -9   0  14    0.43    1.52
  -9   0  13   97.58    5.47
  -9   0  12   -0.13    1.64
  -9   0  11  456.03   13.10
  -9   0  10    0.10    1.40
  -9   0   9    0.84    1.41
  -9   0   8   -0.72    1.34
  -9   0   7    3.48    1.63
   9   0  -7    1.69    1.18
  -9   0   6   -1.80    1.47
  -9   0   5   27.01    3.01
  -9   0   4   -0.02    1.41
  -9   0   3    1.89    1.53
  -9   0   2   -0.10    1.71
  -9   0   1  188.46    8.02
  -9   0   0   -0.87    1.97
   9   0   0    0.46    1.59
   9   0   1  494.22   14.63
   9   0   2   -2.51    1.96
   9   0   3   68.35    5.04
   9   0   4    0.84    1.86
   9   0   5  162.38    8.03
   9   0   6    0.76    1.84
   9   0   7    6.44    2.43
   9   0   8    0.06    1.83
   9   0   9    7.08    2.72
   9   0  10   -2.41    2.38
   9   0  11  125.51    8.18
  -9   1  18    3.12    1.89
  -9   1  17   26.36    3.42
  -9   1  16  128.35    6.90
  -9  -1  16  146.65    6.78
  -9  -1  15   33.33    3.28
  -9   1  15   36.00    3.66
  -9   1  14  107.54    6.09
  -9  -1  14  122.20    6.02
  -9  -1  13   17.95    2.48
  -9   1  13   19.86    2.74
  -9   1  12  155.15    7.18
  -9  -1  12  170.19    7.00
  -9  -1  11    8.66    1.83
  -9   1  11    7.68    1.87
   9   1 -11   10.63    1.87
  -9  -1  10   57.41    3.99
  -9   1  10   66.77    4.56
   9   1 -10   67.57    4.03
  -9  -1   9  128.32    5.87
  -9   1   9  134.64    6.41
   9   1  -9  122.30    5.56
  -9  -1   8  153.06    6.50
  -9   1   8  152.72    6.91
   9   1  -8  150.01    6.22
  -9   1   7   80.14    4.93
  -9  -1   7   86.54    4.83
   9   1  -7   84.04    4.56
  -9   1   6   67.22    4.64
  -9  -1   6   74.30    4.51
   9   1  -6   70.51    4.27
  -9  -1   5   42.87    3.58
  -9   1   5   37.06    3.45
   9   1  -5   38.01    3.14
   9   1  -4  403.77   11.73
  -9  -1   4  403.69   12.01
  -9   1   4  418.18   12.55
  -9   1   3   -1.41    1.68
  -9  -1   3    2.94    1.70
  -9  -1   2   59.99    4.37
  -9   1   2   63.18    4.53
  -9  -1   1    0.26    1.71
  -9   1   1    6.58    1.96
   9  -1   0   61.77    4.51
   9   1   0   62.85    4.70
  -9   1   0   55.41    4.39
   9  -1   1    8.65    2.22
   9   1   1   10.35    2.42
  -9   1  -1    7.03    2.35
   9  -1   2    0.71    1.84
   9   1   2   -0.30    1.79
   9   1   3    4.47    2.15
   9  -1   3    5.41    2.13
   9  -1   4  154.65    7.64
   9   1   4  155.95    7.78
   9   1   5   49.06    4.62
   9  -1   5   54.54    4.60
   9  -1   6   19.83    3.19
   9   1   6   22.29    3.43
   9  -1   7   22.84    3.31
   9   1   7   21.54    3.53
   9  -1   8  238.09   10.42
   9   1   8  248.30   10.86
   9   1   9    5.40    2.23
   9  -1   9    5.51    2.34
   9  -1  10    2.84    2.12
   9   1  10    0.60    2.05
   9  -1  11   -2.44    2.11
   9   1  11   -0.26    1.94
   9  -1  12   53.31    5.37
  -9   2  19   -0.39    2.39
  -9   2  18   -0.68    2.02
  -9   2  17   45.65    4.47
  -9   2  16   10.14    2.55
  -9  -2  15   48.87    3.66
  -9   2  15   47.82    4.40
  -9  -2  14    2.79    1.42
  -9   2  14   -0.19    1.62
  -9   2  13  235.03    9.35
  -9  -2  13  232.12    8.18
  -9  -2  12   35.37    3.05
  -9   2  12   32.25    3.49
  -9  -2  11  211.75    7.61
  -9   2  11  217.26    8.78
   9   2 -11  205.22    7.31
  -9  -2  10   24.08    2.54
   9   2 -10   22.70    2.36
  -9   2  10   25.26    3.16
  -9   2   9  187.51    7.94
  -9  -2   9  186.52    7.04
   9   2  -9  181.67    6.75
  -9   2   8   49.82    4.07
  -9  -2   8   57.89    3.81
   9   2  -8   54.80    3.50
  -9  -2   7  224.52    7.89
  -9   2   7  211.05    8.44
   9   2  -7  202.06    7.30
  -9   2   6   43.80    3.80
  -9  -2   6   47.03    3.55
   9   2  -6   45.81    3.32
  -9   2   5   27.24    3.11
  -9  -2   5   24.93    2.67
   9   2  -5   27.82    2.62
  -9   2   4    0.53    1.53
  -9  -2   4   -0.50    1.35
   9   2  -4   -0.39    1.23
  -9   2   3   15.04    2.62
  -9  -2   3   15.49    2.29
   9   2  -3   18.99    2.25
  -9   2   2    3.64    2.05
  -9   2   1  224.10    9.07
   9  -2   0  159.80    7.29
   9   2   0  158.77    7.66
  -9   2   0  180.89    8.16
   9  -2   1  201.55    8.37
   9   2   1  217.50    9.13
  -9   2  -1  220.69    9.21
   9  -2   2   40.31    3.78
   9   2   2   48.43    4.34
  -9   2  -2   50.74    4.55
   9  -2   3  363.54   11.89
   9   2   3  338.13   12.22
   9  -2   4    5.10    1.90
   9   2   4    5.88    2.13
   9   2   5    0.70    1.94
   9  -2   5   -0.69    1.61
   9  -2   6   11.77    2.61
   9   2   6   13.78    3.09
   9  -2   7   47.89    4.47
   9   2   7   49.30    4.84
   9  -2   8   17.39    3.08
   9   2   8   11.47    2.85
   9   2   9    8.42    2.69
   9  -2   9    5.59    2.32
   9  -2  10   15.92    3.20
   9   2  10   12.46    3.14
   9  -2  11   38.77    4.60
   9   2  11   37.42    4.66
   9  -2  12    2.44    2.23
  -9   3  19    4.79    2.25
  -9   3  18   17.43    3.24
  -9   3  17   51.06    4.91
  -9   3  16   59.54    5.07
  -9   3  15    0.91    1.87
  -9  -3  14   23.50    2.47
  -9   3  14   14.81    2.87
  -9  -3  13    2.73    1.31
  -9   3  13    5.65    2.10
  -9   3  12  107.45    6.25
  -9  -3  12  114.32    5.17
  -9  -3  11  147.09    5.93
  -9   3  11  149.78    7.43
  -9  -3  10    2.32    1.27
  -9   3  10   -0.63    1.74
   9   3 -10    2.93    1.24
  -9   3   9   59.93    4.57
  -9  -3   9   62.16    3.76
   9   3  -9   62.98    3.59
  -9  -3   8  110.15    5.12
  -9   3   8  108.02    6.17
   9   3  -8  110.84    4.91
  -9  -3   7   15.22    2.08
  -9   3   7   18.76    2.78
   9   3  -7   13.93    1.90
  -9   3   6   16.10    2.63
  -9  -3   6   11.96    1.96
   9   3  -6   13.71    1.91
  -9   3   5   46.75    4.08
  -9  -3   5   46.89    3.47
   9   3  -5   40.38    3.05
  -9   3   4  483.53   14.36
  -9  -3   4  477.71   13.05
   9   3  -4  477.14   12.68
   9   3  -3   48.91    3.45
  -9   3   3   48.40    4.20
   9   3  -2  118.27    5.72
  -9   3   2  120.26    6.62
  -9   3   1   15.43    2.68
   9  -3   0  195.10    7.97
   9   3   0  206.04    8.86
  -9   3   0  199.34    8.76
   9   3   1   10.28    2.38
   9  -3   1   17.34    2.62
  -9   3  -1   20.48    3.13
   9  -3   2   65.92    4.62
   9   3   2   64.15    5.10
  -9   3  -2   70.20    5.31
   9  -3   3  122.96    6.37
   9   3   3  131.07    7.23
  -9   3  -3  127.90    7.23
   9   3   4   15.49    2.90
   9  -3   4    9.21    2.27
   9   3   5   -1.02    2.08
   9  -3   5    1.88    1.79
   9  -3   6    1.42    1.64
   9   3   6   -1.61    2.09
   9  -3   7    4.49    1.97
   9   3   7    8.50    2.51
   9  -3   8  200.09    9.34
   9   3   8  212.44   10.16
   9   3   9    4.69    2.56
   9  -3   9   -0.31    1.81
   9  -3  10   23.50    3.43
   9   3  10   23.60    3.62
   9  -3  11   26.38    3.74
   9  -3  12   54.84    5.38
  -9   4  19    5.64    2.27
  -9   4  18    2.71    2.15
  -9   4  17   41.60    4.50
  -9   4  16    9.88    2.59
  -9   4  15   89.78    6.36
  -9   4  14   58.22    5.03
  -9   4  13  108.00    6.56
  -9  -4  12    3.63    1.15
  -9   4  12   -2.75    1.94
  -9  -4  11  179.90    6.25
  -9   4  11  165.54    8.03
  -9  -4  10   32.99    2.63
  -9   4  10   31.98    3.58
   9   4 -10   32.78    2.47
  -9   4   9  193.74    8.62
  -9  -4   9  199.20    6.75
   9   4  -9  182.83    6.22
  -9  -4   8   92.49    4.50
  -9   4   8   98.60    5.93
   9   4  -8  100.05    4.40
  -9  -4   7   -0.50    1.17
  -9   4   7    0.27    1.65
   9   4  -7    3.98    1.22
  -9   4   6  120.43    6.56
   9   4  -6  119.44    5.09
  -9   4   5   42.03    4.02
   9   4  -5   42.71    3.05
  -9   4   4   24.68    3.31
   9   4  -4   25.19    2.49
   9   4  -3   66.35    4.01
  -9   4   3   71.69    5.10
   9   4  -2    6.05    1.59
  -9   4   2    0.76    1.74
   9  -4  -1  108.84    5.70
  -9   4   1  103.31    6.26
   9  -4   0   84.92    5.10
   9   4   0   88.79    5.84
  -9   4   0   87.73    5.88
   9   4   1  211.40    9.26
   9  -4   1  205.32    8.27
  -9   4  -1  226.96    9.62
   9  -4   2  122.00    6.31
   9   4   2  129.54    7.21
  -9   4  -2  137.04    7.53
   9  -4   3   91.25    5.42
   9   4   3   85.32    5.96
  -9   4  -3   88.61    6.15
   9   4   4   29.53    3.87
   9  -4   4   24.29    2.98
   9   4   5  205.08    9.57
   9  -4   5  196.45    8.52
   9  -4   6   13.74    2.53
   9   4   6   12.11    2.84
   9  -4   7   42.31    4.16
   9   4   7   53.51    5.05
   9   4   8   -2.08    2.44
   9  -4   8   -1.85    2.07
   9   4   9   38.02    4.61
   9  -4   9   36.84    4.09
   9  -4  10   25.95    3.78
   9   4  10   27.10    3.98
   9  -4  11   50.40    4.95
   9  -4  12   31.66    4.15
  -9   5  18   -0.65    2.09
  -9   5  17  101.55    7.04
  -9   5  16  115.54    7.31
  -9   5  15    6.79    2.48
  -9   5  14   -2.25    2.35
  -9   5  13    8.98    2.42
  -9   5  12  163.09    8.29
  -9  -5  11    9.38    1.36
  -9   5  11    8.15    2.39
  -9  -5  10   18.60    1.88
  -9   5  10   16.63    2.92
  -9  -5   9   12.38    1.63
  -9   5   9   13.16    2.69
  -9   5   8  282.06   10.81
   9   5  -8  282.47    7.86
  -9   5   7  148.55    7.63
   9   5  -7  148.36    5.42
  -9   5   6   75.32    5.35
   9   5  -6   73.76    3.81
  -9   5   5   89.04    5.78
   9   5  -5   83.19    4.18
  -9   5   4   30.15    3.57
   9   5  -4   26.95    2.51
   9   5  -3    8.55    1.70
  -9   5   3    8.26    2.24
   9   5  -2    6.53    1.54
  -9   5   2    2.14    1.83
   9   5  -1  135.29    6.25
  -9   5   1  148.40    7.59
   9  -5  -1  139.21    6.37
  -9   5   0  435.93   14.21
   9  -5   0  401.58   12.21
   9   5   0  454.69   14.40
  -9   5  -1  109.84    6.73
   9   5   1  111.07    6.67
   9  -5   1  108.16    5.69
  -9   5  -2  107.84    6.89
   9  -5   2  116.70    5.88
   9   5   2  116.15    6.96
  -9   5  -3    9.62    2.74
   9   5   3   11.04    2.57
   9  -5   3   15.15    2.51
  -9   5  -4  370.60   13.53
   9   5   4  356.29   13.17
   9  -5   4  345.88   11.50
   9   5   5  129.38    7.68
   9  -5   5  133.52    6.75
   9  -5   6   18.18    2.78
   9   5   6   13.73    3.20
   9   5   7   -0.66    2.12
   9  -5   7    4.32    2.08
   9   5   8  167.43    9.17
   9  -5   8  167.64    8.11
   9   5   9   35.80    4.58
   9  -5   9   37.66    4.10
   9  -5  10    7.72    2.46
   9  -5  11   41.74    4.52
   9  -5  12   52.82    5.11
   9  -5  13    3.90    2.40
  -9   6  17   12.96    3.06
  -9   6  16    0.59    2.01
  -9   6  15   19.25    3.26
  -9   6  14   71.52    5.83
  -9   6  13   34.69    4.16
  -9   6  12    0.35    1.91
  -9   6  11   30.78    3.85
  -9   6  10  114.19    6.99
  -9   6   9  164.58    8.32
  -9   6   8   15.57    2.80
  -9   6   7   14.94    2.89
   9   6  -7   18.31    1.80
  -9   6   6    9.03    2.55
   9   6  -6    5.76    1.20
  -9   6   5   15.63    2.88
   9   6  -5   15.48    1.87
  -9   6   4   17.82    3.10
   9   6  -4   14.52    1.93
  -9   6   3   94.25    6.16
   9   6  -3   94.88    4.72
   9   6  -2   20.00    2.35
  -9   6   2   17.28    3.00
   9   6  -1   20.65    2.55
  -9   6   1   15.16    2.95
   9  -6  -1   20.53    2.56
   9   6  -1   16.10    2.97
  -9   6   0   95.62    6.36
   9   6   0   98.59    6.30
   9  -6   0  101.47    5.29
  -9   6  -1    3.60    2.07
   9  -6   1   -1.07    1.37
   9   6   1    1.01    1.91
  -9   6  -2  111.22    7.00
   9  -6   2  104.38    5.51
   9   6   2  112.61    6.95
  -9   6  -3  104.22    6.96
   9   6   3   97.19    6.54
   9  -6   3   92.24    5.22
  -9   6  -4    4.68    2.67
   9   6   4    7.07    2.61
   9  -6   4    1.87    1.50
   9  -6   5   10.74    2.19
   9   6   5   10.18    2.74
   9   6   6   20.05    3.46
   9  -6   6   21.17    2.82
   9   6   7   53.03    5.26
   9  -6   7   57.66    4.57
   9   6   8   15.95    3.18
   9  -6   8   15.67    2.67
   9   6   9   30.70    4.18
   9  -6   9   20.02    3.12
   9  -6  10   20.33    3.35
   9  -6  11    2.73    2.35
   9  -6  12   29.23    3.92
  -9   7  16   42.21    4.91
  -9   7  15   42.37    4.81
  -9   7  14   11.22    2.67
  -9   7  13   25.27    3.83
  -9   7  12  153.26    8.46
  -9   7  11    1.25    2.02
  -9   7  10   53.49    4.95
  -9   7   9   35.04    4.16
  -9   7   8   77.61    5.82
  -9   7   7  182.10    8.84
  -9   7   6    5.64    2.21
  -9   7   5   35.61    4.00
   9   7  -5   39.48    2.67
  -9   7   4  125.29    7.17
   9   7  -4  113.00    4.89
   9   7  -3    6.55    1.68
  -9   7   3    4.64    2.27
   9   7  -2   12.52    1.98
  -9   7   2   16.69    3.08
   9  -7  -2   11.79    1.85
   9   7  -1   89.58    5.02
  -9   7   1   98.77    6.46
   9  -7  -1   97.42    5.04
   9   7  -1   93.73    6.34
  -9   7   0  288.94   11.56
   9   7   0  300.48   11.60
   9  -7   0  288.27    9.43
  -9   7  -1    9.25    2.75
   9  -7   1   11.38    1.91
   9   7   1   10.98    2.55
  -9   7  -2    0.29    2.18
   9   7   2    0.84    1.91
   9  -7   2    2.10    1.26
  -9   7  -3    1.35    2.01
   9  -7   3    1.95    1.36
   9   7   3    3.19    2.21
  -9   7  -4   46.05    4.76
   9   7   4   47.25    4.65
   9  -7   4   46.23    3.72
  -9   7  -5  125.02    7.87
   9   7   5  113.52    7.36
   9  -7   5  119.93    6.09
   9   7   6    9.16    2.63
   9  -7   6    7.40    1.91
   9   7   7    6.35    2.64
   9  -7   7    9.40    2.19
   9   7   8   35.55    4.43
   9  -7   8   29.60    3.51
   9  -7   9   -0.22    1.84
   9  -7  10   21.38    3.29
  -9   8  14   59.32    5.66
  -9   8  13    5.31    2.42
  -9   8  12   -1.45    2.26
  -9   8  11   87.28    6.44
  -9   8  10   59.41    5.35
  -9   8   9   93.21    6.62
  -9   8   8    7.63    2.56
  -9   8   7   57.02    5.19
  -9   8   6    0.44    1.94
  -9   8   5    7.12    2.62
  -9   8   4   21.93    3.29
  -9   8   3  121.30    7.34
   9  -8  -3  117.34    5.46
  -9   8   2  100.45    6.69
   9  -8  -2   85.64    4.57
   9   8  -2   91.47    6.27
  -9   8   1   88.27    6.27
   9   8  -1   83.51    5.93
   9  -8  -1   87.96    4.61
  -9   8   0   60.31    5.31
   9   8   0   67.12    5.42
   9  -8   0   63.02    3.86
  -9   8  -1   17.16    3.32
   9   8   1   19.61    3.37
   9  -8   1   16.18    2.12
  -9   8  -2  116.92    7.39
   9   8   2  115.88    7.18
   9  -8   2  105.80    5.27
  -9   8  -3   68.11    5.85
   9   8   3   59.27    5.22
   9  -8   3   57.55    3.89
  -9   8  -4    0.48    2.20
   9   8   4    3.72    2.49
   9  -8   4   -0.54    1.19
  -9   8  -5    0.90    2.10
   9  -8   5    0.79    1.29
   9   8   5    4.93    2.69
   9   8   6   97.16    6.94
   9  -8   6   89.17    5.21
   9   8   7   41.28    4.73
   9   8   8   -2.42    2.79
  -9   9  13   20.28    3.73
  -9   9  12   28.02    4.02
  -9   9  11   27.49    4.09
  -9   9  10   18.26    3.42
  -9   9   9    3.67    2.24
  -9   9   8   61.06    5.51
  -9   9   7  212.49   10.18
  -9   9   6    0.50    2.01
  -9   9   5   81.39    6.17
  -9   9   4    0.19    1.97
   9  -9  -3    6.64    1.43
  -9   9   3    5.98    2.49
   9  -9  -2   49.29    3.30
   9   9  -2   55.91    5.08
  -9   9   2   49.41    4.97
   9  -9  -1   64.42    3.71
   9   9  -1   60.18    5.17
  -9   9   1   74.34    6.06
   9   9   0   31.35    4.06
   9  -9   0   28.09    2.50
  -9   9   0   33.97    4.18
   9   9   1    7.03    2.47
  -9   9  -1    9.48    2.74
   9   9   2    4.24    2.46
  -9   9  -2    7.12    2.58
   9   9   3   25.79    3.79
  -9   9  -3   26.22    3.73
   9   9   4   27.79    3.92
  -9   9  -4   23.89    3.98
   9   9   5   46.54    4.96
  -9   9  -5   42.70    4.97
   9   9   6    6.36    2.70
   9   9   7   83.82    6.79
  -9  10  11    4.06    2.42
  -9  10  10  205.51   10.37
  -9  10   9   66.28    5.90
  -9  10   8   14.00    3.26
  -9  10   7    8.87    2.71
  -9  10   6   23.50    3.76
  -9  10   5    1.45    2.13
  -9  10   4   29.37    4.14
   9  10  -3  137.82    7.98
  -9  10   3  141.64    8.38
   9  10  -2  116.41    7.42
  -9  10   2  124.50    7.84
   9  10  -1   -0.56    2.06
  -9  10   1    0.32    2.16
   9  10   0   49.40    5.03
  -9  10   0   59.84    5.56
   9  10   1   14.94    3.16
  -9  10  -1   17.15    3.36
   9  10   2   67.40    5.65
  -9  10  -2   71.37    6.06
   9  10   3   39.73    4.71
  -9  10  -3   42.85    4.90
   9  10   4    3.71    2.25
  -9  10  -4    6.61    3.13
   9  10   5   11.09    2.84
  -9  10  -5    9.04    2.72
   9  10   6  159.86    9.26
  -9  10  -6  142.13    8.96
  -9  11   9  102.90    7.42
  -9  11   8   72.12    6.37
  -9  11   7   66.71    5.97
  -9  11   6    2.43    2.16
  -9  11   5   23.05    3.90
  -9  11   4   32.27    4.32
   9  11  -3  117.97    7.46
  -9  11   3  103.18    7.24
   9  11  -2   27.62    3.77
  -9  11   2   36.18    4.55
   9  11  -1   78.59    6.28
  -9  11   1   79.93    6.46
   9  11   0   31.04    4.03
  -9  11   0   38.69    4.58
   9  11   1  141.71    8.35
  -9  11  -1  132.38    8.37
   9  11   2    4.79    2.46
  -9  11  -2   10.77    3.27
   9  11   3   53.11    5.38
  -9  11  -3   56.75    5.60
   9  11   4  114.79    7.64
  -9  11  -4  116.12    8.17
   9  11   5   39.07    4.85
  -9  11  -5   28.45    4.40
  -9  12   6   75.95    6.51
  -9  12   5    8.65    3.07
   9  12  -4    5.44    2.83
  -9  12   4    2.46    2.55
   9  12  -3   53.17    5.17
  -9  12   3   58.86    5.70
   9  12  -2  102.83    7.10
  -9  12   2  100.06    7.39
   9  12  -1   35.86    4.41
  -9  12   1   37.97    4.68
   9  12   0   11.97    2.94
  -9  12   0    9.88    2.90
   9  12   1    8.05    2.52
  -9  12  -1   22.10    3.80
   9  12   2   58.40    5.70
  -9  12  -2   53.29    5.65
   9  12   3   23.59    3.93
   9  12   4   17.36    3.58
   9  13  -5   13.25    3.13
   9  13  -4    9.08    2.51
   9  13  -3   23.19    3.70
   9  13  -2   19.31    3.22
   9  13  -1   18.06    3.30
   9  13   0    6.57    2.98
   9  13   1   35.25    4.83
   9  13   2   -2.18    2.54
   9  14  -6   80.85    6.47
   9  14  -5   -2.63    2.59
   9  14  -4    3.11    2.79
   9  14  -3  104.69    7.32
   9  14  -2   35.09    4.62
   9  14  -1    1.70    1.95
   9  14   0    1.08    2.01
   9  14   1   12.35    3.06
 -10   0  16   61.49    4.72
 -10   0  15   -0.01    1.64
 -10   0  14   71.85    4.96
 -10   0  13    2.17    1.68
 -10   0  12    6.58    2.03
 -10   0  11    0.69    1.48
 -10   0  10  388.65   12.25
 -10   0   9    1.20    1.57
 -10   0   8   11.00    2.09
 -10   0   7   -1.57    1.65
 -10   0   6  383.83   12.26
 -10   0   5    1.53    1.67
 -10   0   4    7.75    2.14
 -10   0   3   -1.13    1.71
 -10   0   2   40.93    4.02
  10   0  -1   -1.91    1.88
 -10   0   1   -4.50    2.48
  10   0   0   26.53    3.43
  10   0   1    0.63    1.82
  10   0   2  314.69   11.73
  10   0   3    1.67    2.00
  10   0   4   94.81    6.41
  10   0   5   -1.23    2.07
  10   0   6   49.02    4.88
  10   0   7    3.28    2.09
  10   0   8    6.54    2.66
  10   0   9   -4.82    2.83
  10   0  10  111.90    7.78
 -10   1  17    1.70    2.13
 -10   1  16   16.73    2.95
 -10   1  15  121.88    6.80
 -10  -1  15  126.35    6.48
 -10  -1  14   17.60    2.62
 -10   1  14   18.14    3.00
 -10   1  13   52.56    4.46
 -10  -1  13   51.28    4.04
 -10   1  12   -0.33    1.64
 -10  -1  12    0.27    1.38
 -10  -1  11  201.26    8.10
 -10   1  11  207.83    8.64
 -10  -1  10   14.68    2.46
 -10   1  10   15.33    2.57
 -10   1   9  396.34   12.72
 -10  -1   9  389.74   12.03
 -10   1   8   19.95    2.90
 -10  -1   8   19.07    2.52
 -10  -1   7   -0.24    1.54
 -10   1   7    1.72    1.66
 -10  -1   6    1.08    1.47
 -10   1   6    1.93    1.85
 -10  -1   5   -0.59    1.67
 -10   1   5   -1.08    1.75
 -10   1   4    7.24    2.10
 -10  -1   4    4.25    1.83
 -10  -1   3  257.50    9.74
 -10   1   3  254.82    9.99
 -10  -1   2    3.90    1.81
 -10   1   2    8.45    2.44
  10   1  -1   -1.65    2.00
  10  -1  -1    0.40    1.79
 -10   1   1    0.93    1.84
  10  -1   0    9.49    2.23
  10   1   0    8.83    2.41
 -10   1   0    9.34    2.39
  10  -1   1  117.79    6.65
  10   1   1  103.26    6.45
  10  -1   2   -1.89    1.85
  10   1   2   -2.58    2.07
  10  -1   3   86.16    5.90
  10   1   3   84.77    6.05
  10  -1   4    7.84    2.56
  10   1   4    6.80    2.57
  10  -1   5   -2.39    2.20
  10   1   5    0.27    2.04
  10  -1   6   14.53    2.91
  10   1   6   13.84    2.83
  10  -1   7   24.46    3.57
  10   1   7   27.27    3.83
  10  -1   8   25.65    3.78
  10   1   8   21.36    3.87
  10  -1   9  130.22    8.10
  10   1   9  141.20    8.51
  10  -1  10   -1.12    1.98
 -10   2  18   89.83    6.46
 -10   2  17   -1.85    2.09
 -10   2  16   17.75    3.09
 -10   2  15    8.36    2.52
 -10  -2  14   35.46    3.31
 -10   2  14   31.78    3.78
 -10  -2  13   -1.55    1.54
 -10   2  13    2.01    1.76
 -10  -2  12   41.24    3.45
 -10   2  12   50.52    4.48
 -10   2  11   -0.51    1.64
 -10  -2  11   -2.01    1.47
 -10   2  10  151.76    7.56
 -10  -2  10  148.82    6.59
 -10   2   9   52.97    4.50
 -10  -2   9   50.87    3.82
  10   2  -9   55.96    3.86
 -10   2   8  137.52    7.07
 -10  -2   8  131.59    6.27
 -10  -2   7   19.75    2.60
 -10   2   7   24.16    3.21
 -10  -2   6  481.85   13.73
 -10   2   6  466.08   14.47
 -10   2   5   23.78    3.24
 -10  -2   5   24.48    2.97
 -10   2   4   16.25    2.78
 -10  -2   4   14.00    2.38
 -10   2   3   11.31    2.81
 -10  -2   3    8.52    2.14
 -10   2   2    8.31    2.37
 -10   2   1   -1.38    2.08
  10  -2  -1    1.43    1.88
  10   2  -1   -2.30    2.15
 -10   2   0    1.54    2.02
  10  -2   0    5.10    2.10
  10   2   0    3.14    1.71
 -10   2  -1    1.84    2.07
  10   2   1    3.94    2.30
  10  -2   1   -1.21    1.79
  10  -2   2  204.56    9.03
  10   2   2  206.04    9.57
  10  -2   3   10.94    2.45
  10   2   3   14.70    3.18
  10  -2   4   35.47    3.93
  10   2   4   42.89    4.67
  10  -2   5   -1.58    2.03
  10   2   5    2.91    2.32
  10  -2   6  151.51    8.15
  10   2   6  148.36    8.48
  10  -2   7   29.16    3.91
  10   2   7   30.30    4.35
  10  -2   8    9.39    2.51
  10   2   8   14.79    3.20
  10   2   9   29.80    4.25
  10  -2   9   31.20    4.16
  10  -2  10  108.17    7.32
 -10   3  19   15.85    3.34
 -10   3  18    2.09    2.06
 -10   3  17   44.70    4.65
 -10   3  16   -1.26    1.98
 -10   3  15   48.33    4.76
 -10   3  14    5.22    2.22
 -10   3  13   41.16    4.18
 -10  -3  12   53.84    3.73
 -10   3  12   46.80    4.41
 -10   3  11  116.24    6.88
 -10  -3  11  123.88    5.70
 -10   3  10    2.35    1.95
 -10  -3  10    3.83    1.55
 -10  -3   9  125.28    5.78
 -10   3   9  118.69    6.74
  10   3  -9  108.50    5.28
 -10   3   8  202.13    8.93
 -10  -3   8  200.51    7.67
  10   3  -8  194.99    7.26
 -10   3   7   81.28    5.58
 -10  -3   7   72.91    4.53
  10   3  -7   75.19    4.36
 -10   3   6  160.10    7.91
 -10  -3   6  160.37    6.90
  10   3  -6  153.87    6.48
 -10  -3   5    0.58    1.49
 -10   3   5    3.15    2.18
 -10   3   4    2.69    2.03
 -10   3   3  123.75    6.99
 -10   3   2   39.80    4.10
  10   3  -1    8.00    2.42
  10  -3  -1    3.31    1.81
 -10   3   1    8.98    2.32
  10  -3   0   18.16    2.79
  10   3   0   17.92    3.11
 -10   3   0   19.43    3.27
  10   3   1  107.64    6.84
  10  -3   1  106.23    6.29
 -10   3  -1  110.89    6.90
  10   3   2   53.74    5.04
  10  -3   2   45.65    4.34
 -10   3  -2   57.68    5.11
  10  -3   3  121.37    6.79
  10   3   3  125.33    7.48
  10  -3   4   68.15    5.19
  10   3   4   78.33    6.06
  10   3   5  304.75   12.33
  10  -3   5  283.49   11.17
  10  -3   6    5.10    2.55
  10   3   6    1.96    2.20
  10  -3   7   28.10    3.77
  10   3   7   22.27    3.64
  10   3   8   -1.28    2.09
  10  -3   8    2.45    1.95
  10  -3   9   20.76    3.64
  10  -3  10    1.68    1.98
  10  -3  11   -1.85    2.37
 -10   4  18   52.48    5.30
 -10   4  17   -2.77    2.18
 -10   4  16    3.46    2.06
 -10   4  15   16.93    3.31
 -10   4  14   26.94    3.77
 -10   4  13    2.71    2.22
 -10   4  12   -2.78    1.87
 -10  -4  11    2.57    1.29
 -10   4  11    2.33    1.99
 -10  -4  10  168.21    6.57
 -10   4  10  174.97    8.56
 -10   4   9    1.46    1.80
 -10  -4   9    4.16    1.53
 -10  -4   8  123.39    5.63
 -10   4   8  117.19    6.88
  10   4  -8  111.74    5.13
 -10  -4   7  133.74    5.98
 -10   4   7  135.87    7.37
  10   4  -7  130.95    5.69
 -10   4   6  177.25    8.51
  10   4  -6  169.16    6.67
 -10   4   5   70.51    5.40
  10   4  -5   69.45    4.24
 -10   4   4    9.72    2.89
 -10   4   3   24.28    3.50
 -10   4   2  115.29    6.93
  10  -4  -1   36.45    3.68
  10   4  -1   37.48    4.16
 -10   4   1   39.98    4.30
  10   4   0   30.17    3.74
  10  -4   0   30.68    3.33
 -10   4   0   26.96    3.63
  10  -4   1    3.51    1.73
  10   4   1    6.25    2.41
 -10   4  -1    2.33    2.04
  10  -4   2  220.81    9.17
  10   4   2  246.76   10.83
 -10   4  -2  238.95   10.65
  10  -4   3  120.14    6.66
  10   4   3  122.70    7.51
 -10   4  -3  120.46    7.64
  10   4   4   46.94    5.03
  10  -4   4   49.08    4.34
  10   4   5    0.99    2.03
  10  -4   5    2.49    1.81
  10  -4   6   84.07    5.85
  10   4   6   91.23    6.77
  10  -4   7   14.46    2.96
  10   4   7   13.48    3.24
  10   4   8    1.10    2.34
  10  -4   8   -0.41    1.84
  10  -4   9   25.09    3.60
  10  -4  10   52.85    5.04
  10  -4  11    5.84    2.73
 -10   5  17   20.99    3.65
 -10   5  16   66.64    5.88
 -10   5  15   69.25    5.93
 -10   5  14   26.00    3.69
 -10   5  13   35.78    4.26
 -10   5  12   76.73    5.91
 -10   5  11  106.79    6.83
 -10   5  10   27.03    3.56
 -10   5   9    0.22    2.01
 -10   5   8    2.62    2.20
 -10   5   7  242.26   10.41
 -10   5   6   43.32    4.32
  10   5  -6   35.14    2.84
  10   5  -5  201.49    7.37
 -10   5   5  205.82    9.50
 -10   5   4    7.38    2.53
  10   5  -4    4.05    1.38
 -10   5   3   76.54    5.82
  10  -5  -2   35.55    3.52
 -10   5   2   40.97    4.33
  10  -5  -1   -1.17    1.40
  10   5  -1   -0.95    2.30
 -10   5   1    2.22    2.28
  10   5   0  184.70    9.09
  10  -5   0  183.62    8.01
 -10   5   0  177.23    8.99
  10   5   1  101.86    6.82
  10  -5   1  107.59    6.00
 -10   5  -1   98.80    6.88
  10  -5   2    3.73    1.87
  10   5   2    4.19    2.30
 -10   5  -2    5.39    2.57
  10   5   3   13.07    3.14
  10  -5   3    4.79    1.91
 -10   5  -3    4.03    2.46
  10   5   4   21.15    3.84
  10  -5   4   18.18    3.04
  10   5   5   88.37    6.62
  10  -5   5  100.92    6.16
  10  -5   6    2.59    1.84
  10   5   6    0.64    2.20
  10   5   7   45.85    5.05
  10  -5   7   37.87    4.01
  10  -5   8    0.28    1.93
  10  -5   9   21.89    3.41
  10  -5  10    7.86    2.69
  10  -5  11    5.89    2.64
 -10   6  16    5.91    2.76
 -10   6  15   69.89    5.99
 -10   6  14   64.95    5.81
 -10   6  13   -3.92    2.48
 -10   6  12    3.85    2.45
 -10   6  11    8.06    2.73
 -10   6  10   94.33    6.58
 -10   6   9   93.52    6.52
 -10   6   8   12.50    2.80
 -10   6   7    0.86    1.97
 -10   6   6   19.35    3.31
 -10   6   5   15.21    3.24
 -10   6   4    3.33    2.33
 -10   6   3  127.89    7.63
  10  -6  -2   97.92    5.54
 -10   6   2   96.28    6.60
  10  -6  -1    1.80    1.51
  10   6  -1    0.83    1.94
 -10   6   1   -1.54    2.50
  10   6   0   46.25    4.79
  10  -6   0   41.79    3.77
 -10   6   0   47.87    4.89
  10  -6   1    7.69    1.99
  10   6   1    8.39    2.70
 -10   6  -1    7.02    2.58
  10  -6   2   42.83    3.94
  10   6   2   46.80    4.95
 -10   6  -2   45.56    5.06
  10  -6   3   20.79    2.86
  10   6   3   19.18    3.45
 -10   6  -3   22.38    3.90
  10   6   4   35.34    4.48
  10  -6   4   27.25    3.36
 -10   6  -4   31.10    4.19
  10  -6   5   -2.46    1.84
  10   6   5    2.62    2.16
  10   6   6   20.55    3.78
  10  -6   6   18.94    2.96
  10   6   7   49.74    5.35
  10  -6   7   47.87    4.36
  10  -6   8    4.85    2.14
  10  -6   9    3.38    1.98
  10  -6  10   10.30    2.74
 -10   7  14    2.66    2.22
 -10   7  13   19.84    3.54
 -10   7  12   71.61    6.04
 -10   7  11    5.23    2.31
 -10   7  10   12.44    2.79
 -10   7   9   49.50    5.10
 -10   7   8   52.60    5.03
 -10   7   7  120.27    7.52
 -10   7   6    3.70    2.46
 -10   7   5   15.42    3.19
 -10   7   4    2.37    2.51
  10  -7  -3   48.88    3.83
 -10   7   3   47.59    4.94
  10   7  -2   36.67    4.29
  10  -7  -2   30.48    3.09
 -10   7   2   19.58    3.39
  10  -7  -1    8.50    1.82
  10   7  -1   13.79    3.01
 -10   7   1   16.40    3.33
  10   7   0  102.66    6.96
  10  -7   0   94.79    5.44
 -10   7   0  102.46    7.12
  10  -7   1   43.13    3.71
  10   7   1   59.22    5.45
 -10   7  -1   52.02    5.12
  10   7   2    1.08    2.13
  10  -7   2    3.50    1.57
 -10   7  -2    1.16    2.19
  10  -7   3   24.00    3.09
  10   7   3   14.82    3.02
 -10   7  -3   17.17    3.45
  10   7   4   95.83    7.00
  10  -7   4   99.14    5.73
 -10   7  -4  101.07    7.38
  10   7   5  124.09    8.06
  10  -7   5  119.70    6.50
  10   7   6    0.52    2.18
  10  -7   6   -0.35    1.51
  10  -7   7    3.16    1.96
 -10   8  12   13.92    3.25
 -10   8  11    4.64    2.52
 -10   8  10  108.11    7.35
 -10   8   9  105.25    7.22
 -10   8   8    5.57    2.33
 -10   8   7    8.04    2.60
 -10   8   6   20.11    3.52
 -10   8   5   47.21    4.94
 -10   8   4    7.48    2.91
  10  -8  -3  101.80    5.42
 -10   8   3  110.43    7.49
  10   8  -2   40.43    4.54
  10  -8  -2   41.49    3.39
 -10   8   2   41.98    4.60
  10  -8  -1    4.58    1.61
  10   8  -1    9.23    2.87
 -10   8   1   11.87    3.10
  10  -8   0    6.24    1.59
  10   8   0    7.46    2.51
 -10   8   0   11.85    3.06
  10   8   1    1.83    2.13
  10  -8   1    2.46    1.53
 -10   8  -1   -2.16    2.42
  10   8   2   82.60    6.57
  10  -8   2   91.52    5.18
 -10   8  -2   94.32    6.97
  10   8   3   -3.68    2.10
 -10   8  -3    4.11    2.63
  10   8   4    3.51    2.38
 -10   8  -4    5.13    2.51
  10   8   5    2.55    2.04
 -10   8  -5    2.62    2.55
 -10   9  11    8.39    2.86
 -10   9  10    8.53    2.73
 -10   9   9    4.37    2.71
 -10   9   8   56.35    5.54
 -10   9   7   88.61    6.82
 -10   9   6   49.14    5.09
 -10   9   5   41.13    4.64
 -10   9   4   16.51    3.47
  10   9  -3    0.48    2.33
 -10   9   3    2.26    2.17
  10   9  -2   18.80    3.42
 -10   9   2   25.36    4.08
  10   9  -1    0.13    2.05
 -10   9   1    6.16    2.65
  10   9   0   64.13    5.85
 -10   9   0   59.91    5.67
  10   9   1    3.24    2.45
 -10   9  -1   -2.73    2.58
  10   9   2    3.62    2.38
 -10   9  -2   -2.29    2.62
  10   9   3    3.75    2.48
 -10   9  -3    6.66    2.68
  10   9   4   77.36    6.47
 -10   9  -4   82.46    6.84
 -10  10   8   -4.79    2.67
 -10  10   7   36.37    4.57
 -10  10   6    7.67    2.68
 -10  10   5  115.43    7.94
 -10  10   4   63.93    5.83
  10  10  -3   29.48    3.95
 -10  10   3   31.74    4.48
  10  10  -2    3.74    2.41
 -10  10   2    7.28    3.03
  10  10  -1   33.92    4.38
 -10  10   1   29.63    4.37
  10  10   0    0.83    2.04
 -10  10   0   -1.44    2.39
  10  10   1   14.91    3.26
 -10  10  -1   14.98    3.21
  10  10   2   23.57    3.80
 -10  10  -2   13.16    3.25
  10  10   3   13.91    3.28
  10  11  -4   35.00    4.58
  10  11  -3   -2.07    2.25
  10  11  -2   15.27    3.14
  10  11  -1   52.16    5.34
  10  11   0   48.19    5.21
  10  11   1    6.42    2.60
  10  12  -5   75.47    6.33
  10  12  -4   -0.35    2.03
  10  12  -3    0.45    2.09
  10  12  -2    5.00    2.62
  10  12  -1  104.24    7.58
 -11   0  15   14.27    2.78
 -11   0  14    0.28    1.98
 -11   0  13  226.38    9.43
 -11   0  12   -1.50    1.62
 -11   0  11  266.15   10.28
 -11   0  10   -1.37    1.63
 -11   0   9   99.03    6.04
 -11   0   8    0.23    1.74
 -11   0   7   22.49    3.09
 -11   0   6   -2.29    2.03
 -11   0   5   99.42    6.16
 -11   0   4    1.47    2.16
 -11   0   3   86.64    5.95
 -11   0   2    0.33    1.88
  11   0  -1   90.11    6.26
  11   0   0    0.32    1.94
  11   0   1   40.58    4.35
  11   0   2   -1.33    1.86
  11   0   3   48.12    4.80
  11   0   4   -3.62    2.56
  11   0   5  154.76    8.67
  11   0   6   -0.09    2.01
  11   0   7  252.46   11.63
  11   0   8   -1.27    2.26
 -11   1  16   50.07    4.72
 -11   1  15   11.49    2.68
 -11  -1  14    2.50    1.57
 -11   1  14   -0.53    1.71
 -11   1  13    3.19    1.80
 -11  -1  13    4.07    1.90
 -11   1  12   26.33    3.70
 -11  -1  12   25.62    3.25
 -11   1  11    6.53    2.24
 -11  -1  11    3.91    1.74
 -11   1  10    7.32    2.18
 -11  -1  10    5.88    1.92
 -11  -1   9    1.32    1.55
 -11   1   9    2.02    1.94
 -11  -1   8  188.35    8.24
 -11   1   8  181.30    8.50
 -11  -1   7    4.46    2.00
 -11   1   7    0.74    1.83
 -11   1   6   18.23    2.95
 -11  -1   6   12.30    2.46
 -11   1   5    4.03    2.26
 -11  -1   5   -1.62    1.77
 -11  -1   4  221.61    9.33
 -11   1   4  214.35    9.56
 -11  -1   3    4.66    2.02
 -11   1   3    5.94    2.18
 -11   1   2   -1.12    2.15
  11  -1  -1    3.25    2.00
  11   1  -1    8.49    2.54
 -11   1   1    3.04    1.98
  11  -1   0    1.53    1.84
  11   1   0    7.94    2.89
  11  -1   1    0.09    1.88
  11   1   1    1.68    2.14
  11  -1   2    3.02    2.42
  11   1   2    0.09    2.04
  11  -1   3    1.72    2.11
  11   1   3    3.21    2.08
  11  -1   4   71.71    5.83
  11   1   4   71.54    5.94
  11  -1   5   44.90    4.70
  11   1   5   53.25    5.17
  11  -1   6   16.49    3.22
  11   1   6   20.49    3.57
  11  -1   7   10.11    3.06
  11   1   7    9.00    2.77
  11  -1   8   83.14    6.60
 -11   2  17   22.01    3.56
 -11   2  16    5.10    2.32
 -11   2  15   36.65    4.14
 -11   2  14    1.25    2.01
 -11   2  13   57.27    4.98
 -11   2  12    3.16    2.01
 -11  -2  12    4.12    1.67
 -11   2  11   88.79    6.05
 -11  -2  11   80.54    5.06
 -11  -2  10   21.68    2.87
 -11   2  10   18.59    3.00
 -11  -2   9   10.02    2.13
 -11   2   9   10.09    2.61
 -11  -2   8    0.51    1.46
 -11   2   8   -1.43    2.03
 -11   2   7   -1.63    1.82
 -11  -2   7    0.86    1.59
 -11   2   6   58.64    4.94
 -11  -2   6   46.40    4.06
 -11  -2   5  248.13    9.70
 -11   2   5  252.08   10.42
 -11  -2   4   67.06    4.98
 -11   2   4   73.22    5.62
 -11   2   3    3.23    1.99
 -11   2   2    2.11    2.01
  11  -2  -1  180.18    8.72
  11   2  -1  194.30    9.51
 -11   2   1  194.40    9.45
  11  -2   0   22.52    3.29
  11   2   0   25.19    3.79
 -11   2   0   26.52    3.84
  11  -2   1   15.20    2.92
  11   2   1   16.90    3.20
  11   2   2   50.79    5.10
  11  -2   2   40.55    4.38
  11  -2   3   72.63    5.76
  11   2   3   76.17    6.09
  11   2   4    6.44    2.54
  11  -2   4    5.74    2.39
  11  -2   5   22.53    3.64
  11   2   5   21.85    3.62
  11  -2   6    4.79    2.38
  11   2   6    7.68    2.65
  11  -2   7   -1.45    2.47
  11   2   7   -0.28    2.18
  11  -2   8   17.93    3.41
 -11   3  17   41.03    4.63
 -11   3  16   59.60    5.40
 -11   3  15    7.81    2.36
 -11   3  14   10.80    2.82
 -11   3  13   31.00    4.02
 -11   3  12   57.19    5.12
 -11  -3  11   33.47    3.21
 -11   3  11   24.49    3.63
 -11  -3  10   58.83    4.17
 -11   3  10   50.25    4.73
 -11   3   9    0.09    2.18
 -11  -3   9   -3.79    1.83
 -11   3   8  222.62    9.90
 -11  -3   8  214.16    8.50
 -11  -3   7   19.40    2.77
 -11   3   7   13.58    3.05
 -11  -3   6   12.34    2.37
 -11   3   6    8.23    2.63
 -11   3   5   -1.96    2.30
 -11   3   4  491.83   15.92
 -11   3   3    7.22    2.50
  11  -3  -2   29.55    3.48
 -11   3   2   22.62    3.47
  11   3  -1   -0.79    2.31
  11  -3  -1    2.74    1.90
 -11   3   1    6.10    2.76
  11   3   0   61.38    5.45
  11  -3   0   52.32    4.66
 -11   3   0   63.56    5.55
  11  -3   1    2.68    1.90
  11   3   1   -3.88    2.51
 -11   3  -1    3.77    2.23
  11   3   2    8.37    2.66
  11  -3   2    2.68    1.84
  11  -3   3   68.16    5.41
  11   3   3   68.77    5.92
  11   3   4   30.64    4.20
  11  -3   4   41.87    4.40
  11  -3   5   22.10    3.54
  11   3   5   24.07    3.94
  11  -3   6   31.55    4.15
  11   3   6   27.97    4.14
  11  -3   7    1.96    2.22
  11  -3   8   40.94    4.67
  11  -3   9   43.07    4.95
 -11   4  17   33.52    4.49
 -11   4  16   25.52    3.90
 -11   4  15    2.66    1.99
 -11   4  14   29.46    3.95
 -11   4  13   80.45    6.41
 -11   4  12    1.25    2.17
 -11   4  11    2.64    1.99
 -11   4  10   60.46    5.37
 -11  -4   9   77.29    4.73
 -11   4   9   92.51    6.33
 -11   4   8    6.52    2.21
 -11   4   7   99.67    6.70
 -11   4   6   18.39    3.36
 -11   4   5   65.61    5.50
 -11   4   4    3.43    2.28
 -11   4   3   -0.40    1.98
  11   4  -2    4.85    2.55
  11  -4  -2    5.82    2.16
 -11   4   2    3.99    2.59
  11  -4  -1   90.65    5.94
  11   4  -1   94.99    6.73
 -11   4   1  104.23    7.01
  11   4   0   57.28    5.38
  11  -4   0   53.32    4.62
 -11   4   0   65.97    5.92
  11  -4   1    5.24    2.19
  11   4   1    3.95    2.47
 -11   4  -1    4.50    2.78
  11  -4   2  143.70    7.65
  11   4   2  147.50    8.66
 -11   4  -2  158.68    9.01
  11  -4   3  222.25    9.87
  11   4   3  230.66   11.07
  11   4   4   81.40    6.55
  11  -4   4   63.85    5.29
  11  -4   5   37.19    4.23
  11   4   5   31.58    4.28
  11  -4   6    6.51    2.57
  11  -4   7   71.11    5.75
  11  -4   8    2.35    2.08
  11  -4   9   -2.15    2.25
 -11   5  15   30.08    4.22
 -11   5  14    5.95    2.49
 -11   5  13    6.90    2.62
 -11   5  12   16.37    3.18
 -11   5  11    8.89    2.71
 -11   5  10    8.65    2.32
 -11   5   9   14.25    3.22
 -11   5   8    4.24    2.29
 -11   5   7   27.89    3.93
 -11   5   6   27.27    3.93
 -11   5   5   19.68    3.52
 -11   5   4   62.25    5.59
 -11   5   3    3.93    2.36
  11   5  -2   23.99    3.82
  11  -5  -2   17.54    2.81
 -11   5   2   20.55    3.90
  11  -5  -1    9.99    2.26
  11   5  -1   12.89    3.07
 -11   5   1   12.11    2.88
  11   5   0    4.68    2.51
  11  -5   0    4.94    1.88
 -11   5   0    3.98    2.52
  11   5   1   -2.28    2.34
  11  -5   1   -0.92    1.97
 -11   5  -1   -1.59    2.51
  11  -5   2   -0.98    1.77
 -11   5  -2   -1.99    2.55
  11   5   3   10.11    2.72
  11  -5   3   10.87    2.60
 -11   5  -3    9.03    2.90
  11   5   4   34.77    4.54
  11  -5   4   27.13    3.55
  11  -5   5    6.33    2.11
  11   5   5    6.41    2.58
  11  -5   6   44.02    4.46
  11  -5   7    2.45    2.27
  11  -5   8   35.83    4.29
  11  -5   9   10.51    3.05
 -11   6  14   91.48    6.98
 -11   6  13   -0.62    2.17
 -11   6  12    2.34    2.33
 -11   6  11   25.42    3.83
 -11   6  10   63.55    5.62
 -11   6   9   71.71    5.94
 -11   6   8    2.90    2.14
 -11   6   7   56.54    5.28
 -11   6   6  166.24    9.02
 -11   6   5   85.34    6.54
 -11   6   4  149.79    8.58
  11  -6  -3   -0.71    1.78
 -11   6   3    2.31    2.49
  11   6  -2   66.11    5.83
  11  -6  -2   65.23    4.83
 -11   6   2   63.96    5.75
  11   6  -1   77.69    6.35
  11  -6  -1   71.15    5.17
 -11   6   1   67.05    6.00
  11   6   0   26.69    3.90
  11  -6   0   28.15    3.36
 -11   6   0   30.12    4.38
  11  -6   1   44.45    4.03
  11   6   1   40.70    4.86
 -11   6  -1   45.03    4.97
  11   6   2   44.88    4.99
  11  -6   2   48.22    4.37
 -11   6  -2   54.85    5.57
  11   6   3   72.21    6.23
  11  -6   3   61.25    4.83
 -11   6  -3   58.29    5.90
  11   6   4   -3.03    2.49
  11  -6   4    0.74    2.01
  11  -6   5   37.67    4.07
  11  -6   6   18.16    3.37
  11  -6   7   80.22    5.99
 -11   7  12  110.05    7.75
 -11   7  11    6.15    2.70
 -11   7  10    1.26    2.49
 -11   7   9    0.69    2.09
 -11   7   8   37.80    4.55
 -11   7   7   21.74    3.52
 -11   7   6    3.77    2.77
 -11   7   5  317.36   13.08
 -11   7   4   68.18    5.97
  11  -7  -3   10.40    2.34
 -11   7   3   11.59    3.19
  11  -7  -2  158.13    7.51
  11   7  -2  169.39    9.43
 -11   7   2  163.88    9.36
  11  -7  -1    8.29    2.10
  11   7  -1    7.43    2.53
 -11   7   1   11.12    3.02
  11   7   0   74.99    6.33
  11  -7   0   66.43    4.79
 -11   7   0   69.74    6.17
  11  -7   1    7.83    2.11
  11   7   1    1.95    2.37
 -11   7  -1    7.79    2.93
  11  -7   2    1.19    1.44
  11   7   2    3.31    2.68
 -11   7  -2   -0.90    2.26
  11  -7   3   42.53    4.00
  11   7   3   40.99    4.90
 -11   7  -3   47.54    5.37
 -11   8   9   62.57    5.86
 -11   8   8    0.10    2.22
 -11   8   7   44.98    5.06
 -11   8   6   24.28    4.03
 -11   8   5   56.51    5.65
  11  -8  -4    5.43    1.83
 -11   8   4    2.93    2.34
  11   8  -3    7.57    2.75
 -11   8   3    1.59    2.45
  11   8  -2    7.94    2.74
 -11   8   2    1.49    2.24
  11   8  -1    3.33    2.59
 -11   8   1    3.35    2.57
  11   8   0   10.53    2.90
 -11   8   0    9.40    3.05
  11   8   1   -0.59    1.98
 -11   8  -1   -1.34    2.27
  11   8   2   54.23    5.79
 -11   9   5   14.56    3.68
 -11   9   4    3.74    2.42
  11   9  -3   58.42    5.63
 -11   9   3   56.68    5.85
  11   9  -2    1.11    2.07
 -11   9   2    5.33    2.78
  11   9  -1   17.60    3.46
  11   9   0   30.28    4.44
  11  10  -4   51.25    5.54
  11  10  -3    8.93    2.99
 -12   0  13    1.65    1.85
 -12   0  12   69.12    5.38
 -12   0  11    2.23    2.25
 -12   0  10   58.17    4.96
 -12   0   9   -1.16    2.16
 -12   0   8   44.31    4.46
 -12   0   7   -2.07    1.90
 -12   0   6  161.27    8.35
 -12   0   5    0.33    1.94
 -12   0   4   32.70    4.04
 -12   0   3    2.60    2.64
  12   0  -2   78.94    6.25
  12   0  -1   -1.06    2.21
  12   0   0   60.86    5.64
  12   0   1   -3.56    2.09
  12   0   2   29.69    4.12
  12   0   3   -0.16    2.03
  12   0   4    1.59    2.20
  12   0   5    1.09    2.11
 -12   1  15   44.86    4.57
 -12   1  14   13.52    3.12
 -12   1  13   40.47    4.39
 -12   1  12    0.55    1.99
 -12  -1  12    3.21    1.85
 -12   1  11  159.80    8.34
 -12  -1  11  153.01    7.74
 -12  -1  10    5.14    2.05
 -12   1  10    2.45    2.24
 -12  -1   9   39.64    3.96
 -12   1   9   38.37    4.26
 -12  -1   8    2.76    1.95
 -12   1   8    1.40    1.98
 -12   1   7    7.32    2.46
 -12  -1   7    5.63    2.18
 -12   1   6    7.18    2.40
 -12  -1   6    6.77    2.28
 -12   1   5    0.30    2.18
 -12  -1   5    5.26    2.11
 -12  -1   4    3.82    2.21
 -12   1   4    5.45    2.39
 -12   1   3  168.01    8.96
  12   1  -2    5.80    2.46
  12  -1  -2    4.19    2.27
 -12   1   2    4.17    2.48
  12  -1  -1    9.88    2.84
  12   1  -1   10.99    2.76
 -12   1   1    9.33    2.80
  12  -1   0    2.88    2.21
  12   1   0   -0.65    2.26
  12  -1   1  155.83    8.76
  12   1   1  163.13    9.19
  12   1   2    1.81    2.27
  12  -1   2    1.80    2.10
  12  -1   3   25.44    3.91
  12   1   3   22.23    3.73
  12   1   4    2.18    2.14
  12  -1   4    7.63    2.70
  12  -1   5   57.18    5.52
 -12   2  16    4.56    2.45
 -12   2  15    1.91    2.02
 -12   2  14    4.12    2.26
 -12   2  13    9.51    2.77
 -12   2  12    8.46    2.72
 -12   2  11   -0.57    2.20
 -12  -2  11    4.71    1.82
 -12  -2  10   40.40    3.85
 -12   2  10   38.21    4.27
 -12   2   9    3.60    2.14
 -12  -2   9    0.25    1.76
 -12   2   8   12.85    2.89
 -12  -2   8    9.78    2.45
 -12   2   7   28.41    3.76
 -12  -2   7   28.55    3.51
 -12  -2   6   82.46    5.68
 -12   2   6   84.39    6.27
 -12   2   5    6.77    2.53
 -12   2   4    7.39    2.58
 -12   2   3    7.59    2.64
  12  -2  -2   22.83    3.41
  12   2  -2   33.16    4.30
 -12   2   2   33.47    4.46
  12  -2  -1   -3.98    2.55
  12   2  -1   -1.88    2.50
 -12   2   1   -0.13    2.31
  12  -2   0    6.51    2.31
  12   2   0    8.07    2.69
  12  -2   1   21.18    3.44
  12   2   1   20.00    3.73
  12   2   2    1.19    2.06
  12  -2   2    1.88    2.00
  12  -2   3    0.13    2.04
  12   2   3   -4.51    2.56
  12   2   4    1.80    2.36
  12  -2   4   -0.45    1.99
  12  -2   5    3.55    2.40
  12  -2   6   43.61    4.96
 -12   3  16   11.56    3.14
 -12   3  15   56.92    5.31
 -12   3  14    3.64    2.29
 -12   3  13   16.16    3.24
 -12   3  12    8.86    2.78
 -12   3  11   46.99    4.91
 -12   3  10    2.65    2.38
 -12  -3   9   35.91    3.64
 -12   3   9   46.09    4.76
 -12  -3   8    0.57    1.60
 -12   3   8    0.67    2.26
 -12   3   7   62.25    5.59
 -12   3   6    7.16    2.72
 -12   3   5   -0.09    2.31
 -12   3   4    6.66    2.48
  12  -3  -3  125.87    7.44
 -12   3   3  123.49    7.84
  12  -3  -2    5.44    2.40
  12   3  -2    5.47    2.56
 -12   3   2   13.12    3.15
  12  -3  -1   -5.73    2.62
  12   3  -1   -3.82    2.60
 -12   3   1   -0.53    2.29
  12  -3   0   41.53    4.56
  12   3   0   48.58    5.18
 -12   3   0   48.68    5.16
  12  -3   1  109.70    7.12
  12   3   1  132.87    8.46
  12   3   2    1.67    2.27
  12  -3   2    1.10    2.06
  12  -3   3    3.78    2.48
  12   3   3    0.59    2.43
  12  -3   4    6.93    2.57
  12  -3   5   72.05    6.01
  12  -3   6   -0.87    2.32
 -12   4  15    0.09    2.44
 -12   4  14   15.93    3.26
 -12   4  13    1.38    2.14
 -12   4  12    1.36    2.08
 -12   4  11    9.91    2.83
 -12   4  10    1.75    2.07
 -12   4   9   12.77    3.08
 -12   4   8   55.42    5.27
 -12   4   7    0.77    2.09
 -12   4   6  135.14    8.18
 -12   4   5   65.80    5.77
 -12   4   4    9.44    2.79
  12  -4  -3   14.39    2.98
 -12   4   3   17.28    3.48
  12   4  -2   52.86    5.40
  12  -4  -2   49.93    4.65
 -12   4   2   44.93    5.03
  12   4  -1    1.75    2.53
  12  -4  -1    1.28    2.09
 -12   4   1   -0.07    2.17
  12  -4   0   38.46    4.32
  12   4   0   41.99    4.95
 -12   4   0   37.59    4.79
  12   4   1   15.88    3.46
  12  -4   1    9.08    2.61
 -12   4  -1    6.21    2.89
  12   4   2    3.59    2.37
  12  -4   2    3.16    2.40
  12  -4   3   42.30    4.54
  12  -4   4   73.15    5.94
  12  -4   5   -1.06    2.12
  12  -4   6   52.20    5.37
  12  -4   7   35.32    4.53
 -12   5  13   -3.45    2.39
 -12   5  12   18.90    3.47
 -12   5  11   54.80    5.43
 -12   5  10   -1.46    2.34
 -12   5   9   -0.54    2.07
 -12   5   8   16.52    3.48
 -12   5   7   25.26    3.87
 -12   5   6   39.52    4.64
 -12   5   5    1.50    2.20
 -12   5   4   27.94    4.12
  12  -5  -3   54.43    4.87
  12   5  -3   64.56    5.89
 -12   5   3   62.38    5.98
  12  -5  -2   15.86    3.00
  12   5  -2   11.57    2.99
 -12   5   2   13.70    3.30
  12   5  -1    2.86    2.38
  12  -5  -1    0.89    1.78
  12  -5   0   49.15    4.64
  12   5   0   66.75    6.10
 -12   5   0   57.48    5.71
  12  -5   1   64.87    5.35
  12   5   1   76.99    6.75
 -12   5  -1   73.56    6.53
  12  -5   2   -2.07    2.25
  12  -5   3    4.27    2.27
  12  -5   4    3.66    2.41
  12  -5   5   20.12    3.68
  12  -5   6   13.81    3.23
 -12   6  10   34.98    4.60
 -12   6   9   37.71    4.69
 -12   6   8    8.34    3.04
 -12   6   7    3.84    2.34
 -12   6   6  124.83    8.12
 -12   6   5    0.82    2.19
  12  -6  -4   54.96    4.88
 -12   6   4   63.26    5.95
  12  -6  -3   30.31    3.53
  12   6  -3   27.80    4.40
 -12   6   3   28.34    4.25
  12  -6  -2   73.03    5.48
  12   6  -2   91.15    7.17
 -12   6   2   89.55    6.99
  12   6  -1   10.19    3.14
  12  -6  -1   13.58    2.83
 -12   6   1   12.00    3.23
  12  -6   0    8.32    2.64
  12  -6   1    0.61    1.96
  12  -6   2   22.44    3.41
  12  -6   3   18.65    3.40
  12  -6   4    8.15    2.68
 -12   7   6   24.02    4.16
 -12   7   5   47.78    5.42
  12  -7  -4   13.89    2.63
 -12   7   4   14.07    3.52
  12  -7  -3    2.88    1.87
  12  -7  -2    1.54    1.75
 -13   0  12    1.44    2.25
 -13   0  11   -0.14    2.09
 -13   0  10    0.57    1.99
 -13   0   9    4.72    2.31
 -13   0   8   -0.98    2.15
 -13   0   7    8.36    2.72
 -13   0   6   -1.64    2.22
 -13   0   5  110.48    7.50
 -13   0   4   -1.47    2.05
  13   0  -3   13.10    3.13
  13   0  -2    5.59    2.60
  13   0  -1   14.96    3.27
  13   0   0    2.26    2.35
  13   0   1   10.11    3.16
 -13   1  13   -1.78    2.32
 -13   1  12   19.00    3.52
 -13   1  11   32.71    4.15
 -13  -1  10   55.09    4.87
 -13   1  10   56.54    5.29
 -13   1   9    1.93    2.42
 -13  -1   9    1.95    1.99
 -13   1   8   62.43    5.60
 -13  -1   8   55.74    5.15
 -13   1   7   -3.65    2.62
 -13  -1   7    4.74    2.85
 -13  -1   6   13.81    2.94
 -13   1   6   14.86    3.16
 -13  -1   5   -1.37    2.26
 -13   1   5    0.94    2.18
 -13   1   4   26.78    4.07
  13  -1  -3   31.27    4.29
  13   1  -3   25.53    4.10
 -13   1   3   33.87    4.39
  13  -1  -2   -3.77    2.42
  13   1  -2    3.28    2.28
  13  -1  -1    3.87    2.37
  13   1  -1    7.75    2.96
  13  -1   0    0.72    2.14
  13   1   0    7.04    3.01
  13  -1   1    0.71    2.22
  13  -1   2   11.08    2.98
 -13   2  14   34.49    4.50
 -13   2  13  104.17    7.32
 -13   2  12   -0.20    2.12
 -13   2  11   56.32    5.34
 -13   2  10   -0.59    2.04
 -13   2   9   33.85    4.34
 -13  -2   9   37.27    4.11
 -13   2   8    3.14    2.33
 -13  -2   8   -0.05    2.03
 -13   2   7    0.46    2.28
 -13  -2   7    2.70    2.28
 -13   2   6   18.77    3.48
 -13   2   5   62.10    5.82
 -13   2   4    2.57    2.21
  13   2  -3   -1.43    2.80
  13  -2  -3   -3.74    2.67
 -13   2   3   -1.44    2.39
  13  -2  -2    1.80    2.10
  13   2  -2    1.51    2.37
 -13   2   2   -2.54    2.23
  13  -2  -1  176.56    9.51
  13   2  -1  184.92   10.15
  13  -2   0    5.85    2.42
  13  -2   1   -3.69    2.37
  13  -2   2    9.19    2.44
 -13   3  13   42.36    4.96
 -13   3  12    0.98    2.20
 -13   3  11    8.58    3.07
 -13   3  10   68.03    5.98
 -13   3   9    8.91    3.18
 -13   3   8   17.49    3.77
 -13   3   7    4.42    2.56
 -13   3   6   50.09    5.25
 -13   3   5   -0.80    2.08
 -13   3   4   27.80    4.24
  13  -3  -3   -3.75    2.31
 -13   3   3   -0.29    2.48
  13  -3  -2   11.42    3.02
 -13   3   2   10.01    2.92
  13  -3  -1    2.87    2.11
 -13   3   1    3.62    2.74
  13  -3   0    7.85    2.64
  13  -3   1   -0.94    1.96
  13  -3   2   36.43    4.41
  13  -3   3   -6.69    2.63
 -13   4  11    0.67    2.17
 -13   4  10   14.22    3.35
 -13   4   9   38.12    4.75
 -13   4   8    0.68    1.98
 -13   4   7    7.24    2.62
 -13   4   6    9.88    3.31
 -13   4   5   84.79    6.80
  13  -4  -4    5.31    2.34
 -13   4   4    9.31    2.86
  13  -4  -3    3.05    2.12
 -13   4   3    5.08    2.71
  13  -4  -2    6.58    2.58
  13  -4  -1   36.55    4.48
  13  -4   0    4.62    2.36
  13  -4   1    0.97    2.13
  13  -4   2   11.95    2.72
  13  -4   3   17.80    3.45
  13  -4   4   -5.30    2.55
  13  -5  -4   13.13    3.05
  13  -5  -3   -2.18    2.37
  13  -5  -2    4.10    2.30
  13  -5  -1    0.16    2.09
  13  -5   0   24.64    3.73
  13  -5   1    4.10    2.52
  13  -5   2   21.07    3.48
  13  -5   3    3.80    2.07
  13  -6  -5    7.48    2.46
  13  -6  -4   10.25    2.80
  13  -6  -3   20.88    3.34
  13  -6  -2   -1.72    2.15
  13  -6  -1   73.54    5.81
 -14   0  10    2.73    2.42
 -14   0   9    1.96    2.19
 -14   0   8   82.54    6.52
 -14   0   7   -4.45    2.32
 -14   0   6   13.30    3.39
 -14   0   5   -2.08    2.30
 -14   1  11   42.73    5.23
 -14   1  10   18.56    3.73
 -14   1   9    4.07    2.17
 -14  -1   8    1.00    2.23
 -14   1   8   -0.54    2.19
 -14  -1   7   11.24    3.01
 -14   1   7   12.65    3.20
 -14   1   6    2.48    2.51
 -14   1   5    4.48    2.71
 -14   1   4    1.13    2.57
 -14   2   9    1.09    2.42
 -14   2   8   22.79    3.84
  14  -4  -5   22.81    4.08
  14  -4  -4   30.80    4.22
  14  -4  -3   13.59    3.41
  14  -4  -2    0.82    2.26
  14  -5  -5    1.15    2.30
  14  -5  -4   -0.65    2.42
  14  -5  -3   52.86    5.58
   0   0   0    0.00    0.00


TITL pvl854_auto in P2(1)/n
REM P2(1)/n (#14 in standard setting)
CELL 0.71073  10.757384  13.629466  16.496961  90.0000 103.1081  90.0000
ZERR   27.00   0.000383   0.000376   0.000534   0.0000   0.0034   0.0000
LATT  1
SYMM -x+1/2, y+1/2,-z+1/2
SFAC C H N O S Zn
UNIT 27.00 27.00 27.00 27.00 27.00 27.00
REM  CrysAlisPro recorded range (K): Min=170.0; max=170.0; aver:170.0
TEMP -103
TREF
HKLF 4
END
_computing_structure_solution     'SHELXT 2018/2 (Sheldrick, 2018)'
;
_shelx_hkl_checksum   64420

