 
data_pvl596_a
 
_audit_creation_method            'SHELXL-2018/3'
_shelx_SHELXL_version_number      '2018/3'
_chemical_name_systematic         ?
_chemical_name_common             ?
_chemical_melting_point           ?
_chemical_formula_moiety          ?
_chemical_formula_sum
 'C3.50 H3.33 Cd0.17 N1.67 O1.17 S0.17' 
_chemical_formula_weight          111.49

loop_
 _atom_type_symbol
 _atom_type_description
 _atom_type_scat_dispersion_real
 _atom_type_scat_dispersion_imag
 _atom_type_scat_source
 'C'  'C'   0.0033   0.0016
 'International Tables Vol C Tables 4.2.6.8 and 6.1.1.4'
 'H'  'H'   0.0000   0.0000
 'International Tables Vol C Tables 4.2.6.8 and 6.1.1.4'
 'N'  'N'   0.0061   0.0033
 'International Tables Vol C Tables 4.2.6.8 and 6.1.1.4'
 'O'  'O'   0.0106   0.0060
 'International Tables Vol C Tables 4.2.6.8 and 6.1.1.4'
 'S'  'S'   0.1246   0.1234
 'International Tables Vol C Tables 4.2.6.8 and 6.1.1.4'
 'Cd'  'Cd'  -0.8075   1.2024
 'International Tables Vol C Tables 4.2.6.8 and 6.1.1.4'
 
_space_group_crystal_system       triclinic
_space_group_IT_number            2
_space_group_name_H-M_alt         'P -1'
_space_group_name_Hall            '-P 1'
 
_shelx_space_group_comment
;
The symmetry employed for this shelxl refinement is uniquely defined
by the following loop, which should always be used as a source of
symmetry information in preference to the above space-group names.
They are only intended as comments.
;
 
loop_
 _space_group_symop_operation_xyz
 'x, y, z'
 '-x, -y, -z'
 
_cell_length_a                    6.4897(7)
_cell_length_b                    13.2367(15)
_cell_length_c                    14.9565(15)
_cell_angle_alpha                 67.006(3)
_cell_angle_beta                  81.669(4)
_cell_angle_gamma                 89.519(4)
_cell_volume                      1168.6(2)
_cell_formula_units_Z             12
_cell_measurement_temperature     150(2)
_cell_measurement_reflns_used     ?
_cell_measurement_theta_min       ?
_cell_measurement_theta_max       ?
 
_exptl_crystal_description        ?
_exptl_crystal_colour             ?
_exptl_crystal_density_meas       ?
_exptl_crystal_density_method     ?
_exptl_crystal_density_diffrn     1.901          
_exptl_crystal_F_000              672
_exptl_transmission_factor_min    ?
_exptl_transmission_factor_max    ?
_exptl_crystal_size_max           ?
_exptl_crystal_size_mid           ?
_exptl_crystal_size_min           ?
_exptl_absorpt_coefficient_mu     1.094
_shelx_estimated_absorpt_T_min    ?
_shelx_estimated_absorpt_T_max    ?
_exptl_absorpt_correction_type    ?
_exptl_absorpt_correction_T_min   ?
_exptl_absorpt_correction_T_max   ?
_exptl_absorpt_process_details    ?
_exptl_absorpt_special_details    ?
_diffrn_ambient_temperature       150(2)
_diffrn_radiation_wavelength      0.71073
_diffrn_radiation_type            MoK\a
_diffrn_source                    ?
_diffrn_measurement_device_type   ?
_diffrn_measurement_method        ?
_diffrn_detector_area_resol_mean  ?
_diffrn_reflns_number             22696
_diffrn_reflns_av_unetI/netI      0.0849
_diffrn_reflns_av_R_equivalents   0.0680
_diffrn_reflns_limit_h_min        -9
_diffrn_reflns_limit_h_max        9
_diffrn_reflns_limit_k_min        -18
_diffrn_reflns_limit_k_max        18
_diffrn_reflns_limit_l_min        -20
_diffrn_reflns_limit_l_max        20
_diffrn_reflns_theta_min          1.497
_diffrn_reflns_theta_max          29.645
_diffrn_reflns_theta_full         25.242
_diffrn_measured_fraction_theta_max   0.996
_diffrn_measured_fraction_theta_full  0.999
_diffrn_reflns_Laue_measured_fraction_max    0.996
_diffrn_reflns_Laue_measured_fraction_full   0.999
_diffrn_reflns_point_group_measured_fraction_max   0.996
_diffrn_reflns_point_group_measured_fraction_full  0.999
_reflns_number_total              6573
_reflns_number_gt                 5012
_reflns_threshold_expression      'I > 2\s(I)'
_reflns_Friedel_coverage          0.000
_reflns_Friedel_fraction_max      .
_reflns_Friedel_fraction_full     .
 
_reflns_special_details
;
 Reflections were merged by SHELXL according to the crystal
 class for the calculation of statistics and refinement.
 
 _reflns_Friedel_fraction is defined as the number of unique
 Friedel pairs measured divided by the number that would be
 possible theoretically, ignoring centric projections and
 systematic absences.
;
 
_computing_data_collection        ?
_computing_cell_refinement        ?
_computing_data_reduction         ?
_computing_structure_solution     'SHELXT 2018/2 (Sheldrick, 2018)'
_computing_structure_refinement 'SHELXL-2018/3 (Sheldrick, 2018)'
_computing_molecular_graphics     ?
_computing_publication_material   ?
_refine_special_details           ?
_refine_ls_structure_factor_coef  Fsqd
_refine_ls_matrix_type            full
_refine_ls_weighting_scheme       calc
_refine_ls_weighting_details
'w=1/[\s^2^(Fo^2^)+(0.0850P)^2^] where P=(Fo^2^+2Fc^2^)/3'
_atom_sites_solution_primary      ?
_atom_sites_solution_secondary    ?
_atom_sites_solution_hydrogens    mixed
_refine_ls_hydrogen_treatment     mixed
_refine_ls_extinction_method      none
_refine_ls_extinction_coef        .
_refine_ls_number_reflns          6573
_refine_ls_number_parameters      378
_refine_ls_number_restraints      0
_refine_ls_R_factor_all           0.0768
_refine_ls_R_factor_gt            0.0537
_refine_ls_wR_factor_ref          0.1521
_refine_ls_wR_factor_gt           0.1327
_refine_ls_goodness_of_fit_ref    1.030
_refine_ls_restrained_S_all       1.030
_refine_ls_shift/su_max           0.010
_refine_ls_shift/su_mean          0.000
 
loop_
 _atom_site_label
 _atom_site_type_symbol
 _atom_site_fract_x
 _atom_site_fract_y
 _atom_site_fract_z
 _atom_site_U_iso_or_equiv
 _atom_site_adp_type
 _atom_site_occupancy
 _atom_site_site_symmetry_order  
 _atom_site_calc_flag
 _atom_site_refinement_flags_posn
 _atom_site_refinement_flags_adp
 _atom_site_refinement_flags_occupancy
 _atom_site_disorder_assembly
 _atom_site_disorder_group
Cd01 Cd 0.68025(5) 0.43091(2) 0.70404(2) 0.02017(11) Uani 1 1 d . . . . .
S002 S 0.7861(2) 0.12003(9) 0.27584(8) 0.0288(3) Uani 1 1 d . . . . .
O2 O -0.1507(5) 1.1098(3) 0.8252(3) 0.0346(8) Uani 1 1 d . . . . .
O003 O 1.0114(5) 0.3865(3) 0.7203(3) 0.0280(8) Uani 1 1 d . . . . .
H003 H 1.054(6) 0.420(5) 0.717(6) 0.042 Uiso 1 1 calc R U . . .
H1B H 1.064(9) 0.308(5) 0.781(4) 0.042 Uiso 1 1 d . U . . .
O004 O 0.5992(5) 0.4982(3) 0.8295(2) 0.0260(7) Uani 1 1 d . . . . .
O005 O 0.3467(5) 0.4851(2) 0.7493(2) 0.0237(6) Uani 1 1 d . . . . .
O006 O 0.1599(6) 1.1929(3) 0.8060(3) 0.0341(8) Uani 1 1 d . . . . .
O007 O 0.5614(6) 0.2598(3) 0.8230(3) 0.0289(7) Uani 1 1 d . . . . .
H007 H 0.645(8) 0.220(4) 0.826(3) 0.043 Uiso 1 1 calc R U . . .
H1A H 0.418(10) 0.230(5) 0.826(4) 0.043 Uiso 1 1 d . U . . .
N1 N 0.3614(7) 0.8694(3) 0.9400(3) 0.0336(9) Uani 1 1 d . . . . .
N009 N 0.6968(6) 0.2273(3) 0.5320(3) 0.0200(7) Uani 1 1 d . . . . .
C1 C 0.8306(7) -0.3485(4) 0.4983(3) 0.0246(9) Uani 1 1 d . . . . .
H1 H 0.864423 -0.392980 0.462024 0.030 Uiso 1 1 calc R U . . .
N00A N 0.7712(6) -0.2060(3) 0.5368(3) 0.0213(7) Uani 1 1 d . . . . .
N00B N 0.1615(7) 0.8265(3) 0.9680(3) 0.0305(9) Uani 1 1 d . . . . .
N00C N 0.7841(6) -0.0057(3) 0.3515(3) 0.0258(8) Uani 1 1 d . . . . .
N00G N 0.7582(7) 0.1822(3) 0.3501(3) 0.0279(8) Uani 1 1 d . . . . .
N2 N 0.1480(7) 0.6478(3) 0.9620(3) 0.0274(8) Uani 1 1 d . . . . .
N3 N -0.0132(7) 0.6396(3) 0.9164(3) 0.0306(9) Uani 1 1 d . . . . .
N4 N 0.6594(6) 0.3579(3) 0.5901(3) 0.0231(8) Uani 1 1 d . . . . .
N5 N 0.7771(6) -0.3880(3) 0.5998(3) 0.0238(8) Uani 1 1 d . . . . .
C00H C 0.7381(7) -0.0779(3) 0.6180(3) 0.0227(9) Uani 1 1 d . . . . .
H00H H 0.737045 -0.137994 0.679335 0.027 Uiso 1 1 calc R U . . .
C00I C 0.2721(7) 0.5627(3) 0.8677(3) 0.0230(9) Uani 1 1 d . . . . .
C00K C 0.1294(8) 1.0012(4) 0.8836(3) 0.0253(9) Uani 1 1 d . . . . .
C00M C 0.7195(7) 0.0297(3) 0.6160(3) 0.0213(8) Uani 1 1 d . . . . .
H00M H 0.705616 0.038815 0.676528 0.026 Uiso 1 1 calc R U . . .
C00N C 0.7204(7) 0.1209(3) 0.5314(3) 0.0199(8) Uani 1 1 d . . . . .
C00P C 0.7577(7) -0.0977(3) 0.5336(3) 0.0187(8) Uani 1 1 d . . . . .
C00Q C 0.3216(8) 0.6038(4) 0.9345(4) 0.0293(10) Uani 1 1 d . . . . .
H00Q H 0.452277 0.601424 0.956677 0.035 Uiso 1 1 calc R U . . .
C00R C 0.7612(7) -0.0050(3) 0.4431(3) 0.0199(8) Uani 1 1 d . . . . .
C00S C 0.4134(7) 0.5111(3) 0.8139(3) 0.0223(8) Uani 1 1 d . . . . .
C00T C 0.7458(7) 0.1042(3) 0.4421(3) 0.0209(8) Uani 1 1 d . . . . .
C00V C 0.8277(7) -0.2374(3) 0.4586(3) 0.0239(9) Uani 1 1 d . . . . .
H00V H 0.858134 -0.190472 0.390892 0.029 Uiso 1 1 calc R U . . .
C00W C 0.6975(7) 0.3261(3) 0.4520(3) 0.0218(8) Uani 1 1 d . . . . .
H00W H 0.712260 0.336614 0.384765 0.026 Uiso 1 1 calc R U . . .
C00X C 0.7425(7) -0.3002(3) 0.6200(3) 0.0230(9) Uani 1 1 d . . . . .
H00X H 0.702631 -0.302356 0.684386 0.028 Uiso 1 1 calc R U . . .
C00Y C 0.6737(7) 0.2509(3) 0.6135(3) 0.0230(9) Uani 1 1 d . . . . .
H00Y H 0.668487 0.197645 0.678740 0.028 Uiso 1 1 calc R U . . .
C2 C 0.0218(8) 0.9016(4) 0.9354(3) 0.0278(10) Uani 1 1 d . . . . .
H2 H -0.125238 0.888548 0.946161 0.033 Uiso 1 1 calc R U . . .
C010 C 0.0386(8) 1.1083(4) 0.8345(3) 0.0285(10) Uani 1 1 d . . . . .
C011 C 0.0629(8) 0.5879(4) 0.8592(4) 0.0282(10) Uani 1 1 d . . . . .
H011 H -0.014720 0.570132 0.817601 0.034 Uiso 1 1 calc R U . . .
C012 C 0.6729(7) 0.4047(3) 0.4891(3) 0.0229(9) Uani 1 1 d . . . . .
H012 H 0.666009 0.480955 0.451064 0.027 Uiso 1 1 calc R U . . .
C013 C 0.3385(8) 0.9763(4) 0.8888(4) 0.0296(10) Uani 1 1 d . . . . .
H013 H 0.451816 1.029490 0.859206 0.035 Uiso 1 1 calc R U . . .
C014 C 0.1278(9) 0.7087(4) 1.0251(3) 0.0333(11) Uani 1 1 d . . . . .
H01A H 0.230663 0.683878 1.071156 0.040 Uiso 1 1 calc R U . . .
H01B H -0.013351 0.693118 1.064507 0.040 Uiso 1 1 calc R U . . .
O1 O -0.3156(7) 0.7879(4) 0.8376(3) 0.0542(12) Uani 1 1 d . . . . .
H3 H -0.210(12) 0.727(6) 0.874(6) 0.081 Uiso 1 1 d . U . . .
H4 H 0.607(19) -0.110(10) 0.814(9) 0.17(5) Uiso 1 1 d . . . . .
 
loop_
 _atom_site_aniso_label
 _atom_site_aniso_U_11
 _atom_site_aniso_U_22
 _atom_site_aniso_U_33
 _atom_site_aniso_U_23
 _atom_site_aniso_U_13
 _atom_site_aniso_U_12
Cd01 0.02635(18) 0.01321(15) 0.02396(17) -0.01032(12) -0.00466(12) 0.00319(11)
S002 0.0470(7) 0.0174(5) 0.0220(5) -0.0090(4) -0.0015(5) 0.0016(5)
O2 0.0298(18) 0.0253(17) 0.049(2) -0.0140(16) -0.0096(16) 0.0081(14)
O003 0.0290(18) 0.0266(18) 0.0357(19) -0.0175(16) -0.0124(15) 0.0055(14)
O004 0.0281(17) 0.0236(16) 0.0313(17) -0.0160(14) -0.0051(14) 0.0052(13)
O005 0.0276(16) 0.0216(15) 0.0259(16) -0.0135(13) -0.0049(13) 0.0029(12)
O006 0.0351(19) 0.0140(15) 0.049(2) -0.0074(14) -0.0086(16) 0.0046(13)
O007 0.0355(19) 0.0170(15) 0.0333(18) -0.0090(13) -0.0055(15) 0.0061(13)
N1 0.044(3) 0.025(2) 0.033(2) -0.0120(18) -0.0061(19) 0.0095(18)
N009 0.0275(19) 0.0122(15) 0.0222(18) -0.0083(13) -0.0054(15) 0.0022(13)
C1 0.028(2) 0.019(2) 0.029(2) -0.0135(18) 0.0000(18) -0.0002(16)
N00A 0.0287(19) 0.0139(16) 0.0243(18) -0.0097(14) -0.0071(15) 0.0037(14)
N00B 0.049(3) 0.0166(18) 0.025(2) -0.0082(15) -0.0030(18) 0.0091(17)
N00C 0.032(2) 0.0182(17) 0.027(2) -0.0096(15) -0.0032(16) 0.0017(15)
N00G 0.042(2) 0.0190(18) 0.025(2) -0.0107(15) -0.0036(17) 0.0020(16)
N2 0.043(2) 0.0170(17) 0.0230(19) -0.0093(15) -0.0042(17) 0.0071(16)
N3 0.037(2) 0.0194(19) 0.037(2) -0.0143(17) -0.0013(18) 0.0063(16)
N4 0.029(2) 0.0161(16) 0.0265(19) -0.0091(14) -0.0080(16) 0.0015(14)
N5 0.0240(19) 0.0134(16) 0.034(2) -0.0092(15) -0.0038(16) 0.0012(13)
C00H 0.027(2) 0.0157(19) 0.026(2) -0.0091(16) -0.0021(18) 0.0010(16)
C00I 0.029(2) 0.0161(19) 0.024(2) -0.0094(16) -0.0011(18) 0.0002(16)
C00K 0.036(3) 0.018(2) 0.022(2) -0.0093(17) -0.0054(19) 0.0051(17)
C00M 0.026(2) 0.0164(19) 0.024(2) -0.0102(16) -0.0042(17) 0.0021(15)
C00N 0.023(2) 0.0137(18) 0.027(2) -0.0118(16) -0.0045(17) 0.0017(15)
C00P 0.024(2) 0.0097(17) 0.022(2) -0.0052(15) -0.0026(16) 0.0000(14)
C00Q 0.040(3) 0.019(2) 0.032(2) -0.0130(19) -0.006(2) 0.0065(19)
C00R 0.021(2) 0.0161(18) 0.023(2) -0.0095(16) -0.0004(16) -0.0011(15)
C00S 0.029(2) 0.0121(17) 0.027(2) -0.0078(16) -0.0052(18) 0.0019(15)
C00T 0.025(2) 0.0157(18) 0.024(2) -0.0099(16) -0.0039(17) 0.0029(15)
C00V 0.030(2) 0.0151(19) 0.030(2) -0.0130(17) -0.0030(19) 0.0007(16)
C00W 0.030(2) 0.0149(18) 0.021(2) -0.0068(16) -0.0048(17) 0.0039(16)
C00X 0.026(2) 0.0163(19) 0.026(2) -0.0090(16) -0.0025(18) 0.0000(16)
C00Y 0.034(2) 0.0149(19) 0.021(2) -0.0085(16) -0.0036(18) 0.0036(16)
C2 0.041(3) 0.019(2) 0.027(2) -0.0134(18) -0.003(2) 0.0035(18)
C010 0.041(3) 0.018(2) 0.025(2) -0.0083(17) -0.003(2) 0.0041(18)
C011 0.033(3) 0.023(2) 0.029(2) -0.0113(19) -0.001(2) 0.0030(18)
C012 0.026(2) 0.0167(19) 0.026(2) -0.0081(16) -0.0066(18) 0.0045(16)
C013 0.038(3) 0.020(2) 0.031(2) -0.0100(18) -0.009(2) 0.0090(19)
C014 0.060(3) 0.016(2) 0.023(2) -0.0083(17) -0.002(2) 0.010(2)
O1 0.057(3) 0.055(3) 0.041(2) -0.009(2) -0.008(2) 0.020(2)
 
_geom_special_details
;
 All esds (except the esd in the dihedral angle between two l.s. planes)
 are estimated using the full covariance matrix.  The cell esds are taken
 into account individually in the estimation of esds in distances, angles
 and torsion angles; correlations between esds in cell parameters are only
 used when they are defined by crystal symmetry.  An approximate (isotropic)
 treatment of cell esds is used for estimating esds involving l.s. planes.
;
 
loop_
 _geom_bond_atom_site_label_1
 _geom_bond_atom_site_label_2
 _geom_bond_distance
 _geom_bond_site_symmetry_2
 _geom_bond_publ_flag
Cd01 O003 2.245(3) . ?
Cd01 N4 2.284(4) . ?
Cd01 O007 2.318(3) . ?
Cd01 N5 2.322(4) 1_565 ?
Cd01 O005 2.364(3) . ?
Cd01 O004 2.367(3) . ?
Cd01 C00S 2.708(4) . ?
S002 N00C 1.605(4) . ?
S002 N00G 1.610(4) . ?
O2 C010 1.255(6) . ?
O004 C00S 1.259(6) . ?
O005 C00S 1.273(5) . ?
O006 C010 1.265(6) . ?
N1 C013 1.339(6) . ?
N1 N00B 1.360(6) . ?
N009 C00Y 1.360(5) . ?
N009 C00W 1.385(5) . ?
N009 C00N 1.419(5) . ?
C1 C00V 1.356(6) . ?
C1 N5 1.388(6) . ?
N00A C00X 1.365(5) . ?
N00A C00V 1.389(5) . ?
N00A C00P 1.417(5) . ?
N00B C2 1.335(6) . ?
N00B C014 1.457(6) . ?
N00C C00R 1.359(5) . ?
N00G C00T 1.352(6) . ?
N2 C00Q 1.349(6) . ?
N2 N3 1.355(6) . ?
N2 C014 1.455(6) . ?
N3 C011 1.332(6) . ?
N4 C00Y 1.325(5) . ?
N4 C012 1.380(6) . ?
N5 C00X 1.320(5) . ?
C00H C00P 1.375(6) . ?
C00H C00M 1.418(6) . ?
C00I C00Q 1.385(6) . ?
C00I C011 1.407(7) . ?
C00I C00S 1.470(6) . ?
C00K C2 1.374(6) . ?
C00K C013 1.399(7) . ?
C00K C010 1.481(6) . ?
C00M C00N 1.365(6) . ?
C00N C00T 1.424(6) . ?
C00P C00R 1.426(6) . ?
C00R C00T 1.442(5) . ?
C00W C012 1.356(6) . ?
 
loop_
 _geom_angle_atom_site_label_1
 _geom_angle_atom_site_label_2
 _geom_angle_atom_site_label_3
 _geom_angle
 _geom_angle_site_symmetry_1
 _geom_angle_site_symmetry_3
 _geom_angle_publ_flag
O003 Cd01 N4 94.36(13) . . ?
O003 Cd01 O007 90.32(13) . . ?
N4 Cd01 O007 87.16(13) . . ?
O003 Cd01 N5 93.01(13) . 1_565 ?
N4 Cd01 N5 99.60(13) . 1_565 ?
O007 Cd01 N5 172.21(12) . 1_565 ?
O003 Cd01 O005 155.72(13) . . ?
N4 Cd01 O005 108.92(12) . . ?
O007 Cd01 O005 84.23(12) . . ?
N5 Cd01 O005 89.87(12) 1_565 . ?
O003 Cd01 O004 100.39(12) . . ?
N4 Cd01 O004 163.91(13) . . ?
O007 Cd01 O004 86.39(12) . . ?
N5 Cd01 O004 86.08(12) 1_565 . ?
O005 Cd01 O004 55.74(11) . . ?
O003 Cd01 C00S 128.01(14) . . ?
N4 Cd01 C00S 136.85(14) . . ?
O007 Cd01 C00S 85.12(12) . . ?
N5 Cd01 C00S 87.28(13) 1_565 . ?
O005 Cd01 C00S 28.05(12) . . ?
O004 Cd01 C00S 27.70(12) . . ?
N00C S002 N00G 101.1(2) . . ?
C00S O004 Cd01 91.4(3) . . ?
C00S O005 Cd01 91.2(3) . . ?
C013 N1 N00B 103.0(4) . . ?
C00Y N009 C00W 107.0(3) . . ?
C00Y N009 C00N 125.3(3) . . ?
C00W N009 C00N 127.6(4) . . ?
C00V C1 N5 110.2(4) . . ?
C00X N00A C00V 106.6(3) . . ?
C00X N00A C00P 125.6(4) . . ?
C00V N00A C00P 127.6(4) . . ?
C2 N00B N1 113.0(4) . . ?
C2 N00B C014 129.1(5) . . ?
N1 N00B C014 117.9(4) . . ?
C00R N00C S002 106.7(3) . . ?
C00T N00G S002 107.1(3) . . ?
C00Q N2 N3 112.8(4) . . ?
C00Q N2 C014 126.9(5) . . ?
N3 N2 C014 120.0(4) . . ?
C011 N3 N2 104.3(4) . . ?
C00Y N4 C012 105.7(4) . . ?
C00Y N4 Cd01 120.6(3) . . ?
C012 N4 Cd01 132.5(3) . . ?
C00X N5 C1 105.5(4) . . ?
C00X N5 Cd01 126.6(3) . 1_545 ?
C1 N5 Cd01 125.9(3) . 1_545 ?
C00P C00H C00M 121.8(4) . . ?
C00Q C00I C011 104.5(4) . . ?
C00Q C00I C00S 126.8(4) . . ?
C011 C00I C00S 128.6(4) . . ?
C2 C00K C013 103.9(4) . . ?
C2 C00K C010 126.6(5) . . ?
C013 C00K C010 129.5(4) . . ?
C00N C00M C00H 123.2(4) . . ?
C00M C00N N009 121.9(4) . . ?
C00M C00N C00T 116.7(4) . . ?
N009 C00N C00T 121.4(4) . . ?
C00H C00P N00A 121.3(4) . . ?
C00H C00P C00R 117.2(4) . . ?
N00A C00P C00R 121.5(4) . . ?
N2 C00Q C00I 106.5(4) . . ?
N00C C00R C00P 126.8(4) . . ?
N00C C00R C00T 112.8(4) . . ?
C00P C00R C00T 120.3(4) . . ?
O004 C00S O005 121.7(4) . . ?
O004 C00S C00I 119.4(4) . . ?
O005 C00S C00I 118.9(4) . . ?
O004 C00S Cd01 60.9(2) . . ?
O005 C00S Cd01 60.8(2) . . ?
C00I C00S Cd01 175.8(3) . . ?
N00G C00T C00N 127.0(4) . . ?
N00G C00T C00R 112.3(4) . . ?
C00N C00T C00R 120.7(4) . . ?
C1 C00V N00A 106.1(4) . . ?
C012 C00W N009 106.0(4) . . ?
N5 C00X N00A 111.6(4) . . ?
N4 C00Y N009 111.1(4) . . ?
N00B C2 C00K 107.5(5) . . ?
O2 C010 O006 124.6(4) . . ?
O2 C010 C00K 118.9(4) . . ?
O006 C010 C00K 116.5(4) . . ?
N3 C011 C00I 111.9(4) . . ?
C00W C012 N4 110.2(4) . . ?
N1 C013 C00K 112.6(5) . . ?
N2 C014 N00B 111.4(4) . . ?
 
_refine_diff_density_max    2.828
_refine_diff_density_min   -1.485
_refine_diff_density_rms    0.181

_shelx_res_file
;
TITL pvl596_a.res in P-1
    pvl596_a.res
    created by SHELXL-2018/3 at 14:29:50 on 21-Feb-2022
REM Old TITL pvl596 in P1
REM SHELXT solution in P-1: R1 0.107, Rweak 0.012, Alpha 0.063
REM <I/s>   0.000 for    0 systematic absences,  Orientation as input
REM Formula found by SHELXT:  C26 N7 O5 S Cd
CELL  0.71073   6.4897  13.2367  14.9565   67.006   81.669   89.519
ZERR   12.000   0.0007   0.0015   0.0015    0.003    0.004    0.004
LATT  1
SFAC C H N O S CD
UNIT 42 40 20 14 2 2
ACTA
TEMP -123.150
L.S. 10
BOND
LIST 6
FMAP 2
PLAN 20
WGHT    0.085000
FVAR       0.44426
CD01  6    0.680247    0.430908    0.704043    11.00000    0.02635    0.01321 =
         0.02396   -0.01032   -0.00466    0.00319
S002  5    0.786101    0.120027    0.275837    11.00000    0.04698    0.01745 =
         0.02200   -0.00897   -0.00147    0.00156
O2    4   -0.150681    1.109767    0.825199    11.00000    0.02981    0.02528 =
         0.04925   -0.01404   -0.00956    0.00809
O003  4    1.011427    0.386547    0.720298    11.00000    0.02897    0.02660 =
         0.03569   -0.01755   -0.01238    0.00555
AFIX 148
H003  2    1.053939    0.419784    0.716988    11.00000   -1.50000
AFIX   0
H1B   2    1.063741    0.308170    0.780503    11.00000   -1.50000
O004  4    0.599186    0.498161    0.829519    11.00000    0.02812    0.02364 =
         0.03132   -0.01602   -0.00505    0.00521
O005  4    0.346727    0.485132    0.749287    11.00000    0.02760    0.02164 =
         0.02589   -0.01354   -0.00492    0.00288
O006  4    0.159891    1.192914    0.805991    11.00000    0.03510    0.01402 =
         0.04917   -0.00740   -0.00856    0.00458
O007  4    0.561392    0.259826    0.822983    11.00000    0.03546    0.01704 =
         0.03334   -0.00896   -0.00552    0.00606
AFIX 148
H007  2    0.644948    0.220383    0.826382    11.00000   -1.50000
AFIX   0
H1A   2    0.418335    0.230414    0.826487    11.00000   -1.50000
N1    3    0.361444    0.869450    0.939957    11.00000    0.04351    0.02482 =
         0.03310   -0.01205   -0.00606    0.00949
N009  3    0.696823    0.227316    0.532049    11.00000    0.02754    0.01220 =
         0.02220   -0.00835   -0.00541    0.00224
C1    1    0.830620   -0.348527    0.498346    11.00000    0.02773    0.01908 =
         0.02936   -0.01349    0.00001   -0.00017
AFIX  43
H1    2    0.864423   -0.392980    0.462024    11.00000   -1.20000
AFIX   0
N00A  3    0.771246   -0.205967    0.536797    11.00000    0.02872    0.01388 =
         0.02432   -0.00974   -0.00710    0.00368
N00B  3    0.161542    0.826520    0.967957    11.00000    0.04942    0.01656 =
         0.02463   -0.00820   -0.00304    0.00913
N00C  3    0.784131   -0.005667    0.351548    11.00000    0.03228    0.01822 =
         0.02713   -0.00959   -0.00319    0.00170
N00G  3    0.758156    0.182151    0.350051    11.00000    0.04157    0.01898 =
         0.02468   -0.01065   -0.00358    0.00198
N2    3    0.147960    0.647787    0.961961    11.00000    0.04309    0.01702 =
         0.02305   -0.00933   -0.00417    0.00707
N3    3   -0.013187    0.639595    0.916376    11.00000    0.03733    0.01939 =
         0.03656   -0.01426   -0.00128    0.00632
N4    3    0.659438    0.357859    0.590088    11.00000    0.02863    0.01607 =
         0.02648   -0.00906   -0.00795    0.00152
N5    3    0.777089   -0.388014    0.599790    11.00000    0.02397    0.01344 =
         0.03377   -0.00922   -0.00381    0.00122
C00H  1    0.738108   -0.077907    0.617995    11.00000    0.02702    0.01571 =
         0.02568   -0.00907   -0.00211    0.00098
AFIX  43
H00H  2    0.737045   -0.137994    0.679335    11.00000   -1.20000
AFIX   0
C00I  1    0.272087    0.562741    0.867656    11.00000    0.02904    0.01605 =
         0.02445   -0.00945   -0.00114    0.00020
C00K  1    0.129444    1.001200    0.883553    11.00000    0.03639    0.01845 =
         0.02250   -0.00934   -0.00540    0.00511
C00M  1    0.719454    0.029738    0.616028    11.00000    0.02595    0.01641 =
         0.02379   -0.01023   -0.00419    0.00209
AFIX  43
H00M  2    0.705616    0.038815    0.676528    11.00000   -1.20000
AFIX   0
C00N  1    0.720422    0.120922    0.531425    11.00000    0.02340    0.01371 =
         0.02654   -0.01177   -0.00455    0.00175
C00P  1    0.757687   -0.097711    0.533589    11.00000    0.02368    0.00969 =
         0.02168   -0.00523   -0.00257    0.00004
C00Q  1    0.321641    0.603792    0.934512    11.00000    0.03952    0.01924 =
         0.03185   -0.01298   -0.00565    0.00652
AFIX  43
H00Q  2    0.452277    0.601424    0.956677    11.00000   -1.20000
AFIX   0
C00R  1    0.761235   -0.004984    0.443063    11.00000    0.02144    0.01613 =
         0.02302   -0.00951   -0.00045   -0.00110
C00S  1    0.413393    0.511126    0.813860    11.00000    0.02857    0.01214 =
         0.02662   -0.00778   -0.00516    0.00193
C00T  1    0.745826    0.104169    0.442129    11.00000    0.02461    0.01565 =
         0.02435   -0.00994   -0.00395    0.00290
C00V  1    0.827707   -0.237388    0.458579    11.00000    0.03027    0.01506 =
         0.02983   -0.01303   -0.00303    0.00066
AFIX  43
H00V  2    0.858134   -0.190472    0.390892    11.00000   -1.20000
AFIX   0
C00W  1    0.697535    0.326087    0.451993    11.00000    0.02959    0.01489 =
         0.02098   -0.00679   -0.00484    0.00394
AFIX  43
H00W  2    0.712260    0.336614    0.384765    11.00000   -1.20000
AFIX   0
C00X  1    0.742532   -0.300215    0.619972    11.00000    0.02649    0.01630 =
         0.02628   -0.00896   -0.00254    0.00001
AFIX  43
H00X  2    0.702631   -0.302356    0.684386    11.00000   -1.20000
AFIX   0
C00Y  1    0.673713    0.250882    0.613546    11.00000    0.03382    0.01489 =
         0.02128   -0.00847   -0.00362    0.00362
AFIX  43
H00Y  2    0.668487    0.197645    0.678740    11.00000   -1.20000
AFIX   0
C2    1    0.021769    0.901601    0.935418    11.00000    0.04131    0.01870 =
         0.02669   -0.01338   -0.00251    0.00346
AFIX  43
H2    2   -0.125238    0.888548    0.946161    11.00000   -1.20000
AFIX   0
C010  1    0.038558    1.108281    0.834470    11.00000    0.04106    0.01846 =
         0.02508   -0.00833   -0.00340    0.00412
C011  1    0.062929    0.587892    0.859161    11.00000    0.03253    0.02290 =
         0.02888   -0.01134   -0.00104    0.00300
AFIX  43
H011  2   -0.014720    0.570132    0.817601    11.00000   -1.20000
AFIX   0
C012  1    0.672941    0.404696    0.489085    11.00000    0.02604    0.01673 =
         0.02624   -0.00810   -0.00661    0.00450
AFIX  43
H012  2    0.666009    0.480955    0.451064    11.00000   -1.20000
AFIX   0
C013  1    0.338519    0.976341    0.888761    11.00000    0.03836    0.01983 =
         0.03148   -0.00997   -0.00910    0.00897
AFIX  43
H013  2    0.451816    1.029490    0.859206    11.00000   -1.20000
AFIX   0
C014  1    0.127781    0.708664    1.025144    11.00000    0.05997    0.01569 =
         0.02333   -0.00828   -0.00190    0.01015
AFIX  23
H01A  2    0.230663    0.683878    1.071156    11.00000   -1.20000
H01B  2   -0.013351    0.693118    1.064507    11.00000   -1.20000
AFIX   0
O1    4   -0.315570    0.787855    0.837570    11.00000    0.05676    0.05531 =
         0.04106   -0.00903   -0.00812    0.01956
H3    2   -0.210398    0.726945    0.873612    11.00000   -1.50000
H4    2    0.606960   -0.110103    0.814214    11.00000    0.16997
HKLF 4




REM  pvl596_a.res in P-1
REM wR2 = 0.1521, GooF = S = 1.030, Restrained GooF = 1.030 for all data
REM R1 = 0.0537 for 5012 Fo > 4sig(Fo) and 0.0768 for all 6573 data
REM 378 parameters refined using 0 restraints

END

WGHT      0.0850      0.0000

REM Highest difference peak  2.828,  deepest hole -1.485,  1-sigma level  0.181
Q1    1   0.3465  0.4336  0.7032  11.00000  0.05    2.83
Q2    1   1.0147  0.4362  0.7011  11.00000  0.05    1.61
Q3    1   0.8007 -0.1215  0.7266  11.00000  0.05    1.14
Q4    1   0.5266  0.1189  0.2797  11.00000  0.05    0.91
Q5    1   0.4596  1.1037  0.8315  11.00000  0.05    0.73
Q6    1   0.6029  0.9932  0.8764  11.00000  0.05    0.72
Q7    1   0.5225  0.8924  0.9357  11.00000  0.05    0.67
Q8    1   0.7356 -0.1108  0.7918  11.00000  0.05    0.65
Q9    1   0.5310  0.6204  0.9317  11.00000  0.05    0.63
Q10   1  -0.2841  0.8274  0.9833  11.00000  0.05    0.62
Q11   1   0.7402  0.2675  0.8204  11.00000  0.05    0.61
Q12   1  -0.2003  0.6438  0.9450  11.00000  0.05    0.59
Q13   1   0.1306  0.9114  1.0209  11.00000  0.05    0.58
Q14   1   0.2796  0.8534  1.0068  11.00000  0.05    0.58
Q15   1   0.9319  0.1154  0.2769  11.00000  0.05    0.57
Q16   1  -0.3186  0.6575  0.9616  11.00000  0.05    0.57
Q17   1   0.1754  0.8970  0.9456  11.00000  0.05    0.56
Q18   1  -0.3981  0.8016  0.8943  11.00000  0.05    0.56
Q19   1  -0.3548  0.8368  0.9502  11.00000  0.05    0.56
Q20   1  -0.2564  1.0259  0.8677  11.00000  0.05    0.54
;
_shelx_res_checksum   43446

_shelx_hkl_file
;
  -1   0   0   18.50    5.10
  -1   0   0   13.00    2.70
  -1   0   0   20.20    3.70
   1   0   0   19.40    2.70
   1   0   0   12.60    4.40
   1   0   0   21.90    3.80
  -2   0   0 6623.54  539.15
  -2   0   0 6993.10  538.25
  -2   0   0 6296.87  539.85
   2   0   0 6708.03  539.25
   2   0   0 6627.24  539.85
   2   0   0 6663.83  538.25
  -3   0   0 1526.85  126.59
  -3   0   0 1502.45  128.09
  -3   0   0 1574.34  125.09
   3   0   0 1450.55  127.69
   3   0   0 1548.15  125.09
   3   0   0 1594.54  126.79
  -4   0   0   23.10    7.20
  -4   0   0   17.50    5.10
  -4   0   0    9.50    9.90
   4   0   0   20.70   10.70
   4   0   0   19.20    5.10
   4   0   0   32.40   12.50
  -5   0   0   90.69   14.20
  -5   0   0  101.89   18.40
  -5   0   0  108.99   13.30
   5   0   0   84.59   14.20
   5   0   0   86.49   10.70
   5   0   0   67.69   17.10
  -6   0   0  303.57   37.10
  -6   0   0  243.58   25.50
   6   0   0  257.17   29.50
   6   0   0  292.97   25.60
   6   0   0  293.77   37.00
  -7   0   0    3.30    6.50
  -7   0   0   17.20   18.70
   7   0   0  -10.80    9.50
   7   0   0   12.90    7.00
  -8   0   0   55.39   24.30
   8   0   0   20.10   15.20
   8  -1   0  139.69   24.40
  -8   1   0  155.68   32.80
   7  -1   0   74.49   16.00
   7  -1   0   48.70    9.60
  -7   1   0   59.89   10.10
  -7   1   0   67.49   21.40
   6  -1   0   44.40   26.20
   6  -1   0   84.89   15.60
   6  -1   0   79.19   10.70
  -6   1   0  102.09   21.50
  -6   1   0   68.39   10.40
   5  -1   0  421.76   45.20
   5  -1   0  442.76   41.60
   5  -1   0  464.95   38.50
  -5   1   0  483.45   43.20
  -5   1   0  492.25   46.20
  -5   1   0  379.96   40.60
   4  -1   0    1.50    4.10
   4  -1   0   -7.40    8.70
   4  -1   0  -13.70    4.90
  -4   1   0    0.00    4.00
  -4   1   0   -5.70    9.60
  -4   1   0    0.30    5.00
   3  -1   0 1801.22  141.39
   3  -1   0 1604.14  142.29
   3  -1   0 1686.83  139.59
  -3   1   0 1693.23  142.69
  -3   1   0 1776.62  139.69
  -3   1   0 1711.53  140.99
   2  -1   0  350.36   29.90
   2  -1   0  386.06   28.80
   2  -1   0  308.37   31.70
  -2   1   0  340.57   32.20
  -2   1   0  319.97   29.70
  -2   1   0  324.27   28.70
   1  -1   0  132.99   11.60
   1  -1   0  126.39   11.00
   1  -1   0  113.39   13.90
  -1   1   0  120.59   11.00
  -1   1   0  119.39   13.30
  -1   1   0  120.69   11.70
   0   1   0   -0.60    0.90
  -1  -1   0 4345.77  327.77
  -1  -1   0 3902.01  328.07
  -1  -1   0 3908.81  327.37
   1   1   0 3887.41  327.47
   1   1   0 3812.92  328.07
   1   1   0 4427.86  327.87
  -2  -1   0 1365.46  106.59
  -2  -1   0 1308.47  107.39
  -2  -1   0 1335.07  108.39
   2   1   0 1250.17  106.49
   2   1   0 1367.06  107.49
   2   1   0 1220.38  108.09
  -3  -1   0 1911.11  154.78
  -3  -1   0 1967.80  151.98
  -3  -1   0 1742.13  153.18
   3   1   0 1897.21  153.38
   3   1   0 1798.02  154.38
  -4  -1   0  807.02   70.59
  -4  -1   0  837.02   72.79
  -4  -1   0  797.82   68.59
   4   1   0  814.72   72.59
   4   1   0  929.11   73.29
   4   1   0  829.52   68.69
  -5  -1   0   46.20   10.60
  -5  -1   0   54.39   14.80
   5   1   0   41.60    7.50
   5   1   0   36.40   14.60
   5   1   0   45.60   10.60
  -6  -1   0  566.44   52.09
  -6  -1   0  424.56   42.30
   6   1   0  502.05   42.50
   6   1   0  514.45   51.49
   6   1   0  522.15   47.00
  -7  -1   0   13.10    7.40
  -7  -1   0   36.00   18.40
   7   1   0   27.00    7.50
   7   1   0   17.60   12.00
  -8  -1   0   93.69   27.00
   8   1   0   37.80   15.80
   8  -2   0   17.30   13.90
   8  -2   0   18.30    7.80
  -8   2   0   29.80   22.90
   7  -2   0   57.39   10.40
   7  -2   0   73.49   16.40
  -7   2   0   52.99   10.50
  -7   2   0   94.49   24.70
   6  -2   0   38.00   12.10
   6  -2   0   60.69    9.70
  -6   2   0   54.79   18.80
  -6   2   0   47.90    9.20
   5  -2   0  281.37   30.00
   5  -2   0  307.17   27.10
  -5   2   0  273.77   29.60
  -5   2   0  346.27   35.80
  -5   2   0  296.47   27.20
   4  -2   0  559.54   47.90
   4  -2   0  549.15   50.69
   4  -2   0  549.45   45.50
  -4   2   0  493.85   45.50
  -4   2   0  557.64   50.99
  -4   2   0  542.95   47.50
   3  -2   0  816.82   68.39
   3  -2   0  832.82   71.99
   3  -2   0  831.42   69.99
  -3   2   0  839.02   69.89
  -3   2   0  847.62   68.49
  -3   2   0  800.02   71.99
   2  -2   0 1370.86  114.59
   2  -2   0 1466.05  115.49
   2  -2   0 1298.57  116.59
  -2   2   0 1409.96  114.59
  -2   2   0 1504.25  116.39
  -2   2   0 1383.36  116.89
   1  -2   0    4.70    3.80
   1  -2   0    1.20    6.20
   1  -2   0    5.00    3.30
  -1   2   0   -1.50    3.60
  -1   2   0    1.70    3.40
  -1   2   0   -2.60    6.30
   0  -2   0  703.33   59.19
   0  -2   0  720.43   58.19
   0  -2   0  707.73   58.29
   0   2   0  709.63   58.29
   0   2   0  707.63   59.19
  -1  -2   0  935.81   79.49
  -1  -2   0  978.60   80.89
  -1  -2   0 1006.60   79.69
   1   2   0 1000.60   79.69
   1   2   0  934.81   79.49
  -2  -2   0  382.76   34.50
  -2  -2   0  418.16   33.10
  -2  -2   0  383.46   32.30
   2   2   0  339.87   34.40
   2   2   0  417.26   33.30
   2   2   0  350.06   32.40
  -3  -2   0  614.14   46.80
  -3  -2   0  569.24   49.90
  -3  -2   0  539.55   47.90
   3   2   0  540.25   48.00
   3   2   0  491.95   49.20
   3   2   0  570.64   46.80
  -4  -2   0  789.42   65.69
  -4  -2   0  748.13   63.69
  -4  -2   0  775.62   68.19
   4   2   0  761.92   63.69
   4   2   0  755.72   67.69
  -5  -2   0   13.50    8.00
  -5  -2   0   23.50    6.70
  -5  -2   0   36.90   14.30
   5   2   0   20.00   14.20
   5   2   0   41.40   10.60
   5   2   0   18.80    6.50
  -6  -2   0  160.88   18.00
  -6  -2   0  204.28   29.70
   6   2   0  160.18   23.10
   6   2   0  175.88   28.60
   6   2   0  191.18   18.60
  -7  -2   0   97.29   13.60
  -7  -2   0  115.39   25.80
   7   2   0  135.19   14.60
   7   2   0  109.79   19.50
  -8  -2   0   10.00   20.20
   8   2   0    5.20   13.70
   8  -3   0   13.70   12.70
   8  -3   0   31.10    9.00
  -8   3   0   24.40   23.30
   7  -3   0  114.19   14.30
   7  -3   0   97.19   19.80
  -7   3   0  114.99   15.00
  -7   3   0   82.49   26.30
   6  -3   0   42.90    8.70
   6  -3   0   17.20   10.40
  -6   3   0   30.90   17.20
  -6   3   0   39.40    8.50
   5  -3   0  162.78   21.90
   5  -3   0  183.78   27.50
   5  -3   0  178.98   18.40
  -5   3   0  199.58   18.90
  -5   3   0  137.39   22.20
  -5   3   0  187.48   27.00
   4  -3   0  228.08   22.20
   4  -3   0  224.48   28.00
   4  -3   0  262.27   24.70
  -4   3   0  265.37   30.80
  -4   3   0  249.18   22.60
  -4   3   0  241.18   24.40
   3  -3   0  113.29   13.30
   3  -3   0  102.39   11.10
   3  -3   0   69.69   14.80
  -3   3   0   71.99   11.20
  -3   3   0   87.49   15.50
  -3   3   0   96.39   10.70
   2  -3   0 1022.10   81.39
   2  -3   0  974.50   80.59
   2  -3   0  947.71   82.99
  -2   3   0  969.40   83.19
  -2   3   0  985.70   81.19
  -2   3   0  961.80   80.59
   1  -3   0 1183.68  100.19
   1  -3   0 1269.27  100.49
   1  -3   0 1225.48  101.99
  -1   3   0 1200.18  101.89
  -1   3   0 1231.98  100.39
  -1   3   0 1224.98  100.19
   0  -3   0  251.67   26.20
   0  -3   0  281.17   24.20
   0  -3   0  279.37   23.70
   0  -3   0  281.27   23.80
   0   3   0  266.97   26.10
   0   3   0  253.57   23.60
  -1  -3   0 4546.04  374.26
  -1  -3   0 4550.24  373.16
  -1  -3   0 4647.23  373.16
   1   3   0 4754.62  373.26
   1   3   0 4503.35  374.36
   1   3   0 4611.14  373.26
  -2  -3   0   97.59   11.00
  -2  -3   0  113.19   13.00
  -2  -3   0   96.49   14.40
  -2  -3   0  103.09   14.20
   2   3   0   91.79   10.80
   2   3   0  101.89   12.10
  -3  -3   0  296.37   25.40
  -3  -3   0  296.17   26.60
  -3  -3   0  254.97   28.30
   3   3   0  257.77   28.60
   3   3   0  293.77   26.90
   3   3   0  298.77   25.60
  -4  -3   0  669.23   57.59
  -4  -3   0  612.64   55.69
  -4  -3   0  677.83   60.19
   4   3   0  723.63   58.29
   4   3   0  699.73   55.89
   4   3   0  604.64   59.49
  -5  -3   0  219.08   25.10
  -5  -3   0  175.08   21.10
  -5  -3   0  236.58   29.50
   5   3   0  283.97   31.50
   5   3   0  224.98   21.50
   5   3   0  206.88   25.10
  -6  -3   0   53.29   17.80
  -6  -3   0   22.50    7.60
   6   3   0   41.60    8.60
   6   3   0   31.70   11.60
   6   3   0   26.00   17.10
  -7  -3   0  106.59   15.00
  -7  -3   0  156.08   27.30
   7   3   0  157.08   16.70
   7   3   0  162.08   22.70
  -8  -3   0   22.50   20.40
   8   3   0    0.20   12.90
   8  -4   0   13.80   10.30
   8  -4   0   -4.20   11.50
  -8   4   0    2.60   22.50
   7  -4   0   60.49   16.70
   7  -4   0  108.19   16.50
  -7   4   0   93.99   30.50
  -7   4   0   99.59   15.10
   6  -4   0  123.39   19.60
   6  -4   0  161.98   17.30
  -6   4   0  137.69   27.00
  -6   4   0  130.49   16.70
   5  -4   0   22.80   16.00
   5  -4   0   55.29    9.60
   5  -4   0   22.80    9.90
  -5   4   0   40.80    8.60
  -5   4   0   11.30   14.70
   4  -4   0  166.68   24.80
   4  -4   0  191.78   18.10
   4  -4   0  195.28   20.20
  -4   4   0  171.98   18.20
  -4   4   0  158.58   24.90
   3  -4   0  226.38   22.70
   3  -4   0  248.48   21.70
   3  -4   0  208.08   26.10
  -3   4   0  240.58   22.80
  -3   4   0  225.78   27.00
  -3   4   0  220.88   21.40
   2  -4   0  417.36   40.50
   2  -4   0  445.76   38.30
   2  -4   0  436.56   37.50
  -2   4   0  414.86   41.10
  -2   4   0  453.25   38.30
  -2   4   0  442.56   37.80
   1  -4   0   30.90    6.10
   1  -4   0   19.00    5.80
  -1   4   0   19.20    5.70
  -1   4   0   19.50    8.50
   0  -4   0  547.75   45.80
   0  -4   0  537.55   45.50
   0  -4   0  549.85   45.70
   0  -4   0  538.15   47.60
   0   4   0  532.35   45.50
   0   4   0  532.55   47.90
  -1  -4   0 2798.22  229.58
  -1  -4   0 2816.72  228.18
  -1  -4   0 2817.12  228.18
  -1  -4   0 2802.72  228.08
   1   4   0 2770.72  229.68
  -2  -4   0  825.32   68.39
  -2  -4   0  811.42   66.59
  -2  -4   0  791.42   67.19
  -2  -4   0  745.23   69.39
   2   4   0  819.82   66.69
   2   4   0  761.42   66.19
  -3  -4   0   43.50   11.20
  -3  -4   0   34.50    9.70
  -3  -4   0   26.60    6.60
   3   4   0   30.00    7.60
  -4  -4   0  992.90   82.09
  -4  -4   0  952.50   83.59
  -4  -4   0 1047.00   86.19
   4   4   0  931.51   83.39
   4   4   0 1002.40   82.19
  -5  -4   0  -17.90   10.70
  -5  -4   0  -10.30    6.10
  -5  -4   0    0.30    7.60
   5   4   0    6.50    6.40
   5   4   0   10.20    9.20
  -6  -4   0   -7.00    6.40
  -6  -4   0   -3.50   13.20
   6   4   0    3.60    9.40
   6   4   0    7.10    7.50
  -7  -4   0   30.90    9.40
  -7  -4   0   74.89   22.40
   7   4   0   54.49   15.70
  -8  -4   0   -6.60   19.70
   8   4   0   11.00   13.50
   8  -5   0   39.70   16.60
   8  -5   0   20.40   10.80
  -8   5   0   53.39   27.10
   7  -5   0  104.09   20.00
   7  -5   0  122.69   17.10
  -7   5   0  149.99   18.80
  -7   5   0  124.09   28.90
   6  -5   0  377.66   41.80
   6  -5   0  404.66   38.10
  -6   5   0  426.86   38.80
  -6   5   0  495.15   50.19
   5  -5   0   58.49   10.40
   5  -5   0   71.99   13.10
  -5   5   0   55.79   17.20
  -5   5   0   34.20    9.30
   4  -5   0  432.06   36.70
   4  -5   0  353.36   43.10
   4  -5   0  419.16   38.50
  -4   5   0  367.66   37.60
  -4   5   0  438.96   37.00
  -4   5   0  452.25   43.90
   3  -5   0  194.28   18.80
   3  -5   0  188.18   19.80
   3  -5   0  200.48   24.20
  -3   5   0  158.98   19.20
  -3   5   0  198.08   19.90
   2  -5   0   42.60   12.00
   2  -5   0   52.39    8.50
   2  -5   0   51.09    8.70
  -2   5   0   49.90   12.50
  -2   5   0   48.30    8.30
  -2   5   0   60.19    8.90
   1  -5   0  149.49   15.60
   1  -5   0  160.38   19.90
   1  -5   0  127.59   14.90
  -1   5   0  157.58   19.90
  -1   5   0  114.09   14.00
  -1   5   0  136.79   14.80
   0  -5   0  543.55   45.40
   0  -5   0  501.75   45.50
   0  -5   0  524.05   45.70
   0  -5   0  561.54   48.00
   0   5   0  541.95   48.30
   0   5   0  535.85   45.50
  -1  -5   0  185.88   17.60
  -1  -5   0  164.88   17.40
  -1  -5   0  195.68   18.10
  -1  -5   0  184.38   21.60
  -1  -5   0  156.18   17.40
   1   5   0  185.08   22.20
  -2  -5   0 1422.76  115.29
  -2  -5   0 1344.27  112.69
  -2  -5   0 1347.87  112.99
   2   5   0 1361.96  112.89
   2   5   0 1358.76  112.99
  -3  -5   0  155.08   22.10
  -3  -5   0  175.68   17.70
  -3  -5   0  146.69   17.70
  -3  -5   0  191.28   22.30
   3   5   0  177.48   19.20
   3   5   0  174.18   18.10
  -4  -5   0  271.17   34.10
  -4  -5   0  288.87   29.30
  -4  -5   0  290.17   28.10
   4   5   0  320.07   28.60
   4   5   0  334.37   30.20
  -5  -5   0  180.18   21.20
  -5  -5   0  214.48   31.30
  -5  -5   0  187.28   27.80
   5   5   0  243.08   25.90
   5   5   0  210.48   21.70
  -6  -5   0    3.60   14.00
  -6  -5   0    2.50    8.20
   6   5   0    2.20   10.20
  -7  -5   0   41.80   11.20
  -7  -5   0   72.69   21.60
   7   5   0   52.49   15.30
  -8  -5   0   52.69   23.70
   8   5   0   26.70   16.10
   8  -6   0   23.80   26.90
   8  -6   0   62.29   13.30
  -8   6   0   55.99   28.30
   7  -6   0   25.40   10.60
   7  -6   0   21.70   12.80
  -7   6   0   28.50   11.90
  -7   6   0  -15.30   17.80
   6  -6   0   89.69   14.30
   6  -6   0  108.29   18.50
  -6   6   0  100.99   24.40
   5  -6   0  195.08   24.60
   5  -6   0  169.98   20.30
  -5   6   0  197.88   21.60
  -5   6   0  206.38   30.50
   4  -6   0   80.19   18.10
   4  -6   0   71.59   17.10
   4  -6   0   54.09   11.70
  -4   6   0   47.80   15.60
  -4   6   0   73.79   11.30
  -4   6   0   47.00   10.10
   3  -6   0  988.80   88.59
   3  -6   0 1048.20   85.79
   3  -6   0 1002.50   84.59
  -3   6   0 1054.49   89.29
  -3   6   0 1009.60   84.69
  -3   6   0  962.60   85.19
   2  -6   0  147.39   15.70
   2  -6   0  139.09   20.70
   2  -6   0  131.49   15.20
  -2   6   0  154.78   15.60
  -2   6   0  134.29   20.80
  -2   6   0  119.19   15.50
   1  -6   0 1270.47  102.29
   1  -6   0 1202.48  104.69
   1  -6   0 1226.08  102.09
  -1   6   0 1239.68  102.29
  -1   6   0 1205.38  102.09
  -1   6   0 1233.88  104.99
   0  -6   0  425.66   41.60
   0  -6   0  456.05   39.00
   0  -6   0  417.86   39.10
   0  -6   0  467.65   38.90
   0   6   0  460.95   38.90
   0   6   0  429.06   42.00
  -1  -6   0  441.16   37.30
  -1  -6   0  406.66   37.10
  -1  -6   0  404.76   37.50
  -1  -6   0  428.16   37.20
  -1  -6   0  435.36   40.30
   1   6   0  418.96   41.00
  -2  -6   0   48.20    9.00
  -2  -6   0   58.59   12.90
  -2  -6   0   44.80    8.60
   2   6   0   45.30   12.80
  -3  -6   0  313.57   29.90
  -3  -6   0  299.27   33.80
  -3  -6   0  297.37   30.20
  -3  -6   0  350.96   34.40
   3   6   0  354.86   30.60
   3   6   0  341.67   34.40
  -4  -6   0    5.00    7.30
  -4  -6   0   13.50    6.90
  -4  -6   0   -2.30   11.00
  -4  -6   0    7.80   13.50
   4   6   0   -0.30    7.60
   4   6   0    7.70    8.80
  -5  -6   0  225.28   23.20
  -5  -6   0  147.19   28.80
  -5  -6   0  229.58   30.50
   5   6   0  244.48   25.90
  -6  -6   0   44.00   11.30
  -6  -6   0   72.09   20.60
   6   6   0   47.40   13.50
  -7  -6   0   25.40   17.90
  -7  -6   0   41.40   11.90
   7   6   0   -0.20   13.00
  -8  -6   0   52.59   25.40
   8   6   0   54.69   17.80
   8  -7   0   57.09   18.00
   8  -7   0   49.80   14.00
  -8   7   0   65.59   28.80
   7  -7   0   -3.70    9.40
   7  -7   0   -4.10   10.70
  -7   7   0    6.90   20.30
   6  -7   0   53.79   12.00
   6  -7   0   54.29   14.70
  -6   7   0   83.19   14.30
  -6   7   0   59.79   22.10
   5  -7   0  306.87   29.70
   5  -7   0  267.97   31.40
  -5   7   0  318.57   30.60
  -5   7   0  323.77   39.10
   4  -7   0   12.70    7.30
   4  -7   0    6.10    7.30
  -4   7   0    7.20    7.60
  -4   7   0    8.60   13.20
   3  -7   0  214.48   23.20
   3  -7   0  239.98   24.30
   3  -7   0  237.78   28.80
  -3   7   0  219.68   23.50
  -3   7   0  241.98   23.50
  -3   7   0  252.77   30.10
   2  -7   0  353.06   33.00
   2  -7   0  382.76   32.80
   2  -7   0  390.36   37.10
  -2   7   0  365.06   32.80
  -2   7   0  317.97   36.70
  -2   7   0  328.37   32.70
   1  -7   0    0.40    8.20
   1  -7   0   11.90    6.20
   1  -7   0    7.60    5.20
  -1   7   0    3.10    4.50
   0  -7   0  391.36   36.70
   0  -7   0  420.46   37.50
   0  -7   0  403.66   39.80
   0  -7   0  399.56   36.30
   0   7   0  419.46   40.50
   0   7   0  420.66   36.50
  -1  -7   0  185.88   19.90
  -1  -7   0  204.18   24.40
  -1  -7   0  178.68   19.70
  -1  -7   0  231.18   21.00
   1   7   0  220.28   27.50
  -2  -7   0  280.77   27.20
  -2  -7   0  282.27   27.70
  -2  -7   0  272.97   27.00
  -2  -7   0  307.37   31.40
  -2  -7   0  302.47   27.60
   2   7   0  262.17   32.10
  -3  -7   0  175.98   19.40
  -3  -7   0  183.48   19.90
  -3  -7   0  187.98   25.70
  -3  -7   0  171.18   19.40
  -3  -7   0  139.59   22.40
  -3  -7   0  179.28   19.40
  -4  -7   0   13.90   12.70
  -4  -7   0    3.10    7.30
  -4  -7   0   -0.50    6.80
   4   7   0   12.20    9.20
  -5  -7   0  127.89   26.30
  -5  -7   0  160.88   20.50
  -5  -7   0  165.28   26.60
   5   7   0  170.68   22.00
  -6  -7   0   29.40   17.40
  -6  -7   0   24.10   10.30
  -6  -7   0    5.10    9.30
   6   7   0   18.50   12.10
  -7  -7   0    2.30   10.50
   7   7   0   -3.20   11.70
   8  -8   0   65.09   15.90
   8  -8   0   43.30   17.80
  -8   8   0  115.29   39.80
   7  -8   0   61.59   16.90
   7  -8   0   71.99   15.10
  -7   8   0   60.59   25.50
   6  -8   0   35.20   12.60
   6  -8   0   45.60   12.10
  -6   8   0   46.30   19.90
   5  -8   0  595.24   54.59
   5  -8   0  569.24   50.99
  -5   8   0  625.64   60.59
  -5   8   0  505.95   53.59
   4  -8   0   52.29   10.80
   4  -8   0   28.60   10.10
  -4   8   0   66.59   18.70
  -4   8   0   36.10   10.20
   3  -8   0  264.87   25.20
   3  -8   0  243.98   25.70
   3  -8   0  267.97   35.70
  -3   8   0  232.48   25.40
  -3   8   0  262.17   31.50
  -3   8   0  218.48   25.00
   2  -8   0  409.26   41.80
   2  -8   0  421.46   37.60
   2  -8   0  420.66   37.30
  -2   8   0  411.06   42.40
  -2   8   0  383.16   37.20
   1  -8   0   50.69    9.20
   1  -8   0   67.79   10.70
   1  -8   0   35.70   12.80
   1  -8   0   57.49   10.30
  -1   8   0   55.79    9.90
  -1   8   0   49.50   14.70
   0  -8   0   26.90    7.90
   0  -8   0   14.20   10.60
   0  -8   0   33.10    7.40
   0  -8   0   26.90    7.60
   0   8   0   47.30   14.00
   0   8   0   22.40    7.30
  -1  -8   0  307.27   30.90
  -1  -8   0  338.97   31.30
  -1  -8   0  328.27   31.70
  -1  -8   0  346.97   31.20
  -1  -8   0  366.76   35.80
   1   8   0  326.37   36.70
  -2  -8   0   19.40    7.40
  -2  -8   0   22.50    7.30
  -2  -8   0   38.70    8.40
  -2  -8   0   17.60   10.80
   2   8   0   18.40   13.00
  -3  -8   0  259.37   26.00
  -3  -8   0  112.69   36.40
  -3  -8   0  275.67   27.10
  -3  -8   0  288.17   26.90
  -3  -8   0  300.97   33.70
  -3  -8   0  249.68   26.70
  -4  -8   0   47.90   17.20
  -4  -8   0  103.09   20.50
  -4  -8   0   89.09   14.00
  -4  -8   0   71.19   13.50
  -4  -8   0   97.19   16.20
  -5  -8   0  139.09   20.80
  -5  -8   0  211.78   22.90
  -5  -8   0  190.08   29.60
   5   8   0  193.98   24.40
  -6  -8   0   93.09   23.10
  -6  -8   0   65.49   14.80
   6   8   0   62.09   15.20
  -7  -8   0   13.80   19.60
  -7  -8   0    2.30   11.60
   7   8   0    3.50   13.30
   7  -9   0   81.39   15.50
   7  -9   0   56.49   18.00
  -7   9   0   63.59   25.60
   6  -9   0   20.30   12.00
   6  -9   0   46.80   12.10
  -6   9   0   15.70   18.10
   5  -9   0  251.37   27.20
   5  -9   0  229.28   29.70
  -5   9   0  275.17   38.20
   4  -9   0  268.97   29.40
   4  -9   0  249.38   28.10
  -4   9   0  322.87   39.40
   3  -9   0   90.59   13.70
   3  -9   0   67.59   13.40
  -3   9   0   92.79   21.10
   2  -9   0  746.13   64.59
   2  -9   0  775.12   75.09
   2  -9   0  767.52   64.69
   2  -9   0  692.43   63.99
  -2   9   0  698.23   64.19
  -2   9   0  803.52   69.99
   1  -9   0    2.80    5.70
   1  -9   0   13.40    7.00
   1  -9   0   18.40   10.90
   1  -9   0   -6.50    5.10
  -1   9   0    7.20    5.40
  -1   9   0   11.90   12.90
   0  -9   0  894.81   77.09
   0  -9   0  943.21   77.59
   0  -9   0  910.51   81.29
   0  -9   0  855.61   77.39
   0   9   0  926.61   81.89
  -1  -9   0   10.70   13.00
  -1  -9   0   19.70    7.10
  -1  -9   0   11.30    7.90
  -1  -9   0   -1.90    6.10
  -1  -9   0   -1.80    7.80
   1   9   0   10.60   12.60
  -2  -9   0  312.77   30.50
  -2  -9   0  274.87   35.30
  -2  -9   0  353.66   31.10
  -2  -9   0  318.87   31.50
  -2  -9   0  268.87   30.50
   2   9   0  364.56   38.60
  -3  -9   0   63.29   19.00
  -3  -9   0   51.79   11.90
  -3  -9   0   50.09   11.90
  -3  -9   0   11.50   13.60
  -3  -9   0   46.30   10.50
  -3  -9   0   70.39   13.20
  -4  -9   0   35.90   11.00
  -4  -9   0   64.69   19.40
  -4  -9   0   40.90   12.10
  -5  -9   0   15.30   17.00
  -5  -9   0   -2.20    8.70
  -5  -9   0  -10.00    8.50
  -6  -9   0   77.49   16.80
  -6  -9   0   81.79   22.90
  -7  -9   0   65.29   16.60
  -7  -9   0   45.80   23.80
   7   9   0   67.19   18.50
   7 -10   0  111.29   19.60
   7 -10   0  142.19   24.20
   6 -10   0   12.30   11.60
   6 -10   0    5.20   10.20
  -6  10   0    5.40   18.70
   5 -10   0  162.88   25.00
   5 -10   0  177.48   23.10
  -5  10   0  180.48   31.40
   4 -10   0  233.28   27.60
   3 -10   0   48.70   11.70
   3 -10   0   33.70   11.10
  -3  10   0   43.50   17.70
   2 -10   0  195.38   23.30
   2 -10   0  181.68   22.90
  -2  10   0  215.08   31.50
   1 -10   0  369.36   35.40
   1 -10   0  348.47   35.40
  -1  10   0  370.86   35.70
  -1  10   0  438.66   43.90
   0 -10   0  170.78   20.70
   0 -10   0  190.88   30.30
   0 -10   0  189.48   21.90
   0  10   0  174.18   27.20
   0  10   0  178.28   21.50
  -1 -10   0 1183.38   94.79
  -1 -10   0 1183.08   95.19
  -1 -10   0 1015.60   94.39
  -1 -10   0 1003.80   98.29
   1  10   0 1201.08  100.49
  -2 -10   0  334.47   31.30
  -2 -10   0  335.17   31.10
  -2 -10   0  286.77   31.30
  -2 -10   0  221.58   37.90
   2  10   0  337.47   40.30
  -3 -10   0  290.27   31.70
  -3 -10   0  356.96   42.30
  -3 -10   0  333.67   33.20
  -4 -10   0  575.64   50.69
  -4 -10   0  478.85   54.89
  -4 -10   0  527.15   49.20
  -5 -10   0    7.40    9.60
  -5 -10   0    3.00   10.80
  -5 -10   0   -4.60   15.20
  -6 -10   0  106.09   25.80
  -6 -10   0  127.69   21.70
  -6 -10   0  118.29   21.20
   7 -11   0   93.59   21.80
   7 -11   0  113.09   19.50
  -7  11   0  149.49   35.00
   6 -11   0   36.50   12.60
   6 -11   0    8.10   11.50
  -6  11   0   20.40   20.60
   5 -11   0    9.80   10.70
   5 -11   0    8.80   10.30
  -5  11   0    5.00   17.30
   4 -11   0  385.26   37.70
   4 -11   0  343.47   38.00
  -4  11   0  412.06   46.50
   3 -11   0  161.78   21.80
   3 -11   0  155.88   22.30
  -3  11   0  190.58   40.30
   2 -11   0  231.38   26.50
   2 -11   0  182.68   24.90
  -2  11   0  240.88   35.20
   1 -11   0  576.54   52.79
   1 -11   0  586.04   52.99
  -1  11   0  599.94   60.29
   0 -11   0    9.90    7.30
   0 -11   0    4.30    6.60
   0  11   0   -4.30   13.30
  -1 -11   0   42.90   10.80
  -1 -11   0   45.20   11.40
   1  11   0   84.49   19.80
  -2 -11   0  241.38   26.20
  -2 -11   0  231.48   26.10
   2  11   0  224.78   34.60
  -3 -11   0   33.20   19.40
  -3 -11   0   10.10    9.00
  -3 -11   0    9.00    9.70
  -4 -11   0  128.19   19.60
  -4 -11   0  126.79   26.40
  -4 -11   0  119.49   19.90
  -5 -11   0   60.29   16.40
  -5 -11   0   60.49   15.20
  -5 -11   0   56.59   23.90
  -6 -11   0   27.50   21.00
  -6 -11   0    1.40   12.90
  -6 -11   0    5.40   12.20
   6 -12   0   92.59   17.60
   6 -12   0   23.60   13.90
   5 -12   0   -1.40    9.70
   5 -12   0   -4.40    9.80
  -5  12   0   16.90   17.80
   4 -12   0  263.87   30.30
   4 -12   0  221.68   30.30
  -4  12   0  257.17   40.10
   3 -12   0  163.98   24.00
   3 -12   0  206.28   26.60
  -3  12   0  251.37   37.40
   2 -12   0   58.99   12.70
   1 -12   0  632.84   57.39
   1 -12   0  614.54   56.99
  -1  12   0  657.63   65.39
   0 -12   0   74.29   12.90
   0 -12   0   42.40   12.30
   0  12   0   95.19   23.60
  -1 -12   0  143.49   19.90
  -1 -12   0  145.59   21.40
   1  12   0  158.18   29.90
  -2 -12   0  119.59   17.60
   2  12   0  115.09   26.10
  -3 -12   0    8.10    9.90
  -3 -12   0   -1.40    9.50
  -3 -12   0  -10.40   18.00
  -4 -12   0    1.20   10.20
  -4 -12   0   27.40   11.60
  -4 -12   0   30.50   21.60
  -5 -12   0   78.99   18.20
  -5 -12   0   66.79   16.50
  -5 -12   0   54.99   23.00
   6 -13   0   30.70   15.50
   6 -13   0   66.69   17.30
  -6  13   0   76.69   27.40
   5 -13   0    0.20   11.70
   5 -13   0   10.50   11.50
  -5  13   0    3.20   19.60
   4 -13   0   88.09   17.20
   4 -13   0   81.89   17.60
  -4  13   0  100.79   27.00
   3 -13   0  131.19   20.50
   3 -13   0  102.29   18.80
  -3  13   0  130.09   29.80
   2 -13   0   23.20   10.20
   2 -13   0   24.50   10.00
  -2  13   0   41.10   21.60
   1 -13   0  178.48   21.70
   1 -13   0  124.19   19.80
  -1  13   0   92.99   26.80
   0 -13   0  463.25   46.00
   0 -13   0  506.85   46.70
   0  13   0  473.75   56.39
  -1 -13   0    4.60    7.90
  -1 -13   0    2.10    8.70
   1  13   0   -6.10   31.70
  -2 -13   0  143.49   20.20
  -2 -13   0  123.19   21.90
   2  13   0  114.69   28.70
  -3 -13   0   25.30   12.00
  -3 -13   0   12.80   10.10
  -3 -13   0   33.70   23.50
  -4 -13   0   -5.70   18.70
  -4 -13   0    2.00   11.30
  -4 -13   0   -9.70    9.30
  -5 -13   0   62.79   24.60
  -5 -13   0   58.49   17.00
  -5 -13   0   56.19   17.10
   5 -14   0    4.30   11.50
   5 -14   0   12.40   13.70
  -5  14   0   13.50   22.50
   4 -14   0  148.49   23.90
   4 -14   0  113.99   20.70
  -4  14   0   99.99   29.80
   3 -14   0   84.89   17.90
   3 -14   0  129.29   20.30
  -3  14   0  116.49   32.40
   2 -14   0   22.70   10.40
   2 -14   0   35.20   12.30
  -2  14   0   21.00   20.40
   1 -14   0   17.50    9.40
   1 -14   0   16.30   10.30
  -1  14   0   14.00   18.60
   0 -14   0  152.58   20.80
   0 -14   0  104.79   17.80
   0  14   0  106.69   26.80
  -1 -14   0   82.59   15.30
  -1 -14   0   79.19   16.40
   1  14   0   86.79   25.90
  -2 -14   0   43.90   13.90
  -2 -14   0   56.89   13.80
   2  14   0   86.19   26.40
  -3 -14   0  120.69   20.00
  -3 -14   0  174.48   35.60
  -3 -14   0   97.59   19.10
  -4 -14   0    7.40   20.50
  -4 -14   0  -11.20   11.70
  -4 -14   0   -4.70   11.50
   4 -15   0    0.40   10.60
  -4  15   0   13.10   22.90
   3 -15   0  359.66   39.30
   3 -15   0  336.97   39.00
  -3  15   0  433.36   65.09
   2 -15   0   38.70   13.40
   2 -15   0   52.39   13.00
  -2  15   0   54.79   24.50
   1 -15   0   46.10   13.10
   1 -15   0   33.90   13.50
  -1  15   0   43.50   24.90
   0 -15   0  224.88   28.20
   0 -15   0  188.38   27.30
   0  15   0  277.37   41.60
  -1 -15   0  -11.10    8.00
  -1 -15   0    9.40    9.50
   1  15   0    6.80   20.00
  -2 -15   0   18.90   10.90
  -2 -15   0    7.00   10.80
   2  15   0   -0.30   21.40
  -3 -15   0   47.60   14.50
  -3 -15   0   35.90   14.20
  -3 -15   0   56.79   28.70
   3 -16   0    6.80   12.30
   3 -16   0   11.60   12.00
  -3  16   0   15.50   22.30
   2 -16   0   73.09   17.20
   2 -16   0   63.69   17.50
  -2  16   0   93.29   32.50
   1 -16   0   47.10   17.20
   1 -16   0   18.90   11.60
  -1  16   0   50.69   27.60
   0 -16   0  190.18   26.40
   0 -16   0  165.18   35.10
   0  16   0  220.98   40.10
  -1 -16   0  242.28   32.80
  -1 -16   0  261.47   32.10
   1  16   0  287.67   46.40
  -2 -16   0   24.70   14.50
  -2 -16   0   34.30   12.80
   2  16   0   45.80   26.40
  -1 -16   1   -1.80   11.10
  -1 -16   1    8.60   10.30
   0 -16   1   14.60   11.00
   0 -16   1    8.10   11.60
  -1  16  -1   89.59   32.30
   1 -16   1   73.09   18.20
   1 -16   1  111.69   19.60
  -2  16  -1  131.29   35.10
   2 -16   1   79.79   18.70
  -3 -15   1   34.20   26.80
  -3 -15   1   18.30   12.00
   2  15  -1  128.09   34.20
  -2 -15   1  115.89   20.30
  -2 -15   1  151.68   23.50
   1  15  -1  118.39   30.80
  -1 -15   1  103.39   18.40
  -1 -15   1  100.49   17.60
   0  15  -1   -5.50   18.60
   0 -15   1   -8.90    8.50
   0 -15   1    2.90    9.90
  -1  15  -1   59.39   25.40
   1 -15   1   64.39   15.40
   1 -15   1  107.69   18.80
  -2  15  -1   35.00   23.00
   2 -15   1   33.00   13.60
   2 -15   1   28.80   12.10
  -3  15  -1   10.60   27.60
   3 -15   1    2.30   10.40
  -4  15  -1   31.50   26.40
   4 -15   1   43.60   16.50
   4 -15   1   56.79   18.60
  -4 -14   1   91.99   29.20
  -4 -14   1   58.29   17.00
  -4 -14   1   62.39   16.50
  -3 -14   1   63.09   15.80
  -3 -14   1   67.29   16.50
  -3 -14   1   81.59   29.40
   2  14  -1    5.80   21.70
  -2 -14   1   20.60   10.30
  -2 -14   1    9.40   10.90
   1  14  -1  227.58   39.30
  -1 -14   1  210.78   28.40
  -1 -14   1  258.87   28.00
   0  14  -1   48.80   22.40
   0 -14   1   28.80   12.00
   0 -14   1   37.50   11.30
  -1  14  -1  201.08   38.40
   1 -14   1  200.78   26.70
   1 -14   1  202.38   25.40
  -2  14  -1  162.88   34.40
   2 -14   1  128.89   21.70
   2 -14   1  141.79   21.20
  -3  14  -1   22.10   21.80
   3 -14   1   32.10   13.60
   3 -14   1   13.70   11.60
   4 -14   1  153.98   24.70
   4 -14   1  126.59   23.40
  -5  14  -1   19.80   23.90
   5 -14   1   26.30   14.20
  -5 -13   1    4.40   22.00
  -5 -13   1   18.70   13.90
  -5 -13   1    2.50   12.60
  -4 -13   1  143.49   32.90
  -4 -13   1  114.59   20.60
  -4 -13   1  114.19   20.20
  -3 -13   1   48.90   15.00
  -3 -13   1   87.59   28.20
  -3 -13   1  101.79   16.70
   2  13  -1   14.90   19.80
  -2 -13   1    7.00    9.40
  -2 -13   1   15.50   10.50
   1  13  -1  101.59   26.60
  -1 -13   1   89.89   17.70
  -1 -13   1   79.09   15.40
   0  13  -1   22.90   18.90
   0 -13   1   10.80    9.70
  -1  13  -1    3.50   16.60
   1 -13   1    1.30    8.20
   1 -13   1    8.70    8.10
  -2  13  -1  292.57   43.80
   2 -13   1  254.17   30.10
   2 -13   1  239.28   30.60
  -3  13  -1  158.98   32.80
   3 -13   1  129.19   20.70
   3 -13   1   95.09   18.30
  -4  13  -1   52.69   22.40
   4 -13   1   23.80   12.20
   4 -13   1   51.89   15.80
   5 -13   1  235.08   39.90
   5 -13   1  241.18   31.30
  -5 -12   1   30.40   13.50
  -5 -12   1   31.80   15.40
  -5 -12   1   34.00   21.70
  -4 -12   1   38.60   21.60
  -4 -12   1   27.40   12.00
  -4 -12   1   20.20   11.10
  -3 -12   1  207.38   34.40
  -3 -12   1  151.18   21.80
  -3 -12   1  121.89   20.90
   2  12  -1   47.20   25.30
  -2 -12   1   77.69   14.20
  -2 -12   1   56.59   13.50
   1  12  -1  109.19   25.00
  -1 -12   1  108.19   16.20
  -1 -12   1  103.49   17.30
   0  12  -1  325.07   42.20
   0 -12   1  265.97   34.70
   0 -12   1  286.87   29.70
   1 -12   1   33.10   11.00
   1 -12   1   20.50    9.20
  -2  12  -1  144.19   30.40
   2 -12   1  155.58   22.50
   2 -12   1  169.58   24.50
  -3  12  -1  176.88   32.80
   3 -12   1  152.38   22.70
   3 -12   1  166.38   22.90
  -4  12  -1   79.29   24.30
   4 -12   1   28.80   12.40
   4 -12   1   40.40   13.40
  -5  12  -1  203.18   37.10
   5 -12   1  184.78   28.30
   5 -12   1  190.48   26.50
  -6  12  -1   66.19   26.70
   6 -12   1  101.79   19.20
   6 -12   1   99.39   22.60
  -6 -11   1  120.39   28.60
  -6 -11   1   92.99   19.40
  -6 -11   1  122.29   22.30
  -5 -11   1  116.69   20.50
  -5 -11   1   90.99   26.60
  -5 -11   1   93.29   17.90
  -4 -11   1    6.10   10.20
  -4 -11   1   23.50   31.60
  -3 -11   1  115.89   18.30
  -3 -11   1  123.49   18.80
  -3 -11   1  159.58   30.00
   2  11  -1  385.86   48.00
  -2 -11   1  442.36   39.80
  -2 -11   1  393.96   39.80
   1  11  -1   22.30   17.10
  -1 -11   1   45.10   11.40
  -1 -11   1   24.20    8.70
   0  11  -1  459.05   50.99
   0 -11   1  486.15   43.30
   0 -11   1  451.55   43.70
  -1  11  -1  162.28   29.10
   1 -11   1  149.29   20.00
   1 -11   1  143.19   19.60
  -2  11  -1   47.40   17.70
   2 -11   1   37.20   10.60
   2 -11   1   29.40    9.60
  -3  11  -1  133.09   27.80
   3 -11   1  115.79   19.60
   3 -11   1  124.69   19.10
  -4  11  -1   66.79   22.80
   4 -11   1   61.69   15.00
   4 -11   1   37.00   12.90
  -5  11  -1   38.30   20.40
   5 -11   1   57.59   14.70
   5 -11   1   72.79   15.60
  -6  11  -1   73.49   25.40
   6 -11   1   88.79   18.60
   6 -11   1   77.69   18.20
  -6 -10   1   37.10   21.10
  -6 -10   1   19.60   13.20
  -6 -10   1   24.20   13.50
  -5 -10   1   43.60   17.60
  -5 -10   1   89.19   16.20
  -5 -10   1  107.19   29.80
  -4 -10   1  274.87   30.40
  -4 -10   1  225.08   28.50
  -4 -10   1  286.97   39.20
  -3 -10   1   38.80   18.90
  -3 -10   1   63.89   12.70
  -3 -10   1   33.00   10.80
   2  10  -1  432.76   50.89
  -2 -10   1  475.65   44.20
  -2 -10   1  465.65   43.40
  -2 -10   1  492.25   44.00
   1  10  -1  115.29   24.50
  -1 -10   1  128.99   18.40
  -1 -10   1  171.38   19.60
  -1 -10   1  133.59   17.60
   0  10  -1  157.68   26.40
   0  10  -1  123.79   17.20
   0 -10   1  138.49   17.10
   0 -10   1  117.39   16.90
  -1  10  -1  607.34   60.29
  -1  10  -1  720.23   65.09
   1 -10   1  677.63   57.69
   1 -10   1  613.94   57.59
  -2  10  -1   30.30   15.50
   2 -10   1   29.20    9.10
   2 -10   1   33.30   10.30
  -3  10  -1  266.07   37.10
   3 -10   1  268.97   26.90
   3 -10   1  207.78   27.80
  -4  10  -1    3.10   15.10
   4 -10   1   19.50   12.00
   4 -10   1   20.60   10.30
  -5  10  -1   16.10   16.90
   5 -10   1   23.20   10.90
   5 -10   1   38.60   12.50
  -6  10  -1    8.60   17.20
   6 -10   1   28.50   12.40
   6 -10   1   27.90   13.40
   7 -10   1   35.70   15.80
   7 -10   1   41.60   14.20
  -7  -9   1   65.69   16.00
  -7  -9   1   59.19   25.40
  -6  -9   1   -8.40   10.30
  -6  -9   1   -2.70   11.10
  -6  -9   1    9.20   18.00
  -5  -9   1  188.38   26.40
  -5  -9   1  250.87   26.40
  -5  -9   1  209.38   33.90
  -4  -9   1   51.89   12.60
  -4  -9   1   51.19   12.60
  -4  -9   1   51.59   19.00
  -3  -9   1   49.40   11.50
  -3  -9   1   60.49   13.00
  -3  -9   1   60.39   12.50
  -3  -9   1   92.89   22.70
   2   9  -1  131.89   24.70
  -2  -9   1  144.79   18.80
  -2  -9   1  120.29   16.60
  -2  -9   1  133.39   18.10
  -2  -9   1   92.79   20.70
  -2  -9   1  160.08   18.30
   1   9  -1  172.18   26.60
  -1  -9   1  128.49   17.80
  -1  -9   1  134.69   17.10
  -1  -9   1   88.39   16.80
  -1  -9   1  133.99   16.40
  -1  -9   1  117.79   22.00
   0   9  -1   24.80   13.80
   0  -9   1   -2.10    9.90
   0  -9   1   12.90    6.00
   0  -9   1   24.90    8.50
   0  -9   1   -0.10    5.90
  -1   9  -1   48.70   16.60
  -1   9  -1   22.30    7.50
   1  -9   1   30.40    8.30
   1  -9   1   28.30    8.10
   1  -9   1   39.40    9.60
   1  -9   1   30.00   12.70
  -2   9  -1  323.87   35.50
  -2   9  -1  449.76   43.70
   2  -9   1  405.26   36.50
   2  -9   1  395.66   36.40
  -3   9  -1   -6.70   11.10
   3  -9   1    5.20    6.90
   3  -9   1    7.40    7.30
  -4   9  -1  479.05   47.10
   4  -9   1  385.26   38.40
   4  -9   1  372.36   39.30
  -5   9  -1  220.18   34.80
   5  -9   1  260.77   28.10
   5  -9   1  199.78   28.10
  -6   9  -1  226.48   36.10
   6  -9   1  172.78   27.00
   6  -9   1  241.48   27.20
  -7   9  -1  151.88   33.70
   7  -9   1  177.98   32.70
   7  -9   1  165.88   25.40
   7   8  -1   80.49   18.10
  -7  -8   1   25.80   22.00
  -7  -8   1   68.79   15.60
   6   8  -1    5.70   11.90
  -6  -8   1   20.70   28.00
  -6  -8   1   -0.10    9.40
  -5  -8   1   20.50    9.70
  -5  -8   1    2.40   15.30
  -5  -8   1   18.80   10.50
  -4  -8   1  308.67   35.30
  -4  -8   1  279.77   27.20
  -4  -8   1  227.58   27.20
  -4  -8   1  279.27   28.40
  -4  -8   1  203.28   29.10
  -3  -8   1  104.69   22.50
  -3  -8   1  148.19   19.20
  -3  -8   1  150.68   18.90
  -3  -8   1  138.09   18.70
  -3  -8   1  158.08   18.20
  -3  -8   1  144.79   25.90
   2   8  -1  308.27   35.20
  -2  -8   1  278.07   28.40
  -2  -8   1  297.67   28.00
  -2  -8   1  308.97   41.60
  -2  -8   1  299.17   27.90
  -2  -8   1  234.28   27.50
   1   8  -1  492.75   48.70
  -1  -8   1  494.85   43.10
  -1  -8   1  473.15   43.00
  -1  -8   1  463.95   49.10
  -1  -8   1  492.95   43.50
   0   8  -1    4.70   10.40
   0   8  -1   16.50    6.50
   0  -8   1   18.20    7.20
   0  -8   1   15.30   11.60
   0  -8   1   17.30    6.40
  -1   8  -1  352.36   31.30
  -1   8  -1  328.77   37.80
   1  -8   1  326.67   31.30
   1  -8   1  330.07   37.70
   1  -8   1  334.67   31.60
  -2   8  -1    3.50    5.30
  -2   8  -1   15.30    7.40
  -2   8  -1    3.20   10.10
   2  -8   1   -6.70    8.00
   2  -8   1   11.40    6.20
   2  -8   1    9.60    6.30
  -3   8  -1   62.09   17.30
  -3   8  -1   53.79   11.80
  -3   8  -1   46.80   13.20
   3  -8   1   75.79   12.30
   3  -8   1   65.49   12.30
  -4   8  -1   14.40   10.50
  -4   8  -1   12.90   14.30
   4  -8   1    1.80    7.50
   4  -8   1   18.90    9.30
  -5   8  -1   44.40   18.00
   5  -8   1   45.50   11.60
  -6   8  -1   12.60   18.00
   6  -8   1  -10.00    8.20
   6  -8   1   -0.80    9.30
  -7   8  -1   43.90   23.40
   7  -8   1   26.70   13.70
   7  -8   1   39.00   12.50
  -8   8  -1   36.40   32.30
   8  -8   1   12.20   14.90
   8  -8   1    6.10   14.70
   7   7  -1  115.59   21.50
  -7  -7   1  181.48   32.00
  -7  -7   1  140.09   19.60
   6   7  -1   69.59   15.80
  -6  -7   1   53.29   13.40
  -6  -7   1  113.49   24.30
  -6  -7   1  103.59   15.30
   5   7  -1  119.79   18.10
  -5  -7   1  102.49   22.60
  -5  -7   1  105.59   15.90
   4   7  -1  188.78   21.10
  -4  -7   1  181.58   20.50
  -4  -7   1   95.49   23.30
  -4  -7   1  189.98   19.90
  -4  -7   1  186.48   27.00
  -4  -7   1  160.18   21.20
  -3  -7   1   30.30    8.70
  -3  -7   1   28.80    8.70
  -3  -7   1   34.60   14.60
  -3  -7   1   16.80    7.40
  -3  -7   1   25.70    7.60
  -3  -7   1   25.40   14.40
   2   7  -1   71.89   17.10
  -2  -7   1   36.50    9.40
  -2  -7   1   71.79   10.90
  -2  -7   1   34.50   13.10
  -2  -7   1   76.39   11.40
  -2  -7   1   58.39    9.60
  -1  -7   1  246.08   22.40
  -1  -7   1  200.48   22.80
  -1  -7   1  244.78   22.70
  -1  -7   1  213.98   27.10
  -1  -7   1  223.78   22.10
   0   7  -1    4.20    4.90
   0  -7   1    7.90    5.00
   0  -7   1   22.30    6.50
   0  -7   1   11.10    9.20
   0  -7   1   19.00    6.70
  -1   7  -1  109.09   14.00
  -1   7  -1  163.08   17.30
  -1   7  -1   99.49   19.30
   1  -7   1  119.59   14.60
   1  -7   1  102.09   14.30
   1  -7   1  116.79   19.30
  -2   7  -1  645.64   55.69
  -2   7  -1  663.13   60.09
  -2   7  -1  621.14   55.49
   2  -7   1  673.23   59.99
   2  -7   1  628.24   55.69
   2  -7   1  630.94   55.49
  -3   7  -1    4.50    7.70
  -3   7  -1    0.30   10.10
  -3   7  -1   13.30    6.70
   3  -7   1   13.70    6.80
   3  -7   1   17.60    6.80
   3  -7   1   -0.10    9.50
  -4   7  -1  323.27   32.90
  -4   7  -1  349.57   40.40
   4  -7   1  352.46   34.00
   4  -7   1  347.97   32.90
  -5   7  -1  136.79   26.20
  -5   7  -1  143.39   19.00
   5  -7   1  162.38   19.60
   5  -7   1  116.19   19.50
  -6   7  -1   61.39   21.30
   6  -7   1   52.99   12.10
   6  -7   1   24.60   11.30
  -7   7  -1   53.29   23.30
   7  -7   1   36.30   14.10
   7  -7   1   68.79   14.40
  -8   7  -1   -1.90   24.20
   8  -7   1   -1.10   12.70
   8  -7   1   14.20   12.80
   8   6  -1   18.20   14.80
  -8  -6   1  -14.60   19.90
   7   6  -1   16.70   14.00
  -7  -6   1   28.30   10.90
  -7  -6   1   20.70   19.70
   6   6  -1  278.57   31.20
  -6  -6   1  311.37   28.80
  -6  -6   1  221.68   27.80
  -6  -6   1  350.86   41.20
   5   6  -1    7.80    8.90
  -5  -6   1    2.60    7.30
  -5  -6   1   -9.20    7.40
  -5  -6   1    5.10   13.50
   4   6  -1  573.04   45.90
  -4  -6   1  504.55   50.19
  -4  -6   1  478.25   44.10
  -4  -6   1  424.56   48.10
   3   6  -1  334.17   34.80
  -3  -6   1  318.07   37.80
  -3  -6   1  364.16   33.30
  -3  -6   1  411.16   38.30
  -3  -6   1  401.46   33.30
  -3  -6   1  352.16   33.60
   2   6  -1  131.59   21.00
  -2  -6   1  169.78   16.00
  -2  -6   1  135.99   15.80
  -2  -6   1  136.09   15.50
  -2  -6   1  121.19   19.60
  -2  -6   1  128.29   15.20
   1   6  -1 1240.98  109.89
  -1  -6   1 1337.37  106.59
  -1  -6   1 1307.47  106.59
  -1  -6   1 1244.68  106.69
  -1  -6   1 1292.27  109.79
  -1  -6   1 1286.17  106.89
   0   6  -1  395.36   40.60
   0   6  -1  416.86   36.70
   0  -6   1  424.26   37.40
   0  -6   1  420.86   37.00
   0  -6   1  418.46   36.60
   0  -6   1  431.26   40.60
  -1   6  -1  291.67   26.40
  -1   6  -1  314.57   27.10
  -1   6  -1  278.67   30.80
   1  -6   1  297.87   26.70
   1  -6   1  247.88   26.40
   1  -6   1  293.77   30.30
  -2   6  -1  930.81   75.89
  -2   6  -1  868.61   75.69
   2  -6   1  910.81   76.29
   2  -6   1  855.81   75.59
   2  -6   1  937.11   79.29
  -3   6  -1  266.17   26.10
  -3   6  -1  267.67   31.10
  -3   6  -1  286.17   27.80
   3  -6   1  242.58   26.90
   3  -6   1  272.67   30.40
   3  -6   1  276.27   26.60
  -4   6  -1    7.70   11.90
  -4   6  -1   15.40    7.40
  -4   6  -1   -2.30    5.70
   4  -6   1   -0.70    6.30
   4  -6   1   -9.00    5.80
   4  -6   1   -3.90   11.00
  -5   6  -1  553.04   53.49
  -5   6  -1  671.43   60.39
   5  -6   1  566.74   54.09
   5  -6   1  600.14   52.19
  -6   6  -1   23.90   18.50
  -6   6  -1    8.40    9.30
   6  -6   1   10.20   10.10
   6  -6   1    2.40    8.00
  -7   6  -1   94.49   26.90
   7  -6   1   99.39   15.40
   7  -6   1   49.70   15.70
  -8   6  -1   70.89   28.10
   8  -6   1   62.49   14.60
   8  -6   1   44.80   28.20
   8   5  -1    8.20   14.50
  -8  -5   1   22.80   22.00
   7   5  -1   11.30   12.10
  -7  -5   1   42.60   10.40
  -7  -5   1    6.60    9.00
   6   5  -1   75.59   15.40
  -6  -5   1   64.59   11.80
  -6  -5   1   85.19   21.40
  -6  -5   1   52.49   11.20
   5   5  -1   28.40   10.90
  -5  -5   1   48.00    9.30
  -5  -5   1   43.20   11.60
  -5  -5   1   26.40   16.40
  -5  -5   1   64.79   18.20
   4   5  -1  142.59   17.40
  -4  -5   1  159.28   18.40
  -4  -5   1  141.59   21.90
  -4  -5   1  112.29   14.70
  -4  -5   1   94.79   20.70
   3   5  -1  554.84   47.30
  -3  -5   1  567.24   50.89
  -3  -5   1  519.95   47.10
  -3  -5   1  533.95   51.49
  -3  -5   1  521.35   46.50
  -3  -5   1  550.14   46.60
  -2  -5   1   15.40   10.50
  -2  -5   1    7.60    4.90
  -2  -5   1    7.50    4.70
  -2  -5   1    4.80    4.40
  -2  -5   1   12.00    8.70
   1   5  -1  324.27   32.30
  -1  -5   1  311.37   27.40
  -1  -5   1  282.47   27.00
  -1  -5   1  307.97   30.90
  -1  -5   1  312.47   27.00
  -1  -5   1  277.17   26.90
   0   5  -1 2228.58  187.28
   0   5  -1 2284.97  189.98
   0   5  -1 2313.07  187.68
   0  -5   1 2306.47  187.28
   0  -5   1 2366.26  187.58
   0  -5   1 2255.37  189.58
  -1   5  -1  164.78   20.90
  -1   5  -1  140.79   14.00
  -1   5  -1  121.69   14.20
   1  -5   1  120.19   14.10
   1  -5   1  129.49   18.60
   1  -5   1  121.39   14.00
  -2   5  -1 1346.77  114.29
  -2   5  -1 1263.37  111.39
  -2   5  -1 1263.97  111.19
   2  -5   1 1415.56  114.39
   2  -5   1 1429.96  111.89
   2  -5   1 1370.66  111.39
  -3   5  -1  100.19   14.50
  -3   5  -1  124.79   20.90
  -3   5  -1  108.49   14.50
   3  -5   1  153.58   15.70
   3  -5   1  113.69   18.80
   3  -5   1  144.89   14.90
  -4   5  -1   55.79   10.10
  -4   5  -1   33.90    9.40
  -4   5  -1   40.60   15.00
   4  -5   1   77.59   18.00
   4  -5   1   68.19   12.00
   4  -5   1   77.29   11.00
  -5   5  -1    1.60    7.10
  -5   5  -1   33.00   15.30
   5  -5   1    1.70    7.10
   5  -5   1    2.00    6.30
  -6   5  -1  184.08   30.50
   6  -5   1  187.98   20.90
  -7   5  -1   -5.30   19.10
  -7   5  -1    3.90   10.00
   7  -5   1   -1.90    9.20
   7  -5   1   20.10   12.30
  -8   5  -1  151.38   35.30
   8  -5   1  149.29   19.90
   8  -5   1  137.99   25.10
   8   4  -1    6.40   14.20
  -8  -4   1   36.80   23.80
   7   4  -1  -13.50   10.00
  -7  -4   1    3.50    7.50
  -7  -4   1    6.10    7.00
  -7  -4   1    3.20   17.10
   6   4  -1   95.89   17.80
  -6  -4   1   73.29   11.60
  -6  -4   1  126.19   24.70
   5   4  -1   74.29   14.40
  -5  -4   1   96.59   19.50
  -5  -4   1   69.39   13.40
  -5  -4   1   61.29   10.40
  -5  -4   1   52.39   18.00
   4   4  -1   19.40    7.90
  -4  -4   1   22.60   12.10
  -4  -4   1   27.40   12.70
  -4  -4   1   14.90    5.90
  -4  -4   1   20.80    7.60
   3   4  -1  461.35   41.50
  -3  -4   1  471.55   40.50
  -3  -4   1  506.35   44.90
  -3  -4   1  445.26   42.60
  -3  -4   1  475.15   45.70
   2   4  -1  638.84   55.59
  -2  -4   1  677.73   58.99
  -2  -4   1  624.24   55.19
  -2  -4   1  624.84   55.39
  -2  -4   1  724.73   55.59
  -2  -4   1  663.33   58.39
   1   4  -1  208.68   22.40
  -1  -4   1  163.28   19.60
  -1  -4   1  155.98   16.10
  -1  -4   1  160.88   16.10
  -1  -4   1  164.68   16.10
   0   4  -1  862.01   70.99
   0   4  -1  849.41   69.89
   0   4  -1  849.32   72.59
   0  -4   1  858.61   69.89
   0  -4   1  799.12   69.99
  -1   4  -1 1012.20   83.19
  -1   4  -1  978.10   85.49
   1  -4   1 1007.80   85.39
   1  -4   1 1012.20   83.19
   1  -4   1 1004.70   83.19
  -2   4  -1  291.47   25.70
  -2   4  -1  253.57   28.80
  -2   4  -1  258.17   25.10
   2  -4   1  280.67   28.80
   2  -4   1  271.57   25.10
   2  -4   1  293.87   25.60
  -3   4  -1  537.25   44.40
  -3   4  -1  529.85   48.50
  -3   4  -1  485.05   44.90
   3  -4   1  514.75   47.90
   3  -4   1  521.85   44.30
   3  -4   1  491.85   45.20
  -4   4  -1   74.99   10.50
  -4   4  -1   71.89   16.30
  -4   4  -1   51.29   10.30
   4  -4   1   83.49   11.10
   4  -4   1   77.09   16.60
   4  -4   1   75.49   12.40
  -5   4  -1  352.56   37.80
  -5   4  -1  313.47   29.40
   5  -4   1  283.27   28.70
   5  -4   1  298.97   37.00
   5  -4   1  306.07   31.30
  -6   4  -1  115.09   24.10
  -6   4  -1  117.89   15.60
   6  -4   1  122.39   15.70
   6  -4   1  102.79   18.30
  -7   4  -1   13.50   12.30
   7  -4   1    8.00    8.60
   7  -4   1    0.70   10.10
  -8   4  -1   61.09   27.00
   8  -4   1   28.10   15.10
   8  -4   1   67.69   13.00
   8   3  -1   30.70   15.20
  -8  -3   1   32.50   22.60
   7   3  -1   53.59   15.80
  -7  -3   1   29.20   19.60
   6   3  -1   39.30   13.30
  -6  -3   1   49.70    8.70
  -6  -3   1   68.89   19.40
   5   3  -1  323.57   39.60
   5   3  -1  301.87   30.60
   5   3  -1  311.37   27.30
  -5  -3   1  342.87   36.80
  -5  -3   1  251.27   29.90
  -5  -3   1  288.37   27.40
   4   3  -1    2.20    4.90
   4   3  -1    8.80   11.90
  -4  -3   1   -0.50    5.10
  -4  -3   1   21.70    8.60
  -4  -3   1    6.30   13.00
   3   3  -1  975.50   76.89
   3   3  -1  945.11   75.79
   3   3  -1  855.81   78.59
  -3  -3   1  895.71   75.59
  -3  -3   1  909.71   76.69
  -3  -3   1  894.91   79.09
   2   3  -1  493.65   41.90
  -2  -3   1  502.35   41.70
  -2  -3   1  470.35   44.10
  -2  -3   1  502.65   45.30
  -2  -3   1  474.35   41.30
   1   3  -1  283.37   29.70
  -1  -3   1  307.77   29.70
  -1  -3   1  281.07   26.00
  -1  -3   1  303.87   25.90
  -1  -3   1  307.17   25.80
  -1  -3   1  295.27   25.80
   0   3  -1  702.43   58.19
   0   3  -1  672.33   55.99
   0   3  -1  672.13   55.59
   0  -3   1  639.84   57.89
   0  -3   1  657.03   55.89
   0  -3   1  682.73   55.59
  -1   3  -1  133.79   13.50
  -1   3  -1  131.89   16.80
  -1   3  -1  120.69   12.90
   1  -3   1  117.09   13.00
   1  -3   1  127.09   16.00
   1  -3   1  125.69   13.30
  -2   3  -1   89.59   10.40
  -2   3  -1   56.99    9.80
  -2   3  -1   95.69   13.60
   2  -3   1   60.49   12.50
   2  -3   1   79.09    9.80
   2  -3   1   74.79   10.20
  -3   3  -1  735.23   66.19
  -3   3  -1  821.22   69.09
  -3   3  -1  814.32   65.49
   3  -3   1  757.62   65.39
   3  -3   1  797.02   68.79
   3  -3   1  779.52   66.59
  -4   3  -1  285.77   25.20
  -4   3  -1  253.37   26.30
   4  -3   1  286.27   27.00
   4  -3   1  280.07   30.40
   4  -3   1  256.37   24.90
  -5   3  -1   53.59    9.70
  -5   3  -1   71.19   17.70
   5  -3   1   44.00    9.70
   5  -3   1   55.59   12.10
   5  -3   1   46.70   16.40
  -6   3  -1  461.85   49.60
  -6   3  -1  429.26   40.70
   6  -3   1  497.55   41.30
   6  -3   1  416.36   43.50
  -7   3  -1    5.10    8.70
  -7   3  -1   12.30   19.00
   7  -3   1   14.00   11.10
   7  -3   1   14.40    9.50
  -8   3  -1   29.70   23.60
   8  -3   1   21.60   13.80
   8  -3   1   42.90   12.10
   8   2  -1   18.30   14.90
  -8  -2   1   56.69   25.80
   7   2  -1   28.60   14.00
  -7  -2   1   49.60   20.80
   6   2  -1    4.60    9.70
   6   2  -1   21.20    6.40
  -6  -2   1   13.10    7.00
  -6  -2   1   -6.70   14.30
   5   2  -1  291.87   24.70
   5   2  -1  274.47   28.10
  -5  -2   1  262.07   28.00
  -5  -2   1  241.38   24.40
  -5  -2   1  305.07   34.50
   4   2  -1  272.17   25.60
   4   2  -1  256.97   23.00
   4   2  -1  256.87   28.60
  -4  -2   1  297.47   29.80
  -4  -2   1  249.48   22.80
  -4  -2   1  228.88   24.90
   3   2  -1  444.56   41.90
   3   2  -1  445.46   38.00
   3   2  -1  458.95   39.50
  -3  -2   1  425.26   39.10
  -3  -2   1  444.86   42.30
  -3  -2   1  474.05   38.00
   2   2  -1 1292.17  100.99
   2   2  -1 1261.07  102.79
   2   2  -1 1164.38  100.29
  -2  -2   1 1184.78  100.29
  -2  -2   1 1180.08  102.59
  -2  -2   1 1291.17  100.99
   1   2  -1  219.18   19.10
  -1  -2   1  198.28   22.40
  -1  -2   1  240.38   19.10
  -1  -2   1  199.58   23.00
  -1  -2   1  209.48   19.10
  -1  -2   1  205.08   18.90
   0   2  -1 1332.37  111.59
   0   2  -1 1371.36  112.79
   0   2  -1 1380.46  111.39
   0  -2   1 1358.66  111.59
   0  -2   1 1364.76  112.79
   0  -2   1 1398.66  111.39
  -1   2  -1  436.06   36.20
  -1   2  -1  409.86   36.00
  -1   2  -1  421.86   38.00
   1  -2   1  441.76   36.30
   1  -2   1  433.06   38.00
   1  -2   1  421.66   36.10
  -2   2  -1    9.90    8.00
  -2   2  -1    0.40    4.50
  -2   2  -1    5.50    4.10
   2  -2   1    2.90    6.90
   2  -2   1    5.90    4.30
   2  -2   1   -3.90    4.10
  -3   2  -1  748.73   64.99
  -3   2  -1  821.82   68.39
  -3   2  -1  767.42   66.09
   3  -2   1  791.52   64.99
   3  -2   1  807.52   66.29
   3  -2   1  758.92   67.79
  -4   2  -1  242.08   21.40
  -4   2  -1  202.48   22.60
  -4   2  -1  237.28   27.50
   4  -2   1  231.38   21.20
   4  -2   1  219.48   23.10
   4  -2   1  204.58   26.20
  -5   2  -1   52.69   11.90
  -5   2  -1   88.29   11.60
  -5   2  -1   78.99   17.90
   5  -2   1  125.89   13.10
   5  -2   1   81.29   14.10
   5  -2   1   93.19   19.30
  -6   2  -1  188.18   29.00
  -6   2  -1  186.68   19.90
   6  -2   1  123.19   32.10
   6  -2   1  197.68   20.20
   6  -2   1  153.88   22.50
  -7   2  -1  131.49   17.50
  -7   2  -1  171.18   30.40
   7  -2   1  172.78   19.20
   7  -2   1  112.59   21.30
  -8   2  -1    7.60   20.00
   8  -2   1   14.70   12.50
   8  -2   1   12.80   15.10
   8   1  -1   59.89   18.00
  -8  -1   1   56.19   24.90
   7   1  -1  238.58   33.50
  -7  -1   1  262.47   38.40
   6   1  -1   27.80   11.00
   6   1  -1   44.90    6.90
  -6  -1   1   30.50   17.20
  -6  -1   1   26.70    6.60
   5   1  -1   71.69   13.40
   5   1  -1   44.80   20.00
   5   1  -1   99.39   10.30
  -5  -1   1  135.79   21.80
  -5  -1   1   82.39    9.90
  -5  -1   1   93.99   13.90
   4   1  -1  765.02   67.89
   4   1  -1  777.82   62.79
   4   1  -1  755.62   65.19
  -4  -1   1  751.82   62.79
  -4  -1   1  758.32   65.09
  -4  -1   1  752.32   68.29
   3   1  -1  205.48   23.60
   3   1  -1  232.38   19.00
   3   1  -1  196.58   20.60
  -3  -1   1  221.88   18.70
  -3  -1   1  197.18   20.40
  -3  -1   1  199.68   23.80
   2   1  -1 1060.69   90.79
   2   1  -1 1185.58   91.79
   2   1  -1 1050.79   92.99
  -2  -1   1 1107.59   90.79
  -2  -1   1 1079.99   93.39
  -2  -1   1 1207.28   91.79
   1   1  -1  499.05   45.00
   1   1  -1  582.54   43.40
  -1  -1   1  485.15   43.10
  -1  -1   1  561.44   43.40
  -1  -1   1  481.85   45.00
   0   1  -1  133.99   13.30
   0   1  -1  133.59   11.50
   0   1  -1  134.79   11.90
   0  -1   1  141.09   13.30
   0  -1   1  134.49   11.80
   0  -1   1  132.19   12.30
  -1   1  -1  915.71   82.69
  -1   1  -1 1027.50   82.09
  -1   1  -1 1000.20   81.89
   1  -1   1 1058.09   82.09
   1  -1   1 1023.30   81.89
   1  -1   1  985.20   82.89
  -2   1  -1 1957.80  155.68
  -2   1  -1 1926.91  154.98
  -2   1  -1 1832.02  156.38
   2  -1   1 1922.81  154.88
   2  -1   1 1763.52  156.28
   2  -1   1 2014.50  155.78
  -3   1  -1  212.98   24.80
  -3   1  -1  217.38   21.10
  -3   1  -1  253.17   22.50
   3  -1   1  227.88   24.60
   3  -1   1  246.88   21.20
   3  -1   1  242.28   22.70
  -4   1  -1  656.43   56.99
  -4   1  -1  603.64   54.19
  -4   1  -1  601.04   52.79
   4  -1   1  610.74   54.49
   4  -1   1  602.24   56.19
   4  -1   1  666.73   52.79
  -5   1  -1   11.40    7.30
  -5   1  -1   30.00    7.00
  -5   1  -1   48.30   14.10
   5  -1   1   12.40    8.30
   5  -1   1   36.30    7.60
   5  -1   1   27.00   13.70
  -6   1  -1    2.50    6.60
  -6   1  -1  -10.20   14.00
   6  -1   1    3.70    7.20
   6  -1   1    3.00   14.70
   6  -1   1  -12.10    8.70
  -7   1  -1   67.59   21.60
  -7   1  -1   22.20    9.30
   7  -1   1   45.30   13.40
   7  -1   1   59.49   10.90
  -8   1  -1   34.80   23.90
   8  -1   1   38.10   10.30
   8  -1   1   46.10   15.40
   8   0  -1   -8.70   11.90
  -8   0   1    8.00   21.60
   7   0  -1  137.89   23.30
  -7   0   1  158.88   29.40
   6   0  -1  154.08   14.90
   6   0  -1  125.99   19.90
  -6   0   1  188.18   28.50
  -6   0   1  137.29   15.10
   5   0  -1   12.60    5.10
   5   0  -1    6.80    7.60
  -5   0   1   26.30   14.50
  -5   0   1   12.00    7.10
  -5   0   1    9.90    4.70
   4   0  -1   16.40    4.40
   4   0  -1   35.30   11.70
   4   0  -1   28.30    8.40
  -4   0   1   10.50    6.40
  -4   0   1   31.80   12.20
  -4   0   1   15.10    4.30
   3   0  -1  275.97   24.90
   3   0  -1  227.68   26.90
   3   0  -1  262.87   22.40
  -3   0   1  271.97   22.50
  -3   0   1  251.77   28.20
  -3   0   1  275.07   24.60
   2   0  -1  169.78   21.90
   2   0  -1  212.48   19.80
  -2   0   1  193.98   19.50
  -2   0   1  244.78   18.10
  -2   0   1  208.48   22.70
   1   0  -1 1120.89   99.89
   1   0  -1 1304.17   99.09
  -1   0   1 1265.07   98.99
  -1   0   1 1161.88  100.09
   0   0  -1    0.30    1.00
  -1   0  -1    6.10    3.20
  -1   0  -1   13.20    3.00
   1   0   1   11.60    4.20
   1   0   1    8.60    3.20
   1   0   1    7.50    2.80
  -2   0  -1 9693.53  766.12
  -2   0  -1 9657.83  765.42
  -2   0  -1 8868.71  766.32
   2   0   1 9999.00  766.32
   2   0   1 9606.24  765.42
   2   0   1 8955.40  766.32
  -3   0  -1   33.70    9.10
  -3   0  -1   25.30    6.60
  -3   0  -1   27.00    5.60
   3   0   1   39.00    7.70
   3   0   1   29.30    5.50
   3   0   1   27.00    9.20
  -4   0  -1 1800.62  147.09
  -4   0  -1 1643.94  145.19
   4   0   1 1689.83  146.39
   4   0   1 1804.92  143.69
   4   0   1 1843.22  146.49
  -5   0  -1  370.56   36.80
  -5   0  -1  269.97   26.60
  -5   0  -1  270.37   29.00
   5   0   1  279.47   32.90
   5   0   1  290.47   29.60
   5   0   1  305.27   26.80
  -6   0  -1  191.38   23.00
  -6   0  -1  314.07   34.80
   6   0   1  238.48   23.40
   6   0   1  295.07   34.50
   6   0   1  227.68   27.70
  -7   0  -1   22.90    9.00
  -7   0  -1   39.00   19.60
   7   0   1   46.50   10.10
   7   0   1   51.49   14.40
  -8   0  -1   39.30   24.50
   8   0   1   23.30    8.90
   8   0   1    6.50   13.20
   8  -1  -1   26.40   14.20
  -8   1   1   22.90   23.30
   7  -1  -1    1.10   10.40
  -7   1   1   19.80   19.80
   6  -1  -1  291.67   33.80
   6  -1  -1  358.06   29.30
  -6   1   1  321.87   29.30
  -6   1   1  345.07   41.10
   5  -1  -1   12.20    8.30
   5  -1  -1   47.30   23.00
   5  -1  -1   23.60    5.50
  -5   1   1   28.30   14.10
  -5   1   1   26.70    5.40
  -5   1   1   33.40    9.00
   4  -1  -1  266.37   30.60
   4  -1  -1  285.57   31.20
   4  -1  -1  265.67   24.10
  -4   1   1  259.67   26.40
  -4   1   1  264.17   31.30
  -4   1   1  305.07   24.20
   3  -1  -1  417.26   37.90
   3  -1  -1  424.56   35.90
   3  -1  -1  425.16   40.40
  -3   1   1  441.96   41.00
  -3   1   1  441.36   35.90
  -3   1   1  435.36   37.70
   2  -1  -1   46.30    7.20
   2  -1  -1   44.10    9.50
   2  -1  -1   44.70    5.70
  -2   1   1   50.69    7.10
  -2   1   1   55.29   10.70
  -2   1   1   49.50    5.30
   1  -1  -1 2217.18  179.08
   1  -1  -1 2155.88  180.68
   1  -1  -1 2364.86  179.78
  -1   1   1 2101.29  180.58
  -1   1   1 2123.19  179.08
  -1   1   1 2319.17  179.78
   0  -1  -1   58.89    4.90
   0   1   1   44.20    5.20
  -1  -1  -1 1175.28   89.49
  -1  -1  -1 1087.69   89.19
  -1  -1  -1 1063.19   89.09
   1   1   1 1155.48   89.39
   1   1   1 1029.80   88.99
   1   1   1 1058.59   89.09
  -2  -1  -1  983.40   77.79
  -2  -1  -1  992.30   78.59
  -2  -1  -1  899.31   78.69
   2   1   1  926.71   77.69
   2   1   1  990.00   78.59
   2   1   1  898.51   78.69
  -3  -1  -1  188.68   18.60
  -3  -1  -1  178.28   17.10
  -3  -1  -1  172.28   20.90
   3   1   1  189.88   18.90
   3   1   1  199.48   17.30
   3   1   1  161.18   19.80
  -4  -1  -1  961.60   80.19
  -4  -1  -1  953.70   81.79
   4   1   1  993.10   78.59
   4   1   1  892.11   81.09
   4   1   1  916.21   81.89
  -5  -1  -1  266.77   26.70
  -5  -1  -1  304.67   29.60
   5   1   1  313.17   27.00
   5   1   1  308.87   33.20
   5   1   1  278.37   29.50
  -6  -1  -1  544.55   51.79
  -6  -1  -1  701.53   59.99
   6   1   1  546.65   55.29
   6   1   1  643.84   52.09
   6   1   1  624.54   59.49
  -7  -1  -1   81.69   22.10
  -7  -1  -1   63.59   11.80
   7   1   1   81.09   12.40
   7   1   1   84.19   17.90
   8   1   1  120.89   24.00
   8   1   1  185.28   19.00
   8  -2  -1   38.20   15.80
  -8   2   1   82.99   27.60
   7  -2  -1   19.80   12.50
  -7   2   1   25.10    7.50
  -7   2   1   20.60   20.20
   6  -2  -1  178.18   24.80
   6  -2  -1  206.48   20.00
  -6   2   1  235.28   32.80
  -6   2   1  211.58   20.80
   5  -2  -1   41.20    7.00
   5  -2  -1   30.80   14.60
   5  -2  -1   38.60   10.70
  -5   2   1   29.40    9.30
  -5   2   1   46.40    7.20
  -5   2   1   49.80   15.40
   4  -2  -1   12.80   10.40
   4  -2  -1   10.10    4.50
   4  -2  -1   15.50    6.90
  -4   2   1   11.30    4.00
  -4   2   1    8.30    5.20
   3  -2  -1  873.31   78.59
   3  -2  -1  897.61   76.39
   3  -2  -1  896.91   74.59
  -3   2   1  924.01   79.09
  -3   2   1  935.51   76.39
  -3   2   1  928.71   74.69
   2  -2  -1 1293.27  106.49
   2  -2  -1 1310.47  107.59
   2  -2  -1 1345.17  110.59
  -2   2   1 1335.57  107.59
  -2   2   1 1304.97  109.39
  -2   2   1 1272.77  106.59
   1  -2  -1  378.86   30.60
   1  -2  -1  349.77   32.50
   1  -2  -1  347.87   29.90
  -1   2   1  343.77   30.00
  -1   2   1  347.07   32.40
  -1   2   1  384.26   30.70
   0  -2  -1 1081.49   89.29
   0  -2  -1 1082.39   88.79
   0  -2  -1 1104.79   88.79
   0   2   1 1097.89   88.79
   0   2   1 1090.29   88.79
   0   2   1 1075.59   89.29
  -1  -2  -1  138.59   14.40
  -1  -2  -1  151.58   13.30
  -1  -2  -1  129.69   13.20
   1   2   1  117.69   13.10
   1   2   1  139.99   13.30
  -2  -2  -1   97.99    9.90
  -2  -2  -1   86.39   10.80
   2   2   1   84.29   11.60
   2   2   1   87.09   10.90
  -3  -2  -1  229.68   19.80
  -3  -2  -1  221.78   22.80
  -3  -2  -1  200.48   20.90
   3   2   1  260.87   20.30
   3   2   1  156.68   21.50
   3   2   1  213.88   21.30
  -4  -2  -1   47.00    9.20
  -4  -2  -1   45.70    7.60
  -4  -2  -1   39.50   11.60
   4   2   1   35.50    7.10
   4   2   1   33.60    9.00
   4   2   1   17.90    9.70
  -5  -2  -1   65.99   18.70
  -5  -2  -1   69.39   10.20
  -5  -2  -1   31.60   10.40
   5   2   1   70.09   15.30
   5   2   1   76.79   13.40
   5   2   1   83.79   10.70
  -6  -2  -1   11.10    7.30
  -6  -2  -1    4.80   13.60
   6   2   1   32.80   17.40
   6   2   1   19.00    8.00
   6   2   1   -9.60    9.70
  -7  -2  -1    8.40    7.80
  -7  -2  -1   22.60   16.80
   7   2   1    0.50    7.30
   7   2   1   -1.80   11.20
  -8  -2  -1   19.20   30.90
   8   2   1  -13.40   13.30
   8   2   1    5.80    7.90
   8  -3  -1   29.10   14.70
  -8   3   1   49.90   26.90
   7  -3  -1   15.00    6.80
   7  -3  -1    5.50   10.90
   6  -3  -1  260.27   28.90
   6  -3  -1  266.07   24.70
  -6   3   1  249.97   25.10
  -6   3   1  293.57   36.80
   5  -3  -1  289.77   26.30
   5  -3  -1  293.27   35.30
   5  -3  -1  286.27   29.60
  -5   3   1  370.16   37.00
  -5   3   1  243.78   28.70
   4  -3  -1   96.39   18.30
   4  -3  -1  107.59   14.60
   4  -3  -1  113.49   11.70
  -4   3   1  103.99   11.80
  -4   3   1   90.59   13.40
  -4   3   1  147.09   20.50
   3  -3  -1  731.73   62.79
   3  -3  -1  691.03   59.79
   3  -3  -1  681.63   58.19
  -3   3   1  704.73   58.29
  -3   3   1  751.22   62.89
  -3   3   1  673.43   59.59
   2  -3  -1   12.00    4.70
   2  -3  -1    9.80    7.70
   2  -3  -1    8.50    3.80
  -2   3   1   -7.40    7.40
  -2   3   1   11.10    4.20
  -2   3   1    9.50    4.60
   1  -3  -1   18.50    8.00
   1  -3  -1   19.20    4.90
   1  -3  -1   19.20    5.30
  -1   3   1   24.90    9.30
  -1   3   1   14.20    4.90
   0  -3  -1   45.10    7.00
   0  -3  -1   38.00    6.30
   0  -3  -1   49.50    9.10
   0   3   1   41.80    6.30
   0   3   1   45.10    6.80
   0   3   1   45.50    9.10
  -1  -3  -1    6.20    4.60
  -1  -3  -1    6.30    4.80
  -1  -3  -1   15.60    6.90
   1   3   1    5.40    4.70
   1   3   1   12.00    5.30
  -2  -3  -1   50.69    7.50
  -2  -3  -1   59.19    8.80
   2   3   1   76.39    9.50
  -3  -3  -1 1090.59   88.49
  -3  -3  -1 1022.70   89.09
   3   3   1  934.81   90.19
   3   3   1 1103.09   87.49
   3   3   1 1122.99   88.59
  -4  -3  -1   -3.80    4.10
  -4  -3  -1    8.10    6.10
  -4  -3  -1   14.80    8.80
   4   3   1   13.30    5.90
   4   3   1   26.50   10.70
   4   3   1    1.40    6.70
  -5  -3  -1  385.86   37.40
  -5  -3  -1  417.96   40.10
   5   3   1  426.96   43.10
   5   3   1  459.25   37.80
   5   3   1  435.66   40.30
  -6  -3  -1  161.78   18.20
  -6  -3  -1  162.68   26.10
   6   3   1  190.58   23.60
   6   3   1  125.29   25.20
   6   3   1  171.68   18.70
  -7  -3  -1    5.60    8.00
  -7  -3  -1   20.90   17.20
   7   3   1    4.60   11.70
   7   3   1   16.00    8.60
  -8  -3  -1   28.40   30.90
   8   3   1   32.70   10.60
   8   3   1    3.60   15.10
   8  -4  -1   44.60   16.10
  -8   4   1   78.09   28.60
   7  -4  -1   35.20   13.20
   7  -4  -1   24.70    8.30
  -7   4   1   46.60   22.40
   6  -4  -1  124.49   19.30
   6  -4  -1  111.89   14.30
  -6   4   1  113.99   14.70
  -6   4   1  166.58   28.20
   5  -4  -1  529.75   55.69
   5  -4  -1  536.95   47.20
   5  -4  -1  509.25   50.19
  -5   4   1  644.84   56.69
  -5   4   1  566.94   47.70
   4  -4  -1   24.40   11.60
   4  -4  -1   14.50    5.70
   4  -4  -1   16.30    7.30
  -4   4   1    4.20    7.20
  -4   4   1   19.20   11.50
  -4   4   1    8.90    5.40
   3  -4  -1  413.76   39.80
   3  -4  -1  377.36   34.90
   3  -4  -1  440.06   36.70
  -3   4   1  406.06   36.40
  -3   4   1  411.66   40.30
   2  -4  -1  269.07   24.20
   2  -4  -1  276.57   28.40
   2  -4  -1  260.27   25.10
  -2   4   1  260.97   24.20
  -2   4   1  295.07   25.30
  -2   4   1  276.27   29.10
   1  -4  -1  210.68   23.20
   1  -4  -1  227.58   19.40
   1  -4  -1  196.68   18.90
  -1   4   1  177.68   22.10
  -1   4   1  200.38   20.00
   0  -4  -1 1012.90   85.69
   0  -4  -1 1059.99   87.09
   0  -4  -1 1064.79   85.79
   0   4   1 1030.20   85.69
   0   4   1 1028.90   87.09
  -1  -4  -1  105.09   11.70
  -1  -4  -1  103.69   13.60
  -1  -4  -1   85.39   11.40
  -1  -4  -1  104.49   11.80
   1   4   1   99.69   14.20
   1   4   1  110.69   12.00
  -2  -4  -1  113.19   14.10
  -2  -4  -1  120.29   12.00
  -2  -4  -1   81.89   13.70
  -2  -4  -1   95.29   12.10
   2   4   1   77.49   11.10
   2   4   1  109.69   13.20
  -3  -4  -1  626.94   55.59
  -3  -4  -1  666.43   57.79
  -3  -4  -1  661.03   56.79
  -3  -4  -1  648.74   54.79
   3   4   1  644.14   55.79
   3   4   1  641.44   54.89
  -4  -4  -1  125.99   19.10
  -4  -4  -1  138.79   15.30
  -4  -4  -1  158.78   18.40
  -4  -4  -1  103.99   18.50
   4   4   1  134.19   15.10
   4   4   1  136.29   17.40
  -5  -4  -1    3.30    6.80
  -5  -4  -1    4.50   15.40
  -5  -4  -1   10.30    8.20
   5   4   1    3.90    8.10
   5   4   1   10.20    6.80
  -6  -4  -1  399.76   42.20
  -6  -4  -1  560.04   50.29
   6   4   1  446.66   45.60
   6   4   1  536.35   43.10
  -7  -4  -1   21.30   17.90
  -7  -4  -1    3.70    8.50
   7   4   1  -23.70   10.00
  -8  -4  -1   34.80   35.20
   8   4   1   26.40   15.60
   8  -5  -1   86.59   12.60
   8  -5  -1   74.19   19.20
  -8   5   1  129.19   33.70
   7  -5  -1  162.68   18.70
   7  -5  -1  142.69   23.30
  -7   5   1  228.78   35.90
   6  -5  -1    8.30   10.30
   6  -5  -1   13.50    7.90
  -6   5   1   -3.70   15.70
  -6   5   1   22.50    8.20
   5  -5  -1  596.74   55.69
   5  -5  -1  606.04   52.79
  -5   5   1  626.34   53.29
  -5   5   1  651.13   61.79
   4  -5  -1  302.87   30.30
   4  -5  -1  298.87   28.30
   4  -5  -1  327.17   35.40
  -4   5   1  344.37   36.80
  -4   5   1  287.67   29.80
  -4   5   1  334.27   28.70
   3  -5  -1   47.20   12.50
   3  -5  -1   45.80    9.30
   3  -5  -1   60.29    8.10
  -3   5   1   40.10    8.40
  -3   5   1   36.10    7.10
   2  -5  -1 1955.50  158.48
   2  -5  -1 1945.61  156.18
   2  -5  -1 1845.52  155.38
  -2   5   1 1941.51  158.58
  -2   5   1 1841.02  155.88
  -2   5   1 1873.51  155.48
   1  -5  -1   12.70    8.20
   1  -5  -1   -8.00    3.90
   1  -5  -1    3.90    4.10
   1  -5  -1    0.50    4.10
  -1   5   1    7.90    8.20
  -1   5   1   -3.10    3.70
   0  -5  -1  707.43   60.29
   0  -5  -1  730.23   60.29
   0  -5  -1  743.33   60.49
   0   5   1  693.03   60.29
   0   5   1  717.43   62.19
  -1  -5  -1  921.71   79.49
  -1  -5  -1  925.91   78.09
  -1  -5  -1  971.60   78.29
  -1  -5  -1  967.40   78.19
   1   5   1  909.91   79.69
   1   5   1  926.71   78.19
  -2  -5  -1    7.90    5.50
  -2  -5  -1   10.40    5.20
   2   5   1   17.10    6.10
   2   5   1   16.60    6.40
  -3  -5  -1  350.06   31.30
  -3  -5  -1  304.27   30.20
  -3  -5  -1  324.27   33.70
  -3  -5  -1  334.37   32.70
   3   5   1  361.96   31.60
   3   5   1  352.96   30.90
  -4  -5  -1  334.77   30.40
  -4  -5  -1  241.58   31.20
  -4  -5  -1  256.97   28.70
  -4  -5  -1  272.07   26.00
   4   5   1  276.57   26.30
   4   5   1  257.37   27.50
  -5  -5  -1    8.80    7.10
  -5  -5  -1   -5.60   13.30
  -5  -5  -1   10.40   11.40
   5   5   1    5.70    8.50
   5   5   1   -3.10    6.90
  -6  -5  -1   53.29   11.50
  -6  -5  -1   63.59   17.70
  -6  -5  -1   42.30   19.30
   6   5   1   68.29   14.50
   6   5   1   61.59   11.60
  -7  -5  -1   69.19   20.60
  -7  -5  -1   75.59   15.20
   7   5   1  101.49   18.50
   7   5   1   82.39   14.20
  -8  -5  -1    7.90   24.30
   8   5   1   12.20   14.80
   8  -6  -1   67.49   22.10
  -8   6   1   88.19   31.30
   7  -6  -1   84.39   14.70
   7  -6  -1   99.79   18.60
  -7   6   1   80.09   26.20
   6  -6  -1   19.00    9.60
   6  -6  -1   21.70   11.40
  -6   6   1    7.10    8.80
  -6   6   1   17.20   16.90
   5  -6  -1  286.97   32.30
   5  -6  -1  315.57   30.40
  -5   6   1  369.46   41.20
  -5   6   1  330.17   30.70
   4  -6  -1   79.19   10.80
   4  -6  -1   67.39   12.30
   4  -6  -1   39.40   15.80
  -4   6   1   63.79   10.20
  -4   6   1   67.69   18.00
  -4   6   1   43.10    9.90
   3  -6  -1    8.30    5.20
   3  -6  -1    6.00    5.10
   3  -6  -1   14.40   11.00
  -3   6   1    5.20    9.20
  -3   6   1    7.40    5.40
  -3   6   1   -5.30    4.40
   2  -6  -1   51.29    9.10
   2  -6  -1   49.10    8.60
   2  -6  -1   56.99   12.90
  -2   6   1   42.50   12.80
  -2   6   1   63.59    9.60
  -2   6   1   35.90    8.10
   1  -6  -1  915.71   79.39
   1  -6  -1  988.20   82.39
   1  -6  -1  964.50   79.69
   1  -6  -1  973.70   79.79
  -1   6   1  923.61   79.59
  -1   6   1  954.00   82.39
   0  -6  -1   77.09   14.30
   0  -6  -1   67.79   10.30
   0  -6  -1   70.19   10.20
   0  -6  -1   71.59   10.00
   0   6   1   75.29   10.10
   0   6   1   59.49   13.00
  -1  -6  -1 1739.43  143.99
  -1  -6  -1 1759.12  145.59
  -1  -6  -1 1790.02  144.09
  -1  -6  -1 1753.92  144.09
   1   6   1 1738.53  145.89
   1   6   1 1714.83  144.09
  -2  -6  -1  288.27   27.10
  -2  -6  -1  284.47   27.20
  -2  -6  -1  286.57   29.40
  -2  -6  -1  295.17   27.30
   2   6   1  284.37   27.30
   2   6   1  302.27   30.90
  -3  -6  -1  463.95   42.20
  -3  -6  -1  473.65   45.20
  -3  -6  -1  471.45   44.40
  -3  -6  -1  462.95   42.60
   3   6   1  498.35   42.40
   3   6   1  498.65   43.10
  -4  -6  -1  106.59   14.70
  -4  -6  -1  133.99   17.60
  -4  -6  -1  145.09   20.30
  -4  -6  -1   95.19   18.60
   4   6   1  117.09   16.70
  -5  -6  -1  -14.00   11.50
  -5  -6  -1   -0.90   13.90
  -5  -6  -1   -0.40    7.40
   5   6   1    5.80    8.20
   5   6   1   17.40    9.70
  -6  -6  -1   72.59   18.60
  -6  -6  -1   17.50   18.10
   6   6   1   34.30   14.00
   6   6   1   91.39   13.30
  -7  -6  -1   89.99   23.20
  -7  -6  -1   77.09   15.30
   7   6   1   72.89   16.90
  -8  -6  -1   28.30   22.10
   8   6   1   -3.90   14.00
   8  -7  -1    6.80   13.20
   8  -7  -1    2.80   10.50
  -8   7   1   -3.50   24.50
   7  -7  -1   39.50   14.60
   7  -7  -1   30.10   10.60
  -7   7   1   29.10   21.40
   6  -7  -1  125.79   16.30
   6  -7  -1   91.89   18.70
  -6   7   1  140.69   27.70
   5  -7  -1   71.39   11.40
   5  -7  -1   54.99   12.80
  -5   7   1   56.69   12.00
  -5   7   1   74.89   20.80
   4  -7  -1  200.78   25.10
   4  -7  -1  217.28   22.60
  -4   7   1  200.88   23.00
  -4   7   1  290.47   33.80
   3  -7  -1   65.19   15.70
   3  -7  -1   68.59   12.30
  -3   7   1   57.79   10.30
  -3   7   1   82.69   12.00
  -3   7   1   95.19   17.90
   2  -7  -1  817.42   73.09
   2  -7  -1  871.51   76.89
   2  -7  -1  864.51   73.79
   2  -7  -1  890.51   73.49
  -2   7   1  950.00   77.89
  -2   7   1  834.92   73.49
   1  -7  -1  196.58   20.10
   1  -7  -1  189.88   20.20
   1  -7  -1  189.38   23.70
   1  -7  -1  211.68   20.20
  -1   7   1  200.78   19.90
  -1   7   1  198.78   24.50
   0  -7  -1   12.90    5.90
   0  -7  -1   17.40    9.00
   0  -7  -1   22.60    6.50
   0  -7  -1   15.80    6.00
   0   7   1   15.60    6.20
   0   7   1   15.30   10.20
  -1  -7  -1  114.39   15.70
  -1  -7  -1  149.09   20.10
  -1  -7  -1  146.39   16.40
  -1  -7  -1  147.59   16.30
  -1  -7  -1  121.99   15.90
   1   7   1  128.29   19.70
  -2  -7  -1   31.30    8.20
  -2  -7  -1   21.80    9.90
  -2  -7  -1   42.60    8.70
   2   7   1   31.50   11.90
  -3  -7  -1   87.19   12.50
  -3  -7  -1   70.99   12.50
  -3  -7  -1   98.29   16.30
  -3  -7  -1   94.39   17.30
   3   7   1   67.99   12.30
  -4  -7  -1  176.58   28.20
  -4  -7  -1  243.48   24.90
  -4  -7  -1  203.08   25.00
  -4  -7  -1  280.67   30.30
   4   7   1  282.27   26.80
   4   7   1  260.77   25.60
  -5  -7  -1   81.09   14.50
  -5  -7  -1  123.79   21.50
  -5  -7  -1   69.39   21.50
   5   7   1  141.39   17.20
   5   7   1  105.39   17.20
  -6  -7  -1   12.80   10.50
  -6  -7  -1   35.90   16.70
   6   7   1   28.50   10.70
   6   7   1   38.00   18.00
  -7  -7  -1  203.48   32.10
   7   7   1  175.18   26.20
  -8  -7  -1   12.60   17.20
  -8  -7  -1   -7.40   20.10
   8   7   1   11.80   15.60
   8  -8  -1   -4.60   11.80
   8  -8  -1    4.20   14.00
  -8   8   1   15.50   25.20
   7  -8  -1   28.70   11.50
   7  -8  -1   31.80   14.00
  -7   8   1   17.60   22.10
   6  -8  -1   18.90    9.60
   6  -8  -1   15.50   10.20
  -6   8   1   16.00   18.80
   5  -8  -1   -0.40    7.70
   5  -8  -1   -6.80    7.00
  -5   8   1   17.70   16.10
   4  -8  -1  305.97   34.30
   4  -8  -1  365.66   33.50
  -4   8   1  398.86   42.20
   3  -8  -1  532.75   46.40
   3  -8  -1  496.65   50.19
   3  -8  -1  540.25   45.20
  -3   8   1  550.34   51.89
  -3   8   1  429.66   45.10
   2  -8  -1  382.06   34.00
   2  -8  -1  373.26   40.20
   2  -8  -1  351.86   34.00
   2  -8  -1  371.46   34.50
  -2   8   1  344.37   34.70
  -2   8   1  405.36   39.40
   1  -8  -1 1166.38   94.19
   1  -8  -1 1040.60   96.59
   1  -8  -1 1155.68   94.09
   1  -8  -1 1084.69   93.79
  -1   8   1 1094.89   97.29
  -1   8   1 1158.08   94.09
   0  -8  -1  185.58   19.50
   0  -8  -1  179.28   19.70
   0  -8  -1  182.88   19.40
   0  -8  -1  211.48   26.10
   0   8   1  184.18   19.40
  -1  -8  -1  229.38   24.00
  -1  -8  -1  244.48   27.60
  -1  -8  -1  256.17   24.20
  -1  -8  -1  212.68   24.20
  -1  -8  -1  253.37   24.20
   1   8   1  276.87   28.90
  -2  -8  -1  317.27   31.80
  -2  -8  -1  289.87   28.80
  -2  -8  -1  321.27   28.60
  -2  -8  -1  287.27   28.30
  -2  -8  -1  265.17   27.80
   2   8   1  243.18   34.80
  -3  -8  -1   27.20   14.30
  -3  -8  -1   21.60    8.50
  -3  -8  -1   29.50   12.40
  -3  -8  -1   41.40   10.20
  -3  -8  -1   36.40    9.50
  -4  -8  -1  314.67   30.20
  -4  -8  -1  205.58   35.40
  -4  -8  -1  366.76   35.60
  -5  -8  -1   60.29   13.50
  -5  -8  -1   67.99   17.30
  -5  -8  -1   50.89   18.60
   5   8   1   80.09   15.30
  -6  -8  -1   18.50   15.90
   6   8   1    4.20   11.70
  -7  -8  -1   85.39   25.00
  -7  -8  -1  135.49   19.90
   7   8   1  109.89   21.10
   7  -9  -1   -0.30   11.90
   7  -9  -1   24.50   11.00
  -7   9   1    0.40   19.40
   6  -9  -1  199.58   28.50
   6  -9  -1  241.88   26.70
  -6   9   1  239.18   37.40
   5  -9  -1    9.00    8.20
   5  -9  -1   -0.10    8.50
  -5   9   1   -7.80   13.20
   4  -9  -1  367.86   40.00
   4  -9  -1  452.55   40.40
   4  -9  -1  438.86   41.80
  -4   9   1  507.95   49.60
   3  -9  -1  101.09   16.60
   3  -9  -1  155.18   18.00
   3  -9  -1  152.18   19.20
  -3   9   1  149.88   25.20
   2  -9  -1   57.19   10.70
   2  -9  -1   19.60   13.20
   2  -9  -1   52.39   10.80
   2  -9  -1   43.70   10.10
  -2   9   1   42.10    9.40
  -2   9   1   73.59   17.30
   1  -9  -1  193.88   21.00
   1  -9  -1  176.98   21.20
   1  -9  -1  199.58   22.90
   1  -9  -1  260.07   30.70
  -1   9   1  181.28   20.70
  -1   9   1  257.27   31.00
   0  -9  -1  507.35   45.50
   0  -9  -1  537.45   45.80
   0  -9  -1  484.75   48.70
   0  -9  -1  526.55   46.00
   0   9   1  487.35   49.80
  -1  -9  -1    2.20    6.40
  -1  -9  -1    3.70    6.20
  -1  -9  -1   -2.30    5.00
  -1  -9  -1    2.60    8.90
   1   9   1   -6.60    9.90
  -2  -9  -1  714.63   61.49
  -2  -9  -1  664.33   61.39
  -2  -9  -1  701.13   64.59
  -2  -9  -1  678.03   61.59
  -2  -9  -1  754.42   62.09
   2   9   1  709.13   65.69
  -3  -9  -1   30.80    9.50
  -3  -9  -1   28.70   10.10
  -3  -9  -1   12.40   14.40
  -3  -9  -1   23.90    9.90
  -3  -9  -1   27.90   10.30
  -4  -9  -1  115.69   23.20
  -4  -9  -1  179.78   22.90
  -4  -9  -1  180.28   27.30
  -4  -9  -1  187.58   21.90
  -5  -9  -1   72.79   14.90
  -5  -9  -1  106.09   22.10
  -6  -9  -1   11.50   10.90
  -6  -9  -1   -4.30   15.40
   6   9   1   -8.70   11.40
  -7  -9  -1   12.70   13.40
  -7  -9  -1   25.70   26.10
   7   9   1    7.70   14.40
   7 -10  -1    2.80   11.00
   7 -10  -1   -0.90   11.50
   6 -10  -1   73.79   14.80
   6 -10  -1   47.20   14.80
  -6  10   1   54.39   23.80
   5 -10  -1  186.38   23.70
   5 -10  -1  169.68   25.40
  -5  10   1  202.68   32.90
   4 -10  -1  148.19   19.50
   4 -10  -1  130.89   21.20
  -4  10   1  140.79   28.20
   3 -10  -1  163.98   21.80
   3 -10  -1  194.78   23.30
  -3  10   1  193.58   29.50
   2 -10  -1   24.80    8.00
   2 -10  -1   13.60    7.20
  -2  10   1   39.80   15.90
   1 -10  -1   66.39   12.20
   1 -10  -1   71.99   18.80
   1 -10  -1   80.89   12.10
  -1  10   1   49.60   10.60
  -1  10   1   71.89   18.00
   0 -10  -1  190.18   28.10
   0 -10  -1  198.68   21.70
   0 -10  -1  187.48   22.80
   0  10   1  235.68   30.70
   0  10   1  198.48   23.10
  -1 -10  -1   38.80   10.10
  -1 -10  -1   33.80   13.00
  -1 -10  -1   34.10    9.40
  -1 -10  -1   41.30    9.40
   1  10   1   38.10   15.50
  -2 -10  -1   -0.80    6.80
  -2 -10  -1   10.70    7.40
  -2 -10  -1    5.30   11.70
  -2 -10  -1   16.40    7.90
   2  10   1   26.50   14.90
  -3 -10  -1  459.45   40.60
  -3 -10  -1  407.16   45.50
  -3 -10  -1  379.56   43.60
  -3 -10  -1  398.56   39.20
  -4 -10  -1  121.49   18.30
  -4 -10  -1  125.99   19.90
  -4 -10  -1  127.19   23.80
  -5 -10  -1  207.58   32.50
  -5 -10  -1  213.88   28.30
  -5 -10  -1  236.68   27.40
  -6 -10  -1  215.68   34.10
  -6 -10  -1  235.18   31.00
  -6 -10  -1  223.68   29.80
  -7 -10  -1   26.40   15.30
  -7 -10  -1   38.10   15.70
  -7 -10  -1   70.39   24.70
   7 -11  -1   19.70   14.80
   7 -11  -1   47.80   14.70
  -7  11   1   35.20   24.30
   6 -11  -1    7.50   11.20
   6 -11  -1   17.00   11.20
  -6  11   1    6.00   18.60
   5 -11  -1   84.09   15.70
   5 -11  -1   50.59   14.40
  -5  11   1   52.19   20.30
   4 -11  -1   24.00   10.20
   4 -11  -1   21.30   10.00
  -4  11   1   21.90   16.30
   3 -11  -1  142.79   21.20
   3 -11  -1  138.39   19.70
  -3  11   1  142.89   27.80
   2 -11  -1  506.85   45.90
   2 -11  -1  459.45   45.80
  -2  11   1  540.85   53.39
   1 -11  -1  125.49   18.40
   1 -11  -1  170.08   20.70
  -1  11   1  126.49   25.60
   0 -11  -1  286.87   31.30
   0 -11  -1  316.57   31.20
   0  11   1  378.66   43.10
  -1 -11  -1  529.15   51.99
  -1 -11  -1  611.84   52.59
   1  11   1  605.04   58.69
  -2 -11  -1  144.29   19.80
  -2 -11  -1  157.78   19.60
   2  11   1  117.39   24.60
  -3 -11  -1  251.97   29.30
  -3 -11  -1  279.97   37.20
  -3 -11  -1  223.08   27.80
  -4 -11  -1   49.40   13.50
  -4 -11  -1   24.70   10.70
  -4 -11  -1   25.40   16.50
  -5 -11  -1    1.00   10.30
  -5 -11  -1   -3.00   11.40
  -5 -11  -1   16.90   17.30
  -6 -11  -1   -2.70   12.40
  -6 -11  -1    3.00   11.70
  -6 -11  -1   16.10   19.40
   6 -12  -1   11.00   11.70
   6 -12  -1   10.50   17.70
   5 -12  -1   61.19   15.30
   5 -12  -1   54.69   15.40
  -5  12   1   52.29   21.70
   4 -12  -1   16.40   10.30
   4 -12  -1   23.60   11.40
  -4  12   1   18.30   16.90
   3 -12  -1   14.30    9.40
   3 -12  -1    2.90    9.40
  -3  12   1   11.70   15.00
   2 -12  -1  299.77   30.90
   2 -12  -1  269.67   30.60
  -2  12   1  358.96   45.00
   1 -12  -1   20.70    9.70
   1 -12  -1   33.10    9.50
  -1  12   1   18.70   15.70
   0 -12  -1  204.28   24.50
   0 -12  -1  166.88   22.80
   0  12   1  233.18   33.50
  -1 -12  -1  343.17   31.00
  -1 -12  -1  246.98   29.50
   1  12   1  272.87   38.00
  -2 -12  -1   14.50    9.70
  -2 -12  -1   24.20   10.60
   2  12   1   36.90   18.10
  -3 -12  -1  109.79   25.90
  -3 -12  -1   72.79   14.90
  -3 -12  -1   82.89   16.00
  -4 -12  -1   97.29   18.10
  -4 -12  -1   57.69   14.10
  -4 -12  -1   58.99   20.60
  -5 -12  -1    5.00   11.50
  -5 -12  -1   14.00   19.00
  -5 -12  -1    8.60   12.20
  -6 -12  -1    5.70   14.30
  -6 -12  -1    2.50   13.70
  -6 -12  -1   23.50   20.70
   6 -13  -1    1.40   12.00
   6 -13  -1    4.70   12.10
  -6  13   1  -11.30   17.60
   5 -13  -1   78.69   17.20
   5 -13  -1   90.19   19.30
  -5  13   1   80.99   25.00
   4 -13  -1  137.29   20.90
   4 -13  -1   86.89   19.60
  -4  13   1  146.19   31.70
   3 -13  -1   46.90   12.60
   3 -13  -1   60.59   14.00
  -3  13   1   69.09   22.90
   2 -13  -1  167.28   23.70
   2 -13  -1  169.18   23.30
  -2  13   1  243.58   37.50
   1 -13  -1   66.29   19.00
   1 -13  -1   34.50   10.30
  -1  13   1   52.59   25.00
   0 -13  -1   40.70   12.50
   0 -13  -1   42.50   11.50
   0  13   1   46.80   19.30
  -1 -13  -1   60.19   13.40
  -1 -13  -1   71.09   15.00
   1  13   1   98.79   24.20
  -2 -13  -1  140.59   20.20
  -2 -13  -1   78.69   20.00
   2  13   1  125.39   27.30
  -3 -13  -1   -0.10    9.90
  -3 -13  -1   14.80   10.10
  -3 -13  -1   -2.80   43.70
  -4 -13  -1  105.89   18.70
  -4 -13  -1   95.59   24.30
  -4 -13  -1   78.59   16.90
  -5 -13  -1   32.50   15.50
  -5 -13  -1   35.60   14.20
  -5 -13  -1   33.00   21.30
   5 -14  -1    6.20   11.00
   5 -14  -1   16.50   13.00
  -5  14   1   -1.20   17.90
   4 -14  -1  254.67   33.10
   4 -14  -1  268.17   35.30
  -4  14   1  293.17   46.00
   3 -14  -1    7.10    9.90
   3 -14  -1   15.10   10.60
  -3  14   1   30.70   20.20
   2 -14  -1  203.98   27.40
   2 -14  -1  204.78   27.10
  -2  14   1  267.17   41.90
   1 -14  -1  202.88   25.60
   1 -14  -1  166.08   23.80
  -1  14   1  171.78   33.70
   0 -14  -1    5.80    8.00
   0 -14  -1    1.10    7.90
   0  14   1    6.70   17.50
  -1 -14  -1   27.80   11.20
  -1 -14  -1   36.90   11.90
   1  14   1   45.40   21.20
  -2 -14  -1   79.59   16.00
  -2 -14  -1   63.99   15.80
   2  14   1   75.79   24.70
  -3 -14  -1   -3.30   10.90
  -3 -14  -1   11.50   11.80
  -3 -14  -1   -6.00   20.20
  -4 -14  -1   56.69   16.80
  -4 -14  -1   88.49   18.50
  -4 -14  -1   63.99   25.00
   4 -15  -1   88.79   19.60
   4 -15  -1   70.89   18.20
  -4  15   1   83.69   27.10
   3 -15  -1  105.39   19.10
   3 -15  -1   59.59   16.70
  -3  15   1  101.89   29.20
   2 -15  -1   41.00   13.20
   2 -15  -1   41.70   14.90
  -2  15   1   59.99   25.40
   1 -15  -1  605.04   54.69
   1 -15  -1  573.94   53.99
  -1  15   1  504.25   62.89
   0 -15  -1   37.10   11.40
   0 -15  -1   23.60   11.40
   0  15   1   27.60   21.70
  -1 -15  -1  114.59   18.80
  -1 -15  -1  125.79   20.70
   1  15   1  112.49   29.30
  -2 -15  -1  184.68   25.90
  -2 -15  -1  221.98   28.70
   2  15   1  196.68   38.30
  -3 -15  -1   11.20   11.60
  -3 -15  -1  -17.40   22.00
  -3 -15  -1   14.10   12.50
  -4 -15  -1   51.39   24.90
  -4 -15  -1   30.70   14.70
   3 -16  -1   43.40   15.30
   3 -16  -1   34.10   14.70
  -3  16   1   38.40   26.10
   2 -16  -1    0.40    9.80
  -2  16   1   20.20   26.20
   1 -16  -1    8.00   10.50
   1 -16  -1    2.00   10.80
  -1  16   1   27.00   22.20
   0 -16  -1   67.69   15.00
   0 -16  -1   63.59   16.20
   0  16   1   53.09   25.10
  -1 -16  -1    2.70    9.60
   1  16   1   25.40   21.80
  -2 -16  -1   91.69   17.70
  -2 -16  -1   76.69   20.90
   2  16   1   66.79   27.40
  -3 -16  -1  305.27   46.80
  -3 -16  -1  153.28   29.60
  -3 -16  -1  183.18   28.70
   2 -17  -1   35.50   15.40
   1 -17  -1   97.69   18.80
   1 -17  -1   76.59   17.30
  -1  17   1   57.09   28.20
   0 -17  -1   75.59   18.40
   0 -17  -1  104.49   29.10
   0  17   1   72.79   33.40
  -1 -17  -1   22.40   15.40
  -1 -17  -1    2.90   11.10
   0  16  -2  389.36   57.09
   0 -16   2  301.07   38.50
   0 -16   2  335.57   37.10
  -1  16  -2    9.10   23.60
   1 -16   2    6.30   10.90
   1 -16   2    4.40   11.50
   2  15  -2  110.99   36.60
  -2 -15   2   99.39   28.30
  -2 -15   2  122.69   19.50
   1  15  -2   -0.80   22.20
  -1 -15   2    2.60    9.30
   0  15  -2  157.68   37.60
   0 -15   2  156.98   27.20
   0 -15   2  252.67   27.70
  -1  15  -2  197.28   39.20
   1 -15   2  201.98   26.30
   1 -15   2  166.28   38.50
   2 -15   2   20.70   11.90
  -3  15  -2  218.28   43.00
   3 -15   2  228.58   38.50
   3 -15   2  265.87   32.70
  -3 -14   2   44.20   27.10
  -3 -14   2   59.39   15.20
  -3 -14   2   48.20   16.20
   2  14  -2  182.98   35.30
  -2 -14   2  105.89   20.40
  -2 -14   2  129.59   19.50
   1  14  -2    1.80   20.30
  -1 -14   2   -0.90    8.00
  -1 -14   2    1.30    9.70
   0  14  -2   -9.00   18.60
   0 -14   2   13.50    9.40
   0 -14   2   20.90   11.00
  -1  14  -2  230.88   40.80
   1 -14   2  257.77   31.30
   1 -14   2  243.98   29.40
  -2  14  -2    9.90   18.90
   2 -14   2   -6.10   10.00
   2 -14   2    5.80    9.60
  -3  14  -2  208.48   40.20
   3 -14   2  217.98   29.20
   3 -14   2  198.48   28.50
  -4  14  -2  147.39   35.80
   4 -14   2  123.29   30.00
   4 -14   2  136.69   27.10
  -4 -13   2   85.89   18.70
  -4 -13   2  105.89   19.50
  -4 -13   2  108.59   31.30
  -3 -13   2    1.00    9.70
  -3 -13   2    6.80   22.00
  -3 -13   2   10.60   11.20
   2  13  -2  194.48   36.60
  -2 -13   2  192.98   25.50
  -2 -13   2  215.68   26.90
   1  13  -2   90.99   26.90
  -1 -13   2   64.99   15.20
   0  13  -2  119.79   27.50
   0 -13   2   90.49   17.00
  -1  13  -2  199.68   35.80
   1 -13   2  167.28   24.60
   1 -13   2  215.88   25.20
  -2  13  -2   -0.70   17.60
   2 -13   2   14.20   10.80
   2 -13   2   -0.80    8.20
  -3  13  -2   22.40   21.60
   3 -13   2   35.60   11.90
   3 -13   2   11.50   10.20
  -4  13  -2  311.07   48.70
   4 -13   2  278.67   34.80
   4 -13   2  263.07   34.40
  -5  13  -2   31.60   25.00
   5 -13   2   36.90   14.70
   5 -13   2   17.20   15.40
  -5 -12   2   26.10   13.80
  -5 -12   2   23.50   13.60
  -5 -12   2   59.49   25.90
  -4 -12   2   88.89   27.80
  -4 -12   2   93.89   16.90
  -4 -12   2   61.79   15.10
  -3 -12   2   23.90   11.10
  -3 -12   2   -6.50   20.30
  -3 -12   2    6.00    8.70
   2  12  -2   11.10   19.30
  -2 -12   2   16.10    9.10
  -2 -12   2   10.90    9.50
   1  12  -2  155.98   31.00
  -1 -12   2  125.79   19.80
  -1 -12   2  144.49   18.90
   0  12  -2   50.99   21.30
   0 -12   2   33.40   10.00
   0 -12   2   27.60   10.30
  -1  12  -2  313.17   44.90
   1 -12   2  325.67   32.30
   1 -12   2  302.47   33.00
  -2  12  -2  309.67   46.50
   2 -12   2  360.26   35.70
  -3  12  -2  -14.30   15.30
   3 -12   2   10.60   10.00
   3 -12   2   -2.70    8.60
  -4  12  -2  437.46   57.69
   4 -12   2  407.46   43.10
   4 -12   2  437.96   43.10
  -5  12  -2   65.79   24.90
   5 -12   2   84.39   18.10
   5 -12   2   80.29   18.50
  -6  12  -2   26.40   22.60
   6 -12   2    5.10   12.10
   6 -12   2    9.50   12.80
  -5 -11   2   -6.30   19.60
  -5 -11   2   14.60   11.90
  -5 -11   2   -6.80   11.50
  -4 -11   2  199.68   26.30
  -4 -11   2  210.38   36.90
  -4 -11   2  193.68   25.30
  -3 -11   2   30.20   14.60
  -3 -11   2   84.69   27.10
  -3 -11   2   29.30   10.20
   2  11  -2   17.20   18.00
  -2 -11   2   22.60    9.60
  -2 -11   2    8.70    8.60
   1  11  -2  142.09   28.50
  -1 -11   2  120.29   18.40
  -1 -11   2  155.58   18.40
   0  11  -2  109.79   25.10
   0 -11   2   76.69   14.70
   0 -11   2   97.19   14.50
  -1  11  -2   75.59   21.90
   1 -11   2   92.59   14.70
   1 -11   2  100.99   15.70
   2 -11   2  601.24   53.69
   2 -11   2  527.55   51.09
  -3  11  -2   16.70   17.00
   3 -11   2   13.80    9.80
  -4  11  -2  229.88   37.20
   4 -11   2  211.08   27.10
   4 -11   2  197.88   27.30
  -5  11  -2  116.19   29.50
   5 -11   2  127.89   22.30
   5 -11   2  120.09   20.20
  -6  11  -2    1.00   20.40
   6 -11   2    8.40   11.90
   6 -11   2    2.80   13.50
  -6 -10   2   11.70   14.00
  -6 -10   2   27.90   21.10
  -6 -10   2   14.00   12.90
  -5 -10   2   47.20   22.40
  -5 -10   2  101.39   17.30
  -4 -10   2   17.30   11.10
  -4 -10   2   13.70    9.40
  -3 -10   2  299.87   38.10
  -3 -10   2  195.78   25.30
  -3 -10   2  208.98   25.10
   2  10  -2  363.96   42.00
  -2 -10   2  316.37   31.10
  -2 -10   2  324.77   32.00
  -2 -10   2  263.87   31.50
   1  10  -2  430.46   48.80
  -1 -10   2  405.86   40.30
  -1 -10   2  452.55   39.60
  -1 -10   2  416.26   39.90
   0  10  -2  238.18   27.20
   0  10  -2  289.17   37.90
   0 -10   2  280.17   27.20
   0 -10   2  285.97   28.30
  -1  10  -2   11.30   13.60
   1 -10   2    3.40    7.40
   1 -10   2    7.00    6.90
  -2  10  -2  190.98   29.80
   2 -10   2  168.38   21.80
   2 -10   2  182.58   22.00
  -3  10  -2  325.77   41.10
   3 -10   2  274.87   29.50
   3 -10   2  260.67   29.50
  -4  10  -2   45.20   19.30
   4 -10   2   37.70   11.70
   4 -10   2   48.10   12.30
  -5  10  -2  340.27   46.90
   5 -10   2  327.67   36.50
   5 -10   2  349.77   35.60
  -6  10  -2   24.10   20.90
   6 -10   2   -4.50   10.00
   6 -10   2  -11.80    9.50
   7 -10   2   18.70   15.80
   7 -10   2   25.20   14.20
  -6  -9   2   33.90   13.10
  -6  -9   2   38.20   14.80
  -6  -9   2   75.69   26.20
  -5  -9   2   41.60   22.70
  -5  -9   2   31.00   12.80
  -5  -9   2   58.09   12.90
  -4  -9   2   83.39   23.60
  -4  -9   2   95.69   16.20
  -4  -9   2   96.69   16.10
  -3  -9   2  179.08   22.60
  -3  -9   2  153.48   21.40
  -3  -9   2  221.58   31.70
  -3  -9   2  212.58   22.80
   2   9  -2  -16.90   13.60
  -2  -9   2    0.70    7.70
  -2  -9   2    5.00    7.50
  -2  -9   2   -2.20    6.40
   1   9  -2  101.39   23.00
  -1  -9   2  110.29   14.60
  -1  -9   2  111.29   16.70
  -1  -9   2  103.89   15.40
   0   9  -2   -3.90   13.50
   0  -9   2   20.10    6.90
   0  -9   2   11.60    7.40
  -1   9  -2    1.40    6.00
  -1   9  -2   -2.40   11.90
   1  -9   2    1.80    6.10
   1  -9   2   -0.20    5.40
  -2   9  -2   95.29   21.20
  -2   9  -2   76.99   13.30
   2  -9   2   84.89   13.90
   2  -9   2   89.89   13.60
  -3   9  -2    7.60   13.40
   3  -9   2    4.50    7.50
   3  -9   2   -5.30    6.10
  -4   9  -2  -19.10   11.30
   4  -9   2    4.50    7.80
   4  -9   2    3.30    8.70
  -5   9  -2  159.98   28.80
   5  -9   2  115.39   20.90
   5  -9   2  170.08   21.80
  -6   9  -2  102.29   26.40
   6  -9   2   89.79   22.90
   6  -9   2   85.19   18.90
  -7   9  -2    4.50   20.90
   7  -9   2    5.60   10.90
  -7  -8   2   23.50   22.60
  -7  -8   2    4.50   11.10
  -6  -8   2   40.90   18.90
  -6  -8   2   83.89   25.50
  -6  -8   2   78.49   14.40
  -5  -8   2  194.48   24.40
  -5  -8   2  156.38   22.20
  -5  -8   2  211.28   23.50
  -5  -8   2  165.68   31.00
  -4  -8   2   36.00   11.60
  -4  -8   2   69.49   13.50
  -4  -8   2   51.09   19.30
  -4  -8   2   60.29   13.20
  -4  -8   2   71.89   12.50
  -3  -8   2  184.28   26.70
  -3  -8   2  182.78   22.10
  -3  -8   2  180.38   22.40
  -3  -8   2  202.68   21.90
  -3  -8   2  227.58   31.30
   2   8  -2  146.29   25.30
  -2  -8   2  121.49   22.90
  -2  -8   2  144.69   17.70
  -2  -8   2  195.08   20.00
  -2  -8   2  103.89   17.20
  -2  -8   2  166.58   17.90
   1   8  -2    4.50   13.20
  -1  -8   2   23.50    6.80
  -1  -8   2   11.10    6.80
  -1  -8   2   12.40   11.60
  -1  -8   2   10.40    6.60
  -1  -8   2   13.60    7.80
   0   8  -2  416.56   43.00
   0   8  -2  411.86   36.50
   0  -8   2  364.36   41.10
   0  -8   2  435.66   36.40
   0  -8   2  389.96   36.90
   0  -8   2  379.26   37.10
  -1   8  -2  299.47   28.30
  -1   8  -2  282.97   29.30
  -1   8  -2  316.87   38.80
   1  -8   2  304.67   29.00
   1  -8   2  262.37   33.30
   1  -8   2  319.77   28.60
  -2   8  -2  531.45   49.30
  -2   8  -2  598.04   55.89
  -2   8  -2  520.85   49.70
   2  -8   2  586.74   49.80
   2  -8   2  557.54   49.80
   2  -8   2  574.84   54.19
  -3   8  -2  652.73   62.69
   3  -8   2  647.04   56.99
   3  -8   2  633.74   57.29
  -4   8  -2   24.60   14.80
   4  -8   2   45.70   11.00
   4  -8   2   14.20    9.10
  -5   8  -2  385.06   44.20
   5  -8   2  340.77   34.60
   5  -8   2  335.77   36.70
  -6   8  -2   75.09   23.60
   6  -8   2  105.99   17.40
   6  -8   2   67.79   16.40
  -7   8  -2   22.20   20.10
   7  -8   2    4.50   18.10
   7  -8   2    9.50   12.10
   7   7  -2   13.00   13.60
  -7  -7   2   22.00   20.60
  -7  -7   2   16.20   10.60
   6   7  -2   32.50   13.70
  -6  -7   2   19.10   28.00
  -6  -7   2   12.10   10.10
   5   7  -2  164.48   21.80
  -5  -7   2  151.88   19.40
  -5  -7   2  138.69   28.00
  -4  -7   2  581.44   47.00
  -4  -7   2  452.95   46.70
  -4  -7   2  538.65   54.09
  -4  -7   2  508.55   46.50
  -3  -7   2  147.49   27.40
  -3  -7   2  209.38   22.30
  -3  -7   2  237.98   31.00
  -3  -7   2  202.08   22.60
  -3  -7   2  196.38   21.70
  -3  -7   2  224.68   22.60
   2   7  -2 1070.49   98.39
  -2  -7   2 1097.89   93.49
  -2  -7   2 1097.39   93.49
  -2  -7   2 1137.89   93.79
  -2  -7   2 1154.18   93.49
   1   7  -2   23.70   13.40
  -1  -7   2   12.30   10.90
  -1  -7   2   25.50    7.30
  -1  -7   2   16.70    6.30
  -1  -7   2   17.80    7.10
  -1  -7   2   12.70    5.70
   0   7  -2  387.36   35.80
   0   7  -2  432.96   42.20
   0  -7   2  406.66   35.70
   0  -7   2  414.06   36.40
   0  -7   2  372.06   40.20
  -1   7  -2   37.40    8.90
  -1   7  -2   15.40    6.10
  -1   7  -2   51.19   13.70
   1  -7   2   40.60    7.90
   1  -7   2   25.00   11.50
   1  -7   2   25.40    7.50
  -2   7  -2  127.49   21.10
  -2   7  -2  110.99   14.30
   2  -7   2  113.79   14.60
   2  -7   2   97.19   14.20
   2  -7   2   90.69   18.70
  -3   7  -2  182.48   21.90
  -3   7  -2  188.18   22.40
  -3   7  -2  203.28   29.10
   3  -7   2  233.28   22.70
   3  -7   2  219.48   22.80
   3  -7   2  255.17   31.50
  -4   7  -2  526.35   53.09
  -4   7  -2  471.25   46.60
   4  -7   2  520.55   46.60
   4  -7   2  548.85   47.80
  -5   7  -2   24.20   16.60
   5  -7   2   31.30   10.00
   5  -7   2   35.60   11.50
  -6   7  -2  321.17   42.30
   6  -7   2  301.47   30.90
   6  -7   2  285.17   33.20
  -7   7  -2   34.40   22.10
   7  -7   2   39.60   12.20
   7  -7   2   18.70   13.20
  -8   7  -2   88.39   30.90
   8  -7   2   49.30   17.80
   8  -7   2   39.30   16.80
   7   6  -2  115.99   20.00
  -7  -6   2   95.99   27.40
  -7  -6   2  108.59   17.60
   6   6  -2   31.20   12.40
  -6  -6   2   12.80    9.60
  -6  -6   2   43.10   20.00
  -6  -6   2   28.90   10.30
   5   6  -2   75.09   13.50
  -5  -6   2   49.50   18.60
  -5  -6   2   53.39   11.00
  -5  -6   2   43.70   11.40
   4   6  -2  293.47   26.50
  -4  -6   2  262.97   34.10
  -4  -6   2  239.18   26.40
  -4  -6   2  183.78   30.60
  -4  -6   2  222.38   24.50
  -3  -6   2   21.80    7.80
  -3  -6   2   13.30    6.60
  -3  -6   2   23.40    7.50
  -3  -6   2    8.00   12.20
  -3  -6   2   26.20    8.20
  -2  -6   2  374.46   36.10
  -2  -6   2  415.66   36.00
  -2  -6   2  399.76   35.90
  -2  -6   2  404.76   36.00
  -2  -6   2  386.36   40.90
  -2  -6   2  445.06   42.30
   1   6  -2 1045.20   96.49
  -1  -6   2 1075.29   90.59
  -1  -6   2 1001.70   93.59
  -1  -6   2 1124.49   89.99
  -1  -6   2 1089.39   90.09
  -1  -6   2 1124.39   90.49
   0   6  -2  648.24   60.99
   0   6  -2  641.14   56.39
   0   6  -2  704.33   57.29
   0  -6   2  652.43   56.89
   0  -6   2  664.53   60.19
   0  -6   2  678.33   56.39
  -1   6  -2  585.14   52.09
  -1   6  -2  639.04   52.89
  -1   6  -2  601.54   59.19
   1  -6   2  621.04   52.39
   1  -6   2  628.24   53.89
   1  -6   2  582.24   55.59
  -2   6  -2  167.28   19.00
  -2   6  -2  152.58   18.20
  -2   6  -2  224.18   27.10
   2  -6   2  197.08   25.40
   2  -6   2  155.18   25.90
   2  -6   2  202.18   19.20
  -3   6  -2  501.35   47.40
  -3   6  -2  453.85   42.60
   3  -6   2  502.05   43.00
   3  -6   2  467.05   43.30
  -4   6  -2  354.66   38.90
  -4   6  -2  342.87   32.70
   4  -6   2  328.47   33.20
   4  -6   2  304.27   38.00
   4  -6   2  360.06   32.50
  -5   6  -2    3.30    8.30
  -5   6  -2    6.40   13.30
   5  -6   2   11.80    8.90
   5  -6   2   17.10    8.80
  -6   6  -2  133.49   28.10
   6  -6   2  180.88   21.00
   6  -6   2  130.79   22.30
  -7   6  -2   61.19   23.60
   7  -6   2    8.80   11.40
   7  -6   2   59.89   13.40
  -8   6  -2  -18.20   22.40
   8  -6   2  -16.90   10.80
   8  -6   2   -1.90   12.10
   8   5  -2   -8.90   14.70
  -8  -5   2   24.80   22.70
   7   5  -2  129.19   22.60
  -7  -5   2  162.48   31.40
  -7  -5   2  173.08   18.90
   6   5  -2   55.29   15.50
  -6  -5   2   80.79   11.80
  -6  -5   2   45.10   10.70
  -6  -5   2   63.89   21.00
   5   5  -2  233.58   25.00
  -5  -5   2  187.38   24.70
  -5  -5   2  185.88   22.00
  -5  -5   2  234.08   22.20
  -5  -5   2  243.78   33.30
   4   5  -2  247.28   24.40
  -4  -5   2  207.48   23.40
  -4  -5   2  208.68   30.00
  -4  -5   2  159.08   28.20
  -4  -5   2  215.88   22.60
  -4  -5   2  285.67   23.00
   3   5  -2   23.70    7.40
  -3  -5   2   30.20   13.20
  -3  -5   2   24.80    7.10
  -3  -5   2   31.80    7.50
  -3  -5   2   32.00   13.90
  -3  -5   2   33.70    7.10
  -2  -5   2    6.30    5.00
  -2  -5   2    2.20    4.30
  -2  -5   2    3.90   11.30
  -2  -5   2   14.10   10.70
  -2  -5   2   -2.80    4.60
  -2  -5   2    2.50    4.60
   1   5  -2 1422.76  124.39
  -1  -5   2 1457.95  121.09
  -1  -5   2 1500.25  120.99
  -1  -5   2 1436.16  123.89
  -1  -5   2 1467.85  120.59
  -1  -5   2 1498.55  120.69
   0   5  -2  263.37   28.70
   0   5  -2  240.18   22.90
   0   5  -2  245.48   23.60
   0  -5   2  257.87   22.90
   0  -5   2  236.08   27.40
   0  -5   2  265.67   23.70
  -1   5  -2  689.63   58.89
  -1   5  -2  692.73   62.39
  -1   5  -2  724.33   58.59
   1  -5   2  683.53   58.79
   1  -5   2  646.84   61.39
   1  -5   2  707.33   58.49
  -2   5  -2 1255.47  107.49
  -2   5  -2 1231.68  104.39
  -2   5  -2 1266.27  104.49
   2  -5   2 1269.67  104.39
   2  -5   2 1256.57  107.19
   2  -5   2 1260.87  104.59
  -3   5  -2   11.80    5.50
  -3   5  -2   22.20   10.40
  -3   5  -2   12.90    6.30
   3  -5   2   10.90    6.80
   3  -5   2   15.60    9.70
   3  -5   2    6.90    5.50
  -4   5  -2  250.67   30.10
  -4   5  -2  161.88   22.70
  -4   5  -2  191.38   22.00
   4  -5   2  245.98   23.70
   4  -5   2  250.47   28.70
   4  -5   2  212.48   21.90
  -5   5  -2  242.28   32.10
  -5   5  -2  185.38   29.90
   5  -5   2  232.38   27.60
   5  -5   2  237.68   23.90
  -6   5  -2  158.78   27.00
  -6   5  -2  112.49   17.20
   6  -5   2  148.49   18.10
   6  -5   2   97.39   19.70
  -7   5  -2   76.19   23.80
   7  -5   2   60.59   15.60
   7  -5   2   56.39   13.30
  -8   5  -2   27.10   23.90
   8  -5   2   22.20   12.00
   8  -5   2    7.40   14.10
   8   4  -2   -9.20   12.60
  -8  -4   2    5.50   21.90
   7   4  -2   -1.80   11.50
  -7  -4   2   20.60   19.00
   6   4  -2   11.50   10.30
  -6  -4   2    4.20    6.70
  -6  -4   2   39.30   17.60
  -6  -4   2   13.10    6.90
   5   4  -2   81.59   14.20
  -5  -4   2   77.89   10.60
  -5  -4   2   95.69   20.80
  -5  -4   2   36.60   17.90
  -5  -4   2   70.79   10.50
  -5  -4   2   61.89   12.50
   4   4  -2  431.66   42.40
  -4  -4   2  483.35   39.50
  -4  -4   2  338.57   48.60
  -4  -4   2  435.56   40.80
  -4  -4   2  479.05   46.20
  -4  -4   2  484.55   39.60
   3   4  -2  610.94   51.39
  -3  -4   2  595.94   56.19
  -3  -4   2  623.44   50.49
  -3  -4   2  556.64   50.89
  -3  -4   2  603.24   57.99
  -3  -4   2  586.24   50.49
   2   4  -2  176.38   19.30
  -2  -4   2  205.28   25.50
  -2  -4   2  230.08   19.50
  -2  -4   2  209.38   19.50
  -2  -4   2  177.38   19.00
  -2  -4   2  234.18   26.30
   1   4  -2 2008.00  170.08
  -1  -4   2 2086.39  166.88
  -1  -4   2 2015.40  167.18
  -1  -4   2 2114.69  166.88
  -1  -4   2 2009.20  169.88
  -1  -4   2 2021.10  167.28
   0   4  -2 1380.66  114.49
   0   4  -2 1348.97  111.29
   0   4  -2 1357.36  111.79
   0  -4   2 1342.67  114.09
   0  -4   2 1374.56  111.29
   0  -4   2 1337.07  111.69
  -1   4  -2   11.80    4.70
  -1   4  -2   20.60    9.70
  -1   4  -2   15.70    5.60
   1  -4   2   10.20    5.40
   1  -4   2   17.90    8.80
   1  -4   2   17.60    4.80
  -2   4  -2 1164.78   93.69
  -2   4  -2 1110.69   96.19
  -2   4  -2 1119.59   93.59
   2  -4   2 1082.89   95.89
   2  -4   2 1127.99   93.59
   2  -4   2 1146.49   93.79
  -3   4  -2  310.47   28.10
  -3   4  -2  347.37   33.00
  -3   4  -2  284.87   28.60
   3  -4   2  242.68   36.30
   3  -4   2  310.17   28.20
   3  -4   2  311.67   31.70
  -4   4  -2   71.19   12.40
  -4   4  -2  107.69   18.70
  -4   4  -2   84.69   12.70
   4  -4   2  135.89   14.50
   4  -4   2   87.59   17.80
   4  -4   2  120.19   15.30
  -5   4  -2  222.78   22.70
  -5   4  -2  223.18   30.50
   5  -4   2  187.08   28.90
   5  -4   2  257.17   27.20
   5  -4   2  181.38   21.50
  -6   4  -2  -13.50   13.70
  -6   4  -2   -2.60   10.30
   6  -4   2    1.00    8.30
   6  -4   2    1.20    8.30
  -7   4  -2  158.68   31.50
  -7   4  -2  114.99   18.10
   7  -4   2  165.88   19.40
   7  -4   2  127.09   21.00
  -8   4  -2   81.79   27.70
   8  -4   2   72.59   18.80
   8  -4   2   59.49   14.10
   8   3  -2   11.30   14.20
  -8  -3   2    1.50   21.40
   7   3  -2  -18.10   10.50
  -7  -3   2   21.70   28.00
   6   3  -2  231.68   26.80
  -6  -3   2  235.88   20.70
  -6  -3   2  248.28   33.80
  -6  -3   2  179.08   20.20
   5   3  -2   12.70   16.30
   5   3  -2  -13.70    7.00
  -5  -3   2    1.40    7.70
  -5  -3   2    2.00    5.90
  -5  -3   2    9.60   13.20
  -5  -3   2   -4.20    4.60
   4   3  -2  287.27   34.50
   4   3  -2  279.17   29.20
  -4  -3   2  310.77   27.20
  -4  -3   2  328.57   34.80
  -4  -3   2  325.97   27.30
  -4  -3   2  291.17   29.00
   3   3  -2  941.11   76.29
  -3  -3   2  900.11   75.09
  -3  -3   2  893.31   79.49
  -3  -3   2  923.31   76.19
  -3  -3   2  887.61   75.09
   2   3  -2    3.90    4.60
  -2  -3   2    3.20    3.90
  -2  -3   2    6.20    8.90
  -2  -3   2   -5.90    9.10
  -2  -3   2    9.70    4.60
  -2  -3   2   -2.70    3.70
   1   3  -2 1677.73  143.69
  -1  -3   2 1712.73  140.99
  -1  -3   2 1746.93  140.79
  -1  -3   2 1752.82  140.79
  -1  -3   2 1732.43  143.79
   0   3  -2 3953.10  320.47
   0   3  -2 3993.00  318.67
   0   3  -2 3745.83  318.17
   0  -3   2 3961.90  320.37
   0  -3   2 3956.40  318.57
   0  -3   2 3939.31  318.17
  -1   3  -2  395.06   36.70
  -1   3  -2  411.26   33.70
   1  -3   2  383.16   33.90
   1  -3   2  376.26   33.60
  -2   3  -2  363.56   35.30
  -2   3  -2  387.36   33.00
  -2   3  -2  360.76   32.50
   2  -3   2  360.86   35.70
   2  -3   2  363.36   32.80
   2  -3   2  391.96   32.90
  -3   3  -2  180.78   19.00
  -3   3  -2  192.08   18.30
  -3   3  -2  199.48   23.10
   3  -3   2  172.28   18.40
   3  -3   2  169.98   21.80
   3  -3   2  193.28   19.30
  -4   3  -2   10.60    7.30
  -4   3  -2    3.10    5.50
   4  -3   2    9.90    6.40
   4  -3   2    1.60    5.40
   4  -3   2   22.50   10.10
  -5   3  -2  377.16   35.20
  -5   3  -2  426.26   42.40
   5  -3   2  371.26   37.30
   5  -3   2  350.66   55.49
   5  -3   2  384.96   36.40
  -6   3  -2   26.20    9.00
  -6   3  -2   11.50   15.90
   6  -3   2   16.70   10.60
   6  -3   2   25.60    9.00
  -7   3  -2   33.00   11.40
  -7   3  -2   54.29   22.20
   7  -3   2   35.00   10.80
   7  -3   2   27.80   12.20
  -8   3  -2   99.29   29.40
   8  -3   2   73.09   19.00
   8  -3   2   89.09   15.10
   8   2  -2   31.20   16.50
  -8  -2   2   36.10   24.30
   7   2  -2  -13.10   18.00
   6   2  -2  200.48   24.70
  -6  -2   2  182.18   30.80
   5   2  -2   44.20   16.60
   5   2  -2   30.00   10.20
  -5  -2   2   33.70   14.80
  -5  -2   2   33.70    9.20
  -5  -2   2   27.00    5.70
   4   2  -2  112.99   18.20
   4   2  -2   73.29   11.40
  -4  -2   2   59.29   10.70
  -4  -2   2   69.39   15.90
  -4  -2   2   70.69    8.30
   3   2  -2  509.75   48.70
   3   2  -2  592.54   52.19
  -3  -2   2  606.04   52.69
  -3  -2   2  594.24   48.90
   2   2  -2  275.07   23.80
   2   2  -2  260.67   27.60
  -2  -2   2  229.08   27.00
  -2  -2   2  278.47   23.30
  -2  -2   2  288.87   23.70
  -2  -2   2  248.28   23.00
   1   2  -2   96.49   10.50
  -1  -2   2  103.89   14.70
  -1  -2   2   93.09    9.80
  -1  -2   2  147.29   16.00
  -1  -2   2   80.39   10.00
   0   2  -2 6427.06  513.45
   0   2  -2 6331.17  511.95
   0   2  -2 6211.78  511.45
   0  -2   2 6353.76  511.45
   0  -2   2 6289.37  511.85
   0  -2   2 6320.77  513.35
  -1   2  -2   35.50    6.40
  -1   2  -2   30.30    9.60
  -1   2  -2   35.00    6.50
   1  -2   2   50.79    6.60
   1  -2   2   48.60    7.10
   1  -2   2   45.70    9.30
  -2   2  -2  713.13   62.29
  -2   2  -2  782.32   62.69
  -2   2  -2  696.53   64.09
   2  -2   2  743.33   64.19
   2  -2   2  787.02   62.29
   2  -2   2  754.52   62.69
  -3   2  -2  656.33   55.39
  -3   2  -2  699.43   58.39
  -3   2  -2  604.24   55.99
   3  -2   2  682.83   55.29
   3  -2   2  649.24   56.19
   3  -2   2  647.74   57.79
  -4   2  -2   18.30    6.40
  -4   2  -2    6.00    9.30
  -4   2  -2   12.60    5.60
   4  -2   2    3.30    6.00
   4  -2   2    1.60    9.60
   4  -2   2   11.20    5.50
  -5   2  -2  254.77   29.40
  -5   2  -2  156.48   25.50
  -5   2  -2  201.38   21.80
   5  -2   2  248.98   22.30
   5  -2   2  233.58   29.00
   5  -2   2  202.68   23.90
  -6   2  -2  213.18   23.70
  -6   2  -2  304.57   34.30
   6  -2   2  237.88   29.00
   6  -2   2  265.07   33.30
   6  -2   2  159.78   25.70
  -7   2  -2   18.80   18.10
  -7   2  -2   11.10    9.90
   7  -2   2   15.60    9.30
   7  -2   2   13.10   11.30
  -8   2  -2   39.70   23.30
   8  -2   2   24.40   14.20
   8  -2   2   43.90   12.20
   8   1  -2   12.00   14.50
  -8  -1   2   61.79   27.10
   7   1  -2   -6.30   14.90
  -7  -1   2   84.89   35.40
   6   1  -2  125.39   18.60
  -6  -1   2  119.49   24.90
   5   1  -2  425.86   42.60
   5   1  -2  506.05   49.40
  -5  -1   2  440.96   42.60
  -5  -1   2  515.05   49.10
   4   1  -2   -9.10    8.70
   4   1  -2    7.10    5.60
  -4  -1   2    6.70   11.90
  -4  -1   2   10.40    6.20
  -4  -1   2    5.80    3.30
   3   1  -2 2149.88  171.48
   3   1  -2 1904.91  173.28
  -3  -1   2 2137.79  169.78
  -3  -1   2 2116.19  174.08
  -3  -1   2 2135.49  171.38
   2   1  -2   86.89    9.60
   2   1  -2   55.99   13.10
  -2  -1   2   92.69    9.60
  -2  -1   2   82.29   12.70
  -2  -1   2   72.89    8.00
  -2  -1   2   83.69    8.40
   1   1  -2    0.50    3.10
   1   1  -2   11.00    3.20
   1   1  -2   -4.30    7.60
  -1  -1   2    8.90    7.50
  -1  -1   2    5.40    3.10
  -1  -1   2    7.80    3.10
   0   1  -2 1875.41  155.68
   0   1  -2 1877.61  153.98
   0   1  -2 1868.91  154.38
   0  -1   2 1899.31  155.68
   0  -1   2 1915.51  154.38
   0  -1   2 1961.90  153.98
  -1   1  -2 1818.52  148.69
  -1   1  -2 1806.12  149.59
  -1   1  -2 1871.81  148.69
   1  -1   2 1786.22  149.49
   1  -1   2 1773.52  148.69
   1  -1   2 1897.41  148.69
  -2   1  -2    6.50    4.50
  -2   1  -2   10.60    4.40
  -2   1  -2    3.00    6.90
   2  -1   2    4.40    6.00
   2  -1   2   -0.30    4.20
   2  -1   2    7.00    4.70
  -3   1  -2 3739.73  310.67
  -3   1  -2 3821.12  311.77
  -3   1  -2 3736.73  310.87
   3  -1   2 3961.70  311.17
   3  -1   2 3793.82  309.87
   3  -1   2 3838.62  312.57
  -4   1  -2  445.46   43.00
  -4   1  -2  390.56   39.90
  -4   1  -2  478.75   38.90
   4  -1   2  474.55   38.90
   4  -1   2  451.35   40.50
   4  -1   2  424.16   42.60
  -5   1  -2  164.68   23.40
  -5   1  -2  115.39   14.80
  -5   1  -2   93.49   15.60
   5  -1   2  136.39   18.40
   5  -1   2  141.29   20.80
   5  -1   2  155.18   15.80
  -6   1  -2  487.45   45.60
  -6   1  -2  394.96   37.10
   6  -1   2  420.06   37.70
   6  -1   2  365.86   39.60
   6  -1   2  373.16   44.10
  -7   1  -2    9.10    8.60
  -7   1  -2  -23.80   14.90
   7  -1   2    3.60    8.70
   7  -1   2   -2.40   10.50
  -8   1  -2   55.79   33.80
   8  -1   2   47.50   16.20
   8  -1   2   50.79   12.40
  -9   1  -2   30.80   27.10
   9  -1   2   -2.20   14.70
   8   0  -2   48.50   16.80
  -8   0   2   65.39   26.80
   7   0  -2   14.90   17.00
  -7   0   2   28.10   29.30
   6   0  -2   17.50   10.70
  -6   0   2   12.90   16.70
   5   0  -2  115.89   22.10
   5   0  -2  112.59   15.90
  -5   0   2  106.09   21.90
  -5   0   2  105.09   15.00
   4   0  -2  344.27   33.00
   4   0  -2  357.96   36.90
  -4   0   2  351.76   32.90
  -4   0   2  425.46   48.10
   3   0  -2  189.38   18.40
   3   0  -2  187.38   22.30
  -3   0   2  183.48   18.10
  -3   0   2  155.48   22.00
   2   0  -2  200.98   17.80
  -2   0   2  231.48   22.30
  -2   0   2  160.78   17.30
   1   0  -2  321.97   28.90
   1   0  -2  342.77   31.90
   1   0  -2  382.56   29.40
  -1   0   2  368.46   29.30
  -1   0   2  349.96   28.90
  -1   0   2  350.66   32.00
   0   0  -2   92.19    9.20
   0   0  -2  101.29    8.30
   0   0   2   88.19   11.50
   0   0   2   83.99   10.80
   0   0   2  102.09    8.30
   0   0   2  100.79    9.10
  -1   0  -2 3022.70  248.68
  -1   0  -2 3003.90  248.48
  -1   0  -2 3262.47  248.58
   1   0   2 2793.22  248.58
   1   0   2 3040.20  248.48
   1   0   2 3270.77  248.58
  -2   0  -2  611.64   48.60
  -2   0  -2  616.54   48.00
  -2   0  -2  521.55   48.90
   2   0   2  569.24   48.00
   2   0   2  519.25   48.80
   2   0   2  610.34   48.70
  -3   0  -2  855.01   72.79
  -3   0  -2  846.92   71.99
  -3   0  -2  858.51   71.19
   3   0   2  826.22   72.59
   3   0   2  873.21   72.19
   3   0   2  868.71   70.99
  -4   0  -2  919.01   73.59
  -4   0  -2  863.91   76.39
  -4   0  -2  827.72   74.99
   4   0   2  896.41   75.39
   4   0   2  902.61   73.59
   4   0   2  868.81   76.09
  -5   0  -2   21.10   10.90
  -5   0  -2   14.70    7.20
  -5   0  -2   11.80    6.00
   5   0   2   10.80   10.60
   5   0   2   17.90    8.30
   5   0   2    3.50    6.70
  -6   0  -2  186.48   22.00
  -6   0  -2  192.48   29.00
   6   0   2  181.18   30.10
   6   0   2  231.88   22.50
   6   0   2  247.98   27.30
  -7   0  -2   64.69   20.80
  -7   0  -2   57.09   11.70
   7   0   2   86.09   16.70
   7   0   2   74.19   15.40
  -8   0  -2   29.20   22.20
   8   0   2   13.70   13.80
   8   0   2   27.10   11.00
  -9   0  -2   55.99   28.00
   9   0   2    7.80   16.30
   8  -1  -2   56.49   17.00
  -8   1   2   53.69   26.90
   7  -1  -2   53.59   14.70
   6  -1  -2    7.80    9.20
  -6   1   2    0.60   16.30
   5  -1  -2    7.20   12.40
   5  -1  -2   15.00    8.80
  -5   1   2   28.60   14.30
  -5   1   2   19.50    7.80
   4  -1  -2   29.90   12.40
   4  -1  -2   27.90    7.60
  -4   1   2   25.20   13.40
  -4   1   2   16.50    6.30
   3  -1  -2  117.49   18.20
   3  -1  -2  150.18   15.30
  -3   1   2  136.39   19.30
  -3   1   2  141.09   14.80
   2  -1  -2  313.27   27.80
  -2   1   2  293.37   27.70
  -2   1   2  372.56   31.90
   1  -1  -2   72.69    8.50
   1  -1  -2   76.19    7.20
   1  -1  -2   76.39   11.50
  -1   1   2   88.29    8.30
  -1   1   2   93.29   12.00
   0  -1  -2  825.32   65.69
   0  -1  -2  822.02   66.09
   0  -1  -2  791.62   65.49
   0  -1  -2  758.62   65.49
   0   1   2  829.32   65.69
  -1  -1  -2 1477.45  125.49
  -1  -1  -2 1526.45  126.09
  -1  -1  -2 1630.94  126.29
   1   1   2 1557.14  126.09
   1   1   2 1650.13  126.29
   1   1   2 1469.05  125.49
  -2  -1  -2   92.99   10.80
  -2  -1  -2   92.79   10.20
  -2  -1  -2   71.99   10.30
   2   1   2   74.69   10.10
   2   1   2  110.29   11.60
   2   1   2   95.19   10.10
  -3  -1  -2  966.20   81.99
  -3  -1  -2  996.70   82.99
  -3  -1  -2  994.40   80.99
   3   1   2  923.61   81.89
   3   1   2 1023.40   80.99
   3   1   2  960.70   82.09
  -4  -1  -2   75.79   13.50
  -4  -1  -2   56.99    8.80
  -4  -1  -2   54.69   10.30
   4   1   2   64.49   12.70
   4   1   2   64.29   11.50
   4   1   2   44.10    8.40
  -5  -1  -2    2.20    5.50
  -5  -1  -2   -1.50    6.90
  -5  -1  -2   -2.00   10.70
   5   1   2    1.50   10.40
   5   1   2   -1.30    6.30
   5   1   2   15.10    8.50
  -6  -1  -2   55.49   17.50
  -6  -1  -2   28.00    8.80
   6   1   2   35.20    9.50
   6   1   2   17.30   21.50
   6   1   2   44.60   13.00
  -7  -1  -2   19.80   17.30
  -7  -1  -2   24.00    9.50
   7   1   2   25.30   13.00
   7   1   2   21.40   16.60
  -8  -1  -2   89.79   26.00
   8   1   2   67.19   13.50
   8   1   2   59.59   17.30
   8  -2  -2   -6.30   11.80
  -8   2   2  -12.40   22.00
   7  -2  -2  132.09   21.40
  -7   2   2  187.78   39.30
   6  -2  -2   68.69   15.60
  -6   2   2   96.79   22.90
   5  -2  -2   87.99   14.70
   5  -2  -2   97.59   21.20
  -5   2   2  107.19   21.40
  -5   2   2   93.09   14.10
  -5   2   2  101.79   10.40
   4  -2  -2  287.07   34.70
   4  -2  -2  353.66   28.10
   4  -2  -2  335.17   33.30
  -4   2   2  338.17   35.90
  -4   2   2  292.67   30.60
  -4   2   2  343.67   28.10
   3  -2  -2   62.99    6.80
   3  -2  -2   42.50   11.80
   3  -2  -2   42.30    8.70
  -3   2   2   67.99   14.20
  -3   2   2   66.29    9.30
  -3   2   2   66.19    6.80
   2  -2  -2 1285.97  104.69
   2  -2  -2 1408.36  108.19
   2  -2  -2 1230.38  103.39
  -2   2   2 1237.58  106.79
  -2   2   2 1238.78  104.59
   1  -2  -2  130.29   13.90
   1  -2  -2   79.19    9.20
   1  -2  -2   87.79   10.20
  -1   2   2   81.49    9.30
  -1   2   2   91.39   10.10
  -1   2   2  149.69   15.00
   0  -2  -2    6.20    4.10
   0  -2  -2    4.40    2.80
   0  -2  -2    1.20    3.50
   0   2   2    5.60    2.80
   0   2   2    4.70    3.30
   0   2   2    7.90    4.50
  -1  -2  -2 1413.96  123.69
  -1  -2  -2 1497.75  123.19
  -1  -2  -2 1611.54  123.99
   1   2   2 1475.75  123.79
   1   2   2 1596.44  123.99
  -2  -2  -2  409.96   37.50
  -2  -2  -2  456.25   37.60
  -2  -2  -2  499.15   39.20
   2   2   2  412.86   37.60
   2   2   2  457.45   37.70
   2   2   2  442.16   38.10
   3   2   2   14.80    6.50
  -4  -2  -2 1236.58  105.79
  -4  -2  -2 1313.57  107.99
  -4  -2  -2 1281.97  107.49
   4   2   2 1284.77  107.69
   4   2   2 1330.77  107.69
   4   2   2 1261.27  105.89
  -5  -2  -2   25.10    7.50
  -5  -2  -2   22.10    9.00
  -5  -2  -2   35.40   12.30
   5   2   2   33.90    8.40
   5   2   2   30.00   10.60
   5   2   2   22.50   12.80
  -6  -2  -2  318.57   34.90
  -6  -2  -2  264.07   27.70
   6   2   2  286.37   28.20
   6   2   2  322.07   37.20
   6   2   2  266.17   31.80
  -7  -2  -2  138.89   26.10
  -7  -2  -2  111.39   16.00
   7   2   2  123.79   18.60
   7   2   2  184.08   24.00
  -8  -2  -2   16.60   19.80
   8   2   2   26.10   10.20
   8   2   2   11.20   14.40
   8  -3  -2   -6.40   12.10
  -8   3   2   -5.00   22.20
   7  -3  -2   57.19   15.80
  -7   3   2   81.29   24.30
   6  -3  -2   32.10   11.40
   6  -3  -2   26.50    6.10
  -6   3   2   44.60   18.70
   5  -3  -2    2.90   13.70
   5  -3  -2   12.30    4.90
   5  -3  -2  -10.70    6.50
  -5   3   2   -0.30    6.40
  -5   3   2    0.40   13.30
  -5   3   2    0.60    4.10
   4  -3  -2   57.19   10.70
   4  -3  -2   71.69   15.70
   4  -3  -2   68.49    7.90
  -4   3   2   71.99    8.10
  -4   3   2   85.09   17.00
  -4   3   2   41.90    9.40
   3  -3  -2  754.42   62.49
   3  -3  -2  788.32   64.49
   3  -3  -2  762.22   67.29
  -3   3   2  748.53   67.59
  -3   3   2  759.42   62.59
  -3   3   2  745.83   64.29
   2  -3  -2  402.96   34.60
   2  -3  -2  394.16   33.30
   2  -3  -2  380.46   37.20
  -2   3   2  385.16   37.50
  -2   3   2  412.76   34.60
   1  -3  -2  510.25   44.20
   1  -3  -2  528.45   46.50
   1  -3  -2  541.95   44.70
  -1   3   2  550.84   44.60
  -1   3   2  516.35   46.70
   0  -3  -2  124.09   15.10
   0  -3  -2  129.79   13.80
   0  -3  -2  132.69   13.10
   0   3   2  139.29   13.20
   0   3   2  119.99   13.50
   0   3   2  140.59   15.60
  -1  -3  -2  271.57   23.70
  -1  -3  -2  277.27   23.90
  -1  -3  -2  260.07   24.00
   1   3   2  245.68   23.70
   1   3   2  259.07   23.90
   1   3   2  274.97   23.90
  -2  -3  -2  135.89   14.10
  -2  -3  -2  113.09   14.20
  -2  -3  -2  127.89   12.80
  -2  -3  -2  105.49   13.40
   2   3   2  116.79   13.10
   2   3   2  132.59   13.80
  -3  -3  -2   47.40    8.80
  -3  -3  -2   43.00    7.60
  -3  -3  -2   34.00    8.80
   3   3   2   37.50    9.60
   3   3   2   44.90    8.60
   3   3   2   30.30    7.30
  -4  -3  -2  339.07   31.40
  -4  -3  -2  306.47   29.70
  -4  -3  -2  300.37   28.30
   4   3   2  326.57   28.60
   4   3   2  305.97   30.00
   4   3   2  289.47   30.80
  -5  -3  -2  227.98   25.60
  -5  -3  -2  154.28   21.80
  -5  -3  -2  175.08   19.90
   5   3   2  212.08   22.80
   5   3   2  170.88   20.40
   5   3   2  219.58   25.60
  -6  -3  -2   23.10   14.00
  -6  -3  -2   20.00    8.10
   6   3   2   10.90   10.30
   6   3   2   -5.10   13.80
   6   3   2   19.70   10.80
  -7  -3  -2  168.88   27.30
  -7  -3  -2  142.89   18.70
   7   3   2  135.99   22.70
   7   3   2  183.48   19.90
   7   3   2  160.48   43.60
  -8  -3  -2   -1.30   19.80
   8   3   2   26.30   10.70
   8   3   2  -13.00   12.80
   8  -4  -2    0.80   12.80
  -8   4   2   15.60   24.60
   7  -4  -2   25.60   12.80
  -7   4   2   32.80   21.10
   6  -4  -2  229.28   20.80
   6  -4  -2  166.68   24.80
  -6   4   2  240.48   33.80
   5  -4  -2   19.30    9.40
   5  -4  -2   27.80    6.70
  -5   4   2   24.00   15.30
   4  -4  -2  133.09   28.30
   4  -4  -2  123.29   13.30
   4  -4  -2  119.99   16.20
  -4   4   2  123.29   21.80
  -4   4   2  133.99   13.50
  -4   4   2  138.29   16.40
   3  -4  -2  398.46   39.90
   3  -4  -2  418.26   34.70
   3  -4  -2  424.26   36.50
  -3   4   2  369.36   39.90
  -3   4   2  424.86   34.80
  -3   4   2  375.46   36.10
   2  -4  -2   52.79    7.50
   2  -4  -2   53.59    7.30
   2  -4  -2   61.49   12.10
   2  -4  -2   59.39    8.90
  -2   4   2   65.69   13.00
  -2   4   2   40.10    8.00
   1  -4  -2    4.40    4.10
   1  -4  -2    1.20    4.10
   1  -4  -2   -5.20    7.30
   1  -4  -2    9.70    4.70
  -1   4   2    3.60    4.10
  -1   4   2   18.50    9.20
   0  -4  -2  435.56   37.30
   0  -4  -2  445.66   38.90
   0  -4  -2  424.46   37.30
   0   4   2  444.46   37.30
   0   4   2  436.56   38.80
   0   4   2  432.06   37.40
  -1  -4  -2  339.37   29.40
  -1  -4  -2  361.86   29.50
  -1  -4  -2  322.27   29.20
  -1  -4  -2  319.67   29.60
   1   4   2  321.27   29.30
   1   4   2  328.07   29.80
  -2  -4  -2  681.83   55.29
  -2  -4  -2  624.84   54.39
  -2  -4  -2  628.14   54.89
  -2  -4  -2  646.24   54.99
   2   4   2  678.33   55.09
   2   4   2  618.04   54.49
  -3  -4  -2   19.70    8.50
  -3  -4  -2    9.30    5.10
  -3  -4  -2    8.00    6.60
  -3  -4  -2   22.50    5.40
   3   4   2   31.70    7.00
   3   4   2   17.50    6.90
  -4  -4  -2  614.74   53.79
  -4  -4  -2  696.43   56.19
  -4  -4  -2  579.94   55.09
   4   4   2  622.04   55.29
   4   4   2  635.34   53.99
  -5  -4  -2  298.07   34.00
  -5  -4  -2  337.67   31.60
  -5  -4  -2  241.88   27.00
   5   4   2  276.17   32.00
   5   4   2  240.98   28.90
   5   4   2  288.17   27.50
  -6  -4  -2    0.40    7.60
  -6  -4  -2   24.90   13.80
   6   4   2   10.40   10.60
   6   4   2   17.50    8.60
   6   4   2   -5.40   14.80
  -7  -4  -2   22.60   12.20
  -7  -4  -2   31.80   17.70
   7   4   2   27.70   13.70
   7   4   2   52.09   11.50
  -8  -4  -2   49.20   23.00
   8   4   2   19.70   14.30
   8   4   2   39.80   12.00
   8  -5  -2   48.70   17.60
  -8   5   2   91.49   30.30
   7  -5  -2    2.20    9.10
   7  -5  -2    3.40    6.60
   7  -5  -2    4.00   11.10
  -7   5   2  -15.60   19.10
   6  -5  -2  150.78   16.70
   6  -5  -2  169.58   23.00
  -6   5   2  136.59   28.50
   5  -5  -2  435.16   39.40
   5  -5  -2  426.56   42.60
  -5   5   2  560.14   50.79
   4  -5  -2   28.70   13.80
   4  -5  -2   35.00    6.90
   4  -5  -2   35.90    8.90
  -4   5   2   24.40    7.90
  -4   5   2   46.10   15.20
   3  -5  -2  901.21   82.59
   3  -5  -2  853.81   83.99
   3  -5  -2  954.70   78.29
  -3   5   2  954.40   79.69
  -3   5   2 1038.80   85.59
   2  -5  -2   92.29   10.90
   2  -5  -2   90.89   16.10
   2  -5  -2   82.89   10.70
   2  -5  -2   82.49   11.50
  -2   5   2   84.19   16.20
  -2   5   2   89.39   11.50
   1  -5  -2   25.80    8.70
   1  -5  -2   23.40    5.60
   1  -5  -2   17.60    5.30
   1  -5  -2   19.00    5.90
  -1   5   2   23.70    5.70
  -1   5   2   23.30   10.20
   0  -5  -2  677.03   58.59
   0  -5  -2  702.03   59.99
   0  -5  -2  701.43   58.59
   0   5   2  703.93   58.69
   0   5   2  705.93   60.09
   0   5   2  693.03   58.59
  -1  -5  -2    9.50    5.20
  -1  -5  -2   13.70    6.20
  -1  -5  -2    8.80    5.00
  -1  -5  -2    6.70    6.50
   1   5   2   17.20    7.80
   1   5   2   10.30    5.90
  -2  -5  -2 1297.37  108.79
  -2  -5  -2 1283.67  108.39
  -2  -5  -2 1333.57  108.09
   2   5   2 1311.07  108.99
   2   5   2 1319.97  108.09
   2   5   2 1296.27  108.39
  -3  -5  -2  516.55   43.00
  -3  -5  -2  475.55   42.00
  -3  -5  -2  444.16   43.00
   3   5   2  473.65   42.10
   3   5   2  509.45   43.20
  -4  -5  -2  187.08   21.80
  -4  -5  -2  179.98   18.50
  -4  -5  -2  157.08   21.80
  -4  -5  -2   99.79   23.40
   4   5   2  162.48   20.20
   4   5   2  189.68   18.90
  -5  -5  -2  253.77   25.70
  -5  -5  -2  231.08   30.60
  -5  -5  -2  305.77   30.40
   5   5   2  239.68   26.80
   5   5   2  242.68   27.90
  -6  -5  -2   28.70   20.40
  -6  -5  -2   67.29   16.80
  -6  -5  -2   32.40   11.00
   6   5   2   65.09   11.90
   6   5   2   40.80   13.40
  -7  -5  -2   47.90   18.10
  -7  -5  -2   29.30   11.50
   7   5   2   15.20   12.80
   7   5   2   46.20   11.70
  -8  -5  -2   21.90   19.70
   8   5   2   37.10   16.30
   8   5   2   32.40   11.90
   8  -6  -2   48.80   17.90
  -8   6   2   34.60   26.90
   7  -6  -2    0.00    7.20
   7  -6  -2   -4.80   10.20
   7  -6  -2    5.70    8.00
  -7   6   2    5.90   18.50
   6  -6  -2  185.08   34.70
   6  -6  -2  194.78   19.80
   6  -6  -2  174.28   20.30
   5  -6  -2   21.70    7.20
   5  -6  -2   17.30    9.00
  -5   6   2   21.60   16.10
   4  -6  -2   68.09    9.20
   4  -6  -2   38.20   14.40
   4  -6  -2   38.40   10.40
  -4   6   2   47.00   16.20
  -4   6   2   25.30    8.90
   3  -6  -2   23.70    5.80
   3  -6  -2   22.80    6.10
   3  -6  -2   25.80   10.80
   3  -6  -2   10.50    5.70
  -3   6   2   36.00   12.20
  -3   6   2   10.90    5.60
   2  -6  -2  331.57   28.40
   2  -6  -2  293.37   32.30
   2  -6  -2  318.97   28.80
   2  -6  -2  309.97   28.00
  -2   6   2  303.27   32.80
  -2   6   2  291.87   28.50
   1  -6  -2   26.30    6.40
   1  -6  -2   22.50    5.90
   1  -6  -2   15.50    9.10
   1  -6  -2   13.40    5.60
  -1   6   2   16.20   10.00
  -1   6   2    3.30    4.90
   0  -6  -2  129.89   18.60
   0  -6  -2  138.29   15.80
   0  -6  -2  122.29   15.10
   0   6   2  130.29   15.60
   0   6   2  147.09   19.50
   0   6   2  151.88   16.20
  -1  -6  -2  105.09   15.70
  -1  -6  -2  103.69   13.40
  -1  -6  -2  107.89   13.10
  -1  -6  -2   98.89   12.70
   1   6   2   95.69   13.00
   1   6   2   94.29   15.20
  -2  -6  -2    8.30    7.60
  -2  -6  -2   12.60    6.50
  -2  -6  -2   12.30    6.10
   2   6   2   25.70    7.00
   2   6   2   18.80    9.50
  -3  -6  -2  415.36   36.20
  -3  -6  -2  427.06   38.00
  -3  -6  -2  375.86   36.50
   3   6   2  347.97   36.50
   3   6   2  437.16   36.40
  -4  -6  -2  173.28   21.60
  -4  -6  -2  175.38   22.50
  -4  -6  -2  169.38   23.30
  -4  -6  -2  168.08   19.60
   4   6   2  190.68   22.20
   4   6   2  197.38   20.40
  -5  -6  -2  269.97   30.50
  -5  -6  -2  328.97   36.90
   5   6   2  346.57   33.40
   5   6   2  336.07   31.20
  -6  -6  -2   25.10   10.70
  -6  -6  -2   24.80   30.40
  -6  -6  -2   52.19   16.80
   6   6   2   36.10   12.50
   6   6   2   55.29   12.00
  -7  -6  -2   30.10   16.80
  -7  -6  -2    5.40   11.30
   7   6   2    5.10    9.80
   7   6   2    8.00   12.70
  -8  -6  -2   39.10   22.60
   8   6   2   27.30   16.00
   8  -7  -2   78.39   21.20
   7  -7  -2   28.50   13.40
   7  -7  -2   -8.00   13.30
   7  -7  -2   24.70    9.80
  -7   7   2    4.20   20.70
   6  -7  -2   11.80    9.80
   6  -7  -2   16.80    8.40
   6  -7  -2   17.20    8.10
  -6   7   2   25.70   18.80
   5  -7  -2  231.68   23.60
   5  -7  -2  210.38   28.90
   5  -7  -2  230.18   27.50
  -5   7   2  239.68   34.50
   4  -7  -2   86.69   12.80
   4  -7  -2   74.49   12.30
   4  -7  -2   85.99   14.50
  -4   7   2  111.49   21.60
   2  -7  -2  650.23   54.19
   2  -7  -2  614.44   54.79
   2  -7  -2  627.64   54.29
   2  -7  -2  648.64   58.19
  -2   7   2  707.43   58.99
  -2   7   2  570.04   54.39
   1  -7  -2  274.37   28.70
   1  -7  -2  198.08   19.80
   1  -7  -2  194.28   20.00
   1  -7  -2  193.28   20.10
  -1   7   2  162.38   19.50
  -1   7   2  260.17   28.10
   0  -7  -2 1077.29   87.99
   0  -7  -2 1065.79   89.99
   0  -7  -2 1003.20   87.89
   0  -7  -2 1085.59   87.99
   0   7   2 1016.00   87.99
   0   7   2 1061.09   90.29
  -1  -7  -2  497.55   44.00
  -1  -7  -2  511.65   43.90
  -1  -7  -2  492.45   43.80
  -1  -7  -2  495.45   45.50
   1   7   2  516.15   46.00
   1   7   2  480.05   43.90
  -2  -7  -2  377.36   36.20
  -2  -7  -2  408.56   34.70
  -2  -7  -2  370.16   34.70
   2   7   2  351.36   36.70
  -3  -7  -2   26.90    7.70
  -3  -7  -2   67.79   12.90
  -3  -7  -2   40.00   10.90
  -3  -7  -2   51.09   10.50
   3   7   2   48.20   10.20
   3   7   2   48.20    9.40
  -4  -7  -2   -3.10    7.60
  -4  -7  -2   12.30   11.10
  -4  -7  -2   -6.40    6.80
  -4  -7  -2   -5.60   10.10
   4   7   2   -1.60    8.30
   4   7   2    0.30    7.40
  -5  -7  -2   -2.70    7.90
  -5  -7  -2   -3.60   12.80
  -5  -7  -2   -4.60   11.20
   5   7   2   15.30    8.70
   5   7   2   -1.10    8.30
  -6  -7  -2   75.49   15.50
  -6  -7  -2   82.59   21.70
  -6  -7  -2   86.79   20.00
   6   7   2  139.19   17.50
   6   7   2   96.69   27.90
  -7  -7  -2   33.00   17.60
   7   7   2   35.10   12.90
   7   7   2   15.30   13.50
  -8  -7  -2   50.39   23.80
   8   7   2   37.00   17.60
   8  -8  -2    0.10   12.90
  -8   8   2   11.20   26.60
   7  -8  -2   69.99   17.70
   7  -8  -2   77.19   16.50
   7  -8  -2   77.79   14.20
  -7   8   2   89.59   28.30
   6  -8  -2    6.20    8.30
   6  -8  -2   19.60   10.80
   6  -8  -2   25.20    9.50
  -6   8   2   -5.00   16.90
   5  -8  -2  133.69   21.20
   5  -8  -2  195.28   20.50
  -5   8   2  150.28   28.60
   4  -8  -2   47.90   10.60
   4  -8  -2   75.89   12.40
   4  -8  -2   65.69   12.90
  -4   8   2   80.79   20.20
   3  -8  -2   95.19   13.40
   3  -8  -2  103.09   14.40
   3  -8  -2   74.49   13.80
   3  -8  -2   99.79   19.30
  -3   8   2   83.29   13.40
  -3   8   2  126.29   21.40
   2  -8  -2  437.06   41.70
   2  -8  -2  455.15   42.30
   2  -8  -2  493.35   42.00
  -2   8   2  516.35   47.60
   1  -8  -2  113.89   14.60
   1  -8  -2  147.59   21.00
   1  -8  -2  117.99   15.40
   1  -8  -2  115.49   15.10
  -1   8   2  125.29   20.50
  -1   8   2   82.09   13.30
   0  -8  -2   51.39    9.70
   0  -8  -2   49.90   10.00
   0  -8  -2   69.39   10.40
   0  -8  -2   66.09   14.40
   0   8   2   58.49   10.20
   0   8   2   49.40   14.00
  -1  -8  -2  708.63   60.29
  -1  -8  -2  658.43   59.99
  -1  -8  -2  708.33   62.19
  -1  -8  -2  733.03   60.39
   1   8   2  677.43   62.39
  -2  -8  -2   41.60    9.40
  -2  -8  -2   41.00    9.50
  -2  -8  -2   28.40   10.30
  -2  -8  -2   36.80    9.60
   2   8   2   38.60   12.50
   2   8   2   49.60   10.30
  -3  -8  -2  390.06   39.40
  -3  -8  -2  412.26   40.00
  -3  -8  -2  375.76   37.60
  -3  -8  -2  373.66   37.00
  -3  -8  -2  393.86   37.50
   3   8   2  405.66   36.90
  -4  -8  -2  180.98   26.60
  -4  -8  -2  216.08   24.00
  -4  -8  -2  234.78   29.60
   4   8   2  233.68   24.90
   4   8   2  222.58   25.90
  -5  -8  -2   92.49   20.10
  -5  -8  -2   52.29   16.50
   5   8   2   85.79   14.90
   5   8   2   82.19   16.40
  -6  -8  -2  208.58   30.70
   6   8   2  180.38   26.30
   6   8   2  246.18   26.80
  -7  -8  -2   18.20   17.20
   7   8   2   29.90   14.30
   7  -9  -2   27.50   14.30
   7  -9  -2   32.20   11.50
  -7   9   2   39.20   24.40
   6  -9  -2   -5.80    9.00
   6  -9  -2    4.20    8.40
  -6   9   2    3.50   17.60
   5  -9  -2   79.69   14.60
   5  -9  -2  120.89   15.90
   5  -9  -2   87.39   17.20
  -5   9   2  135.09   26.40
   4  -9  -2  468.15   42.30
   4  -9  -2  445.26   43.80
   4  -9  -2  440.46   42.30
  -4   9   2  524.45   51.09
   3  -9  -2   16.00    8.00
   3  -9  -2   18.00    7.40
   3  -9  -2   16.30    7.30
  -3   9   2   23.20   14.10
   2  -9  -2 1542.45  128.59
   2  -9  -2 1541.05  124.29
   2  -9  -2 1458.65  124.29
   2  -9  -2 1479.65  124.69
  -2   9   2 1423.46  124.39
  -2   9   2 1499.35  128.59
   1  -9  -2  181.78   20.10
   1  -9  -2  198.88   21.60
   1  -9  -2  163.38   20.00
  -1   9   2  273.27   31.80
  -1   9   2  184.28   20.00
   0  -9  -2  196.88   24.80
   0  -9  -2  192.28   21.60
   0  -9  -2  220.68   24.70
   0  -9  -2  213.68   21.70
   0   9   2  236.48   29.20
  -1  -9  -2  158.58   20.50
  -1  -9  -2  171.98   20.40
  -1  -9  -2  168.58   23.90
  -1  -9  -2  170.48   20.50
   1   9   2  188.98   26.80
  -2  -9  -2   80.19   13.50
  -2  -9  -2   78.89   14.00
  -2  -9  -2   75.49   16.60
  -2  -9  -2   94.69   14.40
   2   9   2  137.29   30.20
  -3  -9  -2   11.00    8.60
  -3  -9  -2    8.50    8.90
  -3  -9  -2    4.50   12.80
  -3  -9  -2    2.40    7.30
  -3  -9  -2   -2.30   10.00
   3   9   2    6.00    7.80
  -4  -9  -2  569.94   52.79
  -4  -9  -2  563.84   50.59
  -4  -9  -2  468.85   52.19
   4   9   2  535.55   49.30
  -5  -9  -2   20.90   15.20
  -5  -9  -2   32.60   16.70
   5   9   2   16.60   12.40
   5   9   2   26.40   11.30
  -6  -9  -2  105.59   21.90
   6   9   2   74.59   17.30
  -7  -9  -2   58.79   21.40
   7   9   2   59.89   18.40
   7 -10  -2   57.99   26.90
   7 -10  -2   59.09   14.00
   6 -10  -2   48.50   12.10
   6 -10  -2   42.60   14.70
  -6  10   2   49.40   21.70
   5 -10  -2  113.49   21.00
   5 -10  -2  180.08   21.50
  -5  10   2  136.09   27.60
   4 -10  -2  226.08   27.70
   4 -10  -2  198.78   25.10
  -4  10   2  240.68   34.70
   3 -10  -2  184.88   23.20
   3 -10  -2  164.68   21.10
  -3  10   2  173.88   28.40
   2 -10  -2   15.20    7.40
   2 -10  -2   11.60    7.50
   2 -10  -2   15.10    8.10
  -2  10   2   18.70   12.30
   1 -10  -2  716.43   64.29
   1 -10  -2  735.53   64.19
   1 -10  -2  780.42   64.49
   1 -10  -2  689.93   67.79
  -1  10   2  712.53   64.09
  -1  10   2  793.72   69.39
   0 -10  -2  259.67   30.20
   0 -10  -2  246.18   26.60
   0 -10  -2  275.67   26.60
   0 -10  -2  254.17   26.40
   0  10   2  305.57   35.70
   0  10   2  251.07   26.30
  -1 -10  -2  511.45   47.90
  -1 -10  -2  488.15   44.20
  -1 -10  -2  501.95   44.30
  -1 -10  -2  464.65   43.80
   1  10   2  441.16   48.10
  -2 -10  -2  271.37   28.40
  -2 -10  -2  238.38   27.70
  -2 -10  -2  307.37   34.10
   2  10   2  303.27   35.80
  -3 -10  -2   10.90   12.10
  -3 -10  -2   13.10    9.30
  -4 -10  -2   25.20   14.90
  -4 -10  -2   48.50   13.30
  -4 -10  -2   57.29   17.30
  -5 -10  -2  167.58   25.30
  -5 -10  -2  188.98   29.20
  -6 -10  -2    5.80   15.60
  -7 -10  -2   91.19   19.50
  -7 -10  -2  104.59   27.30
   7 -11  -2  137.09   25.60
   7 -11  -2  153.08   30.30
  -7  11   2  133.49   33.60
   6 -11  -2  146.59   19.50
   6 -11  -2   93.29   19.80
  -6  11   2   95.29   27.90
   5 -11  -2  150.68   23.80
   5 -11  -2  147.89   20.70
  -5  11   2  154.18   31.30
   4 -11  -2  276.27   31.20
   4 -11  -2  263.87   29.70
  -4  11   2  349.77   40.30
   3 -11  -2   27.40    9.50
  -3  11   2   44.50   16.20
   2 -11  -2    9.60    7.90
   2 -11  -2    7.10    7.70
  -2  11   2    4.00   13.20
   1 -11  -2   66.89   13.00
   1 -11  -2   58.29   12.10
  -1  11   2  117.39   22.60
   0 -11  -2  451.85   42.00
   0 -11  -2  449.66   50.29
   0 -11  -2  455.65   41.80
   0  11   2  432.66   47.10
  -1 -11  -2  269.37   27.50
  -1 -11  -2  222.68   26.90
  -1 -11  -2  255.57   34.10
   1  11   2  320.97   37.10
  -2 -11  -2  596.84   49.50
  -2 -11  -2  474.25   51.89
  -2 -11  -2  527.95   48.50
   2  11   2  508.15   53.79
  -3 -11  -2   27.30   10.50
  -3 -11  -2   33.40   11.50
  -3 -11  -2    2.50   13.00
  -4 -11  -2  264.27   34.40
  -4 -11  -2  252.87   35.30
  -4 -11  -2  253.17   29.90
  -5 -11  -2  123.19   20.90
  -5 -11  -2  125.49   22.60
  -5 -11  -2  136.19   26.00
  -6 -11  -2    3.80   12.20
  -6 -11  -2    6.10   17.80
  -6 -11  -2    0.90   12.40
   6 -12  -2   40.90   14.00
   5 -12  -2   97.59   19.50
   5 -12  -2  109.79   18.40
  -5  12   2   79.79   24.50
   4 -12  -2   81.69   17.10
   4 -12  -2  121.89   18.70
  -4  12   2  106.49   25.30
   3 -12  -2  815.32   74.09
   3 -12  -2  850.31   72.79
  -3  12   2  808.22   79.89
   2 -12  -2   61.09   12.60
   2 -12  -2   33.10   10.80
  -2  12   2   57.79   19.80
   1 -12  -2  619.84   54.89
   1 -12  -2  567.54   54.39
  -1  12   2  632.74   61.79
   0 -12  -2  214.88   25.70
   0 -12  -2  219.18   26.70
   0  12   2  227.78   33.20
  -1 -12  -2    4.50    7.60
  -1 -12  -2   -2.70    6.60
   1  12   2   -0.30   13.40
  -2 -12  -2  474.35   41.30
  -2 -12  -2  391.76   40.20
   2  12   2  365.76   48.20
  -3 -12  -2  133.29   20.10
  -4 -12  -2   12.20   15.20
  -4 -12  -2   10.40   10.40
  -4 -12  -2   28.70   11.80
  -5 -12  -2  120.79   20.20
  -5 -12  -2  117.39   26.00
  -5 -12  -2  108.89   21.00
  -6 -12  -2    7.20   13.20
  -6 -12  -2   23.10   22.70
  -6 -12  -2   27.00   16.20
   6 -13  -2   36.90   15.20
   6 -13  -2   41.00   15.50
  -6  13   2   20.80   21.00
   5 -13  -2   79.79   17.10
   5 -13  -2   83.39   16.60
  -5  13   2   36.50   21.80
   4 -13  -2   -4.60    8.30
   4 -13  -2    1.70    9.70
  -4  13   2    0.50   15.80
   3 -13  -2  281.97   30.30
   3 -13  -2  270.07   33.10
  -3  13   2  286.27   42.40
   2 -13  -2  152.18   21.60
   2 -13  -2  143.49   21.10
  -2  13   2  201.08   33.30
   1 -13  -2  262.17   31.50
  -1  13   2  250.57   38.40
   0 -13  -2  575.94   54.19
   0 -13  -2  618.24   55.69
   0  13   2  588.94   61.29
  -1 -13  -2   23.70   10.50
  -1 -13  -2   18.40   10.00
   1  13   2  -11.50   14.30
  -2 -13  -2  261.87   28.00
  -2 -13  -2  193.78   29.80
   2  13   2  172.88   32.30
  -3 -13  -2   -3.20    8.90
  -3 -13  -2   28.80   12.70
  -4 -13  -2    5.60    9.90
  -4 -13  -2    5.00   12.40
  -4 -13  -2   12.80   17.00
  -5 -13  -2   31.30   21.10
  -5 -13  -2   31.50   14.80
  -5 -13  -2   43.60   14.40
   5 -14  -2   84.49   19.10
   5 -14  -2   62.09   16.70
  -5  14   2   72.09   25.80
   4 -14  -2   18.50   11.70
   4 -14  -2   13.70   10.30
  -4  14   2  -12.30   15.80
   3 -14  -2  183.38   24.50
   3 -14  -2  151.88   24.10
  -3  14   2  180.38   35.20
   2 -14  -2  154.48   22.80
   2 -14  -2  116.09   20.50
  -2  14   2  190.08   34.40
   1 -14  -2    7.00    8.10
   1 -14  -2    6.40    8.30
  -1  14   2   11.90   16.30
   0 -14  -2  268.07   31.30
   0 -14  -2  269.77   32.80
   0  14   2  272.57   41.40
  -1 -14  -2  241.18   29.60
  -1 -14  -2  259.57   30.70
  -2 -14  -2   80.89   17.50
  -2 -14  -2  114.49   18.80
  -3 -14  -2  176.08   26.10
  -3 -14  -2  246.78   29.20
  -4 -14  -2    1.50   19.00
  -4 -14  -2   13.10   12.50
  -4 -14  -2   15.90   12.60
  -5 -14  -2   85.19   20.10
  -5 -14  -2   47.00   16.90
  -5 -14  -2   31.10   23.20
   4 -15  -2   66.79   16.40
   4 -15  -2   24.60   16.20
  -4  15   2   35.20   26.80
   3 -15  -2   55.89   14.90
   3 -15  -2   67.59   15.60
  -3  15   2  109.19   27.80
   2 -15  -2  230.78   29.10
   2 -15  -2  183.68   27.20
  -2  15   2  266.47   41.90
   1 -15  -2   18.70    9.40
   1 -15  -2    9.60    9.20
  -1  15   2   -0.70   18.00
   0 -15  -2   -8.70    7.30
   0 -15  -2    2.90    8.50
   0  15   2   -5.90   17.50
  -1 -15  -2  247.28   31.00
  -1 -15  -2  224.28   30.00
   1  15   2  298.27   41.30
  -2 -15  -2   29.50   13.00
  -2 -15  -2   37.20   13.10
   2  15   2   21.50   20.20
  -3 -15  -2  230.28   31.40
  -3 -15  -2  269.47   32.30
  -4 -15  -2   87.39   21.50
  -4 -15  -2  129.49   28.50
  -4 -15  -2  138.69   23.30
   4 -16  -2  106.39   21.50
   4 -16  -2   82.59   19.40
  -4  16   2  116.59   33.40
   3 -16  -2   -4.50    9.40
   3 -16  -2   17.20   15.10
  -3  16   2   22.50   23.60
   2 -16  -2  206.08   29.40
   2 -16  -2  215.38   28.80
  -2  16   2  273.87   44.80
   1 -16  -2   61.89   16.20
   1 -16  -2   64.99   15.20
  -1  16   2   77.29   26.50
   0 -16  -2  114.39   20.10
   0 -16  -2  152.48   22.80
   0  16   2  167.08   33.40
  -1 -16  -2   54.39   15.90
  -1 -16  -2   67.09   15.90
   1  16   2   60.39   25.00
  -2 -16  -2   -7.50   18.30
  -2 -16  -2    3.90   11.00
   2  16   2   -4.70   20.60
  -3 -16  -2   19.10   14.40
  -3 -16  -2    3.20   24.20
  -3 -16  -2    8.60   12.00
   2 -17  -2    3.50   10.10
   2 -17  -2   31.90   14.70
  -2  17   2   19.70   23.10
   1 -17  -2  205.08   29.10
   1 -17  -2  199.08   31.50
   0 -17  -2   -4.80    9.10
   0  17   2   25.20   23.10
  -1 -17  -2  112.29   21.30
   1  17   2  128.89   33.10
   1  15  -3   72.89   31.20
  -1 -15   3   35.00   15.80
  -1 -15   3   49.20   13.30
   0 -15   3   51.99   13.20
   0 -15   3   32.70   13.90
  -1  15  -3  -10.30   21.90
   1 -15   3   -1.90   10.80
   1 -15   3    4.50   10.40
  -2  15  -3   14.80   22.20
   2 -15   3   28.90   13.90
   2 -15   3    7.00   11.70
  -3  15  -3   -3.90   21.70
   3 -15   3    8.90   17.30
   3 -15   3   10.30   13.00
  -3 -14   3  118.69   19.40
  -3 -14   3  126.69   22.60
  -2 -14   3   28.70   10.90
  -2 -14   3   36.00   14.50
   1  14  -3   86.79   28.60
  -1 -14   3   78.59   16.90
  -1 -14   3   57.29   13.60
   0  14  -3  131.99   34.50
   0 -14   3  150.08   22.60
   0 -14   3  118.39   18.90
  -1  14  -3   31.00   22.50
   1 -14   3   15.40   11.80
   1 -14   3   26.80   10.80
  -2  14  -3   44.10   23.70
   2 -14   3   22.30   11.80
   2 -14   3   48.40   14.40
   3 -14   3    3.60   13.80
   3 -14   3   25.30   12.00
  -4  14  -3   12.40   23.30
   4 -14   3   23.50   14.40
   4 -14   3   37.70   21.90
  -4 -13   3    8.80   12.20
  -4 -13   3   26.50   26.80
  -4 -13   3   23.30   14.00
  -3 -13   3  104.59   19.70
  -3 -13   3  120.19   32.90
  -3 -13   3   95.49   17.40
   2  13  -3    6.10   20.40
  -2 -13   3   24.80   10.30
  -2 -13   3   11.20   11.40
   1  13  -3    4.20   20.20
  -1 -13   3    1.00   10.40
   0  13  -3    5.90   19.40
   0 -13   3   14.20   11.10
   0 -13   3   -0.20    8.50
  -1  13  -3  102.69   28.30
   1 -13   3   91.19   17.00
   1 -13   3   87.59   15.60
  -2  13  -3   81.29   26.60
   2 -13   3   65.49   14.70
   2 -13   3   62.69   15.80
  -3  13  -3   45.80   23.40
   3 -13   3   55.79   16.00
   3 -13   3   78.69   16.20
  -4  13  -3   11.20   21.50
   4 -13   3   13.60   11.90
   4 -13   3   -0.90   10.10
  -5  13  -3   38.80   26.60
   5 -13   3   50.79   16.00
  -5 -12   3   82.69   18.70
  -5 -12   3  105.69   31.60
  -5 -12   3   70.59   17.50
  -4 -12   3   36.60   24.90
  -4 -12   3   19.10   12.50
  -4 -12   3   17.50   11.70
  -3 -12   3   82.69   29.30
  -3 -12   3   79.79   16.60
  -3 -12   3   72.29   15.30
   2  12  -3  195.78   34.80
  -2 -12   3  153.78   21.60
  -2 -12   3  134.69   19.60
   1  12  -3   -5.50   18.10
  -1 -12   3   -9.30    7.80
  -1 -12   3    7.20    7.60
   0  12  -3   72.99   24.80
   0 -12   3   83.39   15.90
   0 -12   3   85.99   14.20
  -1  12  -3   17.40   16.90
   1 -12   3   24.00    9.10
   1 -12   3    5.10    9.50
  -2  12  -3   -8.10   14.70
   2 -12   3   12.70    9.00
   2 -12   3    1.30    8.80
  -3  12  -3   74.69   23.90
   3 -12   3   42.70   13.00
   3 -12   3   75.39   15.40
  -4  12  -3   82.39   26.20
   4 -12   3   61.09   15.60
   4 -12   3   64.89   16.30
  -5  12  -3    1.90   20.70
   5 -12   3   29.20   14.00
   5 -12   3   18.90   11.50
  -6  12  -3   72.09   29.60
   6 -12   3   99.09   21.30
   6 -12   3   80.69   20.20
  -5 -11   3   68.49   16.80
  -5 -11   3   62.29   27.10
  -5 -11   3   93.79   17.80
  -4 -11   3   14.20   11.00
  -4 -11   3   24.60   11.40
  -4 -11   3   37.00   23.50
  -3 -11   3    5.50   20.60
  -3 -11   3   10.20    9.90
  -3 -11   3    6.70    8.60
   2  11  -3  131.19   28.30
  -2 -11   3  120.99   17.30
  -1 -11   3   75.09   23.00
  -1 -11   3   77.99   13.10
   0  11  -3   54.39   23.90
   0 -11   3   19.10    8.10
   1 -11   3  190.18   32.10
   1 -11   3  178.28   22.20
  -2  11  -3   11.20   16.00
   2 -11   3    4.00    7.70
   2 -11   3    4.60    8.50
  -3  11  -3   48.70   19.90
   3 -11   3   31.30   11.60
   3 -11   3   43.70   12.50
  -4  11  -3   22.40   18.40
   4 -11   3   18.40   11.60
   4 -11   3   18.90   10.70
  -5  11  -3   -6.20   17.10
   5 -11   3   -3.90   10.60
   5 -11   3   -3.30    9.50
  -6  11  -3   18.60   25.60
   6 -11   3   50.49   25.30
   6 -11   3   33.70   15.20
  -6 -10   3   25.30   24.00
  -6 -10   3    8.60   12.70
  -5 -10   3   83.89   23.00
  -5 -10   3   55.09   14.70
  -5 -10   3   54.19   24.30
  -4 -10   3   10.20    9.40
  -4 -10   3    4.80   20.50
  -4 -10   3   -5.40    8.70
  -3 -10   3   -0.80    7.90
  -3 -10   3    4.00    8.30
   2  10  -3   55.49   21.20
  -2 -10   3   58.19   12.30
  -2 -10   3   43.20   12.20
  -2 -10   3   59.39   11.40
   1  10  -3   43.80   20.60
  -1 -10   3   52.99   11.70
  -1 -10   3   77.59   12.20
  -1 -10   3   71.09   13.50
   0  10  -3   50.79   11.60
   0  10  -3   86.69   22.00
   0 -10   3   80.19   12.40
   0 -10   3   77.39   13.50
  -1  10  -3  406.46   48.10
   1 -10   3  401.66   39.30
   1 -10   3  416.26   38.50
  -2  10  -3  173.08   30.60
   2 -10   3  189.38   23.80
   2 -10   3  207.08   23.70
   3 -10   3   88.89   15.30
   3 -10   3   86.89   15.60
  -4  10  -3   52.49   20.50
   4 -10   3   39.90   11.90
   4 -10   3   52.39   13.90
  -5  10  -3    7.80   18.20
   5 -10   3   15.70   10.60
   5 -10   3    0.00   10.10
  -6  10  -3   35.00   21.90
   6 -10   3   16.30   11.30
   6 -10   3    6.70   11.30
  -7  10  -3   59.99   29.50
   7 -10   3   48.60   16.40
   7 -10   3   43.50   17.10
  -6  -9   3   39.60   13.70
  -6  -9   3   57.19   25.70
  -6  -9   3   32.70   15.20
  -5  -9   3   49.99   12.80
  -5  -9   3   62.99   24.90
  -5  -9   3   71.09   15.70
  -4  -9   3  379.76   37.00
  -4  -9   3  354.36   36.50
  -3  -9   3    4.60    8.90
  -3  -9   3   13.30    8.20
  -3  -9   3   -8.70   16.10
  -3  -9   3    0.70    7.20
   2   9  -3  705.13   72.09
  -2  -9   3  791.92   65.89
  -2  -9   3  739.23   63.89
  -2  -9   3  701.83   64.49
   1   9  -3  518.55   55.69
  -1  -9   3  512.25   48.00
  -1  -9   3  533.05   46.40
  -1  -9   3  514.85   47.40
   0   9  -3  278.07   36.70
   0  -9   3  285.97   28.20
   0  -9   3  254.97   26.20
  -1   9  -3  100.99   15.10
  -1   9  -3  111.09   23.10
   1  -9   3  116.59   15.60
   1  -9   3  135.99   17.70
  -2   9  -3   26.10   15.80
   2  -9   3   -5.20    6.40
   2  -9   3   13.90    8.20
  -3   9  -3   23.20   15.90
   3  -9   3   -6.90    7.90
   3  -9   3    3.90    7.30
  -4   9  -3   27.40   20.00
   4  -9   3   12.70    9.90
   4  -9   3    9.40    9.40
  -5   9  -3   12.80   17.70
   5  -9   3   12.50    9.90
   5  -9   3   25.00   20.40
  -6   9  -3   -9.70   17.00
   6  -9   3   31.50   14.20
   6  -9   3   32.50   13.00
  -7   9  -3   13.80   23.30
   7  -9   3   20.70   15.10
   7  -9   3   23.60   12.20
  -7  -8   3   12.90   23.20
  -7  -8   3  -10.60   12.60
  -6  -8   3   34.10   22.10
  -6  -8   3   22.90   16.70
  -6  -8   3   20.00   10.80
  -5  -8   3    7.50   10.50
  -5  -8   3   13.50   10.00
  -5  -8   3  -10.60    8.20
  -5  -8   3   -6.80   17.20
  -4  -8   3  201.58   23.80
  -4  -8   3  170.88   22.70
  -4  -8   3  208.68   32.90
  -4  -8   3  192.68   23.80
  -4  -8   3  214.18   23.40
  -3  -8   3  212.58   22.00
  -3  -8   3  177.18   29.80
  -3  -8   3  189.08   22.30
  -3  -8   3  201.38   24.00
  -3  -8   3  132.69   19.50
  -2  -8   3  204.78   22.40
  -2  -8   3  177.38   19.50
  -2  -8   3  176.58   20.70
  -2  -8   3  140.79   19.40
   1   8  -3  444.66   45.70
  -1  -8   3  378.26   36.70
  -1  -8   3  354.76   37.20
  -1  -8   3  424.66   36.60
  -1  -8   3  331.57   41.80
  -1  -8   3  442.06   36.40
   0   8  -3  307.77   27.70
   0   8  -3  304.97   37.00
   0  -8   3  280.47   27.10
   0  -8   3  254.67   34.90
   0  -8   3  280.87   28.30
  -1   8  -3  129.59   23.80
  -1   8  -3  135.59   18.20
  -1   8  -3  111.59   15.80
   1  -8   3  147.29   18.00
   1  -8   3  153.98   17.00
   1  -8   3  145.09   23.40
  -2   8  -3  480.45   46.90
  -2   8  -3  401.66   38.60
   2  -8   3  431.96   39.30
   2  -8   3  406.86   39.30
  -3   8  -3    7.00   12.00
   3  -8   3    5.80    6.60
   3  -8   3   26.30    9.10
  -4   8  -3  212.98   32.10
   4  -8   3  217.68   24.10
   4  -8   3  182.78   25.20
   5  -8   3  166.18   21.40
   5  -8   3  128.59   20.80
  -6   8  -3   49.60   21.50
   6  -8   3   35.60   13.20
   6  -8   3   52.19   19.10
  -7   8  -3  183.48   36.20
   7  -8   3  220.58   31.50
   7  -8   3  204.58   27.50
   7   7  -3   31.90   14.70
  -7  -7   3   13.80   20.80
   6   7  -3   82.99   16.70
  -6  -7   3   69.59   13.80
  -6  -7   3   53.69   23.90
  -5  -7   3    9.10   16.50
  -5  -7   3    2.10    7.80
  -4  -7   3  273.37   39.10
  -4  -7   3  307.77   32.90
  -4  -7   3  333.47   32.50
  -4  -7   3  388.36   34.00
  -4  -7   3  373.16   42.60
  -3  -7   3  139.79   16.70
  -3  -7   3  135.19   17.10
  -3  -7   3  141.69   24.30
  -3  -7   3  109.59   17.10
  -3  -7   3  151.48   17.60
  -2  -7   3   34.10    8.10
  -2  -7   3   29.90   13.70
  -2  -7   3   31.70    8.20
  -2  -7   3   40.90    9.60
  -2  -7   3   32.20    7.50
  -2  -7   3   58.29   17.50
   1   7  -3  641.44   59.69
  -1  -7   3  592.64   52.29
  -1  -7   3  604.04   53.49
  -1  -7   3  624.44   52.59
  -1  -7   3  568.54   58.09
  -1  -7   3  624.44   53.29
   0   7  -3 1042.60   88.99
   0   7  -3 1274.37   96.69
   0   7  -3 1042.00   94.59
   0  -7   3 1014.70   89.49
   0  -7   3 1042.80   88.69
  -1   7  -3   -5.80    4.30
  -1   7  -3   -9.40    9.70
  -1   7  -3    0.10    5.40
   1  -7   3    5.60    6.10
   1  -7   3    2.30    5.30
   1  -7   3    9.10   10.10
  -2   7  -3 2208.78  174.58
  -2   7  -3 1924.91  168.98
  -2   7  -3 2009.20  169.58
   2  -7   3 2039.60  169.48
   2  -7   3 2027.50  173.18
   2  -7   3 2121.19  169.58
  -3   7  -3   31.90   10.30
  -3   7  -3   39.50    9.40
  -3   7  -3   53.59   16.30
   3  -7   3   35.40    9.60
   3  -7   3   71.79   17.10
   3  -7   3   71.29   11.80
  -4   7  -3   54.69   18.60
   4  -7   3   53.39   12.30
   4  -7   3   60.99   12.90
  -5   7  -3  145.69   27.30
   5  -7   3  141.59   19.80
   5  -7   3  136.99   20.60
  -6   7  -3  168.28   30.20
   6  -7   3  182.88   22.90
   6  -7   3  139.59   23.70
  -7   7  -3  -11.90   18.90
   7  -7   3   36.80   16.80
   7  -7   3   -8.40   10.10
  -8   7  -3  242.18   41.70
   8  -7   3  151.58   27.00
   8  -7   3  155.48   23.60
   7   6  -3  -15.30   10.90
  -7  -6   3   14.40   21.10
  -7  -6   3    4.70   14.00
   6   6  -3  139.19   19.20
  -6  -6   3  168.08   29.90
  -6  -6   3  100.29   16.00
   5   6  -3  128.79   17.90
  -5  -6   3  109.09   15.20
  -5  -6   3  134.29   19.00
  -5  -6   3   89.69   24.10
  -5  -6   3   87.09   17.00
  -4  -6   3  115.89   18.40
  -4  -6   3  171.28   18.20
  -4  -6   3  144.79   25.90
  -4  -6   3  147.39   19.20
  -3  -6   3  593.24   52.29
  -3  -6   3  631.44   58.69
  -3  -6   3  610.24   52.29
  -3  -6   3  571.84   52.19
  -2  -6   3    4.40    5.20
  -2  -6   3    4.00    5.30
  -2  -6   3   13.40    6.80
  -2  -6   3   24.10   13.90
   1   6  -3  819.12   71.79
  -1  -6   3  764.42   66.69
  -1  -6   3  800.92   65.79
  -1  -6   3  733.43   70.59
  -1  -6   3  789.72   65.89
   0   6  -3  106.09   13.20
   0   6  -3   98.29   18.50
   0   6  -3   83.19   10.90
   0  -6   3   61.69   15.90
   0  -6   3   88.69   12.30
   0  -6   3   83.89   10.80
  -1   6  -3  201.88   22.10
  -1   6  -3  219.88   21.10
  -1   6  -3  284.57   29.10
   1  -6   3  205.78   27.70
   1  -6   3  220.28   21.30
   1  -6   3  209.38   21.90
  -2   6  -3  230.58   24.40
  -2   6  -3  264.67   30.40
  -2   6  -3  209.78   23.30
   2  -6   3  267.17   24.60
   2  -6   3  270.37   25.70
   2  -6   3  248.08   28.70
  -3   6  -3  813.22   74.79
  -3   6  -3  842.52   74.99
  -3   6  -3  946.61   79.69
   3  -6   3  909.31   75.39
   3  -6   3  837.22   78.49
   3  -6   3  924.21   75.09
  -4   6  -3   89.79   19.70
  -4   6  -3   98.49   14.90
   4  -6   3   90.89   14.40
   4  -6   3   74.29   19.90
   4  -6   3   96.39   15.30
  -5   6  -3  402.86   44.80
   5  -6   3  368.26   38.20
   5  -6   3  395.76   37.00
  -6   6  -3   29.40   17.40
   6  -6   3   21.30    9.90
   6  -6   3   28.50   12.20
  -7   6  -3   32.10   21.90
   7  -6   3   17.60   12.20
   7  -6   3   19.90   11.50
  -8   6  -3    5.90   23.70
   8  -6   3   19.10   14.20
   8  -6   3    1.20   18.30
   7   5  -3   15.50   12.20
  -7  -5   3   10.40   19.40
   6   5  -3   -2.30    9.90
  -6  -5   3    5.00    7.40
  -6  -5   3   -1.30    6.60
   5   5  -3   79.89   14.60
  -5  -5   3   94.09   22.10
  -5  -5   3   77.19   14.30
  -5  -5   3   79.19   12.30
  -5  -5   3  113.19   13.40
   4   5  -3   63.19   11.80
  -4  -5   3   57.19   11.30
  -4  -5   3   66.29   10.40
  -4  -5   3   75.19   19.60
  -4  -5   3   38.40   17.90
  -4  -5   3   77.39   11.20
  -3  -5   3  326.47   30.90
  -3  -5   3  346.07   30.70
  -3  -5   3  325.27   37.60
  -3  -5   3  344.27   31.00
  -2  -5   3  398.66   34.20
  -2  -5   3  422.46   40.70
  -2  -5   3  381.86   34.30
  -2  -5   3  367.46   33.90
  -2  -5   3  364.46   33.80
  -2  -5   3  388.66   40.00
   1   5  -3  861.81   81.69
  -1  -5   3  905.01   81.29
  -1  -5   3  904.71   77.39
  -1  -5   3  917.71   76.79
  -1  -5   3 1011.30   77.39
   0   5  -3  552.84   45.70
   0   5  -3  525.95   44.80
   0   5  -3  501.45   49.90
   0  -5   3  532.35   44.70
   0  -5   3  518.05   45.50
   0  -5   3  508.65   49.00
  -1   5  -3   48.30   13.10
  -1   5  -3   29.90    7.70
  -1   5  -3   38.90    7.00
   1  -5   3   45.90    8.40
   1  -5   3   43.80   11.80
   1  -5   3   49.30    7.60
  -2   5  -3   31.90    8.10
  -2   5  -3   32.40    7.10
  -2   5  -3   32.10   13.30
   2  -5   3   33.40   11.70
   2  -5   3   38.00    7.70
  -3   5  -3  518.55   45.00
  -3   5  -3  455.95   40.00
  -3   5  -3  395.96   39.90
   3  -5   3  438.46   40.30
   3  -5   3  472.55   40.20
   3  -5   3  410.26   43.50
  -4   5  -3  129.79   18.60
  -4   5  -3  173.38   24.80
   4  -5   3  181.28   21.20
   4  -5   3  164.58   24.90
   4  -5   3  153.58   19.10
  -5   5  -3   12.60   13.70
  -5   5  -3   17.30    8.80
   5  -5   3   38.10   10.00
   5  -5   3    5.10    7.70
  -6   5  -3   83.99   21.70
   6  -5   3   53.79   14.60
   6  -5   3   66.19   13.50
  -7   5  -3   16.50   19.20
   7  -5   3   -3.80    9.40
   7  -5   3   11.90   11.20
  -8   5  -3   71.59   27.70
   8  -5   3   73.39   16.40
   8   4  -3   59.09   18.40
  -8  -4   3   95.89   29.40
   7   4  -3    0.30   11.20
  -7  -4   3    5.70   19.00
   6   4  -3   56.09   13.50
  -6  -4   3   45.80    8.30
  -6  -4   3   46.50   11.30
  -6  -4   3   41.30   20.10
   5   4  -3   32.40   10.40
  -5  -4   3   40.00    7.30
  -5  -4   3   27.60   16.30
  -5  -4   3   25.00    7.10
  -5  -4   3   19.50    9.30
   4   4  -3   60.19   11.20
  -4  -4   3   30.40   15.70
  -4  -4   3   33.20    7.70
  -4  -4   3   33.50   14.50
  -4  -4   3   39.20    7.60
  -4  -4   3   27.20    7.90
  -3  -4   3   14.90   11.40
  -2  -4   3  189.18   25.20
  -2  -4   3  182.38   18.80
  -2  -4   3  190.98   19.00
  -2  -4   3  210.28   19.60
  -2  -4   3  252.77   27.60
   1   4  -3   77.99   16.10
   1   4  -3   68.69    9.70
  -1  -4   3   57.69    7.80
  -1  -4   3   69.09    8.40
  -1  -4   3   65.99    9.00
  -1  -4   3   59.09   14.10
   0   4  -3 1874.51  154.18
   0   4  -3 1845.82  153.48
   0   4  -3 1887.51  157.18
   0  -4   3 1880.71  156.78
   0  -4   3 1904.01  153.48
   0  -4   3 1884.71  154.18
  -1   4  -3 2190.28  180.78
  -1   4  -3 2270.37  184.08
  -1   4  -3 2192.48  181.38
   1  -4   3 2249.97  180.88
   1  -4   3 2137.49  183.48
   1  -4   3 2242.98  181.28
  -2   4  -3  100.29   12.70
  -2   4  -3   89.59   16.70
  -2   4  -3   95.29   12.00
   2  -4   3  122.89   14.00
   2  -4   3  105.09   12.80
   2  -4   3   79.59   15.20
  -3   4  -3  902.11   78.89
  -3   4  -3  916.31   78.59
  -3   4  -3  978.30   82.09
   3  -4   3  947.91   79.49
   3  -4   3  866.51   81.29
   3  -4   3  993.90   78.79
  -4   4  -3   85.69   17.80
  -4   4  -3   75.89   12.40
  -4   4  -3   68.29   11.50
   4  -4   3   90.99   13.80
   4  -4   3   70.09   16.30
   4  -4   3   88.19   12.60
  -5   4  -3    4.00   12.60
  -5   4  -3   17.40    9.90
   5  -4   3    5.00    7.70
   5  -4   3   28.60   14.70
   5  -4   3  -11.90    6.50
  -6   4  -3  166.78   26.10
  -6   4  -3   96.09   15.50
   6  -4   3   94.89   22.20
   6  -4   3  103.59   15.40
  -7   4  -3   63.89   23.40
   7  -4   3   38.70   11.90
   7  -4   3   22.40   12.10
  -8   4  -3   -4.80   20.50
   8  -4   3   14.30   11.50
   8  -4   3   10.10   13.70
   8   3  -3    4.90   13.80
  -8  -3   3  -13.70   21.50
  -7  -3   3  129.29   28.50
   6   3  -3   -9.10    9.30
  -6  -3   3    8.30   16.30
   5   3  -3   97.39   14.50
  -5  -3   3   70.69   19.70
  -5  -3   3   68.99   10.00
  -5  -3   3   90.69   10.20
  -5  -3   3   89.99   13.80
   4   3  -3  230.88   25.20
   4   3  -3  296.17   35.90
  -4  -3   3  263.67   32.20
  -4  -3   3  248.98   23.30
  -4  -3   3  270.07   23.20
  -4  -3   3  248.88   25.10
   3   3  -3  473.05   39.10
  -3  -3   3  454.55   38.00
  -3  -3   3  423.16   38.70
  -3  -3   3  412.26   46.00
  -3  -3   3  447.96   44.90
  -3  -3   3  442.96   38.10
   2   3  -3  983.10   78.79
  -2  -3   3  925.61   78.69
  -2  -3   3  974.90   83.49
  -2  -3   3  881.21   82.19
  -2  -3   3  950.80   78.69
  -2  -3   3  986.70   78.89
   1   3  -3    6.20    4.40
   1   3  -3    1.80   10.40
  -1  -3   3   11.60    4.20
  -1  -3   3   10.50    9.80
  -1  -3   3    7.10    3.50
  -1  -3   3   10.90    3.80
   0   3  -3 3051.89  251.07
   0   3  -3 3057.39  248.78
   0   3  -3 2908.31  247.98
   0  -3   3 3112.99  248.68
   0  -3   3 3103.99  247.98
   0  -3   3 3101.79  250.87
  -1   3  -3   16.70    8.70
  -1   3  -3   13.90    5.30
  -1   3  -3   25.70    4.90
   1  -3   3   23.60    8.90
   1  -3   3   11.10    5.40
   1  -3   3   10.50    4.40
  -2   3  -3  326.97   29.00
  -2   3  -3  291.57   28.80
  -2   3  -3  333.97   32.10
   2  -3   3  305.87   31.70
   2  -3   3  355.56   29.20
   2  -3   3  319.17   29.10
  -3   3  -3  711.03   60.39
  -3   3  -3  689.73   59.89
  -3   3  -3  713.93   62.89
   3  -3   3  708.03   60.59
   3  -3   3  715.43   62.59
   3  -3   3  700.33   59.89
  -4   3  -3  365.96   33.70
  -4   3  -3  338.97   31.60
   4  -3   3  330.37   32.80
   4  -3   3  329.97   36.00
   4  -3   3  353.26   31.90
  -5   3  -3    8.80    7.20
  -5   3  -3   -2.40   12.30
   5  -3   3   17.50    9.00
   5  -3   3    4.80    7.10
  -6   3  -3  105.29   16.00
  -6   3  -3  120.19   24.10
   6  -3   3  152.48   17.50
   6  -3   3   92.49   18.10
  -7   3  -3   26.60   20.10
  -7   3  -3   15.00   11.40
   7  -3   3   19.80    9.90
   7  -3   3   -1.90   10.20
  -8   3  -3   -8.70   19.40
   8  -3   3    4.40   12.10
   8  -3   3    1.00   10.80
   8   2  -3   -3.30   13.50
  -8  -2   3   32.40   24.10
   7   2  -3   73.39   25.30
  -7  -2   3   44.10   21.10
   6   2  -3  167.98   22.60
  -6  -2   3  188.28   30.60
   5   2  -3   99.99   15.60
  -5  -2   3   85.09   17.60
  -5  -2   3  111.49   22.20
   4   2  -3  430.46   52.09
   4   2  -3  505.85   43.00
  -4  -2   3  467.95   40.30
  -4  -2   3  492.55   48.50
  -4  -2   3  491.85   40.30
  -4  -2   3  479.15   42.60
   3   2  -3    6.70   10.80
   3   2  -3   10.80    5.40
  -3  -2   3    5.30    3.90
  -3  -2   3    6.50    9.50
  -3  -2   3   -0.20    3.20
  -3  -2   3    6.00    4.50
   2   2  -3  194.48   22.40
   2   2  -3  181.68   16.80
  -2  -2   3  170.38   22.20
  -2  -2   3  175.58   16.40
  -2  -2   3  170.98   16.50
  -2  -2   3  171.48   16.10
   1   2  -3  986.60   84.29
  -1  -2   3  995.80   83.79
  -1  -2   3 1036.30   83.89
  -1  -2   3 1032.20   86.99
  -1  -2   3 1076.89   87.79
  -1  -2   3 1048.20   84.29
   0   2  -3  263.47   23.20
   0   2  -3  257.37   27.40
   0   2  -3  255.37   22.10
   0  -2   3  268.87   26.80
   0  -2   3  260.17   22.20
   0  -2   3  259.27   23.20
  -1   2  -3  226.88   20.40
  -1   2  -3  223.28   23.80
  -1   2  -3  219.78   21.40
   1  -2   3  243.78   20.40
   1  -2   3  229.58   21.10
   1  -2   3  204.98   23.30
  -2   2  -3  345.17   34.20
  -2   2  -3  359.46   31.90
  -2   2  -3  363.76   31.90
   2  -2   3  377.36   32.10
   2  -2   3  362.36   31.90
  -3   2  -3  149.59   14.30
  -3   2  -3  104.49   14.10
  -3   2  -3  113.59   16.50
   3  -2   3  104.89   15.40
   3  -2   3   97.29   14.20
   3  -2   3  152.58   14.30
  -4   2  -3  296.37   31.00
  -4   2  -3  340.07   30.30
  -4   2  -3  330.07   34.30
   4  -2   3  370.06   30.50
   4  -2   3  317.57   33.70
   4  -2   3  317.87   31.40
  -5   2  -3  324.57   32.00
  -5   2  -3  400.56   38.10
   5  -2   3  339.07   32.90
   5  -2   3  327.07   36.90
   5  -2   3  332.47   33.80
  -6   2  -3   76.59   14.80
  -6   2  -3  107.49   22.20
   6  -2   3  102.59   17.10
   6  -2   3  100.79   14.90
   6  -2   3  110.99   22.40
  -7   2  -3  160.58   28.00
  -7   2  -3   88.19   15.60
   7  -2   3  100.59   15.90
   7  -2   3  109.09   19.80
  -8   2  -3    0.10   22.10
   8  -2   3   27.60   12.20
   8  -2   3    2.00   12.20
   8   1  -3   -0.30   13.70
  -8  -1   3   16.80   22.60
   7   1  -3  114.89   24.60
  -7  -1   3   79.79   25.00
   6   1  -3  169.98   21.90
  -6  -1   3  164.28   29.30
   5   1  -3   14.90   16.00
   5   1  -3   -6.30    7.50
  -5  -1   3   40.10   16.40
  -5  -1   3   -6.20    8.50
   4   1  -3  270.67   25.60
   4   1  -3  240.88   31.40
  -4  -1   3  264.57   25.40
  -4  -1   3  270.57   31.50
   3   1  -3  413.06   35.90
   3   1  -3  404.56   39.80
  -3  -1   3  414.26   40.50
  -3  -1   3  401.66   33.90
  -3  -1   3  421.36   35.80
   2   1  -3   30.80   10.00
   2   1  -3   31.10    5.30
  -2  -1   3   25.00    3.90
  -2  -1   3   27.30    4.90
  -2  -1   3   17.40    4.20
  -2  -1   3   33.00    9.90
   1   1  -3 1340.77  125.19
   1   1  -3 1502.65  127.59
   1   1  -3 1585.14  125.39
  -1  -1   3 1677.43  125.09
  -1  -1   3 1531.05  127.69
  -1  -1   3 1591.24  125.39
   0   1  -3  296.37   28.90
   0   1  -3  291.67   24.70
   0   1  -3  275.77   23.50
   0  -1   3  277.67   24.90
   0  -1   3  280.97   23.50
   0  -1   3  277.77   28.10
  -1   1  -3 1333.47  106.29
  -1   1  -3 1244.18  106.49
  -1   1  -3 1335.77  107.89
   1  -1   3 1366.16  106.39
   1  -1   3 1258.87  106.49
   1  -1   3 1256.97  107.59
  -2   1  -3   58.49   11.50
  -2   1  -3   85.59   12.40
   2  -1   3  105.69   11.60
   2  -1   3   97.89   10.80
   2  -1   3   81.89   12.30
  -3   1  -3  205.28   20.60
  -3   1  -3  209.08   20.10
  -3   1  -3  224.68   23.00
   3  -1   3  204.48   20.20
   3  -1   3  199.98   20.90
  -4   1  -3   14.30   10.50
  -4   1  -3   33.60    7.20
  -4   1  -3   25.00    7.20
   4  -1   3   31.50    7.70
   4  -1   3   28.20    8.10
   4  -1   3   25.90   11.10
  -5   1  -3  516.05   45.30
  -5   1  -3  447.66   46.90
   5  -1   3  467.65   47.00
   5  -1   3  550.94   49.80
   5  -1   3  580.04   45.70
  -6   1  -3   15.10   14.30
   6  -1   3   23.90    8.70
   6  -1   3    8.70   15.40
   6  -1   3   12.20    9.30
  -7   1  -3  133.59   25.50
  -7   1  -3   93.29   16.00
   7  -1   3  104.59   19.70
   7  -1   3  144.89   17.60
  -8   1  -3    6.60   20.80
   8  -1   3   36.90   12.80
   8  -1   3   33.00   15.10
   9  -1   3   13.00   16.10
   9  -1   3  -11.90   14.60
   8   0  -3    2.60   12.80
  -8   0   3   36.60   25.20
  -7   0   3   77.09   25.40
   6   0  -3  263.67   29.20
  -6   0   3  285.87   39.20
   5   0  -3   20.40   15.60
   5   0  -3  -12.20    7.20
  -5   0   3   -2.30    7.40
  -5   0   3   16.30   14.70
   4   0  -3  119.99   14.70
   4   0  -3  108.49   19.00
  -4   0   3   96.69   13.40
  -4   0   3  141.69   21.70
   3   0  -3  106.89   18.40
  -3   0   3  198.38   21.70
   2   0  -3   22.80    9.20
   2   0  -3   51.39    6.80
  -2   0   3   34.50    5.60
  -2   0   3   38.20   10.50
   1   0  -3   59.69    6.90
   1   0  -3   72.89   12.00
  -1   0   3   64.79    6.90
  -1   0   3   63.49   11.30
  -1   0   3   63.69    6.40
   0   0  -3   40.60    5.00
   0   0  -3   54.99    6.60
   0   0   3   55.19    6.70
   0   0   3   56.09    5.00
   0   0   3   55.39   10.60
   0   0   3   50.69    9.50
  -1   0  -3   97.99   11.80
  -1   0  -3  131.59   11.70
  -1   0  -3   95.39   10.80
   1   0   3   97.49   10.80
   1   0   3  103.59   11.40
   1   0   3   91.39   11.80
  -2   0  -3  898.91   67.39
  -2   0  -3  824.32   66.69
  -2   0  -3  717.13   66.99
   2   0   3  869.61   67.19
   2   0   3  796.22   66.59
   2   0   3  729.63   66.99
  -3   0  -3  558.84   44.50
  -3   0  -3  440.86   50.29
  -3   0  -3  509.45   45.10
   3   0   3  477.35   45.50
   3   0   3  535.55   44.40
   3   0   3  563.44   45.70
  -4   0  -3  311.87   32.80
  -4   0  -3  323.07   29.60
  -4   0  -3  310.97   30.90
   4   0   3  342.27   32.80
   4   0   3  345.67   29.90
   4   0   3  336.17   31.50
  -5   0  -3  375.46   34.70
  -5   0  -3  364.36   36.60
  -5   0  -3  400.56   39.40
   5   0   3  411.26   38.90
   5   0   3  346.07   36.50
   5   0   3  402.56   35.10
  -6   0  -3    3.70   13.10
  -6   0  -3   -2.10    7.80
   6   0   3   10.40    8.30
   6   0   3   -8.40    9.10
   6   0   3   17.80   15.00
  -7   0  -3   19.00   17.60
  -7   0  -3   13.70   11.20
   7   0   3   21.40   12.40
   7   0   3   27.50   10.80
  -8   0  -3  -10.10   18.90
  -8   0  -3   -0.50   17.30
   8   0   3   -2.90   12.70
   8   0   3   17.00   11.30
  -9   0  -3   32.10   26.40
   9   0   3   25.70   20.90
   9   0   3   -0.40   15.10
   8  -1  -3   20.20   15.00
  -8   1   3   39.40   26.10
   7  -1  -3    4.50   15.20
  -7   1   3   -9.90   19.00
   6  -1  -3  479.25   46.90
  -6   1   3  542.35   55.59
   5  -1  -3  430.96   46.50
   5  -1  -3  456.05   40.20
  -5   1   3  373.56   39.30
  -5   1   3  469.95   47.30
   4  -1  -3   53.19   14.90
   4  -1  -3   71.69   11.30
  -4   1   3  108.79   18.20
  -4   1   3   59.19   10.40
   3  -1  -3 1050.29   93.19
   3  -1  -3 1093.69   90.39
  -3   1   3 1049.00   90.19
  -3   1   3 1171.38   94.29
   2  -1  -3    7.20    4.00
   2  -1  -3    5.10    7.40
  -2   1   3   19.50    8.60
  -2   1   3    8.90    3.90
   1  -1  -3  332.37   26.80
   1  -1  -3  315.97   30.40
   1  -1  -3  332.47   27.30
  -1   1   3  282.57   27.50
  -1   1   3  354.46   27.30
  -1   1   3  311.47   30.70
   0  -1  -3 2703.93  225.58
   0  -1  -3 2818.02  226.68
   0  -1  -3 2831.62  225.88
   0   1   3 2800.82  225.88
   0   1   3 2779.02  226.68
  -1  -1  -3   35.60    5.90
  -1  -1  -3   20.60    5.20
  -1  -1  -3   28.60    6.10
   1   1   3   18.90    5.00
   1   1   3   27.30    5.10
   1   1   3   23.60    5.70
  -2  -1  -3 1077.39   88.59
  -2  -1  -3 1225.78   89.59
  -2  -1  -3  951.30   88.19
   2   1   3 1126.79   88.59
   2   1   3 1134.79   89.19
   2   1   3  991.50   88.29
  -3  -1  -3  349.57   31.70
  -3  -1  -3  337.57   30.70
  -3  -1  -3  356.66   31.70
   3   1   3  371.36   30.90
   3   1   3  334.07   31.40
   3   1   3  338.27   31.60
  -4  -1  -3  176.18   20.00
  -4  -1  -3  163.98   18.10
  -4  -1  -3  151.88   16.90
   4   1   3  173.68   18.60
   4   1   3  153.68   19.60
   4   1   3  158.48   17.30
  -5  -1  -3   66.19   14.20
  -5  -1  -3   89.49   12.40
  -5  -1  -3   86.09   13.60
   5   1   3   90.09   16.40
   5   1   3  118.49   15.90
   5   1   3   62.09   11.50
  -6  -1  -3    8.30    8.50
  -6  -1  -3   32.70   14.60
   6   1   3   35.40   15.00
   6   1   3   28.90    9.90
   6   1   3   21.90   11.40
  -7  -1  -3   37.20   18.30
  -7  -1  -3   -4.90   20.70
   7   1   3   36.10   11.00
   7   1   3   46.40   18.90
   7   1   3   12.50   12.00
  -8  -1  -3    9.30   19.00
   8   1   3   -1.60   12.80
   8   1   3    8.10   10.80
  -9  -1  -3    8.00   23.90
   9   1   3  -26.70   13.70
   8  -2  -3   86.99   18.90
  -8   2   3  129.19   33.30
   7  -2  -3    8.80   11.10
  -7   2   3   21.70   20.90
   6  -2  -3   72.69   14.90
  -6   2   3  101.39   25.00
   5  -2  -3  431.46   41.30
   5  -2  -3  431.36   50.89
  -5   2   3  433.26   41.00
  -5   2   3  501.15   48.70
   4  -2  -3   72.99   17.10
   4  -2  -3   70.19   12.80
  -4   2   3   57.99    9.90
  -4   2   3   61.99   15.70
   3  -2  -3  888.61   72.79
   3  -2  -3  788.02   75.39
  -3   2   3  868.11   76.29
  -3   2   3  906.41   72.69
   2  -2  -3  890.31   76.49
   2  -2  -3  921.71   73.99
  -2   2   3  847.92   73.79
  -2   2   3  912.31   76.69
   1  -2  -3  502.05   41.70
   1  -2  -3  529.15   42.20
   1  -2  -3  510.55   44.50
  -1   2   3  469.85   41.80
  -1   2   3  511.85   42.10
  -1   2   3  522.95   45.00
   0  -2  -3 2672.73  210.68
   0  -2  -3 2609.04  211.28
   0  -2  -3 2587.34  210.68
   0   2   3 2444.86  210.58
   0   2   3 2675.93  210.78
   0   2   3 2588.24  211.28
  -1  -2  -3  167.68   15.10
  -1  -2  -3  148.59   15.30
   1   2   3  144.39   15.20
   1   2   3  152.18   15.10
  -2  -2  -3  663.63   55.49
  -2  -2  -3  716.53   57.29
   2   2   3  710.93   55.59
   2   2   3  646.04   55.89
   2   2   3  611.64   54.59
  -3  -2  -3  367.96   34.00
  -3  -2  -3  432.96   34.00
  -3  -2  -3  384.56   33.20
   3   2   3  400.86   33.30
   3   2   3  356.86   33.90
   3   2   3  327.47   33.10
  -4  -2  -3  167.18   16.90
  -4  -2  -3  149.49   19.00
  -4  -2  -3  155.98   18.50
   4   2   3  167.68   17.00
   4   2   3  136.09   18.20
  -5  -2  -3    4.90    7.30
  -5  -2  -3   13.50   10.20
  -5  -2  -3    1.10    6.20
   5   2   3    9.20    7.70
   5   2   3   11.30    8.30
   5   2   3   14.10   10.60
  -6  -2  -3  542.35   49.60
  -6  -2  -3  445.06   43.50
   6   2   3  481.85   48.60
   6   2   3  517.65   44.00
   6   2   3  451.35   46.10
  -7  -2  -3    7.50   13.60
  -7  -2  -3    8.40   15.20
   7   2   3   -5.10   10.10
   7   2   3   -2.10    8.90
   7   2   3    0.30   16.70
  -8  -2  -3  283.67   39.00
   8   2   3  261.77   27.70
   8   2   3  184.18   30.00
   8  -3  -3  107.39   20.00
  -8   3   3   68.89   29.00
   7  -3  -3    5.80   11.60
  -7   3   3    5.70   20.60
   6  -3  -3  142.19   20.80
  -6   3   3  161.58   28.50
   5  -3  -3  295.87   29.00
  -5   3   3  235.18   27.60
  -5   3   3  337.67   38.50
   4  -3  -3   18.80    7.00
   4  -3  -3   10.30   13.10
  -4   3   3    1.50    5.70
  -4   3   3   20.90   13.40
   3  -3  -3  758.22   61.49
   3  -3  -3  678.33   64.29
   3  -3  -3  708.53   59.09
   3  -3  -3  711.53   59.19
  -3   3   3  749.03   61.29
  -3   3   3  733.83   64.89
   2  -3  -3  862.41   69.99
   2  -3  -3  852.91   69.99
   2  -3  -3  868.61   71.19
   2  -3  -3  834.92   73.79
  -2   3   3  861.01   73.89
  -2   3   3  838.92   72.09
   1  -3  -3  116.29   13.30
   1  -3  -3  135.99   13.00
   1  -3  -3  140.29   17.00
  -1   3   3  180.68   18.40
  -1   3   3  115.09   12.80
  -1   3   3  145.59   13.30
   0  -3  -3 1339.37  110.19
   0  -3  -3 1341.77  109.39
   0  -3  -3 1312.57  109.49
   0   3   3 1363.56  109.49
   0   3   3 1311.77  109.39
   0   3   3 1356.16  110.19
  -1  -3  -3  241.98   23.00
  -1  -3  -3  268.57   23.30
  -1  -3  -3  240.98   22.00
   1   3   3  273.57   22.50
   1   3   3  251.27   23.40
   1   3   3  258.57   23.30
  -2  -3  -3   51.39    7.50
  -2  -3  -3   71.29   10.50
  -2  -3  -3   59.99    9.00
  -2  -3  -3   43.40   12.40
   2   3   3   61.09    8.70
   2   3   3   69.69    9.50
  -3  -3  -3 1141.99   95.99
  -3  -3  -3 1109.19   95.09
  -3  -3  -3 1214.18   95.19
   3   3   3 1093.99   94.89
   3   3   3 1161.58   96.09
   3   3   3 1186.68   95.29
  -4  -3  -3   86.99   11.40
  -4  -3  -3   69.29   11.80
  -4  -3  -3   60.99   11.00
   4   3   3   48.50   10.90
   4   3   3   92.69   14.40
   4   3   3   62.29    9.90
  -5  -3  -3  139.79   16.20
  -5  -3  -3  117.19   17.80
  -5  -3  -3   87.09   16.10
   5   3   3  112.09   17.20
   5   3   3  150.48   16.50
   5   3   3  118.69   18.70
  -6  -3  -3  281.87   31.00
  -6  -3  -3  475.95   49.00
   6   3   3  370.36   32.10
   6   3   3  305.17   36.50
   6   3   3  295.27   34.10
  -7  -3  -3   58.89   18.00
  -7  -3  -3   31.80   11.10
   7   3   3   40.20   14.60
   7   3   3   67.89   13.00
   7   3   3   54.39   19.20
  -8  -3  -3   -6.50   18.20
   8   3   3   11.10   14.00
   8   3   3    7.70   10.40
   8  -4  -3   24.70   15.30
  -8   4   3   46.70   27.00
   7  -4  -3   47.30   15.10
  -7   4   3   79.89   26.00
   6  -4  -3    5.70    8.90
  -6   4   3    2.00   16.50
   5  -4  -3  667.13   55.79
   5  -4  -3  654.43   55.69
   5  -4  -3  711.03   60.09
  -5   4   3  761.32   67.09
  -5   4   3  602.34   62.29
   4  -4  -3  433.26   42.30
   4  -4  -3  383.56   33.50
   4  -4  -3  396.66   33.50
   4  -4  -3  424.36   36.70
  -4   4   3  393.26   41.90
  -4   4   3  361.66   36.00
   3  -4  -3   39.90   12.10
   3  -4  -3   31.10    7.20
   3  -4  -3   26.80    5.10
   3  -4  -3   28.80    5.40
  -3   4   3   30.80   14.10
  -3   4   3   29.50    6.90
   2  -4  -3 2211.38  178.98
   2  -4  -3 2133.19  182.18
   2  -4  -3 2188.38  178.98
   2  -4  -3 2286.57  180.08
  -2   4   3 2221.08  179.98
  -2   4   3 2146.39  182.38
   1  -4  -3 1249.47  108.69
   1  -4  -3 1374.56  109.19
   1  -4  -3 1372.76  112.09
  -1   4   3 1351.66  109.19
  -1   4   3 1320.47  110.99
  -1   4   3 1310.97  108.79
   0  -4  -3   85.89   11.10
   0  -4  -3  109.69   13.70
   0  -4  -3   96.99   11.70
   0   4   3  116.49   13.90
   0   4   3   88.59   11.20
   0   4   3  115.39   12.10
  -1  -4  -3  600.24   48.50
  -1  -4  -3  593.54   48.20
  -1  -4  -3  545.65   47.00
   1   4   3  590.24   47.50
   1   4   3  519.15   47.10
   1   4   3  525.35   47.30
  -2  -4  -3  168.98   17.40
  -2  -4  -3  168.48   17.70
  -2  -4  -3  184.28   17.20
  -2  -4  -3  165.68   17.40
   2   4   3  167.58   17.80
   2   4   3  189.28   18.30
  -3  -4  -3  243.88   24.90
  -3  -4  -3  248.28   24.30
  -3  -4  -3  250.87   25.10
  -3  -4  -3  296.17   25.80
   3   4   3  266.57   24.70
   3   4   3  263.17   25.50
  -4  -4  -3  588.64   53.39
  -4  -4  -3  618.04   54.19
  -4  -4  -3  601.74   52.19
   4   4   3  652.03   52.59
   4   4   3  580.14   53.59
  -5  -4  -3   10.60    7.60
  -5  -4  -3   19.40   10.50
   5   4   3   21.30   12.20
   5   4   3    3.70    9.30
   5   4   3   20.10   12.20
  -6  -4  -3  524.05   51.49
  -6  -4  -3  354.96   36.20
   6   4   3  391.26   39.00
   6   4   3  306.57   39.90
   6   4   3  428.96   37.00
  -7  -4  -3  102.59   17.00
  -7  -4  -3  177.68   25.60
   7   4   3  129.79   17.90
   7   4   3  134.89   22.00
  -8  -4  -3   13.40   19.00
   8   4   3   11.50   14.60
   8   4   3   21.60   11.20
   8  -5  -3   26.50   15.10
  -8   5   3   90.59   31.40
   7  -5  -3   19.10   12.40
  -7   5   3    4.30   20.00
   6  -5  -3   32.90   12.00
   6  -5  -3   29.00    6.80
   6  -5  -3   34.60    7.00
  -6   5   3   25.10   18.50
   5  -5  -3  310.57   30.90
   5  -5  -3  276.67   26.50
  -5   5   3  369.86   39.80
   4  -5  -3  445.06   39.00
   4  -5  -3  462.65   41.80
   4  -5  -3  407.26   46.30
  -4   5   3  541.95   47.90
  -4   5   3  454.15   41.50
   3  -5  -3   75.79   16.10
   3  -5  -3   85.79   10.00
   3  -5  -3   95.99   14.30
   3  -5  -3   83.59   10.60
  -3   5   3   78.49   16.10
  -3   5   3   72.99   11.50
   2  -5  -3 1031.20   89.39
   2  -5  -3 1057.09   86.09
   2  -5  -3 1040.20   85.89
   2  -5  -3 1033.10   86.89
  -2   5   3 1011.40   86.59
  -2   5   3 1065.99   89.79
   1  -5  -3  673.03   56.19
   1  -5  -3  622.44   57.99
  -1   5   3  667.23   56.09
  -1   5   3  687.13   56.09
  -1   5   3  669.33   58.79
   0  -5  -3   50.59    8.50
   0  -5  -3   52.89    8.30
   0  -5  -3   44.70    9.90
   0   5   3   54.09   10.40
   0   5   3   48.90    7.70
   0   5   3   47.60    8.20
  -1  -5  -3 1262.27  105.19
  -1  -5  -3 1377.26  105.69
  -1  -5  -3 1259.47  105.29
  -1  -5  -3 1281.77  105.39
   1   5   3 1241.78  105.49
   1   5   3 1232.78  105.19
  -2  -5  -3  103.29   12.50
  -2  -5  -3   73.89   11.40
  -2  -5  -3   86.79   12.30
   2   5   3  119.99   13.80
   2   5   3   99.99   12.70
   2   5   3   95.79   12.70
  -3  -5  -3  219.28   23.10
  -3  -5  -3  205.38   22.50
  -3  -5  -3  222.28   22.00
  -3  -5  -3  228.38   22.80
   3   5   3  294.47   32.50
   3   5   3  233.98   22.60
  -4  -5  -3  627.74   52.89
  -4  -5  -3  623.44   54.19
  -4  -5  -3  570.94   55.99
  -4  -5  -3  618.44   54.09
   4   5   3  575.04   54.09
   4   5   3  634.94   53.29
  -5  -5  -3   20.00   10.90
  -5  -5  -3    0.20    8.00
  -5  -5  -3   13.10   13.20
   5   5   3   28.00    9.40
   5   5   3   19.20    9.80
  -6  -5  -3   58.49   13.30
  -6  -5  -3   73.39   19.00
  -6  -5  -3   59.89   18.60
   6   5   3   97.59   14.30
   6   5   3   77.99   16.70
  -7  -5  -3  182.08   22.90
  -7  -5  -3  184.08   28.00
  -7  -5  -3   99.39   26.90
   7   5   3  179.78   25.60
   7   5   3  234.78   23.40
  -8  -5  -3   11.60   20.10
   8   5   3   13.90   13.90
   8   5   3   17.10   11.50
   8  -6  -3   23.60   16.00
  -8   6   3    1.40   24.80
   7  -6  -3  160.08   23.60
  -7   6   3  123.59   31.30
   6  -6  -3   12.90    6.70
   6  -6  -3   40.50    8.30
   6  -6  -3   -2.00   14.70
  -6   6   3   31.10   21.60
   5  -6  -3  158.98   21.80
   5  -6  -3  167.18   17.20
   5  -6  -3  143.49   17.00
  -5   6   3  215.68   31.00
   4  -6  -3  580.04   48.00
   4  -6  -3  541.45   47.90
   4  -6  -3  541.05   55.09
   4  -6  -3  605.24   50.69
  -4   6   3  598.74   56.39
  -4   6   3  513.75   49.90
   3  -6  -3   28.10   11.30
   3  -6  -3    3.50    5.10
   3  -6  -3   18.00    5.20
  -3   6   3   13.70   11.00
  -3   6   3    7.80    5.10
   2  -6  -3  635.64   52.89
   2  -6  -3  592.54   56.49
   2  -6  -3  613.04   52.89
   2  -6  -3  621.64   53.79
  -2   6   3  657.53   57.49
  -2   6   3  622.94   53.59
   1  -6  -3   16.40    5.60
   1  -6  -3    3.50    7.30
   1  -6  -3    0.00    4.80
   1  -6  -3    0.80    4.50
  -1   6   3    7.20    4.60
  -1   6   3   -2.30    8.30
   0  -6  -3   89.39   14.30
   0  -6  -3  104.39   12.70
   0  -6  -3   86.79   11.90
   0   6   3   87.19   12.00
   0   6   3  101.19   12.70
   0   6   3   92.79   14.80
  -1  -6  -3   75.89   11.10
  -1  -6  -3   67.59   10.80
  -1  -6  -3   72.69   10.70
  -1  -6  -3   59.39   11.10
   1   6   3   82.29   11.30
   1   6   3   77.09   12.60
  -2  -6  -3  607.24   51.09
  -2  -6  -3  599.14   51.09
  -2  -6  -3  582.84   50.79
   2   6   3  572.44   51.49
   2   6   3  586.94   50.79
   2   6   3  578.34   51.09
  -3  -6  -3   50.69    9.90
  -3  -6  -3   49.20   11.30
  -3  -6  -3   58.39   11.60
  -3  -6  -3   56.79   10.40
   3   6   3   61.99   11.30
   3   6   3   58.69   10.40
  -4  -6  -3  524.05   45.80
  -4  -6  -3  470.65   46.50
  -4  -6  -3  494.85   46.90
  -4  -6  -3  532.35   47.70
   4   6   3  547.25   46.00
   4   6   3  524.55   47.30
  -5  -6  -3   34.40   14.10
  -5  -6  -3   11.80   13.00
  -5  -6  -3   17.60   11.40
   5   6   3   12.70   10.00
   5   6   3   12.10    8.60
  -6  -6  -3    7.40   12.30
  -6  -6  -3    8.70    9.90
  -6  -6  -3    1.40   15.10
   6   6   3   26.20   10.40
   6   6   3   22.90   11.70
  -7  -6  -3  146.69   24.50
  -7  -6  -3   67.99   24.90
   7   6   3  159.18   20.40
   7   6   3  135.99   23.40
  -8  -6  -3   57.29   21.50
   8   6   3   59.09   14.50
   8   6   3   23.10   15.30
   8  -7  -3   16.40   16.70
   7  -7  -3   56.69   15.90
   7  -7  -3   37.30    9.40
   7  -7  -3   24.80    9.50
  -7   7   3   38.90   23.70
   6  -7  -3  144.89   17.80
   6  -7  -3  166.28   23.10
   6  -7  -3  170.68   18.00
  -6   7   3  186.78   33.20
   5  -7  -3   29.20    7.80
   5  -7  -3   25.10    7.70
   5  -7  -3   34.90   10.20
  -5   7   3   35.00   18.80
   4  -7  -3  249.78   25.10
   4  -7  -3  231.38   22.50
   4  -7  -3  204.28   22.20
  -4   7   3  237.58   32.20
   3  -7  -3  477.05   41.70
   3  -7  -3  525.45   41.80
   3  -7  -3  462.65   43.10
   3  -7  -3  469.05   47.00
  -3   7   3  504.15   48.30
  -3   7   3  419.66   42.50
   2  -7  -3   79.89   12.10
   2  -7  -3   79.59   11.60
   2  -7  -3   89.49   11.80
   2  -7  -3   98.59   17.20
  -2   7   3  121.59   19.50
  -2   7   3   84.79   12.10
   1  -7  -3 1974.40  163.48
   1  -7  -3 1961.30  160.98
   1  -7  -3 1920.31  160.78
   1  -7  -3 1928.11  161.28
  -1   7   3 1957.60  161.28
  -1   7   3 2012.90  163.78
   0  -7  -3 1021.50   90.39
   0  -7  -3 1048.40   88.89
   0  -7  -3 1060.89   88.99
   0   7   3 1082.89   89.09
   0   7   3 1072.09   90.89
   0   7   3 1094.19   89.09
  -1  -7  -3  842.92   70.79
  -1  -7  -3  872.81   70.89
  -1  -7  -3  846.32   71.79
  -1  -7  -3  826.62   70.89
   1   7   3  846.42   72.09
   1   7   3  773.92   70.59
  -2  -7  -3  623.44   54.19
  -2  -7  -3  624.54   54.99
  -2  -7  -3  620.94   54.59
  -2  -7  -3  629.84   55.09
   2   7   3  634.44   55.69
  -3  -7  -3  186.28   20.70
  -3  -7  -3  184.88   22.30
  -3  -7  -3  175.18   21.70
  -3  -7  -3  172.28   27.90
   3   7   3  188.78   21.50
   3   7   3  176.78   20.30
  -4  -7  -3  256.57   27.50
  -4  -7  -3  229.68   26.70
  -4  -7  -3  209.68   24.70
   4   7   3  225.38   24.40
   4   7   3  223.18   25.50
  -5  -7  -3  109.49   18.40
  -5  -7  -3  100.79   15.80
  -5  -7  -3   91.19   18.60
   5   7   3  137.19   19.30
   5   7   3  117.59   16.30
  -6  -7  -3   -2.90   14.50
  -6  -7  -3   17.80   12.60
   6   7   3   13.80   10.30
   6   7   3   -6.50    9.60
  -7  -7  -3   44.10   22.60
  -7  -7  -3   73.89   19.90
   7   7   3   60.59   16.50
   7   7   3   70.99   14.80
  -8  -7  -3   13.10   20.60
   8   7   3   -0.70   15.60
   8   7   3   39.60   14.20
   8  -8  -3   12.10   14.50
  -8   8   3   17.20   27.50
   7  -8  -3   43.30   15.30
   7  -8  -3    7.50   15.00
  -7   8   3   21.80   23.90
   6  -8  -3   24.20   11.60
   6  -8  -3   18.90    8.40
   6  -8  -3   12.30    8.60
  -6   8   3   43.40   22.00
   5  -8  -3  105.89   14.40
   5  -8  -3  100.29   16.90
   5  -8  -3  105.09   14.70
  -5   8   3  132.89   26.80
   4  -8  -3  289.37   27.70
   4  -8  -3  280.77   29.70
   4  -8  -3  262.67   27.40
  -4   8   3  362.46   40.80
   3  -8  -3  535.15   49.50
   3  -8  -3  592.14   54.09
   3  -8  -3  526.35   48.20
   3  -8  -3  566.54   49.50
  -3   8   3  509.35   49.00
  -3   8   3  626.04   55.19
   2  -8  -3    9.50    6.00
   2  -8  -3   11.70    5.80
   2  -8  -3   16.70   11.00
  -2   8   3   30.80   11.70
   1  -8  -3 1190.78   98.99
   1  -8  -3 1161.28   98.69
   1  -8  -3 1196.58  101.59
  -1   8   3 1172.58   98.89
   0  -8  -3 1021.60   84.29
   0  -8  -3  983.60   86.19
   0  -8  -3 1025.10   84.39
   0   8   3  990.10   84.29
   0   8   3  975.40   86.29
  -1  -8  -3   14.00    8.00
  -1  -8  -3    2.50    6.10
  -1  -8  -3   -5.90    5.00
  -1  -8  -3    2.90    5.60
   1   8   3   -1.00    6.10
   1   8   3   12.80    9.10
  -2  -8  -3  356.86   31.50
  -2  -8  -3  326.67   30.60
  -2  -8  -3  309.37   30.70
  -2  -8  -3  285.37   31.40
   2   8   3  313.57   33.00
   2   8   3  335.77   30.90
  -3  -8  -3  259.47   26.90
  -3  -8  -3  215.18   25.30
  -3  -8  -3  202.08   23.60
  -3  -8  -3  231.98   23.40
  -3  -8  -3  151.28   23.20
   3   8   3  254.37   24.10
  -4  -8  -3    6.20   11.30
  -4  -8  -3   11.60   10.70
  -4  -8  -3   -2.80    7.60
   4   8   3    3.50    8.90
   4   8   3   -1.80    8.40
  -5  -8  -3  142.09   24.50
  -5  -8  -3  143.39   22.80
   5   8   3  164.88   20.10
   5   8   3  123.79   19.80
  -6  -8  -3  124.59   22.80
   6   8   3  147.99   20.50
   6   8   3  119.29   20.90
  -7  -8  -3   79.29   21.70
   7   8   3   82.69   19.30
   7   8   3  103.09   17.50
  -8  -8  -3  122.89   26.90
   8   8   3   71.39   20.00
   7  -9  -3   -6.90    9.50
   7  -9  -3   -3.20   10.80
  -7   9   3   18.70   23.00
   6  -9  -3   31.50   10.30
   6  -9  -3   23.20   11.90
   6  -9  -3   20.80    9.30
  -6   9   3   22.60   19.60
   5  -9  -3   64.19   11.40
   5  -9  -3   35.50   11.50
   5  -9  -3   46.30   10.20
  -5   9   3   49.60   19.60
   4  -9  -3   12.80    7.90
   4  -9  -3   29.20    9.00
   4  -9  -3   32.30   10.50
  -4   9   3   21.40   16.50
   3  -9  -3  271.47   27.00
   3  -9  -3  261.97   28.10
  -3   9   3  318.67   38.30
   2  -9  -3  404.76   38.10
   2  -9  -3  416.96   37.40
   2  -9  -3  411.76   42.50
   2  -9  -3  457.35   40.20
  -2   9   3  360.26   37.30
  -2   9   3  439.56   43.50
   1  -9  -3  364.66   32.60
   1  -9  -3  341.47   32.20
   1  -9  -3  362.66   36.40
  -1   9   3  314.87   32.10
  -1   9   3  352.66   36.50
   0  -9  -3  567.54   51.89
   0  -9  -3  602.74   52.19
   0  -9  -3  586.14   54.59
   0   9   3  624.24   57.49
  -1  -9  -3  249.28   28.90
  -1  -9  -3  301.67   30.70
  -1  -9  -3  271.27   27.10
  -1  -9  -3  272.17   27.50
   1   9   3  286.47   30.70
   1   9   3  267.87   27.40
  -2  -9  -3  332.57   28.30
  -2  -9  -3  228.88   27.40
  -2  -9  -3  250.37   29.20
  -2  -9  -3  235.68   27.60
   2   9   3  280.67   31.10
   2   9   3  325.07   28.50
  -3  -9  -3  280.47   30.70
  -3  -9  -3  244.68   29.00
  -3  -9  -3  248.68   28.70
  -3  -9  -3  218.88   26.40
   3   9   3  252.37   26.80
  -4  -9  -3    2.20   11.20
  -4  -9  -3   -4.50   10.80
   4   9   3   25.30   10.20
  -5  -9  -3   21.90   15.70
  -5  -9  -3   64.89   17.10
   5   9   3   73.59   14.20
   5   9   3   76.69   15.80
  -6  -9  -3   15.40   17.60
  -6  -9  -3   32.30   15.60
   6   9   3   33.10   13.10
   6   9   3   54.29   14.80
  -7  -9  -3   20.60   16.40
   7   9   3    3.20   13.80
   7   9   3   17.00   13.40
   7 -10  -3   18.30   11.30
   7 -10  -3   59.09   29.00
   6 -10  -3   81.19   13.60
   6 -10  -3   37.50   14.30
  -6  10   3   73.09   24.50
   5 -10  -3  273.97   35.00
   5 -10  -3  315.37   31.00
  -5  10   3  325.07   44.00
   4 -10  -3   11.90    9.70
   4 -10  -3   14.00    8.20
   4 -10  -3   17.80    9.00
  -4  10   3   16.90   15.80
   3 -10  -3  473.25   43.80
   3 -10  -3  466.45   43.90
   3 -10  -3  502.05   45.10
  -3  10   3  493.25   51.69
   2 -10  -3  432.56   39.80
   2 -10  -3  428.76   40.10
   2 -10  -3  411.66   40.20
  -2  10   3  468.15   45.90
   1 -10  -3   86.19   14.10
   1 -10  -3  109.59   15.50
   1 -10  -3   73.29   17.70
   1 -10  -3  108.39   15.90
  -1  10   3   96.19   14.60
  -1  10   3  105.29   20.60
   0 -10  -3  217.88   23.70
   0 -10  -3  253.87   24.40
   0 -10  -3  238.98   24.70
   0  10   3  204.28   23.40
   0  10   3  254.37   29.40
  -1 -10  -3  322.57   34.60
  -1 -10  -3  389.46   33.40
  -1 -10  -3  257.57   31.50
  -1 -10  -3  314.07   32.20
  -1 -10  -3  354.66   32.50
   1  10   3  372.36   36.20
  -2 -10  -3   63.49   12.30
  -2 -10  -3   18.30   11.60
   2  10   3   56.19   16.30
   2  10   3   58.29   12.20
  -3 -10  -3  348.37   35.00
  -3 -10  -3  307.37   35.90
   3  10   3  355.76   34.20
  -4 -10  -3  341.77   43.10
  -4 -10  -3  424.76   44.10
  -4 -10  -3  451.15   42.60
   4  10   3  478.75   41.60
  -5 -10  -3  119.19   23.00
  -5 -10  -3   86.29   21.50
  -5 -10  -3  127.19   21.20
   5  10   3  184.58   22.40
  -6 -10  -3   63.99   19.20
   6  10   3   60.59   21.10
   6  10   3   62.59   17.00
  -7 -10  -3   23.00   18.70
   7  10   3   31.60   17.30
   7 -11  -3   91.19   21.50
   7 -11  -3  111.89   18.60
  -7  11   3  165.28   34.40
   6 -11  -3   19.30   10.70
   6 -11  -3    5.60    9.70
  -6  11   3   -4.80   17.80
   5 -11  -3  441.06   43.60
   5 -11  -3  410.56   40.80
  -5  11   3  435.66   52.19
   4 -11  -3  140.49   22.20
   4 -11  -3  190.28   22.40
  -4  11   3  154.98   30.80
   3 -11  -3   52.29   12.50
   3 -11  -3   48.50   10.90
  -3  11   3   46.60   18.00
   2 -11  -3  592.64   56.29
   2 -11  -3  624.34   55.99
  -2  11   3  686.33   62.49
   1 -11  -3   25.70    9.00
   1 -11  -3   25.80    8.60
  -1  11   3   20.90   14.20
   0 -11  -3  220.98   25.90
   0 -11  -3  240.28   30.40
   0 -11  -3  253.47   26.50
   0  11   3  362.66   38.60
  -1 -11  -3  234.68   25.80
  -1 -11  -3  228.78   27.00
  -1 -11  -3  219.58   30.60
   1  11   3  250.47   32.90
  -2 -11  -3   29.40    9.70
  -2 -11  -3    2.80    8.20
  -2 -11  -3   14.80   12.80
   2  11   3   17.40   14.60
  -3 -11  -3   20.60   11.10
  -3 -11  -3   32.00   12.50
  -4 -11  -3  214.78   29.50
  -4 -11  -3  132.59   24.40
  -4 -11  -3  254.37   39.50
  -5 -11  -3   17.70   16.00
  -5 -11  -3    3.00   31.50
  -5 -11  -3   11.40   11.90
  -6 -11  -3   31.80   18.20
  -6 -11  -3   26.60   14.20
  -7 -11  -3   26.20   20.60
  -7 -11  -3   46.60   18.30
  -7 -11  -3   46.70   16.60
   6 -12  -3   36.80   16.90
   6 -12  -3   -3.30   13.20
   5 -12  -3    3.40   10.30
   5 -12  -3   19.10   11.20
  -5  12   3   15.10   18.70
   4 -12  -3   56.79   14.20
   4 -12  -3   68.09   14.20
  -4  12   3   52.49   20.40
   3 -12  -3  107.59   17.40
   3 -12  -3  110.89   17.40
  -3  12   3  112.29   26.00
   2 -12  -3   -2.30    6.70
   2 -12  -3    7.50    7.30
  -2  12   3   -8.50   11.40
   1 -12  -3  933.91   81.39
   1 -12  -3  896.51   81.39
  -1  12   3 1001.20   87.29
   0 -12  -3   80.99   14.70
   0 -12  -3   99.39   16.00
   0  12   3  108.29   23.00
  -1 -12  -3  905.91   80.49
  -1 -12  -3  924.61   80.39
   1  12   3  941.91   84.99
  -2 -12  -3   50.89   12.30
  -2 -12  -3   49.60   13.30
   2  12   3   61.49   18.80
  -3 -12  -3   68.49   18.40
  -3 -12  -3   98.79   17.40
   3  12   3   82.49   21.00
  -4 -12  -3  166.98   27.50
  -4 -12  -3  141.39   21.80
  -4 -12  -3  135.19   22.50
  -5 -12  -3    0.70   12.20
  -5 -12  -3   16.00   17.10
  -5 -12  -3   18.20   11.90
  -6 -12  -3   -7.80   17.00
  -6 -12  -3   17.50   15.80
  -6 -12  -3    9.80   12.80
   6 -13  -3   70.09   16.50
   6 -13  -3   78.69   19.00
  -6  13   3   71.69   27.20
   5 -13  -3   -1.00   10.60
   5 -13  -3   -4.30    9.40
  -5  13   3   -4.60   16.50
   4 -13  -3  225.98   30.00
   4 -13  -3  239.28   29.00
  -4  13   3  223.98   36.40
   3 -13  -3    4.00    7.70
   3 -13  -3   14.80   10.70
  -3  13   3   21.00   16.80
   2 -13  -3   68.79   14.50
  -2  13   3  123.89   28.30
   1 -13  -3  224.28   38.80
   1 -13  -3  291.07   40.60
  -1  13   3  265.77   38.70
   0 -13  -3    6.90    7.80
   0  13   3   -6.70   13.50
  -1 -13  -3   95.29   16.80
  -1 -13  -3  137.49   20.20
   1  13   3   82.19   21.90
  -2 -13  -3  466.55   45.30
  -2 -13  -3  379.36   40.20
   2  13   3  389.66   46.80
  -3 -13  -3   40.30   13.70
  -3 -13  -3   40.50   12.20
   3  13   3   23.70   18.00
  -4 -13  -3  114.09   21.40
  -4 -13  -3  110.09   19.10
  -4 -13  -3   98.89   25.20
  -5 -13  -3  134.19   22.70
  -5 -13  -3   64.19   22.60
  -5 -13  -3  120.89   20.90
  -6 -13  -3    6.00   25.60
  -6 -13  -3    6.40   13.90
  -6 -13  -3   19.70   21.00
   5 -14  -3   47.20   14.50
   5 -14  -3   32.00   15.10
  -5  14   3   36.90   23.20
   4 -14  -3  200.88   29.60
   4 -14  -3  259.67   30.10
  -4  14   3  219.18   37.70
   3 -14  -3   60.49   14.40
   3 -14  -3   53.59   13.60
  -3  14   3   38.50   20.70
   2 -14  -3   28.00   10.90
   2 -14  -3   23.30   10.00
  -2  14   3   39.10   19.00
   1 -14  -3  187.38   24.80
   1 -14  -3  186.48   24.90
  -1  14   3  191.78   34.40
   0 -14  -3   40.50   11.70
   0 -14  -3   38.70   11.70
   0  14   3   61.89   24.50
  -1 -14  -3    8.00    9.20
  -1 -14  -3   23.40   10.10
   1  14   3   20.90   18.30
  -2 -14  -3  105.69   18.80
  -2 -14  -3   95.09   17.80
   2  14   3   94.69   25.00
  -3 -14  -3   45.10   14.40
  -3 -14  -3   42.30   13.60
   3  14   3   12.00   18.70
  -4 -14  -3   14.40   13.30
  -4 -14  -3    9.20   26.20
  -4 -14  -3   -2.00    9.70
  -5 -14  -3  109.09   27.40
  -5 -14  -3  118.39   23.90
  -5 -14  -3   97.49   20.40
   5 -15  -3   51.39   16.90
   5 -15  -3   44.10   15.30
  -5  15   3   31.80   23.20
   4 -15  -3   29.70   14.60
   3 -15  -3  159.18   23.70
   3 -15  -3  133.99   22.30
  -3  15   3  198.08   35.30
   2 -15  -3   70.89   15.70
   2 -15  -3   33.50   12.30
  -2  15   3   63.19   23.90
   1 -15  -3   80.29   17.80
   1 -15  -3   81.29   16.40
  -1  15   3  116.29   28.30
   0 -15  -3  274.57   33.50
   0 -15  -3  255.87   31.90
   0  15   3  300.27   42.80
  -1 -15  -3  -12.00    8.70
  -1 -15  -3   -3.50    9.10
   1  15   3   18.10   18.80
  -2 -15  -3   99.09   18.70
  -2 -15  -3   69.59   16.30
   2  15   3  111.49   26.70
  -3 -15  -3   27.40   13.60
  -3 -15  -3   59.29   15.40
  -4 -15  -3   22.60   22.30
  -4 -15  -3   -0.50   12.90
  -4 -15  -3   -6.50   12.10
   4 -16  -3   11.80   12.40
   4 -16  -3   22.40   24.50
  -4  16   3    8.90   19.90
   3 -16  -3  140.49   23.00
   3 -16  -3  142.59   27.50
   2 -16  -3   14.40   11.60
   2 -16  -3   22.80   11.10
  -2  16   3   31.80   22.80
   1 -16  -3    2.90    9.10
   1 -16  -3    0.50    8.60
  -1  16   3  -15.70   18.20
   0 -16  -3  140.69   23.40
   0 -16  -3  141.09   22.30
   0  16   3  170.58   34.30
  -1 -16  -3   18.20   11.90
  -1 -16  -3   22.60   11.20
   1  16   3   33.00   22.10
  -2 -16  -3  127.99   22.70
  -2 -16  -3  131.79   21.90
   2  16   3  118.29   30.40
  -3 -16  -3   73.39   18.90
  -3 -16  -3  108.79   28.80
   2 -17  -3    7.40    9.90
   2 -17  -3   -0.10   10.80
  -2  17   3   -5.90   19.30
   1 -17  -3   -7.00    8.70
  -1  17   3   15.00   23.00
   0 -17  -3   26.50   14.10
   0 -17  -3   31.40   12.10
   0  17   3   26.20   22.90
  -1 -17  -3   65.19   16.90
   1  17   3   76.49   28.10
  -2 -17  -3    4.60   11.80
  -2 -17  -3   27.90   14.90
   2  17   3    5.80   23.00
   0  15  -4   26.00   28.10
   0 -15   4   47.70   12.90
   0 -15   4   52.19   16.40
  -1  15  -4   37.90   29.10
   1 -15   4  125.09   19.80
   1 -15   4   86.89   19.10
  -2  15  -4  -24.30   21.40
   2 -15   4   -3.30   12.10
   2 -15   4    1.90   11.90
  -2 -14   4    7.20    9.50
  -2 -14   4   -9.10   29.10
   1  14  -4   31.60   28.90
  -1 -14   4   29.50   11.00
  -1 -14   4   33.60   14.90
   0  14  -4    3.10   22.50
   0 -14   4    7.00    9.20
   0 -14   4    6.80   12.20
  -1  14  -4  103.89   32.50
   1 -14   4  134.19   18.80
   1 -14   4   52.49   17.00
   2 -14   4   46.10   14.00
  -3  14  -4   25.20   24.70
   3 -14   4   25.30   13.70
   3 -14   4   28.60   13.50
   4 -14   4   69.09   18.10
  -3 -13   4   52.79   12.90
  -3 -13   4   46.50   15.20
  -3 -13   4   30.00   27.90
  -2 -13   4  166.98   24.70
  -2 -13   4  175.08   23.00
  -2 -13   4  220.08   42.30
   1  13  -4  105.29   30.50
  -1 -13   4  112.19   19.60
  -1 -13   4   93.59   23.40
   0  13  -4    0.20   20.30
   0 -13   4   -0.50    9.80
   0 -13   4   -0.90    8.50
  -1  13  -4   86.89   28.50
   1 -13   4  109.69   19.10
   1 -13   4  104.99   17.10
  -2  13  -4   -3.50   18.60
   2 -13   4    3.20   10.10
   2 -13   4   25.00   11.70
  -3  13  -4  -12.30   18.40
   3 -13   4   13.50   11.30
   3 -13   4   10.50   11.90
  -4  13  -4  133.19   42.20
   4 -13   4  132.29   23.70
   4 -13   4  186.08   42.70
  -5  13  -4   39.40   27.80
   5 -13   4   52.69   16.50
   5 -13   4   45.00   15.20
  -4 -12   4   16.70   11.70
  -4 -12   4   27.00   12.80
  -4 -12   4   58.89   29.70
  -3 -12   4   57.39   14.70
  -3 -12   4   30.70   26.00
  -3 -12   4   51.59   12.50
  -2 -12   4    4.50   10.50
  -2 -12   4    4.40    7.60
  -2 -12   4   25.60   25.60
   1  12  -4  176.88   35.20
  -1 -12   4  171.48   23.70
  -1 -12   4  183.58   22.30
   0  12  -4   39.10   22.60
   0 -12   4   31.80   11.80
   0 -12   4   36.50   10.00
  -1  12  -4    7.70   18.90
   1 -12   4   30.90   12.20
   1 -12   4    3.00    8.00
  -2  12  -4  267.17   42.20
   2 -12   4  192.38   28.10
   2 -12   4  288.37   29.00
  -3  12  -4    1.60   16.30
   3 -12   4   21.80   12.00
   3 -12   4   -5.10    9.50
  -4  12  -4   69.19   26.90
   4 -12   4   86.99   18.40
   4 -12   4   64.49   18.10
   5 -12   4  125.29   21.50
   5 -12   4  105.79   21.90
  -5 -11   4   19.70   25.90
  -5 -11   4   26.40   13.20
  -5 -11   4    1.70   12.30
  -4 -11   4   50.09   27.10
  -4 -11   4   40.30   13.70
  -4 -11   4   52.59   13.50
  -3 -11   4   61.39   25.20
  -3 -11   4   40.20   12.70
  -3 -11   4   26.50   10.30
  -2 -11   4   -6.60    8.40
  -2 -11   4   -0.90    7.00
  -2 -11   4  -23.10   18.70
   1  11  -4   23.10   19.60
  -1 -11   4    7.60    9.10
  -1 -11   4   15.10    7.80
   0  11  -4   91.19   24.60
   0 -11   4   57.19   13.50
   0 -11   4   59.69   11.70
  -1  11  -4    7.80   17.30
   1 -11   4   -8.90    7.60
   1 -11   4   12.80    8.50
  -2  11  -4  110.99   25.90
   2 -11   4   97.29   16.60
   2 -11   4  113.09   18.00
  -3  11  -4  144.49   31.90
   3 -11   4  150.78   21.60
   3 -11   4  155.38   22.70
  -4  11  -4    6.30   18.30
   4 -11   4   15.60   10.60
   4 -11   4    2.90    9.70
  -5  11  -4  114.39   33.60
   5 -11   4  174.98   26.90
   5 -11   4  177.58   25.00
  -6  11  -4    1.50   41.60
   6 -11   4    4.10   13.30
   6 -11   4   22.50   14.30
  -5 -10   4   53.29   25.80
  -5 -10   4   36.30   13.00
  -4 -10   4   22.30   22.30
  -4 -10   4   13.10    9.70
  -4 -10   4   17.50   10.90
  -3 -10   4   44.10   12.40
  -3 -10   4   65.59   12.40
  -3 -10   4   48.10   23.60
  -2 -10   4    7.00    9.30
  -2 -10   4    5.00    6.80
  -2 -10   4   37.00   29.00
  -2 -10   4    4.70    9.10
   1  10  -4   51.09   20.40
  -1 -10   4   42.60   11.20
  -1 -10   4   30.60    8.60
  -1 -10   4   25.60    9.70
   0  10  -4  195.88   32.50
   0  10  -4  135.09   18.90
   0 -10   4  156.88   20.70
   0 -10   4  165.48   19.10
  -1  10  -4   -6.20   14.10
   1 -10   4    0.70    8.00
   1 -10   4    4.20    7.00
  -2  10  -4  126.19   43.40
   2 -10   4  113.89   17.60
   2 -10   4  129.49   23.30
  -3  10  -4  120.99   26.40
   3 -10   4  141.89   20.20
   3 -10   4  145.29   21.20
  -4  10  -4   21.90   19.60
   4 -10   4   15.60   10.30
   4 -10   4   -4.80    9.30
  -5  10  -4  146.69   31.30
   5 -10   4  123.29   20.00
   5 -10   4   94.79   19.70
  -6  10  -4   47.80   23.70
   6 -10   4   25.50   13.50
   6 -10   4   48.50   16.00
  -6  -9   4    6.10   11.30
  -6  -9   4   11.40   13.00
  -6  -9   4    6.90   23.30
  -5  -9   4    2.50   10.20
  -5  -9   4   -7.30   19.60
  -5  -9   4   13.90   10.30
  -4  -9   4   27.40   10.50
  -4  -9   4   28.00   10.70
  -4  -9   4    6.60   19.60
  -3  -9   4   91.59   14.40
  -3  -9   4   71.79   12.60
  -3  -9   4   41.50   12.30
  -3  -9   4   76.99   39.30
  -2  -9   4  442.76   39.00
  -2  -9   4  412.26   37.50
  -2  -9   4  287.17   43.00
  -2  -9   4  443.16   52.29
   1   9  -4   62.79   21.40
  -1  -9   4   62.19   12.20
  -1  -9   4   76.29   11.80
  -1  -9   4   87.99   13.80
   0   9  -4  813.72   76.39
   0   9  -4  934.61   83.99
   0  -9   4  902.31   74.79
   0  -9   4  857.81   75.79
  -1   9  -4  104.09   23.60
  -1   9  -4  100.69   15.30
   1  -9   4  138.99   16.30
   1  -9   4  103.09   16.00
  -2   9  -4  386.96   45.20
   2  -9   4  376.56   35.90
   2  -9   4  351.86   36.00
  -3   9  -4  258.67   36.70
   3  -9   4  225.98   27.80
   3  -9   4  248.98   26.90
  -4   9  -4  -12.50   15.20
   4  -9   4   16.70   10.30
  -5   9  -4  114.19   27.50
   5  -9   4  169.48   23.00
   5  -9   4  132.59   22.20
  -6   9  -4   17.30   19.90
   6  -9   4    7.70   12.10
   6  -9   4    6.50   11.80
  -7   9  -4   35.80   24.40
   7  -9   4   -9.10   10.90
   7  -9   4   16.40   12.70
  -6  -8   4   15.40   23.30
  -6  -8   4   33.70   12.10
  -6  -8   4   35.60   20.30
  -5  -8   4   74.89   14.20
  -5  -8   4   49.10   23.50
  -5  -8   4   64.89   14.80
  -4  -8   4   22.00    9.70
  -4  -8   4   21.80    9.90
  -4  -8   4   13.50    9.00
  -3  -8   4   36.50   18.50
  -3  -8   4   35.60   12.10
  -3  -8   4   31.50    9.50
  -3  -8   4   33.90   10.20
  -3  -8   4   52.09   11.00
  -2  -8   4  113.59   14.70
  -2  -8   4   75.59   13.50
  -2  -8   4  107.19   25.30
  -2  -8   4   96.99   13.00
  -2  -8   4   68.49   14.70
   1   8  -4  481.25   50.59
  -1  -8   4  442.66   40.50
  -1  -8   4  477.05   41.70
  -1  -8   4  456.35   41.80
  -1  -8   4  399.06   42.00
   0   8  -4  132.99   25.40
   0   8  -4  137.29   16.90
   0  -8   4  149.88   16.50
   0  -8   4  141.39   18.00
  -1   8  -4  327.87   39.70
  -1   8  -4  289.87   28.30
   1  -8   4  273.27   29.30
   1  -8   4  300.17   28.50
  -2   8  -4  305.97   38.80
  -2   8  -4  256.77   27.50
   2  -8   4  299.77   29.10
   2  -8   4  277.47   28.20
  -3   8  -4  130.49   25.30
   3  -8   4   95.29   15.30
   3  -8   4  101.09   16.10
  -4   8  -4  678.93   62.39
   4  -8   4  567.34   54.49
   4  -8   4  587.44   55.29
  -5   8  -4  -14.40   15.20
   5  -8   4   -8.20    8.50
   5  -8   4   -5.90    8.30
  -6   8  -4  365.66   49.30
   6  -8   4  370.46   37.20
   6  -8   4  349.27   39.00
  -7   8  -4   81.59   28.50
   7  -8   4   84.69   17.60
   7  -8   4   55.29   24.20
  -7  -7   4   38.00   24.80
  -6  -7   4   30.90   11.10
  -6  -7   4   24.50   22.50
  -5  -7   4   95.29   15.60
  -5  -7   4   95.69   25.90
  -5  -7   4   66.09   13.20
  -4  -7   4  209.38   32.50
  -4  -7   4  235.18   28.20
  -4  -7   4  256.57   37.90
  -4  -7   4  306.27   28.00
  -4  -7   4  302.27   28.70
  -3  -7   4   25.90    8.90
  -3  -7   4   45.00   18.00
  -3  -7   4   18.40    8.30
  -3  -7   4   30.50   10.40
  -3  -7   4   24.80    8.50
  -2  -7   4  196.38   21.90
  -2  -7   4  212.08   22.50
  -2  -7   4  222.58   23.60
  -2  -7   4  210.28   21.60
  -2  -7   4  228.68   32.40
   1   7  -4   95.49   20.80
  -1  -7   4   93.09   12.50
  -1  -7   4   93.19   12.10
  -1  -7   4   79.29   13.80
  -1  -7   4  122.49   14.60
  -1  -7   4   87.59   19.70
   0   7  -4   44.50   10.10
   0   7  -4   29.60    7.60
   0   7  -4   77.69   18.20
   0  -7   4   19.30   12.10
   0  -7   4   23.90    6.60
   0  -7   4   56.39    9.60
  -1   7  -4  232.88   30.00
  -1   7  -4  206.28   22.20
  -1   7  -4  176.58   20.00
   1  -7   4  206.58   21.90
   1  -7   4  206.88   28.60
  -2   7  -4  117.39   21.70
  -2   7  -4   94.99   14.80
  -2   7  -4   86.49   12.90
   2  -7   4   92.29   13.70
   2  -7   4  101.99   20.30
   2  -7   4  113.89   15.40
  -3   7  -4   49.60   16.70
  -3   7  -4   25.40    8.30
   3  -7   4   12.10    7.50
   3  -7   4   37.20    9.60
  -4   7  -4  314.37   37.50
   4  -7   4  258.47   29.40
   4  -7   4  305.47   30.50
  -5   7  -4   30.40   16.60
   5  -7   4   54.69   18.30
   5  -7   4   53.49   12.60
  -6   7  -4   54.99   22.20
   6  -7   4   51.59   15.20
   6  -7   4   87.69   16.10
  -7   7  -4  109.49   29.20
   7  -7   4   56.69   16.90
   7  -7   4   67.39   16.10
  -8   7  -4   15.80   24.80
   8  -7   4   -8.10   12.60
   8  -7   4    2.70   13.20
   7   6  -4   18.80   14.60
  -7  -6   4   42.40   24.30
   6   6  -4   18.90   11.30
  -6  -6   4    7.50    9.00
  -6  -6   4   21.60    8.80
  -6  -6   4   23.30   20.70
  -5  -6   4   18.60   19.10
  -5  -6   4    0.30    8.30
  -5  -6   4    4.00    9.40
  -5  -6   4   -3.20    9.50
  -4  -6   4  303.97   27.80
  -4  -6   4  230.98   26.60
  -4  -6   4  322.87   39.70
  -4  -6   4  240.58   27.20
  -4  -6   4  279.07   26.90
  -3  -6   4  107.59   21.70
  -3  -6   4   79.49   12.90
  -3  -6   4   70.99   12.00
  -3  -6   4   88.49   12.60
  -3  -6   4  101.99   13.20
  -2  -6   4  119.89   21.60
  -2  -6   4   53.99    9.50
  -2  -6   4   62.29   10.00
  -2  -6   4   56.19    9.00
  -2  -6   4   36.70   15.30
  -2  -6   4   57.49   10.80
   1   6  -4  615.64   58.89
  -1  -6   4  589.64   51.09
  -1  -6   4  587.94   61.39
  -1  -6   4  601.44   51.39
  -1  -6   4  613.24   52.39
   0   6  -4   10.90   11.70
   0   6  -4    1.20    4.30
   0   6  -4    6.40    6.00
   0  -6   4   10.40    4.40
   0  -6   4    7.70   10.10
   0  -6   4   -2.10    5.40
  -1   6  -4  500.05   44.60
  -1   6  -4  500.15   45.80
  -1   6  -4  523.25   50.69
   1  -6   4  527.05   45.70
   1  -6   4  487.65   49.80
   1  -6   4  544.95   44.90
  -2   6  -4  136.79   20.90
  -2   6  -4  101.49   14.60
  -2   6  -4   76.09   12.10
   2  -6   4  121.29   15.00
   2  -6   4   90.49   13.30
  -3   6  -4   55.19   14.90
  -3   6  -4   27.40    8.30
  -3   6  -4   32.90    9.70
   3  -6   4   34.70    9.50
   3  -6   4   47.60   14.50
   3  -6   4   39.90    9.30
  -4   6  -4   52.49   18.30
   4  -6   4   99.59   14.80
   4  -6   4   91.59   14.90
  -5   6  -4  250.77   34.60
   5  -6   4  184.98   26.20
   5  -6   4  220.98   24.50
  -6   6  -4    4.00   16.60
   6  -6   4   -7.30    9.10
   6  -6   4   -1.60    8.40
  -7   6  -4  170.88   32.00
   7  -6   4  125.39   25.50
   7  -6   4   97.59   20.20
  -8   6  -4   45.60   26.40
   8  -6   4   21.70   15.80
   8  -6   4   38.70   15.90
   7   5  -4   71.49   16.70
  -7  -5   4   53.09   24.10
   6   5  -4   27.40   12.20
  -6  -5   4   60.59    9.60
  -6  -5   4   57.29   22.30
  -6  -5   4   37.50   10.00
   5   5  -4   -2.10    8.80
  -5  -5   4   12.10    7.10
  -5  -5   4   32.30   18.50
  -5  -5   4   33.50    8.40
  -5  -5   4   21.10    9.60
   4   5  -4   91.69   17.10
  -4  -5   4   94.19   12.50
  -4  -5   4   87.29   12.50
  -4  -5   4  107.19   22.50
  -4  -5   4   82.69   13.20
  -3  -5   4   60.09    9.90
  -3  -5   4   59.69    9.30
  -3  -5   4   31.40   16.00
  -3  -5   4   51.89   16.50
  -3  -5   4   39.80    8.70
  -3  -5   4   49.10    9.10
  -2  -5   4   69.09    9.90
  -2  -5   4   63.39   11.00
  -2  -5   4   78.89   18.90
  -2  -5   4   70.79   10.40
  -2  -5   4   85.49   10.10
   1   5  -4  105.39   19.10
   1   5  -4  115.59   13.30
  -1  -5   4   75.59   10.10
  -1  -5   4   71.09   15.80
  -1  -5   4   85.09   11.40
   0   5  -4 1265.07  104.59
   0   5  -4 1234.28  103.59
   0  -5   4 1286.07  104.49
   0  -5   4 1251.57  103.49
   0  -5   4 1241.18  107.99
  -1   5  -4   87.79   12.50
  -1   5  -4   76.59   10.70
   1  -5   4  113.39   12.10
   1  -5   4  101.29   14.30
   1  -5   4   78.09   16.30
  -2   5  -4  931.81   81.49
  -2   5  -4  928.81   81.99
  -2   5  -4 1058.99   86.39
   2  -5   4  982.60   85.49
   2  -5   4  957.30   82.09
   2  -5   4  997.60   81.89
  -3   5  -4   86.59   17.70
  -3   5  -4   69.39   11.80
   3  -5   4  104.09   14.20
   3  -5   4   90.89   13.50
   3  -5   4   90.49   18.10
  -4   5  -4   33.20    9.90
  -4   5  -4   18.60    7.90
  -4   5  -4   11.80   12.50
   4  -5   4   28.30   14.20
   4  -5   4   29.20    9.30
   4  -5   4   39.90    9.80
  -5   5  -4  248.78   33.80
   5  -5   4  251.27   30.10
   5  -5   4  257.27   26.60
  -6   5  -4    1.10   15.70
   6  -5   4   -3.00    9.00
   6  -5   4    9.10   11.40
  -7   5  -4   -7.30   18.30
   7  -5   4   -3.70   10.10
   7  -5   4    2.20   10.50
  -8   5  -4    4.20   23.20
   8  -5   4   18.10   14.10
   8  -5   4   -0.90   14.80
   7   4  -4   29.70   21.10
  -7  -4   4   87.29   26.10
   6   4  -4  178.48   24.00
  -6  -4   4  221.28   35.80
   5   4  -4   -1.50    8.30
  -5  -4   4   36.20   18.30
  -5  -4   4   12.80    5.70
  -5  -4   4   -5.70    6.80
  -5  -4   4    8.90    8.60
   4   4  -4  306.97   27.20
  -4  -4   4  283.97   36.10
  -4  -4   4  273.57   25.20
  -4  -4   4  251.37   25.40
  -4  -4   4  248.28   26.30
   3   4  -4  425.16   37.90
  -3  -4   4  357.56   44.90
  -3  -4   4  451.95   44.60
  -3  -4   4  410.66   37.80
  -3  -4   4  468.45   37.70
  -3  -4   4  435.96   37.70
  -2  -4   4  453.45   38.30
  -2  -4   4  413.76   43.80
  -2  -4   4  457.65   38.10
  -2  -4   4  443.16   38.70
  -2  -4   4  448.56   38.00
  -2  -4   4  396.36   44.30
   1   4  -4   32.70    7.10
   1   4  -4   45.90   14.10
  -1  -4   4   36.60    6.70
  -1  -4   4   31.20    5.40
  -1  -4   4   25.00    5.50
  -1  -4   4   34.10   11.90
   0   4  -4   84.39   15.80
   0   4  -4   59.59    9.40
   0   4  -4   50.49    7.50
   0  -4   4   71.79    8.10
   0  -4   4   60.39    9.20
   0  -4   4   47.90   12.50
  -1   4  -4  122.89   13.90
  -1   4  -4  100.99   17.50
  -1   4  -4  110.89   12.50
   1  -4   4  105.49   13.50
   1  -4   4  112.89   12.70
   1  -4   4  121.39   18.30
  -2   4  -4  421.06   37.10
  -2   4  -4  396.56   41.20
  -2   4  -4  421.36   37.40
   2  -4   4  435.46   37.20
   2  -4   4  429.06   37.80
   2  -4   4  402.96   40.50
  -3   4  -4  915.31   81.29
  -3   4  -4  918.01   81.49
   3  -4   4  996.20   81.49
   3  -4   4 1004.20   81.99
   3  -4   4 1001.30   84.59
  -4   4  -4   73.19   13.40
  -4   4  -4   85.29   18.20
   4  -4   4  127.39   16.20
   4  -4   4  136.59   16.00
   4  -4   4  121.79   20.00
  -5   4  -4  271.57   29.70
  -5   4  -4  339.07   36.60
   5  -4   4  276.87   35.50
   5  -4   4  309.17   31.20
   5  -4   4  293.47   29.20
  -6   4  -4    6.70   15.50
   6  -4   4    0.20   10.40
   6  -4   4    6.50    9.40
  -7   4  -4   43.20   22.00
   7  -4   4   29.80   12.00
   7  -4   4   36.50   13.20
  -8   4  -4   80.49   28.50
   8  -4   4   54.69   18.50
   8  -4   4   63.89   15.60
   8   3  -4  -11.00   12.50
  -8  -3   4   -4.60   23.30
   7   3  -4   -6.60   11.80
  -7  -3   4   16.50   20.80
   6   3  -4   -3.30    9.30
  -6  -3   4   -3.10   23.40
   5   3  -4  186.18   20.30
  -5  -3   4  196.58   29.60
  -5  -3   4  154.88   14.90
  -5  -3   4  129.29   14.90
  -5  -3   4  117.49   23.50
   4   3  -4    3.40    6.70
  -4  -3   4   -2.50   12.20
  -4  -3   4    4.90    6.10
  -4  -3   4    4.90    5.00
  -4  -3   4    7.30    5.20
  -4  -3   4   -1.10   13.40
   3   3  -4  863.11   70.59
  -3  -3   4  827.02   70.09
  -3  -3   4  861.21   75.99
  -3  -3   4  815.32   70.39
  -3  -3   4  891.51   69.99
  -3  -3   4  764.32   76.49
  -2  -3   4  562.24   46.30
  -2  -3   4  463.25   38.80
  -2  -3   4  418.56   39.00
  -2  -3   4  480.15   44.70
  -2  -3   4  419.36   40.70
   1   3  -4 1086.79   90.69
  -1  -3   4 1109.59   89.79
  -1  -3   4 1081.19   93.99
  -1  -3   4 1108.69   89.79
  -1  -3   4 1079.79   94.49
  -1  -3   4 1100.29   90.59
   0   3  -4 2002.60  162.08
   0   3  -4 1887.21  161.08
   0   3  -4 1957.40  165.08
   0  -3   4 1969.80  164.68
   0  -3   4 2016.70  162.08
   0  -3   4 2038.30  161.08
  -1   3  -4   13.50    5.60
  -1   3  -4   13.60    9.30
  -1   3  -4    8.80    4.50
   1  -3   4   35.80   10.00
   1  -3   4   23.70    6.30
   1  -3   4   17.70    5.00
  -2   3  -4 1175.58   95.59
  -2   3  -4 1108.29   98.29
  -2   3  -4 1144.99   95.69
   2  -3   4 1205.08   95.69
   2  -3   4 1136.59   95.69
   2  -3   4 1127.29   97.99
  -3   3  -4  229.78   26.60
   3  -3   4  223.78   26.10
  -4   3  -4    1.90    6.30
  -4   3  -4    6.00    6.20
   4  -3   4   15.30    7.40
   4  -3   4   -3.30    5.70
   4  -3   4   -2.10   10.10
  -5   3  -4  129.39   16.70
  -5   3  -4  114.39   21.00
   5  -3   4  114.09   16.10
   5  -3   4  116.79   18.20
  -6   3  -4  150.58   25.20
  -6   3  -4  124.59   17.60
   6  -3   4  129.09   17.70
   6  -3   4   88.39   18.10
  -7   3  -4   14.50   18.10
   7  -3   4    6.20   10.30
   7  -3   4    3.70    9.60
  -8   3  -4  154.58   32.20
   8  -3   4  103.89   21.70
   8  -3   4  106.69   18.20
   8   2  -4   42.00   16.30
  -8  -2   4   37.30   27.60
   7   2  -4    7.60   11.50
  -7  -2   4   16.10   20.30
   6   2  -4  125.99   19.00
  -6  -2   4  132.29   27.20
   5   2  -4   23.90   10.10
  -5  -2   4   47.20   17.80
  -5  -2   4   28.30   10.50
   4   2  -4   22.10   15.30
   4   2  -4   33.60    8.30
  -4  -2   4   19.30    4.20
  -4  -2   4   26.00   14.30
  -4  -2   4   17.80    4.70
  -4  -2   4    5.10    6.30
   3   2  -4  400.26   44.00
   3   2  -4  458.85   38.80
  -3  -2   4  431.86   37.60
  -3  -2   4  441.36   38.60
  -3  -2   4  464.45   44.50
  -3  -2   4  467.45   37.60
   2   2  -4  655.73   51.89
  -2  -2   4  598.24   56.19
  -2  -2   4  613.04   51.79
  -2  -2   4  609.04   51.89
  -2  -2   4  631.94   57.79
   1   2  -4   51.19    7.00
  -1  -2   4   38.30    5.00
  -1  -2   4   53.09   13.00
  -1  -2   4   42.20    6.50
  -1  -2   4   34.50   11.70
  -1  -2   4   49.50    5.40
   0   2  -4 1628.54  135.19
   0   2  -4 1587.64  131.49
   0  -2   4 1621.94  132.49
   0  -2   4 1628.24  131.49
   0  -2   4 1625.44  134.89
  -1   2  -4  689.63   58.19
  -1   2  -4  671.33   57.49
  -1   2  -4  692.23   60.69
   1  -2   4  693.73   61.19
   1  -2   4  692.53   57.59
   1  -2   4  717.03   58.29
  -2   2  -4   -9.80    7.50
  -2   2  -4    2.90    4.90
  -2   2  -4   -4.60    3.90
   2  -2   4    1.80    5.10
   2  -2   4  -12.60    6.90
   2  -2   4   -1.30    4.40
  -3   2  -4 1034.10   89.39
  -3   2  -4 1124.89   91.29
  -3   2  -4 1053.89   89.09
   3  -2   4 1084.19   89.69
   3  -2   4 1045.70   88.99
   3  -2   4 1067.69   90.89
  -4   2  -4  151.18   17.60
  -4   2  -4  149.99   20.60
   4  -2   4  126.69   20.20
   4  -2   4  187.68   21.20
  -5   2  -4  188.78   26.00
  -5   2  -4  192.88   21.80
   5  -2   4  201.38   26.90
   5  -2   4  211.18   21.60
   5  -2   4  183.38   23.70
  -6   2  -4  240.38   27.90
  -6   2  -4  309.67   36.20
   6  -2   4  292.07   36.00
   6  -2   4  265.57   29.80
   6  -2   4  250.17   27.50
  -7   2  -4   21.90   17.00
   7  -2   4   21.30   11.60
   7  -2   4   31.90   11.10
   8  -2   4   49.10   16.80
   8  -2   4   37.30   12.60
   8   1  -4   -2.20   14.20
  -8  -1   4    6.80   24.10
   7   1  -4   75.79   16.90
  -7  -1   4   66.69   25.60
   6   1  -4   31.20   11.90
  -6  -1   4   25.60   18.60
   5   1  -4  441.96   43.20
  -5  -1   4  491.65   45.20
  -5  -1   4  509.75   51.89
   4   1  -4   70.69   17.30
   4   1  -4   80.29   11.50
  -4  -1   4   64.69   17.40
  -4  -1   4   67.29   10.50
   3   1  -4  505.45   51.79
   3   1  -4  572.14   47.60
  -3  -1   4  561.04   45.90
  -3  -1   4  571.84   62.59
  -3  -1   4  557.64   46.00
  -3  -1   4  570.74   47.60
   2   1  -4  573.94   54.79
   2   1  -4  628.54   50.59
  -2  -1   4  591.64   54.99
  -2  -1   4  597.44   50.19
  -2  -1   4  625.24   50.49
   1   1  -4   73.29    8.70
  -1  -1   4   63.89   13.80
  -1  -1   4   83.89   13.80
  -1  -1   4   92.59    9.20
  -1  -1   4   79.79    7.50
   0   1  -4   58.29    6.40
   0   1  -4   76.59   13.40
   0   1  -4   71.19    8.40
   0  -1   4   71.49    8.70
   0  -1   4   66.19   12.10
   0  -1   4   58.69    7.00
  -1   1  -4  977.10   86.99
  -1   1  -4 1065.79   85.09
   1  -1   4 1046.80   85.09
   1  -1   4 1028.10   85.59
   1  -1   4 1055.49   86.99
  -2   1  -4   -9.30    4.40
  -2   1  -4    1.60    7.00
  -2   1  -4    6.20    4.50
   2  -1   4   -7.60    3.70
   2  -1   4    4.00    5.20
  -3   1  -4 1182.18  103.59
  -3   1  -4 1345.67  104.89
  -3   1  -4 1265.07  103.19
   3  -1   4 1133.69  104.19
   3  -1   4 1286.37  103.89
   3  -1   4 1266.47  103.29
  -4   1  -4  235.38   24.40
  -4   1  -4  245.78   26.70
  -4   1  -4  226.68   23.60
   4  -1   4  289.77   25.50
   4  -1   4  237.38   23.60
   4  -1   4  230.98   26.50
  -5   1  -4   79.79   12.80
  -5   1  -4   86.89   17.90
   5  -1   4   90.69   13.90
   5  -1   4  101.79   18.50
   5  -1   4   94.09   15.00
  -6   1  -4  221.48   31.20
  -6   1  -4  235.08   25.00
   6  -1   4  265.77   25.10
   6  -1   4  172.48   27.10
  -7   1  -4   57.99   15.40
  -7   1  -4   87.69   22.30
   7  -1   4   83.19   17.10
   7  -1   4   70.49   14.10
  -8   1  -4  -11.20   18.10
   8  -1   4   25.80   12.00
   8  -1   4    2.30   11.80
   8   0  -4    6.80   14.70
  -8   0   4   17.10   24.20
   7   0  -4   61.99   17.30
  -7   0   4   49.60   23.70
   6   0  -4    6.00    9.40
  -6   0   4   19.40   19.10
   5   0  -4   82.09   14.10
  -5   0   4   90.29   22.00
  -5   0   4  105.69   18.40
   4   0  -4  189.88   20.30
   4   0  -4  192.18   28.00
  -4   0   4  224.28   28.70
  -4   0   4  188.58   20.10
   3   0  -4   -0.40    4.40
   3   0  -4    7.00    8.90
  -3   0   4    2.70    3.70
  -3   0   4  -10.10    9.90
   2   0  -4  330.17   32.50
   2   0  -4  332.97   27.60
  -2   0   4  302.47   26.70
  -2   0   4  308.17   32.50
  -2   0   4  327.97   27.40
   1   0  -4    0.00    2.00
   1   0  -4    3.10    3.20
  -1   0   4    2.10    7.30
  -1   0   4   -1.20    1.90
   0   0  -4   55.59    6.40
   0   0  -4   74.99    8.40
   0   0   4   73.69    8.40
   0   0   4   65.99    6.40
   0   0   4   88.19   12.20
   0   0   4   74.29   12.50
  -1   0  -4   24.40    5.00
  -1   0  -4   29.30    7.90
  -1   0  -4   20.30    6.00
   1   0   4   27.30    5.40
   1   0   4   26.60    7.30
   1   0   4   33.10    6.20
  -2   0  -4   12.50    6.40
  -2   0  -4   10.00    5.80
  -2   0  -4   10.50    5.60
   2   0   4    4.60    5.60
   2   0   4    2.20    4.80
   2   0   4    4.50    5.10
  -3   0  -4   32.00    8.20
  -3   0  -4   14.70    6.30
  -3   0  -4   35.60    7.30
   3   0   4   33.50    7.80
   3   0   4   32.50    7.20
   3   0   4   31.00    8.70
  -4   0  -4  729.83   64.39
  -4   0  -4  704.83   63.19
  -4   0  -4  758.72   65.09
   4   0   4  803.22   63.59
   4   0   4  749.23   64.89
   4   0   4  728.33   64.59
  -5   0  -4   45.90    9.60
  -5   0  -4   34.40   12.00
  -5   0  -4   35.50   12.80
   5   0   4   59.19   10.50
   5   0   4   50.09   11.60
   5   0   4   38.70   12.70
  -6   0  -4  291.57   38.50
  -6   0  -4  480.65   43.00
   6   0   4  430.86   41.90
   6   0   4  314.77   37.50
   6   0   4  409.56   36.40
  -7   0  -4   97.09   16.40
  -7   0  -4  123.39   24.80
   7   0   4  131.99   24.30
   7   0   4  105.59   19.60
   7   0   4  116.49   17.00
  -8   0  -4   35.70   21.10
   8   0   4    2.90   13.00
   8   0   4   13.60   11.90
  -9   0  -4   41.40   27.30
   9   0   4   48.50   15.00
   9   0   4   50.29   18.90
   8  -1  -4   11.90   13.40
  -8   1   4   30.30   25.10
   7  -1  -4  138.89   28.80
  -7   1   4  157.28   32.50
   6  -1  -4   -4.80    8.60
  -6   1   4   34.10   19.10
   5  -1  -4   68.69   12.70
  -5   1   4   74.19   20.60
  -5   1   4   46.10   11.40
   4  -1  -4   78.39   12.00
  -4   1   4   66.99   10.70
  -4   1   4   67.49   17.30
   3  -1  -4  209.68   20.50
   3  -1  -4  211.58   25.60
  -3   1   4  207.48   20.20
  -3   1   4  236.08   27.00
   2  -1  -4  234.48   20.10
   2  -1  -4  217.78   24.70
  -2   1   4  219.38   19.90
  -2   1   4  204.58   25.60
   1  -1  -4 2141.69  171.78
   1  -1  -4 2070.79  174.28
   1  -1  -4 2222.68  171.68
  -1   1   4 2117.39  171.68
  -1   1   4 2069.79  171.68
  -1   1   4 2063.29  174.38
   0  -1  -4 1685.43  145.59
   0  -1  -4 1803.52  144.39
   0  -1  -4 1811.62  143.89
   0   1   4 1743.63  145.69
   0   1   4 1810.02  144.49
  -1  -1  -4 1833.52  144.79
  -1  -1  -4 1780.92  144.99
  -1  -1  -4 1803.72  145.19
   1   1   4 1771.42  144.69
   1   1   4 1806.02  144.99
   1   1   4 1659.73  144.89
  -2  -1  -4  420.26   35.50
  -2  -1  -4  373.16   35.10
  -2  -1  -4  455.15   37.00
   2   1   4  382.06   35.00
   2   1   4  420.86   35.60
   2   1   4  440.76   35.80
  -3  -1  -4  165.38   17.60
  -3  -1  -4  181.28   18.50
  -3  -1  -4  180.08   18.60
   3   1   4  177.08   18.00
   3   1   4  161.78   18.50
   3   1   4  199.28   18.80
  -4  -1  -4 1132.79   96.19
  -4  -1  -4 1172.68   97.39
  -4  -1  -4 1134.29   97.29
   4   1   4 1193.58   96.39
   4   1   4 1146.89   97.49
  -5  -1  -4   77.29   15.10
  -5  -1  -4   55.49   11.70
  -5  -1  -4   87.09   12.70
   5   1   4   62.29   14.00
   5   1   4   80.19   14.20
   5   1   4   87.89   16.40
  -6  -1  -4  460.15   47.50
  -6  -1  -4  388.96   39.80
   6   1   4  348.07   40.30
   6   1   4  391.76   36.40
   6   1   4  347.37   37.90
  -7  -1  -4   88.49   19.90
  -7  -1  -4   26.20   11.30
   7   1   4   40.90   12.40
   7   1   4   60.09   19.50
   7   1   4   48.00   15.20
  -8  -1  -4   -1.30   18.20
   8   1   4    8.10   14.00
   8   1   4    3.00   11.20
  -9  -1  -4   33.20   27.20
   9   1   4   10.60   16.80
   9   1   4   32.70   14.70
   8  -2  -4    8.70   13.60
  -8   2   4   20.50   25.30
   7  -2  -4    4.40   12.10
  -7   2   4   26.80   23.40
   6  -2  -4  185.28   24.00
  -6   2   4  213.78   33.60
   5  -2  -4   13.00    8.30
  -5   2   4    5.50    7.20
  -5   2   4   17.70   15.60
   4  -2  -4  434.96   45.10
   4  -2  -4  428.76   38.40
  -4   2   4  427.86   38.10
  -4   2   4  394.06   44.00
   3  -2  -4   42.60   12.70
   3  -2  -4   45.30    8.00
  -3   2   4   58.39    8.00
  -3   2   4   73.89   14.80
   2  -2  -4  286.27   23.60
   2  -2  -4  284.97   28.10
  -2   2   4  247.18   28.60
  -2   2   4  240.48   23.30
   1  -2  -4   38.50    4.80
   1  -2  -4   26.80    4.70
   1  -2  -4   37.80    9.90
  -1   2   4   23.90    4.60
  -1   2   4   56.09   10.60
  -1   2   4   37.60    5.10
   0  -2  -4 3289.77  276.77
   0  -2  -4 3404.86  276.87
   0  -2  -4 3518.35  277.07
   0  -2  -4 3476.45  277.97
   0   2   4 3339.47  277.97
   0   2   4 3460.45  277.07
  -1  -2  -4 1772.72  143.49
  -1  -2  -4 1831.42  143.49
   1   2   4 1773.32  143.49
   1   2   4 1719.13  142.99
   1   2   4 1702.13  142.79
   1   2   4 1751.12  143.39
  -2  -2  -4 2243.08  176.68
  -2  -2  -4 2100.69  175.28
  -2  -2  -4 2273.27  177.08
   2   2   4 2013.30  175.18
   2   2   4 2220.88  176.98
   2   2   4 2162.58  176.58
  -3  -2  -4  156.38   16.60
  -3  -2  -4  148.59   15.70
  -3  -2  -4  146.09   16.20
   3   2   4  140.59   15.50
   3   2   4  164.38   16.90
   3   2   4  151.78   16.50
  -4  -2  -4  285.27   29.30
  -4  -2  -4  293.47   28.30
  -4  -2  -4  328.87   29.30
   4   2   4  301.97   28.80
   4   2   4  317.47   29.80
   4   2   4  298.57   28.30
  -5  -2  -4   49.50   10.10
  -5  -2  -4   57.79   14.70
  -5  -2  -4   81.39   14.20
   5   2   4   53.79   12.80
   5   2   4   62.39   12.60
   5   2   4   49.00   11.80
  -6  -2  -4   21.60   13.50
  -6  -2  -4   -1.20   10.90
   6   2   4   -3.40    8.50
   6   2   4   27.40   10.50
   6   2   4   -7.10   13.00
  -7  -2  -4   73.29   14.60
  -7  -2  -4  156.58   24.90
   7   2   4  110.29   29.60
   7   2   4   81.59   18.20
   7   2   4   98.99   15.80
  -8  -2  -4  117.69   26.30
   8   2   4  159.58   20.00
   8   2   4   75.19   20.00
   8  -3  -4   20.90   15.00
  -8   3   4   10.10   23.80
   7  -3  -4   -6.50   10.70
  -7   3   4   24.40   21.80
   6  -3  -4   78.19   15.80
  -6   3   4   64.69   22.80
   5  -3  -4   28.30    9.70
  -5   3   4   -2.30   14.90
  -5   3   4   16.50    8.40
   4  -3  -4   42.20   16.10
   4  -3  -4   89.09   12.90
  -4   3   4   95.89   12.50
  -4   3   4   87.99   18.20
   3  -3  -4  292.77   28.90
  -3   3   4  343.37   29.10
   2  -3  -4   85.59   14.90
   2  -3  -4  103.49   11.60
   2  -3  -4   97.79    9.80
  -2   3   4  138.19   17.70
   1  -3  -4  611.14   47.40
   1  -3  -4  567.84   49.70
   1  -3  -4  553.54   46.90
  -1   3   4  534.95   47.00
  -1   3   4  541.05   49.90
  -1   3   4  576.54   47.20
   0  -3  -4   -1.00    4.20
   0  -3  -4    2.20    3.90
   0  -3  -4    4.30    6.00
   0   3   4   -4.40    3.00
   0   3   4   -2.50    4.50
   0   3   4   12.00    6.80
  -1  -3  -4   11.40    4.00
  -1  -3  -4   13.30    5.00
  -1  -3  -4    6.10    4.90
   1   3   4   10.40    4.40
   1   3   4    5.60    4.60
   1   3   4   20.50    6.10
  -2  -3  -4   77.09   10.40
  -2  -3  -4   83.69   10.80
   2   3   4   88.79   11.10
  -3  -3  -4  183.08   18.10
   3   3   4  145.89   17.70
  -4  -3  -4    9.30    7.00
  -4  -3  -4   -0.40    5.60
  -4  -3  -4    8.30    6.50
   4   3   4   17.00    7.50
   4   3   4   -0.90    6.10
   4   3   4    7.60    6.80
  -5  -3  -4  337.47   32.60
  -5  -3  -4  386.06   34.80
   5   3   4  341.37   34.90
   5   3   4  319.07   34.30
   5   3   4  360.56   33.30
  -6  -3  -4   16.80   12.60
  -6  -3  -4   35.00   12.70
   6   3   4   13.70   13.80
   6   3   4   -1.40    9.40
   6   3   4   23.00   10.00
  -7  -3  -4  263.47   32.20
  -7  -3  -4  170.98   24.20
   7   3   4  286.27   27.00
   7   3   4  207.28   28.50
   7   3   4  158.58   39.90
  -8  -3  -4  163.28   28.60
   8   3   4   75.59   21.80
   8   3   4  190.08   22.10
   8  -4  -4   30.20   15.70
  -8   4   4   38.10   27.00
   7  -4  -4   45.80   14.00
  -7   4   4    2.60   19.40
   6  -4  -4  100.19   16.90
  -6   4   4  133.69   28.10
   5  -4  -4    6.10    8.10
  -5   4   4   30.20   15.50
  -5   4   4    7.20    7.50
   4  -4  -4   -6.10   12.00
   4  -4  -4    4.00    3.10
   4  -4  -4    2.40    2.80
   4  -4  -4   -4.80    5.10
  -4   4   4    0.00    5.50
  -4   4   4   -3.80   12.00
   3  -4  -4  770.52   66.59
   3  -4  -4  803.82   64.59
   3  -4  -4  791.32   64.69
   3  -4  -4  715.43   69.79
  -3   4   4  838.52   71.29
  -3   4   4  786.02   66.59
   2  -4  -4  317.27   30.30
   2  -4  -4  292.47   25.90
   2  -4  -4  273.97   24.40
   2  -4  -4  274.07   24.50
  -2   4   4  313.07   30.60
  -2   4   4  263.57   25.50
   1  -4  -4  696.33   61.49
   1  -4  -4  682.73   57.79
   1  -4  -4  749.03   58.29
  -1   4   4  671.23   57.79
  -1   4   4  672.33   60.49
  -1   4   4  699.33   58.09
   0  -4  -4 2947.41  237.88
   0  -4  -4 2872.11  238.68
   0  -4  -4 2905.81  238.08
   0   4   4 2930.61  237.98
   0   4   4 2970.40  238.78
   0   4   4 2924.01  237.98
  -1  -4  -4   14.90    6.30
  -1  -4  -4    5.00    5.30
  -1  -4  -4    3.20    4.90
   1   4   4   10.20    4.70
   1   4   4    3.60    5.80
   1   4   4   11.40    5.20
  -2  -4  -4  418.76   32.70
  -2  -4  -4  378.46   32.70
  -2  -4  -4  297.77   30.40
   2   4   4  369.86   32.90
   2   4   4  443.36   33.00
  -3  -4  -4  458.45   41.60
  -3  -4  -4  473.45   43.30
  -3  -4  -4  505.85   42.90
  -3  -4  -4  524.05   42.10
   3   4   4  492.65   42.80
   3   4   4  491.55   43.50
  -4  -4  -4   -4.70    5.80
  -4  -4  -4  -10.50   10.80
  -4  -4  -4    4.60    6.20
   4   4   4    7.00    7.00
   4   4   4   -0.60    6.60
  -5  -4  -4  575.34   46.70
  -5  -4  -4  473.75   45.10
   5   4   4  441.26   46.60
   5   4   4  523.15   45.60
  -6  -4  -4  160.48   22.20
  -6  -4  -4  133.19   18.80
   6   4   4  136.89   22.60
   6   4   4  159.48   19.70
   6   4   4  143.69   21.70
  -7  -4  -4   48.80   16.30
  -7  -4  -4   56.89   17.80
   7   4   4   43.40   15.30
   7   4   4   58.09   13.70
  -8  -4  -4  101.59   25.10
   8   4   4  101.39   17.50
   8   4   4   94.69   19.70
   8  -5  -4   29.00   16.20
  -8   5   4    9.50   25.80
   7  -5  -4   11.10   12.30
  -7   5   4   -3.90   22.00
   6  -5  -4  244.68   29.20
   5  -5  -4  166.58   15.10
   5  -5  -4  155.28   15.20
   5  -5  -4  135.09   19.60
  -5   5   4  139.79   27.30
   4  -5  -4   89.59   13.40
   4  -5  -4   82.09    9.50
   4  -5  -4   84.49    9.60
   4  -5  -4   74.79   17.90
  -4   5   4   70.99   13.60
  -4   5   4   92.39   19.90
   3  -5  -4  658.83   56.49
   3  -5  -4  708.83   58.69
   3  -5  -4  629.24   61.79
   3  -5  -4  704.33   56.49
  -3   5   4  664.33   58.19
  -3   5   4  696.03   62.69
   2  -5  -4  114.79   11.20
   2  -5  -4   88.09   16.00
   2  -5  -4   83.89   10.50
   2  -5  -4   77.79   11.60
  -2   5   4   90.19   11.70
  -2   5   4  111.09   17.30
   1  -5  -4  108.99   16.10
   1  -5  -4   99.39   12.00
   1  -5  -4   86.29   12.70
  -1   5   4  124.09   17.00
  -1   5   4  112.59   12.00
  -1   5   4   83.39   11.50
   0  -5  -4  839.02   71.39
   0  -5  -4  870.21   70.49
   0  -5  -4  821.72   70.19
   0   5   4  849.72   70.39
   0   5   4  806.42   70.29
   0   5   4  870.71   71.59
  -1  -5  -4  327.37   29.70
  -1  -5  -4  333.97   29.40
  -1  -5  -4  322.67   29.50
  -1  -5  -4  342.87   29.80
   1   5   4  319.77   29.60
   1   5   4  330.97   29.90
  -2  -5  -4  139.19   15.40
  -2  -5  -4  160.28   17.20
  -2  -5  -4  153.08   16.90
   2   5   4  205.68   17.80
   2   5   4  166.68   18.00
  -3  -5  -4  669.63   54.49
  -3  -5  -4  600.64   55.69
  -3  -5  -4  691.93   55.49
  -3  -5  -4  612.64   54.29
   3   5   4  679.53   57.09
   3   5   4  613.44   55.19
  -4  -5  -4   11.70    7.00
  -4  -5  -4    9.40    6.70
  -4  -5  -4    7.20    8.20
  -4  -5  -4    8.90    7.30
   4   5   4   16.10    8.40
   4   5   4   13.20    7.60
  -5  -5  -4   78.29   16.20
  -5  -5  -4   76.29   14.70
  -5  -5  -4   95.79   14.70
   5   5   4   70.99   14.50
   5   5   4  109.89   14.70
  -6  -5  -4  134.59   23.90
  -6  -5  -4  239.68   25.80
  -6  -5  -4  155.48   21.70
   6   5   4  187.48   24.50
   6   5   4  203.88   22.80
  -7  -5  -4   -0.90   17.30
  -7  -5  -4    9.00   13.90
   7   5   4    6.80   11.90
   7   5   4   16.70   10.50
  -8  -5  -4   68.39   22.00
   8   5   4   33.90   15.90
   8   5   4   46.90   14.00
   8  -6  -4   15.40   15.10
   7  -6  -4   41.70   14.50
  -7   6   4   84.09   28.70
   6  -6  -4   20.90    6.40
   6  -6  -4   23.30    6.20
   6  -6  -4   31.90   13.50
  -6   6   4   -3.70   16.80
   5  -6  -4  532.85   45.30
   5  -6  -4  566.84   49.60
   5  -6  -4  456.95   47.60
  -5   6   4  633.14   57.79
   4  -6  -4   61.29   11.30
   4  -6  -4   49.20    7.80
   4  -6  -4   51.59    7.80
  -4   6   4   50.79   16.80
  -4   6   4   22.80    8.70
   3  -6  -4  472.45   38.60
   3  -6  -4  442.06   38.50
   3  -6  -4  446.06   40.30
  -3   6   4  426.46   39.90
  -3   6   4  432.66   44.70
   2  -6  -4  760.72   61.69
   2  -6  -4  734.03   61.69
   2  -6  -4  721.53   65.59
   2  -6  -4  726.03   62.59
  -2   6   4  724.23   65.99
  -2   6   4  732.53   62.49
   1  -6  -4  124.09   18.50
   1  -6  -4  137.29   14.60
   1  -6  -4  114.99   14.10
  -1   6   4  141.99   20.30
  -1   6   4  102.69   13.70
  -1   6   4  117.79   14.20
   0  -6  -4  536.85   46.90
   0  -6  -4  519.05   44.30
   0  -6  -4  505.05   44.30
   0   6   4  493.65   44.30
   0   6   4  528.95   45.90
   0   6   4  494.15   44.10
  -1  -6  -4  266.37   22.90
  -1  -6  -4  239.18   22.30
  -1  -6  -4  223.58   22.10
  -1  -6  -4  202.38   22.10
   1   6   4  235.58   22.80
   1   6   4  205.38   22.10
  -2  -6  -4   18.50    6.40
  -2  -6  -4   25.10    6.50
  -2  -6  -4   40.10    7.90
   2   6   4   34.90    8.40
  -3  -6  -4  205.08   20.90
  -3  -6  -4  196.58   20.40
  -3  -6  -4  191.18   21.00
  -3  -6  -4  202.18   20.70
   3   6   4  194.38   21.40
  -4  -6  -4  248.18   25.10
  -4  -6  -4  254.77   24.80
  -4  -6  -4  208.88   24.90
  -4  -6  -4  215.78   25.30
   4   6   4  243.68   25.90
   4   6   4  262.37   25.30
  -5  -6  -4    9.80   11.70
  -5  -6  -4   -1.50    8.30
  -5  -6  -4    0.00    8.00
   5   6   4   -2.40    8.80
   5   6   4   16.70    9.20
  -6  -6  -4  209.88   25.90
  -6  -6  -4  120.59   24.50
  -6  -6  -4  205.98   28.70
   6   6   4  260.17   25.20
   6   6   4  207.38   34.00
  -7  -6  -4    2.10   13.30
  -7  -6  -4  -21.00   17.00
   7   6   4    5.00   10.40
   7   6   4   -0.40   11.20
  -8  -6  -4   14.80   18.40
   8   6   4   31.60   13.30
   8   6   4   -3.70   12.80
   8  -7  -4   67.79   24.20
  -8   7   4  105.39   34.40
   7  -7  -4   62.49   15.90
  -7   7   4   51.99   26.30
   6  -7  -4   23.40   11.10
   6  -7  -4    7.80    6.80
   6  -7  -4    2.30    6.40
  -6   7   4   -4.70   17.50
   5  -7  -4  104.49   13.50
   5  -7  -4  101.09   17.20
   5  -7  -4  140.39   14.40
  -5   7   4  107.69   25.70
   4  -7  -4  335.37   30.20
   4  -7  -4  332.97   32.70
   4  -7  -4  329.57   30.10
  -4   7   4  321.57   39.60
   3  -7  -4   -3.50    9.70
   3  -7  -4    6.80    5.50
   3  -7  -4    7.40    5.90
   3  -7  -4   -2.20    4.70
  -3   7   4    8.50    6.30
  -3   7   4   -6.70   10.30
   2  -7  -4  665.13   56.89
   2  -7  -4  659.43   55.99
   2  -7  -4  684.93   55.99
   2  -7  -4  636.44   59.79
  -2   7   4  685.03   60.99
  -2   7   4  617.24   56.49
   1  -7  -4  534.45   45.00
   1  -7  -4  524.55   44.70
   1  -7  -4  471.75   47.20
  -1   7   4  512.55   44.80
  -1   7   4  516.55   47.90
   0  -7  -4  394.86   37.70
   0  -7  -4  414.46   36.20
   0  -7  -4  403.36   36.10
   0   7   4  396.66   36.20
   0   7   4  399.96   38.10
   0   7   4  413.06   36.10
  -1  -7  -4 2379.86  197.58
  -1  -7  -4 2351.06  195.98
  -1  -7  -4 2441.76  196.48
  -1  -7  -4 2420.96  196.28
   1   7   4 2451.85  196.88
   1   7   4 2295.27  195.98
  -2  -7  -4  410.46   37.40
  -2  -7  -4  424.36   37.90
  -2  -7  -4  405.06   37.20
  -2  -7  -4  434.06   38.10
   2   7   4  402.46   38.10
   2   7   4  411.66   39.50
  -3  -7  -4  957.50   79.89
  -3  -7  -4  939.71   79.79
  -3  -7  -4 1022.50   83.69
  -3  -7  -4  917.71   79.59
   3   7   4  921.21   79.89
   3   7   4  917.71   80.39
  -4  -7  -4  516.05   51.69
  -4  -7  -4  506.75   48.40
  -4  -7  -4  545.45   48.10
  -4  -7  -4  540.85   47.80
   4   7   4  563.34   48.20
   4   7   4  524.25   48.90
  -5  -7  -4  -12.70   10.10
  -5  -7  -4   -1.50    7.80
  -5  -7  -4   -4.60    9.50
   5   7   4   11.60    9.40
   5   7   4   18.60    9.80
  -6  -7  -4   50.39   17.20
  -6  -7  -4   93.99   19.20
   6   7   4  109.39   16.80
   6   7   4  108.49   18.50
  -7  -7  -4   54.79   17.10
  -7  -7  -4    9.70   19.80
   7   7   4   43.40   15.60
   7   7   4   49.50   13.50
  -8  -7  -4   14.60   18.30
   8   7   4  -13.00   11.30
   7  -8  -4   82.49   12.60
   7  -8  -4   95.39   19.80
  -7   8   4  104.09   31.30
   6  -8  -4   39.90   12.90
   6  -8  -4   29.80    8.60
   6  -8  -4   38.80    9.30
  -6   8   4   33.90   20.40
   5  -8  -4  338.87   34.00
   5  -8  -4  373.96   37.00
  -5   8   4  443.36   50.39
   4  -8  -4   27.40    8.10
   4  -8  -4   27.80    9.70
   4  -8  -4   33.90    8.50
  -4   8   4   23.90   16.60
   3  -8  -4    8.60    5.70
   3  -8  -4   15.20    6.40
   3  -8  -4   21.80    8.00
   3  -8  -4   20.70   12.50
  -3   8   4    3.70   11.80
  -3   8   4   -1.10    5.30
   2  -8  -4  352.16   33.80
   2  -8  -4  366.06   34.70
   2  -8  -4  422.46   41.30
   2  -8  -4  400.56   34.10
  -2   8   4  316.17   41.30
  -2   8   4  377.96   39.50
   1  -8  -4  567.44   48.70
   1  -8  -4  549.45   51.49
   1  -8  -4  528.85   49.10
   1  -8  -4  513.65   48.20
  -1   8   4  531.65   48.50
  -1   8   4  727.13   58.19
   0  -8  -4   44.40    9.50
   0  -8  -4   72.39   13.90
   0  -8  -4   80.89   12.00
   0   8   4   75.49   14.20
   0   8   4   53.09   11.00
   0   8   4   51.19    9.40
  -1  -8  -4 2551.74  211.58
  -1  -8  -4 2589.54  211.08
  -1  -8  -4 2573.54  210.88
  -1  -8  -4 2618.94  210.68
   1   8   4 2568.54  210.78
   1   8   4 2495.05  211.58
  -2  -8  -4  339.37   31.70
  -2  -8  -4  349.57   32.50
  -2  -8  -4  340.47   32.30
  -2  -8  -4  338.17   32.20
   2   8   4  318.67   31.90
   2   8   4  313.37   32.90
  -3  -8  -4   14.30    8.40
  -3  -8  -4   20.10    9.00
  -3  -8  -4   11.50    7.40
  -3  -8  -4   46.40   11.90
   3   8   4   15.90    8.40
  -4  -8  -4  269.77   29.20
  -4  -8  -4  293.07   30.70
  -4  -8  -4  264.27   30.30
   4   8   4  263.87   30.00
   4   8   4  325.47   29.60
  -5  -8  -4  107.19   19.60
  -5  -8  -4  141.19   20.40
   5   8   4  162.98   20.30
   5   8   4  145.79   21.30
  -6  -8  -4   22.50   17.70
  -6  -8  -4    8.30   15.00
   6   8   4   22.70   10.70
   6   8   4   -4.70   10.40
  -7  -8  -4  156.88   25.30
   7   8   4  128.09   22.90
   7   8   4  153.88   21.90
  -8  -8  -4   43.50   25.30
   8   8   4   22.50   14.80
   8   8   4   -2.70   15.40
   7  -9  -4   54.89   16.90
   7  -9  -4   72.79   18.90
  -7   9   4  121.59   33.60
   6  -9  -4  190.68   27.20
   6  -9  -4  203.08   22.80
   6  -9  -4  219.48   26.30
  -6   9   4  254.67   39.10
   5  -9  -4   11.70    7.80
   5  -9  -4   20.00   11.60
  -5   9   4   29.40   20.10
   4  -9  -4  655.13   55.89
   4  -9  -4  642.24   55.69
   4  -9  -4  602.04   57.59
  -4   9   4  656.03   64.59
   3  -9  -4  308.57   30.60
   3  -9  -4  321.77   31.90
   3  -9  -4  355.56   31.00
  -3   9   4  297.27   37.90
   2  -9  -4  608.94   52.39
   2  -9  -4  595.44   53.09
   2  -9  -4  562.74   56.59
   2  -9  -4  626.74   52.29
  -2   9   4  569.34   52.69
  -2   9   4  625.74   57.79
   1  -9  -4  529.65   48.90
   1  -9  -4  553.64   52.69
   1  -9  -4  574.04   49.60
   1  -9  -4  568.04   49.40
  -1   9   4  589.94   53.49
  -1   9   4  552.84   49.50
   0  -9  -4  479.85   43.60
   0  -9  -4  467.35   43.70
   0  -9  -4  444.56   41.30
   0   9   4  430.56   41.40
   0   9   4  478.15   45.60
  -1  -9  -4  367.86   36.00
  -1  -9  -4  414.16   35.30
  -1  -9  -4  341.77   34.50
  -1  -9  -4  365.76   35.40
   1   9   4  361.26   36.80
   1   9   4  378.36   35.10
  -2  -9  -4  800.62   66.09
  -2  -9  -4  737.23   65.09
  -2  -9  -4  738.53   65.99
  -2  -9  -4  737.53   65.59
   2   9   4  754.32   65.39
   2   9   4  740.53   66.79
  -3  -9  -4  121.49   17.20
  -3  -9  -4  146.09   19.70
  -3  -9  -4  129.39   19.00
   3   9   4  118.29   17.70
  -4  -9  -4  253.47   29.70
  -4  -9  -4  269.67   30.20
   4   9   4  283.57   28.90
   4   9   4  254.17   29.30
  -5  -9  -4  209.28   28.20
  -5  -9  -4  177.68   32.70
   5   9   4  266.57   27.60
   5   9   4  274.07   31.00
  -6  -9  -4   -7.70   15.10
  -6  -9  -4    4.80   13.30
   6   9   4   13.70   11.70
   6   9   4   -7.90   10.60
  -7  -9  -4   97.09   21.30
   7   9   4   97.19   19.90
   7   9   4   69.69   19.70
   7 -10  -4   46.50   11.90
  -7  10   4   33.90   26.70
   6 -10  -4   56.29   13.10
   6 -10  -4   68.79   17.30
   6 -10  -4   86.79   14.00
  -6  10   4   57.69   23.80
   5 -10  -4   55.49   14.10
   5 -10  -4   37.10   10.90
   5 -10  -4   52.09   11.00
  -5  10   4   53.79   21.90
   4 -10  -4  134.19   20.30
   4 -10  -4  113.09   17.20
   4 -10  -4  176.88   19.30
  -4  10   4  138.39   27.50
   3 -10  -4  819.32   70.19
   3 -10  -4  813.52   71.29
   3 -10  -4  863.91   70.19
  -3  10   4  723.33   75.49
   2 -10  -4   77.39   13.00
   2 -10  -4   46.40   11.10
   2 -10  -4   66.49   11.90
  -2  10   4   57.69   18.10
   1 -10  -4  770.92   69.49
   1 -10  -4  796.12   73.39
   1 -10  -4  821.12   70.19
   1 -10  -4  802.32   69.79
  -1  10   4  808.02   69.99
  -1  10   4  867.31   74.09
   0 -10  -4  269.27   26.80
   0 -10  -4  177.18   22.50
   0 -10  -4  240.68   30.20
   0 -10  -4  250.27   26.30
   0  10   4  226.38   29.40
   0  10   4  193.68   24.20
  -1 -10  -4   88.89   14.40
  -1 -10  -4   68.09   12.60
  -1 -10  -4   58.99   14.30
  -1 -10  -4   80.99   13.60
   1  10   4   91.29   14.20
   1  10   4   47.10   15.80
  -2 -10  -4  426.36   40.10
  -2 -10  -4  403.06   40.50
   2  10   4  429.76   39.90
   2  10   4  407.26   41.90
  -3 -10  -4   88.19   17.10
  -3 -10  -4   86.79   16.30
   3  10   4  129.39   17.30
  -4 -10  -4  122.29   27.30
  -4 -10  -4   87.39   17.10
  -4 -10  -4   52.39   15.50
   4  10   4   76.29   15.40
  -5 -10  -4  139.39   26.20
  -5 -10  -4  228.88   28.90
   5  10   4  315.17   28.40
  -6 -10  -4   53.29   17.90
   6  10   4   64.29   23.30
   6  10   4   73.19   16.90
  -7 -10  -4   63.59   19.60
   7  10   4   25.60   16.20
   7  10   4   52.99   16.00
   7 -11  -4   -9.30   10.70
   7 -11  -4    6.20   10.60
  -7  11   4   20.90   24.20
   6 -11  -4  193.48   22.80
   6 -11  -4  170.38   26.60
  -6  11   4  167.98   34.00
   5 -11  -4   61.49   12.60
   5 -11  -4   39.50   13.80
  -5  11   4   47.80   20.10
   4 -11  -4   93.69   17.80
   4 -11  -4  139.19   18.30
  -4  11   4  109.59   24.60
   3 -11  -4  369.36   37.40
   3 -11  -4  395.16   36.50
  -3  11   4  377.86   44.60
   2 -11  -4   57.39   11.40
   2 -11  -4   63.59   12.30
  -2  11   4   50.39   17.60
   1 -11  -4   91.99   14.50
   1 -11  -4   69.49   13.20
  -1  11   4   89.19   19.70
   0 -11  -4  770.52   64.39
   0 -11  -4  708.03   67.19
   0 -11  -4  706.03   63.99
   0  11   4  734.13   67.79
  -1 -11  -4   32.90   10.50
  -1 -11  -4   54.89   11.60
   1  11   4   53.09   16.70
  -2 -11  -4  665.73   66.39
  -2 -11  -4  748.73   65.79
   2  11   4  737.23   67.99
   2  11   4  798.12   65.79
  -3 -11  -4  328.07   36.10
  -3 -11  -4  356.26   35.30
   3  11   4  347.27   34.60
   3  11   4  296.77   37.70
  -4 -11  -4   59.19   16.80
  -4 -11  -4   38.20   16.10
   4  11   4   37.30   13.10
  -5 -11  -4  181.48   27.10
  -5 -11  -4  165.98   28.70
  -5 -11  -4  187.68   27.30
   5  11   4  197.18   26.60
  -6 -11  -4   57.59   18.40
  -6 -11  -4   66.99   19.90
   6  11   4  100.59   19.70
  -7 -11  -4    7.50   18.50
   6 -12  -4   47.90   16.10
   6 -12  -4   55.39   14.30
   5 -12  -4  162.08   26.30
   5 -12  -4  199.08   24.50
  -5  12   4  249.18   39.40
   4 -12  -4   -7.70    7.40
   4 -12  -4   -3.20    8.20
  -4  12   4    4.70   15.80
   3 -12  -4   90.39   14.10
   3 -12  -4   65.49   13.60
   2 -12  -4  352.86   33.20
   2 -12  -4  321.57   33.20
  -2  12   4  305.07   39.20
   1 -12  -4    0.20    7.00
   1 -12  -4   11.70    7.60
  -1  12   4   -3.20   13.10
   0 -12  -4   11.50    7.90
   0 -12  -4    4.10    7.30
   0  12   4   10.10   12.80
  -1 -12  -4  804.92   67.69
  -1 -12  -4  751.22   67.59
  -1 -12  -4  672.23   69.49
   1  12   4  830.62   71.79
  -2 -12  -4   53.19   12.80
  -2 -12  -4   38.70   14.30
  -2 -12  -4   63.09   13.40
   2  12   4   37.60   16.70
  -3 -12  -4  836.72   75.09
  -3 -12  -4  776.92   73.69
   3  12   4  802.02   74.69
  -4 -12  -4   81.29   20.40
  -4 -12  -4   25.60   15.40
  -4 -12  -4   57.89   15.30
   4  12   4   80.49   16.30
  -5 -12  -4  216.48   30.10
  -5 -12  -4  276.07   32.50
  -5 -12  -4  116.49   29.50
  -6 -12  -4   85.99   20.40
  -6 -12  -4   97.19   24.10
   6 -13  -4   26.00   12.80
   6 -13  -4   20.10   14.30
  -6  13   4    8.60   22.20
   5 -13  -4   80.29   18.50
   5 -13  -4   89.59   17.30
  -5  13   4   72.49   25.50
   4 -13  -4   36.50   13.40
   4 -13  -4   44.10   20.30
  -4  13   4   33.10   19.40
   3 -13  -4   39.40   11.60
   3 -13  -4    4.90    7.90
  -3  13   4   32.60   15.90
   2 -13  -4  421.66   39.40
   2 -13  -4  377.26   39.30
   1 -13  -4   11.10   13.10
   1 -13  -4   19.90    9.60
  -1  13   4   42.80   16.60
   0 -13  -4  372.66   38.00
   0 -13  -4  396.96   38.30
   0  13   4  391.56   44.30
  -1 -13  -4    6.50    8.70
   1  13   4   39.30   15.90
  -2 -13  -4  115.99   22.20
  -2 -13  -4   86.59   17.60
   2  13   4  107.99   22.70
  -3 -13  -4   40.60   12.80
  -3 -13  -4   29.30   12.00
   3  13   4    9.70   15.80
  -4 -13  -4   79.49   17.40
  -4 -13  -4   51.29   20.20
  -4 -13  -4   63.59   16.20
  -5 -13  -4   17.00   17.50
  -5 -13  -4    2.10   12.70
  -5 -13  -4    4.80   12.90
  -6 -13  -4   74.99   19.60
  -6 -13  -4   54.99   33.00
  -6 -13  -4   75.89   23.30
   5 -14  -4   40.10   18.20
   5 -14  -4   80.49   16.50
  -5  14   4   33.30   25.60
   4 -14  -4   38.90   14.00
   4 -14  -4   17.50   11.40
  -4  14   4   27.60   18.70
   3 -14  -4   14.00    9.80
   3 -14  -4   12.00    8.90
  -3  14   4   17.30   17.50
   2 -14  -4  293.37   34.20
   2 -14  -4  253.87   30.80
  -2  14   4  358.36   46.50
   1 -14  -4  102.09   17.00
   1 -14  -4   80.19   16.40
   0 -14  -4  119.09   19.50
   0 -14  -4  175.98   22.70
   0  14   4  131.39   27.20
  -1 -14  -4  289.47   31.60
  -1 -14  -4  291.27   31.80
   1  14   4  282.17   39.50
  -2 -14  -4   -0.60    7.70
  -2 -14  -4   -4.10    8.90
   2  14   4    2.30   15.20
  -3 -14  -4  103.79   18.10
  -3 -14  -4  108.69   19.90
   3  14   4   66.09   21.90
  -4 -14  -4   69.79   22.30
  -4 -14  -4   56.19   15.90
  -4 -14  -4   61.39   16.70
  -5 -14  -4   -8.40   17.90
  -5 -14  -4   -1.80   12.40
  -5 -14  -4   -3.60   13.70
   5 -15  -4   39.60   16.00
   5 -15  -4   36.50   14.40
  -5  15   4   41.30   24.00
   4 -15  -4   75.89   17.90
  -4  15   4  112.79   33.10
   3 -15  -4    5.20    8.60
   3 -15  -4   -1.60    9.00
  -3  15   4  -19.10   14.90
   2 -15  -4   89.59   17.60
   2 -15  -4  103.19   18.60
  -2  15   4  110.19   28.10
   1 -15  -4  144.29   21.20
   1 -15  -4  111.79   19.50
  -1  15   4   94.59   27.70
   0 -15  -4   12.60    9.50
   0 -15  -4   26.40   11.60
   0  15   4   21.80   19.20
  -1 -15  -4   82.99   16.70
  -1 -15  -4   80.99   16.00
   1  15   4   81.29   36.60
  -2 -15  -4  136.89   22.40
  -2 -15  -4  153.38   22.90
   2  15   4  168.28   50.19
  -3 -15  -4   23.50   14.10
  -3 -15  -4   25.50   12.00
   3  15   4   12.80   23.20
  -4 -15  -4  119.59   21.70
  -4 -15  -4  132.79   23.40
  -4 -15  -4  140.09   32.00
   4 -16  -4  222.98   33.90
   4 -16  -4  285.97   34.40
  -4  16   4  242.28   44.30
   3 -16  -4   15.50   12.40
  -3  16   4   16.40   20.50
   2 -16  -4   44.60   14.10
   2 -16  -4   50.29   14.00
  -2  16   4   25.40   21.40
   1 -16  -4  277.97   35.60
   1 -16  -4  308.87   36.80
  -1  16   4  378.86   51.09
   0 -16  -4   -2.10    9.10
   0 -16  -4    4.30    9.40
   0  16   4    8.20   18.70
  -1 -16  -4   19.80   11.30
  -1 -16  -4   10.50   10.60
   1  16   4   12.90   18.50
  -2 -16  -4   45.20   14.60
  -2 -16  -4   66.59   16.70
   2  16   4   46.30   23.80
  -3 -16  -4    5.90   12.40
  -4 -16  -4   35.50   16.70
  -4 -16  -4   65.99   19.30
  -4 -16  -4   37.10   24.20
   3 -17  -4  133.39   23.00
   3 -17  -4   92.79   21.00
  -3  17   4  149.79   35.80
   2 -17  -4   12.10   10.30
   2 -17  -4   21.50   20.90
  -1  17   4  146.19   34.50
   0 -17  -4   90.29   19.00
   0  17   4  102.49   29.30
  -1 -17  -4   31.30   13.70
  -1 -17  -4    6.70   11.60
   1  17   4   46.20   24.10
  -2 -17  -4   72.59   18.30
  -2 -17  -4   71.99   20.70
   2  17   4  110.89   30.30
   0 -18  -4  163.88   24.90
   0 -18  -4  153.88   26.70
   1  14  -5   11.20   25.20
  -1 -14   5   51.79   13.30
  -1 -14   5   18.20   13.80
   0  14  -5  219.38   42.70
   0 -14   5  195.48   23.30
   0 -14   5  118.19   23.20
  -1  14  -5   -7.20   22.40
   1 -14   5    9.30   10.50
   1 -14   5  -13.80   10.80
  -2  14  -5   24.50   23.10
   2 -14   5   19.00   12.10
   2 -14   5   35.10   14.60
  -3  14  -5    9.60   24.40
   3 -14   5   19.60   12.80
   3 -14   5   23.40   14.10
  -3 -13   5   39.10   31.40
  -3 -13   5   25.00   14.30
  -3 -13   5   13.10   10.40
  -2 -13   5  185.18   63.09
  -2 -13   5  186.38   25.10
  -2 -13   5  134.19   20.40
   1  13  -5   34.50   24.20
  -1 -13   5    4.00   10.00
  -1 -13   5    0.70   11.80
   0  13  -5  211.08   40.60
   0 -13   5  166.58   24.80
   0 -13   5  189.68   23.60
  -1  13  -5  153.98   35.00
   1 -13   5   95.09   19.60
   1 -13   5  147.99   20.70
  -2  13  -5   77.09   29.10
   2 -13   5   67.99   15.50
   2 -13   5   69.49   17.00
   3 -13   5  117.79   21.20
  -4  13  -5  -13.60   19.10
   4 -13   5    6.90   12.60
   4 -13   5   11.30   11.50
  -4 -12   5   25.10   26.70
  -4 -12   5   -3.90    9.60
  -4 -12   5    9.60   12.10
  -3 -12   5   34.10   26.60
  -3 -12   5   25.70   10.40
  -3 -12   5   37.70   14.10
  -2 -12   5  117.89   20.50
  -2 -12   5  120.39   17.20
  -2 -12   5  135.09   36.10
   1  12  -5   18.60   22.80
  -1 -12   5   23.20   11.50
  -1 -12   5    2.20    7.10
   0  12  -5   -2.90   19.10
   0 -12   5   17.40    8.90
   0 -12   5   14.70   10.80
  -1  12  -5  120.29   29.30
   1 -12   5  108.79   17.30
   1 -12   5  116.79   19.50
  -2  12  -5   28.20   21.70
   2 -12   5   21.00   12.00
   2 -12   5   15.80   10.20
  -3  12  -5   69.29   25.30
   3 -12   5   56.39   15.50
   3 -12   5   38.90   13.10
  -4  12  -5  137.89   34.30
   4 -12   5  130.49   22.80
   4 -12   5  162.98   24.20
  -5  12  -5   38.30   26.20
   5 -12   5   20.70   22.50
  -4 -11   5  122.89   19.10
  -4 -11   5  134.39   21.30
  -4 -11   5  125.59   33.80
  -3 -11   5   11.60    9.90
  -3 -11   5    9.00   22.40
  -3 -11   5    0.40    7.80
  -2 -11   5  543.75   60.79
  -2 -11   5  369.76   40.40
  -2 -11   5  387.26   37.80
   1  11  -5   84.29   26.70
  -1 -11   5   84.39   13.30
  -1 -11   5   79.89   16.00
   0  11  -5   88.09   26.50
   0 -11   5   78.69   15.70
   0 -11   5   89.19   14.30
  -1  11  -5   86.39   25.70
   1 -11   5  106.39   18.40
   1 -11   5  124.69   17.10
  -2  11  -5    6.40   17.70
   2 -11   5   12.70    8.60
   2 -11   5   26.80   11.90
  -3  11  -5   40.20   19.70
   3 -11   5   -2.40   10.90
   3 -11   5    9.50   10.10
  -4  11  -5   83.29   26.40
   4 -11   5   97.39   19.00
   4 -11   5   76.99   16.40
  -5  11  -5   24.60   22.60
   5 -11   5    6.00   12.30
   5 -11   5   36.20   14.10
  -6  11  -5   42.90   26.90
   6 -11   5   17.10   14.00
  -5 -10   5   48.70   26.50
  -5 -10   5   42.40   12.90
  -5 -10   5   17.60   13.00
  -4 -10   5  120.49   17.50
  -4 -10   5   73.79   20.30
  -4 -10   5  135.79   32.00
  -3 -10   5    6.80    7.80
  -3 -10   5   -3.20   19.40
  -3 -10   5   16.50   13.50
  -2 -10   5   84.09   15.80
  -2 -10   5  112.69   18.80
  -2 -10   5  140.89   32.50
  -2 -10   5   90.09   13.90
   1  10  -5  264.47   39.40
  -1 -10   5  207.68   26.50
  -1 -10   5  251.17   25.30
  -1 -10   5  282.07   29.30
   0  10  -5   53.59   11.50
   0  10  -5   47.60   22.80
   0 -10   5   52.59   10.70
  -1  10  -5  318.87   44.30
   1 -10   5  315.67   30.10
   1 -10   5  240.38   33.50
  -2  10  -5  545.35   59.39
   2 -10   5  526.05   49.99
   2 -10   5  518.45   48.80
  -3  10  -5   19.40   17.70
   3 -10   5   21.40   11.00
   3 -10   5   40.40   11.70
  -4  10  -5  251.97   41.50
   4 -10   5  254.47   30.50
   4 -10   5  223.28   30.10
  -5  10  -5   31.70   22.50
   5 -10   5   25.00   12.00
   5 -10   5   23.80   13.50
  -6  10  -5    3.40   21.20
   6 -10   5   26.60   15.90
   6 -10   5   26.60   15.10
  -5  -9   5    1.20   10.10
  -5  -9   5  -10.70   21.10
  -5  -9   5   -3.60    9.70
  -4  -9   5  118.19   23.40
  -4  -9   5  169.88   21.50
  -4  -9   5  159.98   20.20
  -4  -9   5  135.29   30.80
  -3  -9   5   57.29   11.40
  -3  -9   5   12.40   10.00
  -3  -9   5   16.50    8.20
  -3  -9   5   44.70   20.70
  -2  -9   5    1.10    6.60
  -2  -9   5    3.70    8.30
  -2  -9   5    2.60    8.80
   1   9  -5  450.15   52.09
  -1  -9   5  400.46   40.10
  -1  -9   5  471.65   41.70
  -1  -9   5  429.36   39.20
   0   9  -5  319.57   42.60
   0   9  -5  228.08   29.20
   0  -9   5  298.97   27.80
   0  -9   5  304.07   30.10
  -1   9  -5   81.79   22.50
  -1   9  -5   81.99   13.30
   1  -9   5   73.89   14.10
   1  -9   5   93.29   13.60
  -2   9  -5  742.03   74.69
   2  -9   5  711.23   67.09
   2  -9   5  809.02   66.79
  -3   9  -5   37.60   30.70
   3  -9   5   23.40    9.90
  -4   9  -5  177.58   32.40
   4  -9   5  198.78   32.30
   4  -9   5  161.98   24.10
  -5   9  -5   58.89   23.50
   5  -9   5   57.89   14.90
   5  -9   5   92.79   18.10
  -6   9  -5  -15.10   17.60
   6  -9   5   -4.80   10.30
   6  -9   5    5.60   11.40
   7  -9   5   68.39   20.10
   7  -9   5   99.49   20.00
  -6  -8   5   20.10   13.20
  -6  -8   5   37.10   12.20
  -6  -8   5   27.60   25.50
  -5  -8   5   29.70   10.70
  -5  -8   5   24.50   11.40
  -5  -8   5   37.00   23.90
  -4  -8   5  106.29   26.50
  -4  -8   5   68.29   13.10
  -4  -8   5   75.09   14.10
  -4  -8   5   66.19   13.80
  -3  -8   5  420.46   36.60
  -3  -8   5  439.66   37.90
  -3  -8   5  337.67   36.70
  -3  -8   5  336.77   52.59
  -2  -8   5    3.90    7.50
  -2  -8   5   -4.50    6.70
  -2  -8   5    0.80   16.50
  -2  -8   5   -2.20    5.90
   1   8  -5 1293.57  119.49
  -1  -8   5 1344.17  112.49
  -1  -8   5 1347.57  111.29
   0   8  -5   74.59   20.90
   0   8  -5   61.39   10.70
   0  -8   5   62.69   10.40
   0  -8   5   63.29   12.50
  -1   8  -5   11.30   15.80
  -1   8  -5    8.10    6.80
   1  -8   5   27.00    7.80
   1  -8   5   25.60    8.90
  -2   8  -5  201.48   23.90
  -2   8  -5  255.67   34.00
   2  -8   5  259.67   25.10
   2  -8   5  229.48   26.80
  -3   8  -5  266.37   36.70
   3  -8   5  257.47   27.60
   3  -8   5  252.97   28.40
  -4   8  -5   33.60   18.10
   4  -8   5   46.20   12.60
   4  -8   5   48.40   12.40
  -5   8  -5  355.06   47.70
   5  -8   5  318.97   36.40
   5  -8   5  372.16   36.20
  -6   8  -5  155.98   31.20
   6  -8   5  165.78   25.10
   6  -8   5   99.49   18.90
  -7   8  -5   10.20   21.40
   7  -8   5    7.50   12.80
   7  -8   5   24.50   20.90
  -6  -7   5   30.60   12.80
  -6  -7   5   20.70   10.20
  -6  -7   5   27.50   24.30
  -5  -7   5   23.20   13.10
  -5  -7   5   28.40   14.60
  -5  -7   5   20.10    9.90
  -5  -7   5   45.90   21.90
  -5  -7   5   37.00   12.00
  -4  -7   5   10.50    9.30
  -4  -7   5   27.70    9.50
  -4  -7   5   29.50    9.60
  -4  -7   5   10.20   10.60
  -3  -7   5  246.78   25.90
  -3  -7   5  256.17   37.70
  -3  -7   5  247.38   28.30
  -3  -7   5  273.57   26.50
  -2  -7   5  350.96   35.80
  -2  -7   5  399.36   34.10
  -2  -7   5  393.56   35.40
  -2  -7   5  337.17   34.20
  -2  -7   5  394.66   45.10
   1   7  -5  369.66   43.30
  -1  -7   5  323.97   31.50
  -1  -7   5  348.57   32.90
  -1  -7   5  343.27   30.80
   0   7  -5 1316.77  111.39
   0   7  -5 1391.06  118.89
   0   7  -5 1342.37  112.79
   0  -7   5 1345.27  111.29
   0  -7   5 1324.67  112.69
  -1   7  -5   68.59   11.60
  -1   7  -5   73.59   16.50
  -1   7  -5  110.69   21.20
   1  -7   5  113.19   14.60
   1  -7   5   96.59   14.30
  -2   7  -5  247.38   36.60
  -2   7  -5  330.77   38.30
   2  -7   5  304.47   31.40
   2  -7   5  348.67   30.80
  -3   7  -5  300.47   33.10
  -3   7  -5  418.56   42.60
   3  -7   5  338.87   33.80
   3  -7   5  375.96   34.70
  -4   7  -5   14.70   14.90
   4  -7   5   10.10    8.00
   4  -7   5    8.50    7.90
  -5   7  -5  118.19   25.10
   5  -7   5   88.79   18.00
   5  -7   5  136.89   19.20
  -6   7  -5   82.89   23.10
   6  -7   5   70.29   15.70
   6  -7   5   44.50   14.10
  -7   7  -5   -0.10   20.30
   7  -7   5   -9.20   10.20
   7  -7   5    1.40   12.10
  -7  -6   5   29.70   25.20
  -6  -6   5   64.59   25.20
  -6  -6   5   43.40   10.30
  -5  -6   5  104.39   26.50
  -5  -6   5   77.19   15.10
  -5  -6   5   97.39   14.90
  -5  -6   5   81.69   14.00
  -5  -6   5  101.29   17.20
  -4  -6   5   -8.60    6.90
  -4  -6   5    2.70    7.90
  -4  -6   5    1.70   16.50
  -4  -6   5    8.80    9.10
  -4  -6   5   -0.70    6.90
  -3  -6   5   82.19   11.90
  -3  -6   5  104.59   13.10
  -3  -6   5   80.79   13.60
  -3  -6   5   82.59   21.00
  -3  -6   5   78.29   12.30
  -2  -6   5  231.88   23.10
  -2  -6   5  204.68   23.70
  -2  -6   5  203.78   24.50
  -2  -6   5  337.17   37.70
  -2  -6   5  258.87   22.70
   1   6  -5  -10.10   11.80
   1   6  -5    2.30    7.30
  -1  -6   5    3.00    4.20
  -1  -6   5    3.70    5.20
  -1  -6   5  -14.20    9.60
  -1  -6   5    4.00    6.20
   0   6  -5  322.27   29.70
   0   6  -5  341.47   39.10
   0  -6   5  335.47   29.60
   0  -6   5  330.17   31.20
   0  -6   5  318.57   36.30
  -1   6  -5  320.07   29.50
  -1   6  -5  313.67   37.10
  -1   6  -5  308.27   31.10
   1  -6   5  368.06   30.00
   1  -6   5  278.67   35.30
   1  -6   5  323.77   30.90
  -2   6  -5   90.19   14.20
  -2   6  -5   76.19   12.10
  -2   6  -5  154.68   23.20
   2  -6   5  103.59   13.50
   2  -6   5  108.59   14.90
   2  -6   5   62.89   17.70
  -3   6  -5  561.34   52.59
  -3   6  -5  631.04   59.09
   3  -6   5  613.64   53.19
   3  -6   5  621.14   53.49
   3  -6   5  563.74   57.29
  -4   6  -5   73.79   18.80
   4  -6   5   75.49   14.50
   4  -6   5   74.89   13.50
  -5   6  -5  165.48   29.40
   5  -6   5  195.18   24.90
   5  -6   5  186.28   24.10
  -6   6  -5   83.19   30.10
   6  -6   5   37.80   13.40
   6  -6   5   77.69   15.10
  -7   6  -5    6.30   20.40
   7  -6   5   -5.30   11.10
   7  -6   5   -4.60   10.40
  -8   6  -5   24.20   26.40
   8  -6   5   16.90   14.60
   8  -6   5   38.80   17.00
   7   5  -5  100.79   26.40
  -7  -5   5   89.69   28.20
   6   5  -5  -11.70    9.80
  -6  -5   5  -15.20   18.10
   5   5  -5  317.67   30.30
  -5  -5   5  243.28   29.60
  -5  -5   5  279.67   28.10
  -5  -5   5  313.27   27.90
  -4  -5   5   88.09   13.10
  -4  -5   5   66.69   21.80
  -4  -5   5   93.69   12.70
  -4  -5   5   79.99   12.70
  -3  -5   5  278.07   25.90
  -3  -5   5  245.08   25.40
  -3  -5   5  270.17   35.60
  -3  -5   5  275.97   26.00
  -3  -5   5  278.57   26.70
  -2  -5   5  315.67   29.00
  -2  -5   5  300.57   29.40
  -2  -5   5  309.27   28.10
  -2  -5   5  364.56   40.10
  -2  -5   5  319.47   37.30
  -2  -5   5  294.97   27.80
   1   5  -5    0.90   12.30
   1   5  -5    0.10    5.60
  -1  -5   5    2.60    3.60
  -1  -5   5   -0.20    4.50
   0   5  -5 1300.07  103.69
   0   5  -5 1230.98  102.19
   0   5  -5 1203.68  108.19
   0  -5   5 1132.69  106.79
   0  -5   5 1203.58  103.39
   0  -5   5 1327.77  102.29
  -1   5  -5   74.29    9.50
  -1   5  -5  102.19   12.70
  -1   5  -5   70.59   16.00
   1  -5   5   55.89    9.20
   1  -5   5   78.79   11.60
   1  -5   5   35.60   13.10
  -2   5  -5   30.80   12.50
  -2   5  -5    0.80   10.50
  -2   5  -5    4.20    5.20
   2  -5   5   -2.50    6.00
   2  -5   5    2.20    5.20
   2  -5   5   11.40   10.10
  -3   5  -5  428.66   41.30
  -3   5  -5  354.46   36.00
  -3   5  -5  321.97   34.90
   3  -5   5  328.37   40.70
   3  -5   5  434.06   35.50
   3  -5   5  384.76   35.10
  -4   5  -5  798.92   68.49
   4  -5   5  729.93   62.59
   4  -5   5  614.34   66.09
   4  -5   5  720.23   63.09
  -5   5  -5    3.50   13.10
   5  -5   5    2.90    7.80
   5  -5   5   -2.50    8.10
  -6   5  -5  385.26   44.30
   6  -5   5  318.67   36.20
   6  -5   5  343.97   34.90
  -7   5  -5   87.79   25.90
   7  -5   5   39.10   14.90
   7  -5   5   11.20   21.30
  -8   5  -5   33.10   25.00
   8  -5   5    8.90   13.70
   8  -5   5   15.30   14.10
   7   4  -5  127.89   22.10
  -7  -4   5  104.39   30.40
   6   4  -5   12.10   10.60
  -6  -4   5   17.30   20.60
   5   4  -5  115.49   17.00
  -5  -4   5  123.79   14.00
  -5  -4   5  143.19   27.70
   4   4  -5  326.87   30.90
  -4  -4   5  371.56   41.50
  -4  -4   5  320.67   30.90
  -4  -4   5  306.47   29.80
  -4  -4   5  334.57   29.70
  -3  -4   5   29.30   15.20
  -3  -4   5   35.10    7.50
  -3  -4   5   36.00    7.50
  -3  -4   5   33.30    8.10
  -3  -4   5   19.20   14.80
  -2  -4   5  116.49   13.70
  -2  -4   5  119.89   21.10
  -2  -4   5  117.69   12.60
  -2  -4   5  120.79   12.70
   1   4  -5  728.53   64.59
  -1  -4   5  797.82   64.79
  -1  -4   5  692.63   68.99
  -1  -4   5  766.52   63.49
  -1  -4   5  808.92   63.39
  -1  -4   5  760.52   69.49
   0   4  -5 1019.20   84.89
   0   4  -5 1038.30   86.19
   0  -4   5  962.20   89.49
   0  -4   5 1072.09   84.89
   0  -4   5 1036.70   86.19
  -1   4  -5 1399.06  113.09
  -1   4  -5 1364.26  117.59
  -1   4  -5 1341.57  114.09
   1  -4   5 1396.16  115.49
   1  -4   5 1328.87  116.89
   1  -4   5 1400.36  113.19
  -2   4  -5   10.00    5.60
  -2   4  -5   13.50   13.20
  -2   4  -5   13.70    6.20
   2  -4   5   15.60    9.30
   2  -4   5   23.20    6.80
   2  -4   5   18.30    6.80
  -3   4  -5  568.14   49.70
  -3   4  -5  565.84   53.89
   3  -4   5  586.74   49.90
   3  -4   5  541.85   52.79
   3  -4   5  557.84   49.70
  -4   4  -5   31.30    9.50
  -4   4  -5   59.69   15.40
  -4   4  -5   43.80    9.90
   4  -4   5   70.39   12.20
   4  -4   5   64.09   11.70
  -5   4  -5  232.28   31.70
   5  -4   5  235.08   24.30
   5  -4   5  188.68   25.90
   5  -4   5  225.78   30.50
  -6   4  -5  121.49   23.80
   6  -4   5  100.89   16.00
   6  -4   5   54.39   15.10
  -7   4  -5  122.49   27.20
   7  -4   5   53.29   15.30
   7  -4   5   89.69   16.80
  -8   4  -5    9.10   21.80
   8  -4   5   -3.00   11.80
   7   3  -5   65.99   16.30
  -7  -3   5   87.89   28.20
   6   3  -5   38.60   12.30
  -6  -3   5   56.19   22.80
   5   3  -5   -7.70    7.80
  -5  -3   5    7.30    8.00
  -5  -3   5    7.80   16.60
   4   3  -5  137.09   16.00
  -4  -3   5  115.09   24.60
  -4  -3   5  127.39   13.90
  -4  -3   5  107.69   15.00
  -4  -3   5  144.19   14.50
   3   3  -5  251.97   23.70
  -3  -3   5  224.58   31.80
  -3  -3   5  274.77   25.00
  -3  -3   5  243.18   23.80
  -3  -3   5  246.08   32.10
  -3  -3   5  275.77   23.60
  -2  -3   5    3.60    3.90
  -2  -3   5   19.50   13.40
  -2  -3   5   -4.90    4.10
  -2  -3   5    0.20   11.10
  -2  -3   5    2.70    3.60
   1   3  -5  916.91   77.69
  -1  -3   5  914.61   82.19
  -1  -3   5  915.61   76.29
  -1  -3   5  965.40   77.69
  -1  -3   5  932.71   76.49
  -1  -3   5  949.80   81.99
   0   3  -5  217.98   20.00
   0   3  -5  207.18   21.70
   0   3  -5  270.27   28.80
   0  -3   5  223.68   19.90
   0  -3   5  229.28   26.20
   0  -3   5  246.78   22.00
  -1   3  -5  742.93   68.59
  -1   3  -5  734.83   65.19
  -1   3  -5  794.62   64.29
   1  -3   5  804.02   64.49
   1  -3   5  750.52   67.89
   1  -3   5  787.62   65.39
  -2   3  -5 1785.42  147.59
  -2   3  -5 1725.03  147.89
  -2   3  -5 1810.12  150.68
   2  -3   5 1775.82  150.18
   2  -3   5 1804.62  148.09
   2  -3   5 1871.01  147.79
  -3   3  -5  188.88   23.10
  -3   3  -5  280.67   28.20
   3  -3   5  261.07   28.20
   3  -3   5  239.18   27.20
   3  -3   5  248.38   23.90
  -4   3  -5  806.52   71.79
  -4   3  -5  726.73   70.09
  -4   3  -5  863.01   73.79
   4  -3   5  862.71   71.09
   4  -3   5  798.82   72.89
   4  -3   5  852.01   70.09
  -5   3  -5   11.70   13.00
  -5   3  -5    3.30    8.60
   5  -3   5   -6.00    7.60
   5  -3   5   -5.40   12.60
   5  -3   5    5.40    7.70
  -6   3  -5  103.99   22.80
   6  -3   5   83.39   27.70
   6  -3   5  102.49   16.50
  -7   3  -5   75.19   22.40
   7  -3   5   34.80   12.40
   7  -3   5    8.80   12.20
  -8   3  -5   57.39   25.30
   8  -3   5   15.50   14.60
   8  -3   5    1.80   12.80
   8   2  -5   -5.50   13.50
   7   2  -5   13.40   11.90
  -7  -2   5   20.50   21.30
   6   2  -5  288.37   31.70
  -6  -2   5  319.97   43.10
   5   2  -5   58.99   11.90
  -5  -2   5   85.49   21.90
  -5  -2   5   45.70   10.80
   4   2  -5  420.56   36.30
  -4  -2   5  413.26   33.80
  -4  -2   5  393.76   36.20
  -4  -2   5  361.36   33.70
  -4  -2   5  480.35   45.80
   3   2  -5  324.67   29.20
  -3  -2   5  333.07   28.40
  -3  -2   5  330.27   36.30
  -3  -2   5  322.67   28.40
   2   2  -5   17.20    5.10
  -2  -2   5   11.50   12.30
  -2  -2   5   22.60    4.40
  -2  -2   5   13.20    4.90
   1   2  -5  754.72   64.69
  -1  -2   5  742.53   67.79
  -1  -2   5  770.42   63.89
  -1  -2   5  761.62   68.69
  -1  -2   5  774.82   62.59
  -1  -2   5  774.92   62.59
   0   2  -5   48.70   12.90
   0   2  -5   37.00    7.00
   0   2  -5   30.50    4.70
   0  -2   5   44.30    5.10
   0  -2   5   56.69    8.10
   0  -2   5   47.90   11.50
  -1   2  -5    6.10    3.90
  -1   2  -5   13.00    5.40
  -1   2  -5    2.10    9.20
   1  -2   5    4.10    3.80
   1  -2   5   12.60    5.30
   1  -2   5   -3.60    8.00
  -2   2  -5  552.84   47.60
  -2   2  -5  561.14   50.39
  -2   2  -5  589.64   47.30
   2  -2   5  508.05   49.30
   2  -2   5  551.54   47.20
   2  -2   5  539.95   47.70
  -3   2  -5   88.59   15.80
  -3   2  -5   85.39   12.40
  -3   2  -5   76.49   12.30
   3  -2   5   90.69   14.50
   3  -2   5  104.59   16.00
   3  -2   5  130.69   14.60
  -4   2  -5   23.00    7.90
  -4   2  -5   31.70   11.40
  -4   2  -5   46.10    9.30
   4  -2   5   32.70   12.00
   4  -2   5   22.40    8.30
   4  -2   5   39.50    9.60
  -5   2  -5  578.34   54.89
  -5   2  -5  682.53   59.39
   5  -2   5  563.84   56.09
   5  -2   5  651.53   59.09
   5  -2   5  660.33   55.19
  -6   2  -5   12.60   14.60
   6  -2   5   10.30   14.30
   6  -2   5   -1.10    9.00
   6  -2   5    1.50    9.60
  -7   2  -5  224.98   31.00
   7  -2   5  162.88   20.70
   7  -2   5   89.19   20.40
  -8   2  -5  100.39   27.40
   8  -2   5   52.89   17.90
   8  -2   5   81.39   16.20
   8   1  -5   -2.40   13.80
  -8  -1   5   29.00   26.40
   7   1  -5  -15.70    9.70
  -7  -1   5    1.90   19.90
   6   1  -5  186.38   23.60
   5   1  -5  131.19   16.40
  -5  -1   5   78.79   13.70
  -5  -1   5   90.89   22.80
   4   1  -5   97.69   13.40
   4   1  -5  116.79   22.00
  -4  -1   5  156.28   23.90
  -4  -1   5   95.49   13.20
   3   1  -5  868.11   71.09
   3   1  -5  866.21   76.39
  -3  -1   5  849.72   76.69
  -3  -1   5  844.82   69.79
  -3  -1   5  787.22   69.69
  -3  -1   5  936.71   71.89
   2   1  -5   18.60    4.50
   2   1  -5   14.40   11.20
   2   1  -5   27.70    4.70
  -2  -1   5   18.80   10.30
  -2  -1   5   23.40    4.60
  -2  -1   5   24.20    4.30
   1   1  -5  209.78   20.20
  -1  -1   5  218.68   26.90
  -1  -1   5  246.88   20.40
  -1  -1   5  218.88   25.20
   0   1  -5 1114.29   89.39
   0  -1   5 1035.60   92.79
   0  -1   5 1089.89   93.29
   0  -1   5 1144.69   90.79
  -1   1  -5  216.88   20.60
  -1   1  -5  223.38   19.40
  -1   1  -5  215.98   24.00
   1  -1   5  197.78   23.70
   1  -1   5  204.58   20.60
   1  -1   5  220.78   19.50
  -2   1  -5  240.08   27.20
  -2   1  -5  264.57   24.20
  -2   1  -5  256.97   24.70
   2  -1   5  237.48   27.00
   2  -1   5  277.27   24.70
   2  -1   5  302.27   24.80
  -3   1  -5   22.90    5.90
  -3   1  -5   12.60    6.00
   3  -1   5   41.40    9.50
  -4   1  -5  110.19   18.50
  -4   1  -5  125.49   17.80
  -4   1  -5  119.99   15.50
   4  -1   5  102.79   17.10
   4  -1   5  109.59   15.90
   4  -1   5  145.89   16.50
  -5   1  -5   84.29   16.60
  -5   1  -5   95.19   17.80
   5  -1   5  112.19   16.70
   5  -1   5  103.59   14.60
   5  -1   5   65.19   16.30
  -6   1  -5  179.08   25.50
  -6   1  -5  142.69   19.20
   6  -1   5  137.29   18.80
   6  -1   5  134.79   21.10
   6  -1   5  126.29   31.00
  -7   1  -5   35.70   18.50
   7  -1   5   30.60   12.40
   7  -1   5   45.90   13.70
  -8   1  -5   59.59   24.50
   8  -1   5   78.99   15.80
   8  -1   5   51.39   16.80
   8   0  -5   28.80   14.50
  -8   0   5   36.30   26.30
   7   0  -5    1.70   11.80
  -7   0   5   19.60   21.40
   6   0  -5  201.68   24.50
   5   0  -5  220.48   24.10
  -5   0   5  267.57   35.10
  -5   0   5  199.98   23.70
   4   0  -5   -5.20    5.80
   4   0  -5    0.20   12.70
  -4   0   5   10.50    6.00
  -4   0   5    1.40   12.10
   3   0  -5  972.60   88.89
   3   0  -5  950.40   84.29
  -3   0   5 1017.30   89.69
  -3   0   5 1175.58   87.99
   2   0  -5  446.66   43.00
   2   0  -5  459.55   37.60
   2   0  -5  428.56   37.20
  -2   0   5  427.06   37.50
  -2   0   5  448.76   43.00
  -2   0   5  476.45   37.20
   1   0  -5  185.08   22.20
   1   0  -5  178.68   16.50
  -1   0   5  176.28   16.50
  -1   0   5  186.28   21.50
   0   0  -5  786.22   63.49
   0   0  -5  748.53   62.19
   0   0   5  781.72   66.29
   0   0   5  782.02   62.29
   0   0   5  712.13   65.59
   0   0   5  772.02   63.49
  -1   0  -5  343.77   29.70
  -1   0  -5  349.37   32.50
  -1   0  -5  340.77   30.60
   1   0   5  346.97   32.20
   1   0   5  356.56   29.80
   1   0   5  341.77   30.60
  -2   0  -5   86.59   10.60
  -2   0  -5   59.89   11.10
  -2   0  -5   93.69   10.90
   2   0   5   73.69   10.30
   2   0   5   60.99   10.70
   2   0   5   87.99   10.60
  -3   0  -5  798.32   68.49
  -3   0  -5  847.52   69.39
  -3   0  -5  841.62   68.99
   3   0   5  757.92   68.89
   3   0   5  820.92   69.09
   3   0   5  818.12   68.59
  -4   0  -5   76.89   11.70
  -4   0  -5   75.19   12.70
  -4   0  -5   69.29   12.90
   4   0   5   62.79   12.90
   4   0   5   99.39   14.00
   4   0   5  100.39   18.30
  -5   0  -5   39.90   10.60
  -5   0  -5   37.90   12.60
   5   0   5   76.09   14.90
   5   0   5   73.39   13.90
   5   0   5   41.40   11.30
  -6   0  -5  214.38   26.10
  -6   0  -5  291.17   31.80
   6   0   5  263.37   31.40
   6   0   5  244.18   26.60
   6   0   5  222.48   29.10
   7   0   5   20.50   11.10
   7   0   5   12.50   11.90
   7   0   5   23.50   16.70
  -8   0  -5  139.09   28.80
   8   0   5   95.49   22.10
   8   0   5   83.89   16.90
   8  -1  -5   46.50   16.50
  -8   1   5  115.99   33.60
   7  -1  -5   30.40   14.30
  -7   1   5   82.29   26.10
   6  -1  -5   90.69   15.70
  -6   1   5   74.39   29.60
   5  -1  -5  462.65   47.30
  -5   1   5  643.34   53.09
  -5   1   5  542.85   56.29
   4  -1  -5  106.29   13.40
   4  -1  -5   63.69   17.70
  -4   1   5   91.99   12.50
  -4   1   5  115.89   21.00
   3  -1  -5  599.64   52.19
   3  -1  -5  599.84   56.79
  -3   1   5  645.14   57.89
  -3   1   5  624.44   52.09
   2  -1  -5  759.72   66.09
   2  -1  -5  792.22   62.09
  -2   1   5  794.82   61.89
  -2   1   5  774.02   66.69
  -2   1   5  657.13   61.19
   1  -1  -5  166.58   14.60
   1  -1  -5  147.79   13.80
   1  -1  -5  163.78   19.90
  -1   1   5  166.38   14.70
  -1   1   5  172.38   19.80
  -1   1   5  152.48   13.60
   0  -1  -5  275.47   28.10
   0  -1  -5  301.67   25.60
   0  -1  -5  288.37   24.40
   0   1   5  294.57   25.70
   0   1   5  296.17   27.70
  -1  -1  -5  303.47   26.60
   1   1   5  294.17   26.40
   1   1   5  304.17   27.20
   1   1   5  336.87   28.00
   1   1   5  286.87   27.80
  -2  -1  -5    2.00    5.50
  -2  -1  -5    3.50    4.40
  -2  -1  -5    9.20    4.80
   2   1   5    4.00    4.00
   2   1   5    1.30    4.70
   2   1   5    8.30    5.40
  -3  -1  -5 1695.63  135.09
  -3  -1  -5 1601.84  134.99
  -3  -1  -5 1624.54  135.69
   3   1   5 1576.14  134.79
   3   1   5 1651.43  135.69
   3   1   5 1692.83  135.19
  -4  -1  -5   77.79   12.70
  -4  -1  -5   76.39   12.40
  -4  -1  -5  108.99   14.30
   4   1   5   99.89   14.00
   4   1   5   73.69   13.00
   4   1   5  117.99   15.30
  -5  -1  -5  366.26   34.80
  -5  -1  -5  311.77   32.10
   5   1   5  342.97   34.60
   5   1   5  353.26   32.80
   5   1   5  331.67   33.60
  -6  -1  -5  248.18   27.20
  -6  -1  -5  236.18   32.30
   6   1   5  267.07   31.40
   6   1   5  273.27   32.00
   6   1   5  280.57   27.90
  -7  -1  -5   -5.40   14.70
   7   1   5    5.40   10.60
   7   1   5    0.30   21.50
   7   1   5    9.50   10.80
  -8  -1  -5   41.60   21.20
   8   1   5   39.00   14.30
   8   1   5   21.60   13.90
   8  -2  -5   43.80   15.90
  -8   2   5   48.80   28.50
   7  -2  -5  -22.00   14.70
  -7   2   5   14.00   21.20
   6  -2  -5   38.10   11.80
  -6   2   5   28.20   26.30
   5  -2  -5  111.99   16.40
  -5   2   5  172.48   27.70
  -5   2   5  104.39   15.30
   4  -2  -5  148.19   17.60
   4  -2  -5  177.18   25.10
  -4   2   5  126.09   16.40
  -4   2   5  177.48   25.70
   3  -2  -5    2.10    4.60
   3  -2  -5    0.90    8.90
  -3   2   5   19.10   12.10
  -3   2   5    7.60    4.70
   2  -2  -5 1130.49   96.59
   2  -2  -5 1185.18   93.09
  -2   2   5 1143.09   97.09
  -2   2   5 1154.28   92.99
  -2   2   5 1058.29   92.09
   1  -2  -5  416.96   33.40
   1  -2  -5  408.06   33.30
   1  -2  -5  398.46   37.00
  -1   2   5  403.06   37.60
  -1   2   5  377.66   33.40
  -1   2   5  381.96   33.20
   0  -2  -5 3599.74  304.67
   0  -2  -5 3902.51  305.07
   0  -2  -5 3743.83  306.07
   0  -2  -5 3697.23  304.67
   0   2   5 3821.12  305.07
   0   2   5 3798.42  306.27
  -1  -2  -5   50.69   13.10
  -1  -2  -5   58.09    8.00
   1   2   5   54.29    8.30
   1   2   5   58.89    7.90
   1   2   5   64.49    8.40
   1   2   5   61.39    8.70
  -2  -2  -5   98.69   12.20
  -2  -2  -5  122.69   13.40
   2   2   5   93.39   10.40
   2   2   5  109.49   12.80
   2   2   5  102.39   12.40
  -3  -2  -5  663.83   58.69
  -3  -2  -5  710.03   58.29
  -3  -2  -5  690.33   57.29
   3   2   5  650.03   57.09
   3   2   5  730.73   58.49
   3   2   5  675.33   58.79
  -4  -2  -5  426.96   39.00
  -4  -2  -5  453.25   40.20
  -4  -2  -5  416.26   39.00
   4   2   5  402.76   38.80
   4   2   5  489.65   40.40
   4   2   5  463.95   39.60
  -5  -2  -5    1.90    7.30
  -5  -2  -5   -0.50    8.50
   5   2   5   -1.20    7.80
   5   2   5    0.50    7.40
   5   2   5    9.00    9.60
  -6  -2  -5  302.07   32.80
  -6  -2  -5  253.67   29.50
   6   2   5  287.17   30.30
   6   2   5  332.37   32.10
   6   2   5  296.67   33.70
  -7  -2  -5   25.10   15.30
   7   2   5   23.00   13.30
   7   2   5   39.30   12.80
   7   2   5   10.50   16.70
  -8  -2  -5    8.80   18.40
   8   2   5   -1.30   11.70
   8   2   5    8.50   13.30
   8  -3  -5   60.99   17.10
  -8   3   5   44.00   29.20
   7  -3  -5   64.49   15.50
  -7   3   5   40.60   23.20
   6  -3  -5   21.20   10.80
   5  -3  -5  463.15   42.70
  -5   3   5  532.95   52.19
  -5   3   5  419.76   42.20
   4  -3  -5  354.66   39.90
   4  -3  -5  324.67   39.30
  -4   3   5  364.36   33.70
  -4   3   5  427.86   42.00
   3  -3  -5  138.69   14.70
   3  -3  -5   99.99   18.50
  -3   3   5  121.29   20.10
  -3   3   5  138.89   14.40
   2  -3  -5 1191.58   97.29
   2  -3  -5 1147.69  101.69
   2  -3  -5 1244.78   98.59
  -2   3   5 1209.18  102.09
  -2   3   5 1185.18   97.39
  -2   3   5 1185.38   98.49
   1  -3  -5  431.06   37.00
   1  -3  -5  451.55   37.20
   1  -3  -5  448.86   40.40
  -1   3   5  432.06   37.10
  -1   3   5  442.16   37.10
  -1   3   5  429.76   40.80
   0  -3  -5  201.38   19.90
   0  -3  -5  172.78   17.30
   0  -3  -5  196.98   17.50
   0  -3  -5  184.78   17.90
   0   3   5  196.08   18.10
   0   3   5  180.08   20.40
  -1  -3  -5 3341.87  275.17
  -1  -3  -5 3567.74  276.07
  -1  -3  -5 3442.66  275.77
   1   3   5 3327.87  275.77
   1   3   5 3366.46  275.67
   1   3   5 3311.97  275.17
  -2  -3  -5  388.56   32.00
  -2  -3  -5  343.87   31.70
   2   3   5  339.07   31.80
   2   3   5  357.46   31.90
  -3  -3  -5  229.28   22.60
  -3  -3  -5  252.27   22.50
   3   3   5  191.38   22.30
   3   3   5  226.48   22.30
  -4  -3  -5  114.49   13.90
  -4  -3  -5   79.59   20.10
  -4  -3  -5   92.29   12.00
   4   3   5  125.09   19.50
   4   3   5   91.39   14.10
   4   3   5   88.29   11.70
  -5  -3  -5    5.60    8.70
  -5  -3  -5   15.60    8.40
   5   3   5    9.10    8.40
   5   3   5    6.70    8.60
  -6  -3  -5    7.80   10.70
  -6  -3  -5   12.60    9.30
   6   3   5   10.00    9.80
   6   3   5   11.30   12.70
   6   3   5   11.10   10.00
  -7  -3  -5  294.17   34.80
   7   3   5  274.47   33.00
   7   3   5  216.68   31.50
   7   3   5  270.57   29.40
  -8  -3  -5   29.60   19.30
   8   3   5   47.90   14.50
   8   3   5   26.20   16.60
   8  -4  -5   -9.40   12.50
  -8   4   5  -20.00   25.60
   7  -4  -5  115.09   20.10
  -7   4   5  124.49   31.50
   6  -4  -5   65.39   13.90
  -6   4   5   71.09   24.00
   5  -4  -5  246.78   27.90
  -5   4   5  255.27   27.80
  -5   4   5  358.26   40.10
   4  -4  -5  458.55   50.29
   4  -4  -5  520.45   44.70
  -4   4   5  493.65   44.40
  -4   4   5  512.85   51.09
   3  -4  -5   11.80    5.10
   3  -4  -5   14.30   10.00
  -3   4   5   52.69   13.40
   2  -4  -5 1145.49   91.09
   2  -4  -5 1019.80   89.89
   2  -4  -5 1071.99   93.99
  -2   4   5 1102.89   94.69
  -2   4   5 1171.88   91.19
  -2   4   5 1092.59   90.09
   1  -4  -5 1169.18   91.99
   1  -4  -5 1118.79   94.19
   1  -4  -5 1100.69   91.49
  -1   4   5 1143.19   94.49
  -1   4   5 1108.39   91.89
  -1   4   5 1053.49   91.59
   0  -4  -5   44.70    8.60
   0  -4  -5   24.90    6.10
   0  -4  -5   27.50    5.90
   0   4   5   16.90    8.50
   0   4   5   42.70    7.40
   0   4   5   24.70    5.10
  -1  -4  -5  564.34   47.90
  -1  -4  -5  537.45   47.10
  -1  -4  -5  533.75   47.80
   1   4   5  557.74   47.10
   1   4   5  583.44   48.00
   1   4   5  603.04   47.90
  -2  -4  -5  606.94   52.99
  -2  -4  -5  616.04   52.89
   2   4   5  622.54   53.19
   2   4   5  633.24   52.99
  -3  -4  -5   -1.50    5.20
  -3  -4  -5    4.80    5.80
   3   4   5    5.30    6.30
   3   4   5   -5.00    6.00
  -4  -4  -5  683.33   58.29
  -4  -4  -5  669.63   60.69
  -4  -4  -5  703.83   59.99
   4   4   5  742.93   60.29
   4   4   5  676.93   60.79
  -5  -4  -5   23.50    9.00
  -5  -4  -5   14.00   14.10
   5   4   5   19.10    8.90
   5   4   5   18.20    9.40
  -6  -4  -5   62.59   14.70
  -6  -4  -5  126.59   17.70
   6   4   5  109.99   16.40
   6   4   5   82.99   16.60
   7   4   5  208.88   24.40
   7   4   5  160.18   25.70
  -8  -4  -5    1.50   16.40
   8   4   5  -11.50   11.70
   8   4   5   15.20   12.20
   8  -5  -5    8.90   14.90
   7  -5  -5   13.70   12.50
  -7   5   5   10.00   22.00
   6  -5  -5   17.80   10.20
  -6   5   5   21.20   19.40
   5  -5  -5    4.30    8.00
  -5   5   5  -15.10   14.20
   4  -5  -5  358.86   35.60
   4  -5  -5  383.96   32.30
   4  -5  -5  383.26   32.20
   4  -5  -5  372.06   45.20
  -4   5   5  410.96   43.10
   3  -5  -5  746.93   61.29
   3  -5  -5  764.02   59.29
   3  -5  -5  670.63   64.99
   3  -5  -5  698.63   59.09
  -3   5   5  659.33   60.79
  -3   5   5  727.63   66.09
   2  -5  -5  644.54   54.49
   2  -5  -5  617.54   58.79
   2  -5  -5  663.03   55.59
  -2   5   5  671.93   55.49
  -2   5   5  660.63   59.49
   1  -5  -5 2869.31  225.78
   1  -5  -5 2618.84  227.38
  -1   5   5 2749.12  227.78
  -1   5   5 2829.02  225.78
  -1   5   5 2761.22  225.38
   0  -5  -5   38.90    7.30
   0  -5  -5   46.00    7.60
   0  -5  -5   34.00    9.20
   0   5   5   56.39    8.90
   0   5   5   38.60    7.00
   0   5   5   62.09   10.60
  -1  -5  -5  719.03   61.59
  -1  -5  -5  746.53   62.19
  -1  -5  -5  739.53   62.29
  -1  -5  -5  751.52   62.19
   1   5   5  709.33   62.19
   1   5   5  752.42   61.79
  -2  -5  -5   61.49    8.20
  -2  -5  -5   86.59   11.40
  -2  -5  -5   86.89   11.60
   2   5   5  102.29   12.40
   2   5   5   99.89   12.30
  -3  -5  -5  135.89   16.80
  -3  -5  -5  141.09   13.80
  -3  -5  -5  167.38   18.60
   3   5   5  148.79   18.40
   3   5   5  167.28   17.80
  -4  -5  -5  229.08   24.00
  -4  -5  -5  215.58   24.30
  -4  -5  -5  236.58   22.10
  -4  -5  -5  259.97   23.20
   4   5   5  219.48   24.90
  -5  -5  -5  419.76   35.20
  -5  -5  -5  303.47   35.70
  -5  -5  -5  399.66   36.80
   5   5   5  342.07   37.10
   5   5   5  395.06   36.30
  -6  -5  -5   -1.40    9.90
  -6  -5  -5   -1.60   12.10
  -6  -5  -5   -3.00   12.20
   6   5   5   10.50   10.70
   6   5   5   -5.80    9.30
  -7  -5  -5  118.69   24.50
  -7  -5  -5  123.59   27.60
   7   5   5  168.38   24.40
   7   5   5  212.38   23.40
  -8  -5  -5   23.10   17.20
   8   5   5   27.60   15.50
   8   5   5   23.30   12.80
   8  -6  -5   29.50   15.90
  -8   6   5   48.60   30.10
   7  -6  -5   25.60   13.70
  -7   6   5   33.00   24.30
   6  -6  -5   97.69   16.80
  -6   6   5   72.29   24.70
   5  -6  -5   18.20    5.10
   5  -6  -5    9.00    8.20
   5  -6  -5    3.10    4.80
  -5   6   5   20.00   16.80
   4  -6  -5  266.87   24.50
   4  -6  -5  273.07   24.10
   4  -6  -5  287.27   27.50
  -4   6   5  217.48   26.40
  -4   6   5  342.67   38.90
   3  -6  -5  747.33   62.89
   3  -6  -5  750.02   64.69
   3  -6  -5  769.82   63.09
   3  -6  -5  754.82   70.69
  -3   6   5  733.43   69.09
  -3   6   5  754.02   64.49
   2  -6  -5    4.70    4.90
   2  -6  -5    9.80    5.00
   2  -6  -5    6.60    4.20
   2  -6  -5    6.50    8.40
  -2   6   5   -4.30    4.00
  -2   6   5   13.60   11.20
   1  -6  -5  714.93   57.99
   1  -6  -5  655.83   59.99
   1  -6  -5  678.63   57.49
  -1   6   5  654.13   57.49
  -1   6   5  681.43   60.49
  -1   6   5  693.73   57.79
   0  -6  -5 1448.26  115.89
   0  -6  -5 1413.06  115.59
   0   6   5 1431.76  116.89
   0   6   5 1361.06  115.49
   0   6   5 1342.17  115.49
  -1  -6  -5  105.79   13.70
  -1  -6  -5  114.59   13.90
  -1  -6  -5  101.59   13.60
  -1  -6  -5  105.89   13.80
   1   6   5  126.29   14.40
   1   6   5   95.69   13.00
  -2  -6  -5  914.81   77.29
  -2  -6  -5  917.81   77.59
  -2  -6  -5  887.61   75.99
   2   6   5  925.81   77.29
   2   6   5  925.81   76.29
   2   6   5  937.31   77.69
  -3  -6  -5  242.88   24.50
  -3  -6  -5  258.57   22.40
  -3  -6  -5  258.07   22.30
  -3  -6  -5  215.18   24.10
   3   6   5  225.48   24.50
   3   6   5  221.48   24.70
  -4  -6  -5  229.38   23.50
  -4  -6  -5  242.38   23.80
  -4  -6  -5  313.37   35.70
  -4  -6  -5  199.18   24.90
   4   6   5  270.47   26.50
   4   6   5  259.97   25.60
  -5  -6  -5   76.49   12.70
  -5  -6  -5   72.49   13.80
  -5  -6  -5   67.59   13.30
   5   6   5   76.39   14.80
   5   6   5   73.99   13.80
  -6  -6  -5   84.29   15.00
  -6  -6  -5   41.10   15.90
   6   6   5   86.49   15.20
   6   6   5   82.29   22.10
  -7  -6  -5   22.10   14.90
  -7  -6  -5    2.90   15.40
   7   6   5    8.90   12.70
   7   6   5   43.40   12.90
  -8  -6  -5   43.70   18.90
   8   6   5   21.20   14.80
   8   6   5   76.89   16.40
  -8   7   5  144.29   39.00
   7  -7  -5    5.50   11.90
  -7   7   5  -13.70   20.80
   6  -7  -5  242.88   24.10
   6  -7  -5  296.47   30.90
  -6   7   5  339.47   44.10
   5  -7  -5   68.79   13.80
   5  -7  -5   72.89    9.70
   5  -7  -5   50.59    8.90
  -5   7   5   69.59   21.20
   4  -7  -5  287.77   25.70
   4  -7  -5  267.27   25.70
   4  -7  -5  310.77   28.70
  -4   7   5  196.98   30.60
  -4   7   5  317.77   39.10
   3  -7  -5  163.58   16.50
   3  -7  -5  144.69   23.80
   3  -7  -5  137.79   18.10
   3  -7  -5  180.18   16.50
  -3   7   5  170.28   25.40
  -3   7   5   97.79   19.90
   2  -7  -5  245.88   21.90
   2  -7  -5  236.78   23.10
   2  -7  -5  245.18   27.30
   2  -7  -5  240.08   22.40
  -2   7   5  181.38   22.20
  -2   7   5  247.48   28.40
   1  -7  -5  268.27   25.10
   1  -7  -5  258.47   28.10
   1  -7  -5  292.07   25.70
  -1   7   5  261.37   25.10
  -1   7   5  266.57   29.40
  -1   7   5  248.08   25.30
   0  -7  -5  555.34   48.30
   0  -7  -5  577.84   48.20
   0  -7  -5  560.94   49.70
   0   7   5  545.55   48.10
   0   7   5  547.85   49.90
   0   7   5  544.75   48.20
  -1  -7  -5  157.98   17.40
  -1  -7  -5  128.99   17.20
  -1  -7  -5  179.68   19.10
  -1  -7  -5  164.28   18.20
   1   7   5  147.69   17.60
   1   7   5  162.68   17.80
  -2  -7  -5  433.76   38.70
  -2  -7  -5  437.26   39.20
  -2  -7  -5  423.06   39.20
  -2  -7  -5  412.16   37.90
   2   7   5  435.56   38.60
   2   7   5  444.96   39.10
  -3  -7  -5  863.61   72.59
  -3  -7  -5  950.00   74.29
  -3  -7  -5  844.12   72.59
  -3  -7  -5  853.21   74.39
   3   7   5  803.12   74.09
   3   7   5  881.71   73.99
  -4  -7  -5   19.50    8.50
  -4  -7  -5   19.40    9.20
  -4  -7  -5   26.00    8.80
   4   7   5   27.40    9.90
   4   7   5   26.90    9.90
  -5  -7  -5  593.24   50.19
   5   7   5  563.44   50.79
   5   7   5  500.35   51.79
  -6  -7  -5   34.30   12.20
  -6  -7  -5   24.60   13.30
   6   7   5   56.99   13.10
   6   7   5   32.00   13.40
  -7  -7  -5   -9.20   15.50
  -7  -7  -5   33.50   15.50
   7   7   5   35.10   12.70
   7   7   5   23.70   13.30
  -8  -7  -5   52.49   21.10
   8   7   5   28.40   16.80
   7  -8  -5   24.80   14.70
  -7   8   5  -11.20   22.20
   6  -8  -5    7.50    6.90
   6  -8  -5    5.60   10.60
   6  -8  -5    3.20    6.40
  -6   8   5   20.20   19.60
   5  -8  -5  195.08   20.20
   5  -8  -5  188.58   19.90
   5  -8  -5  182.98   24.10
   4  -8  -5   61.99   10.10
   4  -8  -5   57.09    9.90
   4  -8  -5   49.30   11.70
  -4   8   5   88.19   20.60
   3  -8  -5  330.67   30.30
   3  -8  -5  316.87   31.80
   3  -8  -5  337.77   39.40
   3  -8  -5  320.27   30.30
  -3   8   5  390.96   39.70
  -3   8   5  315.47   31.60
   2  -8  -5  161.18   19.80
   2  -8  -5  204.78   19.30
   2  -8  -5  225.08   19.90
  -2   8   5  189.48   26.50
  -2   8   5  132.49   22.30
   1  -8  -5  188.08   24.20
   1  -8  -5  147.89   18.00
   1  -8  -5  165.68   18.50
  -1   8   5  156.98   18.50
  -1   8   5  170.28   25.10
  -1   8   5  116.89   16.90
   0  -8  -5  738.13   58.89
   0  -8  -5  688.03   58.39
   0  -8  -5  542.95   66.69
   0   8   5  671.63   60.29
   0   8   5  686.13   59.29
   0   8   5  678.43   58.39
  -1  -8  -5   58.29   10.30
  -1  -8  -5   51.79   11.20
  -1  -8  -5   60.49   10.60
  -1  -8  -5   45.10    9.50
   1   8   5   44.00   10.60
   1   8   5   62.99   11.00
  -2  -8  -5   25.80    8.50
  -2  -8  -5   17.80    8.20
  -2  -8  -5   35.70   14.50
   2   8   5   16.30    8.10
   2   8   5   17.20    9.00
  -3  -8  -5  407.36   38.20
  -3  -8  -5  415.86   38.00
  -3  -8  -5  383.06   38.40
  -3  -8  -5  408.76   38.00
   3   8   5  402.86   38.70
   3   8   5  434.16   38.60
  -4  -8  -5   85.89   14.10
  -4  -8  -5   80.29   14.40
   4   8   5  112.09   15.40
   4   8   5   59.09   13.90
  -5  -8  -5    1.60   10.20
  -5  -8  -5   15.10   10.40
   5   8   5   13.80   10.00
   5   8   5   12.00   10.90
  -6  -8  -5   51.49   13.50
  -6  -8  -5   24.30   13.70
   6   8   5   48.70   14.00
   6   8   5   31.90   14.10
  -7  -8  -5   13.90   24.20
   7   8   5   19.30   13.80
   7   8   5   18.70   13.20
   8   8   5   37.30   15.80
   8   8   5   24.10   16.90
   7  -9  -5   61.09   17.80
   7  -9  -5   55.59   11.50
  -7   9   5   49.80   29.90
   6  -9  -5   11.70    8.40
   6  -9  -5   -3.20    9.30
  -6   9   5   31.30   21.50
   5  -9  -5   98.09   27.10
   5  -9  -5  133.49   16.60
   5  -9  -5  153.68   17.40
  -5   9   5  148.59   30.10
   4  -9  -5   58.59   10.80
   4  -9  -5   55.89   12.10
   4  -9  -5   57.89   11.00
  -4   9   5   70.79   19.60
   3  -9  -5   26.50    8.20
   3  -9  -5   50.29    8.90
   3  -9  -5   24.50    8.30
  -3   9   5   28.00   14.10
   2  -9  -5  616.74   53.39
   2  -9  -5  583.34   54.29
   2  -9  -5  627.44   53.69
   2  -9  -5  645.14   58.59
  -2   9   5  547.85   53.79
  -2   9   5  710.03   59.69
   1  -9  -5  142.29   21.90
   1  -9  -5  134.19   17.00
   1  -9  -5  105.49   16.10
   1  -9  -5  131.79   17.40
  -1   9   5  135.79   17.50
  -1   9   5  164.18   23.10
   0  -9  -5 1395.36  117.49
   0  -9  -5 1469.25  117.79
   0  -9  -5 1390.66  119.09
   0   9   5 1427.76  119.29
   0   9   5 1338.47  117.19
  -1  -9  -5  774.52   66.19
  -1  -9  -5  759.32   65.99
  -1  -9  -5  762.82   66.89
  -1  -9  -5  770.52   65.89
   1   9   5  728.73   65.89
   1   9   5  772.72   67.29
  -2  -9  -5  154.38   20.70
  -2  -9  -5  173.28   20.20
  -2  -9  -5  128.79   19.20
  -2  -9  -5  158.08   20.40
   2   9   5  184.08   20.60
   2   9   5  168.68   21.20
  -3  -9  -5  110.09   17.70
  -3  -9  -5  105.59   16.10
  -3  -9  -5  105.09   16.90
   3   9   5  126.79   16.60
  -4  -9  -5   83.09   14.90
  -4  -9  -5   65.59   13.30
   4   9   5   84.59   14.10
   4   9   5   55.19   13.80
  -5  -9  -5   -7.60   10.10
  -5  -9  -5    8.80   10.80
   5   9   5    0.60   16.60
   5   9   5    2.10    9.70
  -6  -9  -5   43.00   15.00
  -6  -9  -5   27.30   12.40
   6   9   5   34.40   13.20
   6   9   5   43.40   13.70
   7   9   5   24.40   14.60
   7   9   5   38.20   15.20
   7 -10  -5  170.38   23.10
  -7  10   5  215.68   41.90
   6 -10  -5   -3.50    7.90
   6 -10  -5    5.40    9.70
   6 -10  -5   11.50   11.40
  -6  10   5    7.10   19.30
   5 -10  -5  135.19   21.20
   5 -10  -5  112.59   16.80
   5 -10  -5  146.29   17.80
  -5  10   5  140.49   30.30
   4 -10  -5   51.49   11.00
   4 -10  -5   45.00   12.50
   4 -10  -5   74.49   12.20
  -4  10   5   47.90   20.30
   3 -10  -5    6.90    6.70
   3 -10  -5   13.50    7.50
   3 -10  -5    9.20    7.60
  -3  10   5    8.50   12.40
   2 -10  -5  210.38   23.50
   2 -10  -5  192.28   23.30
   2 -10  -5  166.48   21.80
  -2  10   5  233.18   31.60
   1 -10  -5  468.95   40.10
   1 -10  -5  410.96   40.00
   1 -10  -5  449.86   40.20
   1 -10  -5  392.06   43.40
  -1  10   5  463.35   44.70
  -1  10   5  422.76   39.90
   0 -10  -5   54.39   11.40
   0 -10  -5   72.89   12.10
   0 -10  -5   53.79   13.20
   0  10   5   47.40   11.60
   0  10   5   72.79   16.20
   0  10   5   41.50    9.50
  -1 -10  -5  545.75   52.09
  -1 -10  -5  585.84   52.19
  -1 -10  -5  576.34   52.49
  -1 -10  -5  554.74   53.59
   1  10   5  637.84   52.89
   1  10   5  615.54   54.49
  -2 -10  -5   35.70   10.70
  -2 -10  -5   54.19   12.00
   2  10   5   44.80   11.10
   2  10   5   26.50   12.60
  -3 -10  -5   42.90   11.60
  -3 -10  -5   38.30   11.30
   3  10   5   86.09   13.30
  -4 -10  -5  187.68   25.40
  -4 -10  -5  163.38   23.30
  -4 -10  -5  178.48   24.40
   4  10   5  247.38   25.60
  -5 -10  -5   -4.50   11.60
  -5 -10  -5    1.10   11.20
   5  10   5    9.70   11.00
   5  10   5   -6.80    9.90
  -6 -10  -5   22.50   15.30
   6  10   5   35.90   14.20
   6  10   5   43.90   14.30
  -7 -10  -5   15.70   16.70
   7  10   5   19.20   15.40
   7  10   5   37.60   16.00
   7 -11  -5    4.60   13.00
   7 -11  -5   27.10   12.30
  -7  11   5   19.30   25.30
   6 -11  -5  176.38   21.60
   6 -11  -5  180.18   26.80
  -6  11   5  163.88   34.80
   5 -11  -5   18.40   11.00
   5 -11  -5   -5.20    8.10
  -5  11   5    2.00   16.70
   4 -11  -5  459.35   42.30
   4 -11  -5  416.56   43.90
  -4  11   5  495.35   52.59
   3 -11  -5   11.30    8.30
   3 -11  -5   13.80    8.00
  -3  11   5   13.20   14.80
   2 -11  -5  147.39   20.00
   2 -11  -5  135.69   19.00
  -2  11   5  166.88   28.00
   1 -11  -5   58.79   11.70
   1 -11  -5   57.09   11.80
   1 -11  -5   31.90   13.80
  -1  11   5   67.59   17.70
   0 -11  -5   -3.00    6.30
   0 -11  -5    1.80    9.20
   0 -11  -5   -8.30    6.10
   0  11   5   10.60   11.50
  -1 -11  -5    4.90    7.20
  -1 -11  -5    3.30    9.40
   1  11   5   -5.70    7.00
   1  11   5    5.50   10.50
  -2 -11  -5  101.09   17.30
  -2 -11  -5   59.19   15.10
   2  11   5  110.29   19.50
   2  11   5  106.69   16.20
  -3 -11  -5   21.50   10.50
  -3 -11  -5    9.30    9.80
   3  11   5   14.60   10.40
  -4 -11  -5  110.79   20.30
  -4 -11  -5  151.08   30.10
  -4 -11  -5  147.29   27.00
   4  11   5  137.69   20.10
  -5 -11  -5   74.99   17.30
  -5 -11  -5   22.20   14.60
  -5 -11  -5   45.50   15.90
   5  11   5   46.10   14.80
  -6 -11  -5   23.10   15.70
   6  11   5   13.50   13.80
   7  11   5   29.90   16.10
   6 -12  -5   46.70   13.00
   6 -12  -5   20.20   13.70
   5 -12  -5    0.90    9.40
   5 -12  -5   -8.00   10.30
  -5  12   5   -9.80   16.20
   4 -12  -5  223.58   25.10
   4 -12  -5  178.88   25.00
  -4  12   5  168.38   32.90
   3 -12  -5   32.40    9.90
   3 -12  -5   27.60   10.50
   2 -12  -5   27.60    9.90
   2 -12  -5   49.00   11.20
  -2  12   5   44.10   16.80
   1 -12  -5   29.50    9.80
   1 -12  -5   35.70    9.90
  -1  12   5   27.10   14.60
   0 -12  -5  245.78   29.20
   0 -12  -5  276.57   36.00
   0 -12  -5  243.18   29.10
   0  12   5  276.67   35.90
  -1 -12  -5  255.77   29.00
  -1 -12  -5  237.18   30.80
   1  12   5  333.87   37.30
  -2 -12  -5  116.79   23.60
  -2 -12  -5  141.69   21.10
   2  12   5  182.78   22.10
   2  12   5  117.89   22.20
  -3 -12  -5    7.10   15.30
  -3 -12  -5    9.40   12.90
   3  12   5    0.20   13.60
   3  12   5    1.50    9.20
  -4 -12  -5   63.79   17.40
  -4 -12  -5   14.60   16.50
  -4 -12  -5   90.59   17.70
   4  12   5   49.10   14.00
  -5 -12  -5   73.99   18.90
  -5 -12  -5   54.49   16.80
   5  12   5   72.89   16.90
  -6 -12  -5    0.10   13.50
  -6 -12  -5   33.60   16.80
   6  12   5   20.10   14.70
   6 -13  -5   68.19   15.60
   6 -13  -5   28.00   14.60
  -6  13   5   48.90   24.90
   5 -13  -5   -1.50    9.80
  -5  13   5   -3.20   17.90
   4 -13  -5   45.90   14.00
   4 -13  -5   64.89   14.40
  -4  13   5   89.59   25.90
   3 -13  -5  165.08   24.10
   3 -13  -5  185.58   23.30
  -3  13   5  202.88   33.50
   2 -13  -5    6.80    7.20
   2 -13  -5    5.00    8.20
  -2  13   5   23.50   16.50
   1 -13  -5  213.48   31.10
   1 -13  -5  239.18   29.10
  -1  13   5  314.77   39.00
   0 -13  -5   75.49   14.30
   0 -13  -5   82.59   14.90
   0  13   5   64.09   19.20
  -1 -13  -5   40.20   11.70
  -1 -13  -5   51.89   16.20
   1  13   5   52.39   17.10
  -2 -13  -5  383.86   38.40
  -2 -13  -5  282.37   38.50
  -2 -13  -5  468.95   40.90
   2  13   5  409.76   43.10
  -3 -13  -5  -11.30   10.80
  -3 -13  -5    7.80   10.80
   3  13   5  -12.20   14.10
  -4 -13  -5  114.49   21.80
  -4 -13  -5   65.79   19.00
  -4 -13  -5  115.19   23.50
   4  13   5   98.39   18.00
  -5 -13  -5   33.90   17.40
  -5 -13  -5    5.60   12.40
   5  13   5   13.50   12.90
  -6 -13  -5   -7.60   13.80
  -6 -13  -5   -0.90   18.00
   5 -14  -5   41.50   13.80
  -5  14   5   52.49   29.30
   4 -14  -5   27.70   12.70
   4 -14  -5   32.50   13.60
  -4  14   5   28.60   18.30
   3 -14  -5  239.38   28.60
   3 -14  -5  203.68   28.70
  -3  14   5  245.38   37.60
   2 -14  -5    1.10    8.20
   2 -14  -5   14.40    8.40
  -2  14   5  -13.20   12.30
   1 -14  -5  142.39   21.40
   1 -14  -5  129.79   20.90
  -1  14   5  164.38   31.30
   0 -14  -5  117.29   19.70
   0 -14  -5  137.89   19.80
   0  14   5  100.89   24.10
  -1 -14  -5    9.30    8.30
  -1 -14  -5   10.30    9.40
   1  14   5   28.90   16.60
  -2 -14  -5  111.29   18.90
  -2 -14  -5   88.99   17.30
   2  14   5   91.59   22.90
  -3 -14  -5  125.49   21.70
  -3 -14  -5   96.59   18.80
   3  14   5   97.59   23.20
  -4 -14  -5   -0.10   12.20
  -4 -14  -5   10.10   16.70
  -4 -14  -5    3.40   11.10
  -5 -14  -5  109.79   24.60
  -5 -14  -5   78.29   20.70
  -5 -14  -5   99.79   20.70
   5 -15  -5   75.39   20.40
   5 -15  -5  105.89   20.40
  -5  15   5   95.79   28.00
   4 -15  -5   -1.70   10.50
   4 -15  -5   -2.90   10.70
  -4  15   5    8.90   16.30
   3 -15  -5  296.37   34.60
   3 -15  -5  258.07   34.50
  -3  15   5  328.27   46.30
   2 -15  -5   49.50   14.20
   2 -15  -5   48.00   13.10
  -2  15   5   79.09   23.50
   1 -15  -5  144.79   20.90
   1 -15  -5   96.49   17.90
  -1  15   5  166.58   30.30
   0 -15  -5  281.87   32.20
   0 -15  -5  265.77   31.30
   0  15   5  354.46   48.20
  -1 -15  -5    5.60    8.90
  -1 -15  -5   -1.60    8.80
   1  15   5    5.10   17.50
  -2 -15  -5   88.59   17.50
  -2 -15  -5   52.69   14.30
   2  15   5   69.29   21.40
  -3 -15  -5  116.39   19.60
  -3 -15  -5   81.59   19.10
   3  15   5   59.99   22.50
  -4 -15  -5   -1.40   10.70
  -4 -15  -5   -7.60   18.40
  -4 -15  -5   17.80   14.70
  -5 -15  -5   23.10   20.60
  -5 -15  -5   10.30   15.90
  -5 -15  -5    7.00   16.10
   4 -16  -5   21.70   12.30
   4 -16  -5   13.40   12.60
  -4  16   5  -22.40   17.60
   3 -16  -5   72.19   17.00
  -3  16   5   91.69   27.30
   2 -16  -5  270.57   35.50
   2 -16  -5  311.47   37.40
  -2  16   5  344.97   49.10
   1 -16  -5   -2.50    9.40
   1 -16  -5    9.60    9.10
  -1  16   5    3.00   18.50
   0 -16  -5  167.58   25.30
   0 -16  -5  143.59   22.70
   0  16   5  158.48   32.40
  -1 -16  -5  131.89   21.00
  -1 -16  -5  121.69   20.80
   1  16   5  107.59   27.00
  -2 -16  -5    7.50   11.30
  -2 -16  -5   37.10   14.30
   2  16   5    2.60   18.70
  -3 -16  -5  103.89   20.50
  -3 -16  -5  101.59   24.10
   3  16   5   88.09   26.70
  -4 -16  -5   37.80   15.20
  -4 -16  -5   30.60   15.60
  -4 -16  -5    7.00   21.70
   3 -17  -5   53.49   16.10
  -3  17   5   48.20   25.10
   2 -17  -5  144.99   23.50
   2 -17  -5  179.68   30.90
  -2  17   5   89.29   29.90
   1 -17  -5   81.39   18.80
  -1  17   5   41.00   24.00
   0 -17  -5   62.19   19.40
   0 -17  -5   67.49   16.10
   0  17   5   80.09   27.40
  -1 -17  -5   81.79   17.40
   1  17   5   82.99   26.50
  -2 -17  -5    8.70   11.80
  -2 -17  -5    4.30   13.30
   2  17   5   11.40   20.90
  -3 -17  -5   72.99   19.60
  -3 -17  -5   77.59   18.60
   1 -18  -5   25.80   13.50
   1 -18  -5   47.10   15.30
  -1  18   5    5.20   42.10
   0 -18  -5    5.50   10.20
   0 -18  -5   12.40   13.10
   0  18   5   12.70   23.70
  -1 -18  -5   88.99   20.30
  -1 -18  -5   41.80   14.80
   1  18   5   71.49   28.10
   0  14  -6   60.19   31.60
   0 -14   6   65.49   18.10
   0 -14   6   47.20   14.00
  -1  14  -6   35.80   28.00
   1 -14   6   70.39   18.00
   1 -14   6   84.59   17.20
   2 -14   6  278.47   36.60
  -2 -13   6   20.00   27.80
  -2 -13   6    8.30   15.00
  -2 -13   6   -2.10   15.30
   1  13  -6  167.78   44.20
  -1 -13   6  137.39   23.80
  -1 -13   6  160.08   23.10
   0 -13   6  102.49   19.50
   0 -13   6   99.39   17.10
   1 -13   6   65.89   21.90
   1 -13   6   17.90   11.50
   2 -13   6   56.49   15.30
   2 -13   6   69.79   24.50
  -3  13  -6   45.10   26.90
   3 -13   6   75.69   18.40
   3 -13   6   91.39   19.10
  -3 -12   6   54.59   30.50
  -3 -12   6   51.69   12.30
  -3 -12   6   63.99   16.90
  -2 -12   6   -6.10   11.20
  -2 -12   6    0.10   23.70
  -2 -12   6    2.10    8.30
   1  12  -6   88.49   28.80
  -1 -12   6   89.79   17.40
  -1 -12   6   95.09   15.30
   0  12  -6   49.70   26.90
   0 -12   6   53.79   15.30
   0 -12   6   79.49   13.90
  -1  12  -6   -2.30   20.80
   1 -12   6    8.40   11.60
   1 -12   6   -0.10   10.80
  -2  12  -6    3.60   19.80
   2 -12   6    4.80   10.80
   2 -12   6   15.50   10.50
  -3  12  -6   47.30   24.80
   3 -12   6   25.60   13.30
   3 -12   6   33.30   12.90
   4 -12   6    7.50   11.50
  -5  12  -6   18.30   24.80
   5 -12   6   23.00   15.30
   5 -12   6   10.10   12.30
  -4 -11   6  -20.30   27.20
  -4 -11   6    6.50    9.60
  -4 -11   6    5.10   12.00
  -3 -11   6   30.70    9.80
  -3 -11   6   40.60   26.30
  -3 -11   6   45.80   13.80
  -2 -11   6   28.60    9.60
  -2 -11   6    5.50   23.20
  -2 -11   6   31.10   11.90
   1  11  -6    0.80   19.80
  -1 -11   6  -10.70    9.10
  -1 -11   6    0.40    6.50
   0  11  -6  269.87   44.30
   0 -11   6  238.48   30.50
   0 -11   6  293.87   28.60
  -1  11  -6   44.00   23.30
   1 -11   6   29.30   10.40
   1 -11   6   42.00   12.60
  -2  11  -6  178.88   34.70
   2 -11   6  188.58   23.60
   2 -11   6  156.68   23.90
  -3  11  -6  144.29   32.00
   3 -11   6  168.08   23.90
   3 -11   6  159.78   23.80
  -4  11  -6   -3.60   19.20
   4 -11   6    1.20    9.20
   4 -11   6   -1.40   11.30
  -5  11  -6  119.89   38.80
   5 -11   6   76.19   20.60
   5 -11   6   79.79   19.00
  -5 -10   6   83.59   15.90
  -5 -10   6   96.19   32.80
  -4 -10   6    5.60   10.60
  -4 -10   6    9.20   23.80
  -4 -10   6   -0.60    8.50
  -3 -10   6  124.49   16.40
  -3 -10   6  144.59   33.50
  -3 -10   6  145.99   20.20
  -3 -10   6   82.59   17.90
  -2 -10   6   -1.60    6.50
  -2 -10   6   -0.20    9.90
  -2 -10   6   21.30   10.80
  -2 -10   6   -0.10   20.60
   1  10  -6   49.50   23.00
  -1 -10   6   30.00   11.40
  -1 -10   6   21.70   10.00
  -1 -10   6   29.40    8.90
   0  10  -6   42.70   22.50
   0 -10   6   54.19   10.90
   0 -10   6   40.00   12.70
  -1  10  -6   40.50   21.00
   1 -10   6   56.89   12.10
   1 -10   6   73.59   14.80
  -2  10  -6  -13.60   15.50
   2 -10   6   -5.60    9.00
   2 -10   6   -0.20    7.90
  -3  10  -6  146.29   30.90
   3 -10   6  159.28   22.80
   3 -10   6  126.49   22.20
  -4  10  -6  265.37   42.90
   4 -10   6  317.77   34.50
   4 -10   6  235.68   31.60
  -5  10  -6   17.10   20.90
   5 -10   6   22.80   12.90
   5 -10   6   15.80   13.00
  -6  10  -6  222.58   50.89
   6 -10   6  166.68   37.90
   6 -10   6  212.68   30.60
  -5  -9   6   51.59   14.30
  -5  -9   6   11.10   25.20
  -5  -9   6   49.90   13.30
  -4  -9   6  136.49   19.50
  -4  -9   6  110.19   31.00
  -4  -9   6  131.89   17.50
  -4  -9   6  118.09   23.60
  -3  -9   6   36.10    9.30
  -3  -9   6    6.10   20.80
  -3  -9   6   26.40   10.80
  -2  -9   6  230.58   21.60
  -2  -9   6  163.18   22.50
  -2  -9   6  180.98   24.20
  -2  -9   6  234.48   37.20
   1   9  -6    2.60   19.40
  -1  -9   6   28.50   10.30
  -1  -9   6    3.60    5.90
  -1  -9   6    9.10    8.20
   0   9  -6   53.09   13.90
   0   9  -6   78.99   39.80
   0  -9   6   82.69   12.10
   0  -9   6   81.99   14.80
  -1   9  -6  333.57   34.60
  -1   9  -6  394.66   54.19
   1  -9   6  402.16   37.30
   1  -9   6  363.86   35.00
   2  -9   6   38.70   13.60
   2  -9   6    8.20    7.90
  -3   9  -6  191.18   31.90
   3  -9   6  126.29   20.00
   3  -9   6  121.39   19.10
  -4   9  -6  173.38   32.20
   4  -9   6  141.09   21.70
   4  -9   6  154.38   22.60
  -5   9  -6   28.10   19.90
   5  -9   6    6.70   11.50
   5  -9   6   -3.90   10.00
  -6   9  -6   -0.60   20.20
   6  -9   6    1.90   11.10
   6  -9   6   -1.10   11.50
  -6  -8   6    8.80   12.20
  -6  -8   6   30.10   32.40
  -5  -8   6   26.00   11.40
  -5  -8   6   19.70   10.40
  -5  -8   6   23.40   24.70
  -4  -8   6   17.80   20.70
  -4  -8   6   38.70   11.70
  -4  -8   6   52.19   10.80
  -4  -8   6   27.60   21.80
  -3  -8   6   27.80   21.50
  -3  -8   6   45.10   11.30
  -3  -8   6   18.10    9.00
  -3  -8   6   23.30    8.20
  -2  -8   6   -5.70    7.40
  -2  -8   6   13.50    8.50
  -2  -8   6   13.70    8.00
  -2  -8   6    1.60   21.10
   1   8  -6  396.16   44.30
  -1  -8   6  281.17   29.00
  -1  -8   6  283.07   28.70
  -1  -8   6  307.57   30.90
   0   8  -6   12.70   17.40
   0   8  -6   14.60    7.40
   0  -8   6    7.60    8.30
   0  -8   6   19.00    6.90
  -1   8  -6  623.54   59.79
  -1   8  -6  690.73   69.59
   1  -8   6  699.43   61.69
   1  -8   6  753.12   60.39
  -2   8  -6   18.80   16.30
  -2   8  -6   30.80    9.00
   2  -8   6   21.40    8.90
   2  -8   6   15.10    9.80
  -3   8  -6   25.60   16.70
   3  -8   6   16.60    9.70
   3  -8   6   18.40    8.70
   4  -8   6   49.40   12.90
   4  -8   6   61.09   13.80
  -5   8  -6   62.79   23.50
   5  -8   6   81.39   16.40
   5  -8   6   39.50   13.90
  -6   8  -6   -0.60   18.90
   6  -8   6    0.50   11.80
   6  -8   6    4.10   11.90
  -7   8  -6   97.19   30.90
   7  -8   6   52.19   17.80
   7  -8   6   95.59   19.60
  -6  -7   6   22.30   13.10
  -6  -7   6   36.40   24.70
  -6  -7   6   14.00   16.40
  -5  -7   6   51.19   13.60
  -5  -7   6   43.50   13.40
  -5  -7   6   46.80   24.30
  -5  -7   6   32.70   11.30
  -5  -7   6   26.10   10.30
  -4  -7   6   96.19   16.50
  -4  -7   6   93.49   13.70
  -4  -7   6   79.99   14.40
  -4  -7   6   84.39   25.00
  -4  -7   6   85.49   14.10
  -3  -7   6    9.70    7.00
  -3  -7   6   -3.80   20.40
  -3  -7   6    8.60    8.20
  -3  -7   6   19.00   10.10
  -3  -7   6    9.90    6.50
  -2  -7   6  161.98   19.60
  -2  -7   6  162.68   29.30
  -2  -7   6  162.68   16.60
  -2  -7   6  116.49   18.90
  -2  -7   6  143.89   17.40
   1   7  -6   13.60   16.30
   1   7  -6   34.70   16.70
  -1  -7   6   27.90    6.80
  -1  -7   6   20.40    8.20
  -1  -7   6   20.90    7.30
   0   7  -6   17.00   16.30
   0   7  -6   14.90    6.50
   0  -7   6   23.70    6.40
   0  -7   6   14.80    8.70
  -1   7  -6   40.30   17.20
  -1   7  -6   25.50    7.50
   1  -7   6   55.79   11.20
   1  -7   6   34.40    8.20
  -2   7  -6  296.87   40.10
  -2   7  -6  315.27   31.90
   2  -7   6  305.47   30.60
   2  -7   6  339.67   32.60
  -3   7  -6    6.90   15.20
   3  -7   6   -3.00    6.50
   3  -7   6    4.50    8.00
  -4   7  -6  286.27   37.80
   4  -7   6  255.37   28.30
   4  -7   6  245.58   28.20
   5  -7   6  122.19   19.70
   5  -7   6  112.69   19.40
  -6   7  -6   -0.30   18.40
   6  -7   6   44.10   14.10
   6  -7   6   31.60   13.30
  -7   7  -6   71.49   27.20
   7  -7   6   67.79   18.40
   7  -7   6   43.70   16.80
  -6  -6   6   56.59   13.50
  -6  -6   6   32.10    9.40
  -6  -6   6   39.30   24.90
  -5  -6   6  105.49   15.10
  -5  -6   6  119.59   28.70
  -5  -6   6   51.99   13.70
  -5  -6   6  109.49   16.50
  -5  -6   6   76.09   13.80
  -4  -6   6  282.87   25.70
  -4  -6   6  211.88   25.40
  -4  -6   6  245.78   44.70
  -4  -6   6  245.48   26.60
  -3  -6   6  553.34   47.10
  -3  -6   6  579.54   46.20
  -3  -6   6  552.24   57.89
  -3  -6   6  460.25   46.00
  -3  -6   6  504.95   49.00
  -2  -6   6   94.09   11.90
  -2  -6   6  110.69   14.60
  -2  -6   6  105.19   13.10
  -2  -6   6  120.59   24.60
  -2  -6   6   89.89   16.70
   1   6  -6  305.87   39.30
   1   6  -6  304.57   29.20
  -1  -6   6  277.57   26.20
  -1  -6   6  251.67   25.30
  -1  -6   6  316.07   28.60
   0   6  -6   67.69    9.80
   0   6  -6   66.49   18.00
   0   6  -6   61.79   12.10
   0  -6   6   56.19   16.80
   0  -6   6   75.89   12.10
   0  -6   6   69.69    9.60
  -1   6  -6   40.90   15.80
  -1   6  -6   16.80    6.00
  -1   6  -6    8.60    7.70
   1  -6   6   22.60    6.70
   1  -6   6   13.70   12.70
   1  -6   6   15.00    7.60
  -2   6  -6  338.07   35.60
  -2   6  -6  205.88   24.60
   2  -6   6  246.78   25.20
   2  -6   6  269.67   26.80
   2  -6   6  280.17   32.40
  -3   6  -6  179.88   28.10
  -3   6  -6  118.59   17.20
   3  -6   6  139.19   18.60
   3  -6   6  158.78   19.10
  -4   6  -6   89.09   22.30
   4  -6   6   86.29   16.10
   4  -6   6  112.39   16.90
  -5   6  -6  216.68   32.30
   5  -6   6  200.58   25.10
   5  -6   6  164.78   24.20
  -6   6  -6   76.19   35.70
   6  -6   6   42.70   13.70
   6  -6   6   11.30   10.80
  -7   6  -6   23.00   21.00
   7  -6   6   13.50   12.30
   7  -6   6   34.50   13.70
  -8   6  -6   96.49   31.80
   8  -6   6   66.79   20.60
   8  -6   6   64.99   19.40
   7   5  -6    1.30   13.00
  -6  -5   6   91.39   27.60
  -5  -5   6   38.50    9.40
  -5  -5   6   23.80   12.50
  -5  -5   6   20.30    8.00
  -5  -5   6    9.80   18.10
  -4  -5   6    5.80    7.00
  -4  -5   6   30.80   19.00
  -4  -5   6   13.70    7.60
  -4  -5   6   16.70    8.70
  -4  -5   6    1.20    7.00
  -3  -5   6  615.84   54.59
  -3  -5   6  467.15   43.20
  -3  -5   6  478.15   43.00
  -3  -5   6  496.45   44.50
  -2  -5   6  274.77   31.70
  -2  -5   6  374.96   31.90
  -2  -5   6  348.37   29.80
  -2  -5   6  362.36   41.00
   1   5  -6  372.56   35.20
  -1  -5   6  362.86   42.70
  -1  -5   6  387.86   32.80
  -1  -5   6  386.26   35.10
  -1  -5   6  376.46   33.10
   0   5  -6  327.97   38.30
   0   5  -6  310.27   30.60
   0   5  -6  334.17   28.80
   0  -5   6  345.37   28.70
   0  -5   6  267.47   35.10
   0  -5   6  318.57   30.70
  -1   5  -6   11.40    7.60
  -1   5  -6   19.20   12.00
  -1   5  -6    7.40    4.70
   1  -5   6   11.30    5.50
   1  -5   6   20.70   12.40
   1  -5   6    3.60    7.00
  -2   5  -6  409.46   42.50
  -2   5  -6  399.46   36.30
  -2   5  -6  402.76   35.10
   2  -5   6  369.86   35.20
   2  -5   6  373.56   36.20
   2  -5   6  369.26   40.20
  -3   5  -6   27.70   13.90
  -3   5  -6   26.20   10.00
   3  -5   6   27.10   13.00
   3  -5   6   25.80    9.00
   3  -5   6   23.50    7.80
  -4   5  -6   43.80   16.50
   4  -5   6   30.90   17.60
   4  -5   6   33.60   10.10
   4  -5   6   22.10    9.50
  -5   5  -6  226.68   32.40
   5  -5   6  207.78   26.70
   5  -5   6  198.88   25.10
  -6   5  -6   74.19   22.60
   6  -5   6   56.39   15.10
   6  -5   6   51.69   14.90
  -7   5  -6    6.50   17.60
   7  -5   6  -15.60   10.40
   7  -5   6   -3.00   11.10
  -8   5  -6  110.09   31.20
   8  -5   6   59.69   17.90
   8  -5   6   88.39   20.70
   7   4  -6    1.30   11.80
  -7  -4   6   15.70   23.00
   6   4  -6  317.57   30.80
  -6  -4   6  218.98   39.90
   5   4  -6  125.19   15.90
  -5  -4   6  106.59   26.30
  -5  -4   6   80.59   14.10
  -5  -4   6   91.49   11.60
  -4  -4   6   77.89   22.70
  -4  -4   6   79.19   11.20
  -4  -4   6   66.69   10.90
  -4  -4   6   66.59   10.70
  -3  -4   6  153.88   17.10
  -3  -4   6  154.28   17.40
  -3  -4   6  152.38   16.60
  -3  -4   6  152.08   16.40
  -3  -4   6  153.68   26.80
  -2  -4   6  210.08   28.10
  -2  -4   6  180.18   16.60
  -2  -4   6  172.68   18.50
  -2  -4   6  175.18   16.70
  -2  -4   6  135.49   25.20
   1   4  -6   17.10    6.80
  -1  -4   6   13.20    5.60
  -1  -4   6    1.00    3.30
  -1  -4   6    8.50   14.00
  -1  -4   6    1.90    3.90
   0   4  -6  211.68   21.80
   0   4  -6  200.08   19.50
   0   4  -6  231.58   29.30
   0  -4   6  198.88   27.10
   0  -4   6  222.48   24.70
   0  -4   6  223.48   19.50
  -1   4  -6  132.99   21.50
  -1   4  -6  134.89   13.60
  -1   4  -6  108.29   15.20
   1  -4   6  126.19   15.70
   1  -4   6  136.29   20.70
   1  -4   6  119.59   13.80
  -2   4  -6  264.07   31.60
  -2   4  -6  272.57   25.40
   2  -4   6  272.77   26.40
   2  -4   6  274.97   25.50
   2  -4   6  240.28   30.10
  -3   4  -6  702.13   60.99
  -3   4  -6  570.64   55.89
  -3   4  -6  602.94   55.69
   3  -4   6  669.13   56.39
   3  -4   6  708.43   56.29
   3  -4   6  610.64   59.59
  -4   4  -6   56.29   16.80
  -4   4  -6   43.70   10.60
   4  -4   6   58.09   12.70
   4  -4   6   50.89   15.80
   4  -4   6   65.69   12.10
  -5   4  -6  743.53   67.99
   5  -4   6  727.93   62.69
   5  -4   6  699.73   72.09
   5  -4   6  658.53   63.29
  -6   4  -6   82.69   21.40
   6  -4   6   70.19   15.20
   6  -4   6   81.39   16.90
  -7   4  -6    1.10   17.90
   7  -4   6   -1.20   10.40
   7  -4   6   -2.70   12.50
  -8   4  -6   66.59   28.40
   8  -4   6   20.10   14.00
   8  -4   6   31.10   14.70
   7   3  -6   -2.10   11.50
  -7  -3   6   20.30   23.80
   6   3  -6   27.00   11.50
  -6  -3   6   35.50   23.00
   5   3  -6  151.08   19.30
  -5  -3   6  169.28   20.00
  -5  -3   6  209.28   37.00
   4   3  -6   24.30    7.60
  -4  -3   6   13.80    6.60
  -4  -3   6   24.30    7.20
  -4  -3   6   14.90    5.90
  -4  -3   6   17.80   16.10
  -3  -3   6  132.39   14.10
  -3  -3   6  116.59   22.10
  -3  -3   6  165.78   14.50
  -3  -3   6   47.30   20.30
  -3  -3   6  119.19   14.20
   2   3  -6  175.08   17.40
  -2  -3   6  110.49   23.30
  -2  -3   6  191.18   16.90
  -2  -3   6  161.58   14.90
  -2  -3   6  136.89   14.80
  -2  -3   6  176.68   26.30
   1   3  -6  158.48   16.10
  -1  -3   6  177.78   23.90
  -1  -3   6  138.79   13.10
  -1  -3   6  157.68   16.00
  -1  -3   6  139.39   13.30
  -1  -3   6  126.49   21.20
   0   3  -6  128.79   15.10
   0   3  -6  123.79   12.70
   0   3  -6  164.68   25.60
   0  -3   6  129.89   12.60
   0  -3   6  150.18   15.70
   0  -3   6  124.69   19.60
  -1   3  -6  958.50   81.99
  -1   3  -6  940.61   83.09
  -1   3  -6 1076.69   87.39
   1  -3   6 1002.10   82.09
   1  -3   6 1081.39   83.79
   1  -3   6  913.01   85.99
  -2   3  -6   21.20   10.90
  -2   3  -6   24.80    6.60
  -2   3  -6   19.60    6.70
   2  -3   6    8.80    5.50
   2  -3   6   19.20   10.50
   2  -3   6   14.90    6.70
  -3   3  -6  578.04   55.99
  -3   3  -6  504.85   49.20
   3  -3   6  561.44   52.59
   3  -3   6  597.84   49.99
   3  -3   6  593.24   49.90
  -4   3  -6  438.46   40.90
  -4   3  -6  363.76   36.10
  -4   3  -6  344.67   36.10
   4  -3   6  360.66   39.80
   4  -3   6  399.56   36.20
   4  -3   6  422.76   37.00
  -5   3  -6   47.90   15.40
   5  -3   6   19.20   10.40
   5  -3   6   13.30   13.20
   5  -3   6    4.90    8.90
  -6   3  -6  547.45   52.39
   6  -3   6  450.65   44.50
   6  -3   6  452.25   46.60
  -7   3  -6   32.60   18.70
   7  -3   6   30.40   13.70
   7  -3   6   28.90   12.30
  -8   3  -6   35.70   24.40
   8  -3   6   63.39   16.40
   7   2  -6    7.20   11.80
  -7  -2   6   10.70   22.90
   6   2  -6   53.59   12.90
  -6  -2   6   51.49   23.00
   5   2  -6   36.10   10.20
  -5  -2   6   54.49   21.00
   4   2  -6  169.88   18.40
  -4  -2   6  154.68   17.70
  -4  -2   6  175.48   28.30
  -3  -2   6   40.50   14.20
  -3  -2   6   22.70    5.50
  -3  -2   6   23.70   14.50
   2   2  -6 1062.39   92.99
  -2  -2   6 1123.69   91.89
  -2  -2   6 1182.78   92.89
  -2  -2   6 1132.89   98.09
  -2  -2   6 1052.99   98.59
  -2  -2   6 1160.68   91.89
   1   2  -6   70.19   10.10
  -1  -2   6   63.89   15.60
  -1  -2   6  100.19   10.80
  -1  -2   6   96.49   17.60
   0   2  -6 1251.17  105.19
   0   2  -6 1213.18  101.09
   0   2  -6 1223.98   99.49
   0  -2   6 1193.18  100.99
   0  -2   6 1217.48  104.39
   0  -2   6 1230.58   99.49
  -1   2  -6  228.98   25.80
  -1   2  -6  190.38   17.90
  -1   2  -6  208.58   19.70
   1  -2   6  179.38   19.40
   1  -2   6  160.08   22.60
   1  -2   6  199.08   18.00
  -2   2  -6   30.40   10.90
  -2   2  -6   11.10    6.30
  -2   2  -6   14.30    5.70
   2  -2   6   17.40    9.40
   2  -2   6   18.30    7.80
   2  -2   6   28.70    6.30
  -3   2  -6   31.30    8.40
  -3   2  -6   50.39   12.00
   3  -2   6   45.90   11.20
   3  -2   6   45.90    9.10
  -4   2  -6  131.99   19.70
  -4   2  -6   97.09   14.90
  -4   2  -6  101.29   15.00
   4  -2   6  119.19   15.80
   4  -2   6   91.79   17.10
   4  -2   6  118.99   16.50
  -5   2  -6   10.60    8.60
  -5   2  -6    3.70   13.20
   5  -2   6    2.00    7.70
   5  -2   6    6.70    8.20
   5  -2   6   17.00   13.10
  -6   2  -6   75.59   19.20
   6  -2   6   71.19   15.00
   6  -2   6   44.40   17.40
   6  -2   6   61.19   17.70
  -7   2  -6  112.09   24.80
   7  -2   6   86.09   19.00
   7  -2   6   95.59   16.90
  -8   2  -6   -9.30   18.50
   8  -2   6    1.80   11.30
   8  -2   6   15.00   13.80
   7   1  -6   59.09   15.20
  -7  -1   6   45.50   25.80
   6   1  -6   -1.90    8.70
  -6  -1   6    8.80   18.70
   5   1  -6  142.69   16.60
  -5  -1   6   78.19   14.20
  -5  -1   6  120.29   26.30
   4   1  -6  115.09   14.60
  -4  -1   6  125.29   14.40
  -4  -1   6  114.89   23.80
   3   1  -6   41.60   16.00
   3   1  -6   57.69    7.80
  -3  -1   6   51.09    7.40
  -3  -1   6   39.50   14.40
  -3  -1   6   56.29    6.60
  -3  -1   6   47.40    6.70
   2   1  -6  249.97   20.70
   2   1  -6  248.58   21.80
   2   1  -6  251.67   29.20
  -2  -1   6  229.38   20.60
  -2  -1   6  236.68   21.50
  -2  -1   6  229.88   28.60
  -1  -1   6  546.85   54.19
  -1  -1   6  576.04   53.69
  -1  -1   6  605.64   49.10
   0   1  -6   70.69    9.20
   0   1  -6   60.29    6.40
   0  -1   6   93.59   10.40
   0  -1   6   93.69   15.40
   0  -1   6   46.60   12.70
  -1   1  -6  215.28   20.80
  -1   1  -6  253.87   27.30
  -1   1  -6  250.57   22.50
   1  -1   6  221.48   25.30
   1  -1   6  227.88   22.40
   1  -1   6  245.68   21.00
  -2   1  -6  160.28   19.20
  -2   1  -6  143.99   16.20
  -2   1  -6  133.69   14.70
   2  -1   6  156.78   16.60
   2  -1   6  134.29   14.80
   2  -1   6  120.79   17.60
  -3   1  -6  289.57   27.50
  -3   1  -6  239.38   23.80
  -3   1  -6  198.08   23.70
   3  -1   6  218.78   25.80
   3  -1   6  265.87   24.40
   3  -1   6  283.37   25.10
  -4   1  -6   95.89   15.20
  -4   1  -6  130.89   18.60
  -4   1  -6  147.79   18.90
   4  -1   6   95.19   16.70
   4  -1   6  117.69   15.50
   4  -1   6  144.39   17.90
  -5   1  -6   -4.00   10.70
  -5   1  -6    7.50    8.10
   5  -1   6    7.30    8.40
   5  -1   6  -10.90   11.10
   5  -1   6    8.50    8.10
  -6   1  -6  409.76   42.20
   6  -1   6  381.86   42.40
   6  -1   6  411.86   37.50
   6  -1   6  321.77   37.90
  -7   1  -6   37.80   18.30
   7  -1   6   22.40   11.40
   7  -1   6   37.90   20.10
   7  -1   6   11.80   12.20
  -8   1  -6   11.50   19.50
   8  -1   6    1.80   12.00
   8   0  -6    7.90   14.20
  -8   0   6    7.70   27.30
   7   0  -6   13.50   12.10
  -7   0   6   11.50   21.80
   6   0  -6   21.90   11.10
  -6   0   6   19.70   19.30
   5   0  -6   77.49   13.60
  -5   0   6   79.39   12.90
  -5   0   6   83.89   23.10
   4   0  -6  375.26   34.40
  -4   0   6  372.96   34.30
  -4   0   6  405.06   43.40
   3   0  -6   34.00    6.70
  -3   0   6   39.40   13.90
  -3   0   6   33.50    6.10
   2   0  -6  330.57   27.80
   2   0  -6  332.87   27.40
   2   0  -6  293.67   33.90
  -2   0   6  326.57   27.30
  -2   0   6  315.57   27.60
   1   0  -6  329.87   33.70
   1   0  -6  319.87   28.90
  -1   0   6  358.56   29.20
  -1   0   6  315.77   33.30
   0   0  -6  167.88   16.90
   0   0   6  164.28   16.60
   0   0   6  160.98   20.70
   0   0   6  196.98   21.50
  -1   0  -6  101.69   10.40
  -1   0  -6   96.79   11.30
  -1   0  -6   82.49   14.80
   1   0   6   97.19   12.00
   1   0   6   99.49   10.40
   1   0   6   74.59   13.10
  -2   0  -6  478.75   40.60
  -2   0  -6  454.65   41.00
  -2   0  -6  477.65   42.80
   2   0   6  427.36   41.80
   2   0   6  482.75   40.70
   2   0   6  501.25   41.30
  -3   0  -6  148.09   16.70
  -3   0  -6  159.18   19.00
  -3   0  -6  149.79   17.30
   3   0   6  179.18   18.80
   3   0   6  130.49   18.50
   3   0   6  149.39   17.00
  -4   0  -6   82.69   14.20
  -4   0  -6   82.09   12.70
   4   0   6  105.99   14.90
   4   0   6   62.49   12.10
   4   0   6   94.39   13.90
  -5   0  -6  270.27   30.70
  -5   0  -6  253.47   27.90
   5   0   6  295.87   28.40
   5   0   6  298.27   29.40
   5   0   6  266.17   31.00
  -6   0  -6   72.89   17.80
   6   0   6   59.19   15.00
   6   0   6   69.39   17.70
   6   0   6   79.09   15.10
  -7   0  -6  327.87   36.70
   7   0   6  259.17   35.10
   7   0   6  215.78   31.30
   7   0   6  282.17   30.20
  -8   0  -6   19.00   19.90
   8   0   6   29.20   16.00
   8   0   6   22.00   12.90
   8  -1  -6    1.80   14.30
  -8   1   6   -1.90   37.60
   7  -1  -6   22.70   12.30
  -7   1   6   28.80   24.10
   6  -1  -6   45.90   12.30
  -6   1   6   34.40   20.90
   5  -1  -6   26.30    9.90
  -5   1   6   10.00   16.40
  -5   1   6   27.80    8.60
   4  -1  -6  255.77   26.40
  -4   1   6  266.87   26.10
  -4   1   6  346.47   36.60
   3  -1  -6  409.96   35.70
   3  -1  -6  389.36   43.80
  -3   1   6  394.26   37.50
  -3   1   6  447.66   42.70
   2  -1  -6  182.38   16.10
   2  -1  -6  202.18   24.90
   2  -1  -6  173.68   16.50
  -2   1   6  203.18   25.10
  -2   1   6  178.78   16.20
  -2   1   6  185.08   16.50
   1  -1  -6 1104.39   96.89
   1  -1  -6 1107.49   93.59
   1  -1  -6 1249.28   93.09
  -1   1   6 1086.59   93.69
  -1   1   6 1146.19   97.19
   0  -1  -6  178.68   16.00
   0  -1  -6  195.78   18.10
   0   1   6  184.18   20.50
   0   1   6  186.48   17.80
  -1  -1  -6  255.67   23.40
  -1  -1  -6  239.38   22.30
   1   1   6  262.87   25.40
   1   1   6  260.17   22.40
   1   1   6  240.18   25.10
   1   1   6  256.57   23.60
  -2  -1  -6  594.24   49.20
  -2  -1  -6  582.64   49.30
  -2  -1  -6  552.24   49.80
   2   1   6  540.95   49.10
   2   1   6  590.64   49.20
   2   1   6  600.84   49.50
  -3  -1  -6   25.70    7.00
  -3  -1  -6   25.50    7.00
  -3  -1  -6   35.60    8.10
   3   1   6   29.60    7.40
   3   1   6   23.90    6.80
   3   1   6   24.10    7.70
  -4  -1  -6  165.18   19.00
  -4  -1  -6  151.88   18.30
   4   1   6  166.98   19.50
   4   1   6  137.39   17.80
   4   1   6  157.98   18.40
  -5  -1  -6  347.47   35.20
  -5  -1  -6  402.46   37.10
   5   1   6  377.66   36.50
   5   1   6  338.17   36.00
   5   1   6  395.26   35.70
  -6  -1  -6   -0.10   11.80
   6   1   6   11.50   12.80
   6   1   6  -13.80    8.00
   6   1   6   -6.90    9.30
  -7  -1  -6  270.97   31.10
   7   1   6  161.88   26.70
   7   1   6  187.98   28.70
   7   1   6  200.48   25.00
  -8  -1  -6   65.29   22.80
   8   1   6   74.49   16.30
   8   1   6   45.00   16.70
   8  -2  -6   -7.10   13.20
  -8   2   6    6.10   41.90
  -7   2   6  109.19   29.20
   6  -2  -6  153.78   20.90
  -6   2   6  152.88   30.70
   5  -2  -6  100.79   14.90
  -5   2   6   56.59   14.40
  -5   2   6  108.69   23.70
   4  -2  -6   30.70   17.70
   4  -2  -6   33.50    8.10
  -4   2   6   25.30   15.40
  -4   2   6   19.00    6.70
   3  -2  -6   59.39   57.79
   3  -2  -6   63.49   92.79
  -3   2   6   85.19   77.89
  -3   2   6   52.19   66.69
   2  -2  -6    2.20    3.50
   2  -2  -6   16.80    9.20
   2  -2  -6    4.50    3.00
  -2   2   6    0.30    8.80
  -2   2   6    2.20    3.20
  -2   2   6   -1.20    2.90
   1  -2  -6    2.20    7.30
   1  -2  -6    8.30    3.10
   1  -2  -6    3.50    3.70
  -1   2   6    2.10    2.70
  -1   2   6   10.70    4.70
  -1   2   6    5.90    9.00
   0  -2  -6  574.44   48.40
   0  -2  -6  579.54   51.19
   0  -2  -6  587.64   48.40
   0  -2  -6  591.14   49.10
   0   2   6  594.24   49.20
   0   2   6  574.64   50.99
  -1  -2  -6   78.89   10.50
  -1  -2  -6   68.29    9.00
   1   2   6   74.79    9.20
   1   2   6   77.89   10.20
   1   2   6   78.59   10.70
   1   2   6   67.09   10.90
  -2  -2  -6  912.91   70.39
  -2  -2  -6  810.92   70.09
   2   2   6  876.51   70.29
   2   2   6  817.82   70.09
   2   2   6  784.62   69.09
  -3  -2  -6  148.29   15.80
  -3  -2  -6  131.89   16.90
  -3  -2  -6  141.09   16.70
   3   2   6  155.08   15.20
   3   2   6  164.48   18.10
   3   2   6  174.48   18.20
  -4  -2  -6   61.59   11.10
  -4  -2  -6   58.69   10.10
   4   2   6   79.69   12.00
   4   2   6   49.20    9.30
   4   2   6   69.89   11.50
  -5  -2  -6  185.48   22.90
  -5  -2  -6  216.88   23.00
   5   2   6  180.98   22.20
   5   2   6  198.78   23.80
  -6  -2  -6    3.20   10.60
   6   2   6    2.30    9.50
   6   2   6   20.90   12.40
   6   2   6    4.60    9.50
  -7  -2  -6   38.10   18.40
   7   2   6    5.00   10.70
   7   2   6   37.40   16.20
   7   2   6   12.20   12.40
  -8  -2  -6   48.20   20.20
   8   2   6   32.70   13.90
   8   2   6    8.20   13.60
   8  -3  -6    8.10   13.50
  -8   3   6   -8.80   26.00
   7  -3  -6   18.90   12.50
  -7   3   6   34.00   25.80
   6  -3  -6  197.38   24.30
  -6   3   6  167.58   33.50
   5  -3  -6  235.48   23.60
  -5   3   6  215.38   33.80
  -5   3   6  171.68   22.20
   4  -3  -6   73.09   12.10
  -4   3   6   39.40    8.70
  -4   3   6   66.09   19.10
   3  -3  -6 1164.68  104.09
   3  -3  -6 1198.18   99.79
  -3   3   6 1178.88   99.59
  -3   3   6 1279.67  105.09
   2  -3  -6   14.40    4.40
   2  -3  -6   -8.40    7.60
  -2   3   6    7.20    3.90
   1  -3  -6 1030.10   87.99
   1  -3  -6  983.00   84.89
   1  -3  -6 1064.79   84.99
  -1   3   6 1124.59   88.69
  -1   3   6 1031.20   84.99
  -1   3   6  992.60   84.89
   0  -3  -6 2781.42  223.78
   0  -3  -6 2764.22  223.48
   0  -3  -6 2636.04  222.18
   0  -3  -6 2687.43  222.18
   0   3   6 2756.52  223.88
   0   3   6 2778.92  222.58
  -1  -3  -6  160.28   15.70
  -1  -3  -6  144.89   14.90
  -1  -3  -6  127.59   15.30
   1   3   6  123.89   14.90
   1   3   6  163.28   16.60
   1   3   6  161.48   15.00
  -2  -3  -6  231.38   22.00
  -2  -3  -6  240.18   22.00
   2   3   6  237.28   22.30
   2   3   6  201.78   21.70
  -3  -3  -6 1021.90   85.69
  -3  -3  -6 1010.80   85.09
   3   3   6 1039.90   85.29
   3   3   6  987.00   85.49
  -4  -3  -6    6.90    6.80
  -4  -3  -6   -7.20    5.00
  -4  -3  -6    4.70    6.00
   4   3   6    6.40    6.80
   4   3   6    0.90    6.50
   4   3   6   -3.70    5.10
  -5  -3  -6   80.59   14.80
  -5  -3  -6   90.99   13.00
   5   3   6   65.29   13.30
   5   3   6   99.99   15.70
   5   3   6   93.29   13.20
  -6  -3  -6  135.19   19.10
   6   3   6  142.09   19.10
   6   3   6  120.39   19.90
   6   3   6  143.49   20.50
  -7  -3  -6   41.00   15.00
   7   3   6   40.20   14.10
   7   3   6   26.70   14.90
   7   3   6   29.70   13.40
  -8  -3  -6   25.50   17.00
   8   3   6   41.30   13.80
   8   3   6   30.10   15.00
   8  -4  -6   35.80   15.80
  -8   4   6   43.70   29.90
   7  -4  -6    7.10   11.50
  -7   4   6    7.50   22.60
   6  -4  -6   29.90   11.00
  -6   4   6   49.30   23.10
   5  -4  -6  116.59   17.10
  -5   4   6  118.79   16.50
  -5   4   6  130.69   25.00
   4  -4  -6  114.39   14.70
  -4   4   6   93.99   13.90
  -4   4   6  108.39   22.20
   3  -4  -6  682.93   56.99
  -3   4   6  630.34   56.59
  -3   4   6  702.03   62.69
   2  -4  -6  737.33   59.09
   2  -4  -6  686.53   59.99
   2  -4  -6  684.43   63.89
  -2   4   6  815.52   65.19
  -2   4   6  657.73   59.89
  -2   4   6  728.63   59.19
   1  -4  -6    9.20    8.50
   1  -4  -6   11.90    4.70
   1  -4  -6   19.20    5.20
  -1   4   6   10.60    5.40
  -1   4   6   10.10    9.30
  -1   4   6   11.30    4.30
   0  -4  -6 2708.03  220.88
   0  -4  -6 2668.03  220.88
   0  -4  -6 2755.32  220.98
   0  -4  -6 2742.43  222.18
   0   4   6 2685.83  220.98
   0   4   6 2711.13  222.08
  -1  -4  -6 1605.04  133.09
  -1  -4  -6 1689.83  133.69
  -1  -4  -6 1565.74  133.59
   1   4   6 1620.04  133.79
   1   4   6 1634.24  133.49
   1   4   6 1638.64  133.09
  -2  -4  -6    0.20    4.30
  -2  -4  -6   14.40    5.80
   2   4   6   21.40    6.60
  -3  -4  -6  827.32   68.29
  -3  -4  -6  767.72   68.49
   3   4   6  786.32   70.79
   3   4   6  823.42   68.89
  -4  -4  -6  143.09   18.60
  -4  -4  -6  126.49   17.40
   4   4   6  134.09   17.30
   4   4   6  172.08   19.90
  -5  -4  -6   -0.20    7.80
   5   4   6   -1.40    8.30
   5   4   6    2.50    8.20
  -6  -4  -6  243.98   26.00
   6   4   6  179.58   26.80
   6   4   6  253.57   26.40
  -7  -4  -6    4.90   12.50
   7   4   6    2.10   11.40
   7   4   6    7.90   11.90
  -8  -4  -6   67.79   20.00
   8   4   6   61.79   18.60
   8   4   6   75.59   17.10
   8  -5  -6   41.30   16.20
  -8   5   6   24.60   26.90
   7  -5  -6   71.49   17.00
  -7   5   6   67.89   26.30
   6  -5  -6    7.50   10.10
  -6   5   6   -2.50   18.30
   5  -5  -6  153.38   20.70
  -5   5   6  203.38   31.30
   4  -5  -6   -5.40    6.20
  -4   5   6    7.20   14.60
  -4   5   6   -1.50    6.80
   3  -5  -6    9.00    3.70
   3  -5  -6   14.90    4.10
   3  -5  -6   19.40   12.10
   3  -5  -6    2.40    4.80
  -3   5   6   -3.50   10.80
  -3   5   6    2.60    5.00
   2  -5  -6  232.98   21.90
   2  -5  -6  207.78   25.70
   2  -5  -6  212.88   20.60
  -2   5   6  244.38   20.90
  -2   5   6  213.38   21.30
  -2   5   6  270.87   32.00
   1  -5  -6  799.72   65.59
   1  -5  -6  801.72   65.39
   1  -5  -6  779.42   68.09
  -1   5   6  794.52   68.49
  -1   5   6  736.13   65.19
  -1   5   6  780.32   65.49
   0  -5  -6   89.89   12.30
   0  -5  -6  112.09   14.80
   0  -5  -6   79.89   11.50
   0   5   6  130.49   13.40
   0   5   6  117.79   15.30
  -1  -5  -6 2148.09  170.78
  -1  -5  -6 2014.80  170.08
  -1  -5  -6 2168.18  170.78
  -1  -5  -6 2016.90  170.48
   1   5   6 2041.40  169.98
   1   5   6 2106.09  170.68
  -2  -5  -6  185.28   20.50
  -2  -5  -6  230.58   21.20
   2   5   6  218.48   21.10
   2   5   6  188.08   20.70
  -3  -5  -6  475.25   42.40
  -3  -5  -6  416.86   42.40
   3   5   6  493.95   42.70
   3   5   6  527.55   43.30
  -4  -5  -6  119.39   17.00
  -4  -5  -6  187.08   26.70
   4   5   6  145.59   18.70
   4   5   6  114.69   16.20
  -5  -5  -6    8.70    7.80
  -5  -5  -6   19.80    9.80
  -5  -5  -6   12.10    6.50
   5   5   6   10.70    8.80
   5   5   6   -4.90    8.50
  -6  -5  -6   76.99   23.00
  -6  -5  -6  119.39   16.00
   6   5   6  136.69   18.70
  -7  -5  -6   33.10   12.80
  -7  -5  -6    5.90   14.70
   7   5   6    9.30   11.90
   7   5   6   52.09   14.00
   8   5   6    7.60   13.90
   8  -6  -6   14.50   14.60
  -8   6   6  -13.00   23.60
   7  -6  -6   73.59   16.90
  -7   6   6   51.59   26.10
   6  -6  -6   98.99   17.90
  -6   6   6  128.39   28.10
   5  -6  -6  231.78   27.30
  -5   6   6  324.07   40.80
   4  -6  -6  398.36   33.70
   4  -6  -6  412.86   37.30
   4  -6  -6  402.16   33.80
  -4   6   6  344.37   36.50
  -4   6   6  407.96   45.40
   3  -6  -6   32.60    6.10
   3  -6  -6   34.00    8.40
   3  -6  -6   33.50   13.00
  -3   6   6   16.40    6.80
  -3   6   6   27.70   14.10
   2  -6  -6 1161.38  100.39
   2  -6  -6 1190.58   96.09
   2  -6  -6 1205.88   97.19
  -2   6   6 1148.79   96.19
  -2   6   6 1155.18  100.99
  -2   6   6 1113.79   96.89
   1  -6  -6   57.39   13.10
   1  -6  -6   54.09    8.80
   1  -6  -6   58.19    9.20
  -1   6   6   52.59    8.80
  -1   6   6   75.79   14.30
  -1   6   6   61.09    9.10
   0  -6  -6   -1.80    4.20
   0  -6  -6    4.00    5.10
   0  -6  -6    5.10    7.00
   0   6   6   -3.80    6.20
   0   6   6    2.50    4.00
   0   6   6    7.80    7.60
  -1  -6  -6  659.73   55.39
  -1  -6  -6  611.84   54.69
  -1  -6  -6  670.83   55.09
  -1  -6  -6  634.34   55.09
   1   6   6  636.04   55.19
   1   6   6  647.74   54.89
  -2  -6  -6  514.35   43.10
  -2  -6  -6  508.05   45.20
  -2  -6  -6  481.95   44.90
   2   6   6  512.25   43.20
   2   6   6  499.55   47.40
   2   6   6  558.84   46.10
  -3  -6  -6   91.39   13.20
  -3  -6  -6  100.19   13.70
   3   6   6   82.09   12.90
  -4  -6  -6  714.73   62.79
  -4  -6  -6  724.83   61.99
   4   6   6  756.52   62.19
   4   6   6  644.84   62.49
  -5  -6  -6  186.98   18.60
  -5  -6  -6  143.19   19.10
  -5  -6  -6  199.68   24.80
   5   6   6  234.48   23.60
   5   6   6  193.98   24.10
  -6  -6  -6  220.38   22.60
  -6  -6  -6  147.69   22.30
   6   6   6  241.98   25.70
   6   6   6  220.68   27.50
  -7  -6  -6   89.89   15.70
  -7  -6  -6   52.09   16.20
   7   6   6   94.29   18.90
   7   6   6   78.09   17.20
  -8  -6  -6   -6.60   16.80
   8   6   6  -21.60   13.40
   8   6   6   -9.40   11.40
   7  -7  -6   64.09   16.90
  -7   7   6   42.10   25.50
   6  -7  -6   50.19   13.30
  -6   7   6   75.79   24.00
   5  -7  -6   20.70    5.70
   5  -7  -6    8.80    5.20
   5  -7  -6    7.00    8.10
  -5   7   6   16.40   20.30
   4  -7  -6  338.57   27.80
   4  -7  -6  290.57   30.50
   4  -7  -6  301.97   27.70
  -4   7   6  248.18   30.40
  -4   7   6  361.46   40.00
   3  -7  -6  420.76   36.40
   3  -7  -6  398.56   34.40
   3  -7  -6  336.77   41.20
   3  -7  -6  400.76   34.50
  -3   7   6  358.36   41.50
   2  -7  -6 1010.60   87.49
   2  -7  -6 1069.89   91.89
   2  -7  -6 1064.79   88.79
  -2   7   6 1044.90   88.49
  -2   7   6 1091.59   92.49
   1  -7  -6   38.90    8.40
   1  -7  -6   37.60    7.90
   1  -7  -6   30.70   11.30
  -1   7   6   37.80    7.90
  -1   7   6   30.40    8.10
  -1   7   6   55.29   13.60
   0  -7  -6   25.60    6.90
   0  -7  -6    8.40    8.00
   0  -7  -6   23.40    6.90
   0   7   6   18.60    9.50
   0   7   6   19.80    5.80
   0   7   6   34.90    8.00
  -1  -7  -6  307.57   28.80
  -1  -7  -6  307.57   29.20
  -1  -7  -6  303.37   29.00
  -1  -7  -6  292.07   29.20
   1   7   6  312.17   29.20
   1   7   6  333.57   32.40
  -2  -7  -6  398.26   36.20
  -2  -7  -6  451.45   38.20
  -2  -7  -6  398.46   37.90
  -2  -7  -6  433.76   37.60
   2   7   6  414.46   36.40
   2   7   6  390.96   37.80
  -3  -7  -6   83.29   13.40
  -3  -7  -6   86.09   10.40
  -3  -7  -6   85.29   10.30
  -3  -7  -6   68.49   16.20
   3   7   6   95.79   14.30
   3   7   6   81.09   13.20
  -4  -7  -6  556.94   45.20
  -4  -7  -6  506.85   45.10
  -4  -7  -6  530.55   48.30
   4   7   6  599.84   48.80
   4   7   6  474.25   48.60
  -5  -7  -6  165.68   19.60
  -5  -7  -6  185.88   19.40
   5   7   6  232.58   24.40
   5   7   6  187.08   24.40
  -6  -7  -6   21.80   11.80
  -6  -7  -6   32.40   10.00
   6   7   6   37.80   13.40
   6   7   6   29.00   13.10
  -7  -7  -6   85.29   20.20
  -7  -7  -6  172.78   20.40
   7   7   6  118.99   22.10
   7   7   6  170.18   22.40
   8   7   6    3.80   15.40
   8   7   6    5.60   13.60
   7  -8  -6  158.08   25.20
  -7   8   6  189.38   37.40
   6  -8  -6   52.39   14.40
  -6   8   6   64.39   24.30
   5  -8  -6   87.49   11.90
   5  -8  -6   83.09   11.70
   5  -8  -6   95.99   16.80
  -5   8   6  126.89   26.60
   4  -8  -6    1.70    7.40
   4  -8  -6    0.60    6.30
   4  -8  -6    5.10    5.90
  -4   8   6   -0.30   13.90
   3  -8  -6  215.98   20.90
   3  -8  -6  216.48   22.60
   3  -8  -6  210.08   21.20
  -3   8   6  172.98   21.50
  -3   8   6  215.48   30.30
   2  -8  -6   99.69   12.90
   2  -8  -6   89.29   12.80
   2  -8  -6   90.39   13.90
  -2   8   6  138.39   22.40
  -2   8   6   88.29   15.90
   1  -8  -6  431.76   37.90
   1  -8  -6  420.26   37.30
   1  -8  -6  395.26   40.50
  -1   8   6  415.66   37.70
  -1   8   6  410.96   37.50
   0  -8  -6  522.25   44.40
   0  -8  -6  475.55   45.70
   0  -8  -6  533.25   44.50
   0   8   6  524.45   46.40
   0   8   6  465.65   43.80
   0   8   6  476.95   44.30
  -1  -8  -6  418.06   40.50
  -1  -8  -6  446.96   40.50
  -1  -8  -6  508.05   41.40
  -1  -8  -6  432.46   41.00
   1   8   6  472.85   41.50
   1   8   6  431.36   40.50
  -2  -8  -6  894.91   72.89
  -2  -8  -6  726.73   75.29
  -2  -8  -6  884.21   70.89
  -2  -8  -6  774.72   69.09
   2   8   6  803.82   69.99
   2   8   6  809.12   69.39
  -3  -8  -6   49.80   10.20
  -3  -8  -6   35.30    9.50
  -3  -8  -6   32.60    8.00
  -3  -8  -6   46.10   11.10
   3   8   6   49.90   11.30
   3   8   6   62.49   11.30
  -4  -8  -6  203.18   20.20
  -4  -8  -6  185.98   20.40
   4   8   6  166.38   23.00
   4   8   6  201.68   23.60
  -5  -8  -6  187.58   20.20
  -5  -8  -6  171.58   20.10
   5   8   6  128.49   22.20
   5   8   6  243.08   24.70
  -6  -8  -6   11.00    8.80
  -6  -8  -6   -4.60   14.60
   6   8   6    0.80   11.40
   6   8   6   11.90   11.10
  -7  -8  -6    8.90   11.70
   7   8   6    8.20   13.60
   7   8   6   18.40   13.20
   8   8   6   30.20   15.40
   8   8   6   -4.40   14.10
   7  -9  -6   40.50   15.60
   6  -9  -6  172.88   20.70
   6  -9  -6  191.98   27.10
   6  -9  -6  215.38   20.70
  -6   9   6  232.88   39.00
   5  -9  -6  126.69   14.60
   5  -9  -6   96.89   14.00
  -5   9   6   88.69   26.20
   4  -9  -6  103.99   15.90
   4  -9  -6   86.79   12.90
  -4   9   6   82.09   23.40
   3  -9  -6  442.76   40.40
   3  -9  -6  462.15   40.70
   3  -9  -6  430.96   41.80
  -3   9   6  478.95   48.80
   2  -9  -6    9.00    5.50
   2  -9  -6    4.30    6.20
   2  -9  -6    8.20   11.00
   2  -9  -6   -0.10    6.40
  -2   9   6    5.20    5.20
  -2   9   6    0.40   11.70
   1  -9  -6  190.78   27.50
   1  -9  -6  193.38   22.80
   1  -9  -6  204.18   22.90
  -1   9   6  215.98   23.40
  -1   9   6  192.68   23.00
  -1   9   6  233.88   29.70
   0  -9  -6  265.67   27.50
   0  -9  -6  306.07   29.60
   0  -9  -6  275.67   29.40
   0   9   6  257.67   28.10
   0   9   6  275.37   30.10
   0   9   6  300.97   28.00
  -1  -9  -6   19.40    7.60
  -1  -9  -6    2.90    6.20
  -1  -9  -6    8.40    7.60
  -1  -9  -6    8.40    7.40
   1   9   6    8.30    8.90
   1   9   6   11.10    7.50
  -2  -9  -6  874.81   72.99
  -2  -9  -6  845.72   72.49
  -2  -9  -6  837.42   73.19
  -2  -9  -6  862.61   73.79
   2   9   6  844.82   72.79
   2   9   6  801.72   72.79
  -3  -9  -6  483.15   43.90
  -3  -9  -6  368.96   45.50
   3   9   6  529.75   43.60
  -4  -9  -6  158.18   20.80
  -4  -9  -6  201.08   21.80
   4   9   6  197.28   24.30
   4   9   6  181.88   23.10
  -5  -9  -6  149.29   20.10
   5   9   6  248.08   25.50
   5   9   6  150.58   29.30
  -6  -9  -6   34.80   11.60
  -6  -9  -6   45.80   16.30
   6   9   6   70.89   17.30
   6   9   6   41.50   14.00
  -7  -9  -6   28.00   12.90
   7   9   6   36.10   14.90
   7   9   6   37.90   15.50
  -7  10   6  -12.70   22.00
   6 -10  -6   66.99   16.30
   6 -10  -6   72.09   12.30
   6 -10  -6   48.00   12.10
  -6  10   6   58.49   25.40
   5 -10  -6  185.78   26.10
   5 -10  -6  198.28   21.60
  -5  10   6  163.88   33.70
   4 -10  -6   37.20   11.10
   4 -10  -6   41.90   10.70
   4 -10  -6   42.10    9.90
   3 -10  -6  241.58   25.00
   3 -10  -6  225.08   25.30
   3 -10  -6  241.98   26.50
  -3  10   6  313.67   38.50
   2 -10  -6   45.80   10.60
   2 -10  -6   55.99   11.30
   2 -10  -6   52.79   10.90
  -2  10   6   63.59   17.60
   1 -10  -6  519.65   48.00
   1 -10  -6  573.44   48.00
   1 -10  -6  511.45   51.39
  -1  10   6  522.25   47.90
  -1  10   6  536.05   52.09
   0 -10  -6   61.09   11.90
   0 -10  -6   46.60   10.90
   0 -10  -6   58.39   14.20
   0  10   6   86.79   13.40
   0  10   6   24.10    8.10
   0  10   6   71.29   15.40
  -1 -10  -6   13.40    7.80
  -1 -10  -6    4.70    6.40
  -1 -10  -6   -3.10    7.20
  -1 -10  -6    8.40    6.70
   1  10   6   17.20    9.50
   1  10   6   25.80    9.00
  -2 -10  -6   63.69   13.00
  -2 -10  -6   52.79   13.10
   2  10   6   95.89   14.60
   2  10   6   68.99   14.50
  -3 -10  -6  270.87   26.60
  -3 -10  -6  186.58   27.50
   3  10   6  285.87   28.30
  -4 -10  -6   12.40    9.60
  -4 -10  -6   31.70   10.80
  -4 -10  -6    4.00    8.60
   4  10   6   20.20   10.70
  -5 -10  -6  120.89   19.30
  -5 -10  -6  163.08   20.50
   5  10   6  189.78   22.90
   5  10   6  152.38   23.10
  -6 -10  -6  133.59   19.10
  -6 -10  -6   80.19   17.50
   6  10   6  133.19   22.10
   6  10   6  201.88   23.90
   7  10   6   -8.50   12.30
   7  10   6   11.50   15.10
   6 -11  -6   23.40   13.00
   6 -11  -6   34.10   10.50
  -6  11   6   70.99   27.20
   5 -11  -6   19.40   11.40
   5 -11  -6   22.00   10.70
   5 -11  -6   37.30   10.60
  -5  11   6   39.10   21.50
   4 -11  -6   19.20    8.50
   4 -11  -6    6.70    8.60
   4 -11  -6   10.10    9.40
  -4  11   6   12.40   16.10
   3 -11  -6    6.50    7.70
   3 -11  -6   17.70   10.00
   3 -11  -6   13.50    7.30
  -3  11   6   35.90   17.00
   2 -11  -6 1048.90   89.09
   2 -11  -6 1029.20   93.99
   2 -11  -6 1012.50   90.09
  -2  11   6 1104.49   95.29
   1 -11  -6   11.10    7.60
   1 -11  -6   22.50   13.00
   1 -11  -6    5.50    6.70
  -1  11   6   11.10   12.10
   0 -11  -6  677.63   58.79
   0  11   6  654.03   61.49
   0  11   6  641.54   58.69
  -1 -11  -6   26.70   11.50
  -1 -11  -6   20.20    9.30
   1  11   6   20.70   13.20
   1  11   6   49.10   11.50
  -2 -11  -6  201.38   26.10
  -2 -11  -6  232.38   27.30
   2  11   6  218.38   27.60
   2  11   6  201.08   25.20
  -3 -11  -6   18.80   10.10
  -3 -11  -6   16.90    9.70
   3  11   6   16.30   12.70
   3  11   6   31.70   10.80
  -4 -11  -6   90.99   16.50
  -4 -11  -6   62.29   15.30
  -4 -11  -6   60.29   14.00
   4  11   6   94.59   16.30
  -5 -11  -6   38.30   13.70
  -5 -11  -6   80.09   15.80
  -5 -11  -6   78.09   17.20
   5  11   6   94.99   17.30
  -6 -11  -6  131.19   21.40
   6  11   6  189.78   24.90
   7  11   6   22.00   16.10
   7  11   6    7.80   14.80
   6 -12  -6   50.39   16.20
   6 -12  -6   38.70   12.30
  -6  12   6   42.20   32.00
   5 -12  -6  220.98   30.20
   5 -12  -6  245.28   27.50
  -5  12   6  314.67   44.80
   4 -12  -6   11.80    9.00
   4 -12  -6   14.40   10.80
  -4  12   6    2.20   16.20
   3 -12  -6   88.49   17.20
   3 -12  -6  118.19   16.40
   2 -12  -6   18.00    9.50
   2 -12  -6   26.10    9.70
  -2  12   6   20.50   15.50
   1 -12  -6   10.50    7.60
   1 -12  -6   10.90    8.10
  -1  12   6    6.10   11.70
   0 -12  -6    1.20    6.40
   0 -12  -6    9.60    8.60
   0 -12  -6   34.70   13.20
   0  12   6   -0.70   10.90
  -1 -12  -6   38.40   15.30
  -1 -12  -6   65.39   13.90
   1  12   6   62.19   14.10
   1  12   6   67.99   17.10
  -2 -12  -6    3.30    8.80
  -2 -12  -6    3.60    9.60
   2  12   6   -3.70   11.70
   2  12   6    5.90   10.20
  -3 -12  -6  223.88   28.60
   3  12   6  285.57   33.60
   3  12   6  273.87   34.60
  -4 -12  -6   59.69   15.60
  -4 -12  -6   95.89   25.20
  -4 -12  -6   38.80   13.60
   4  12   6   40.40   13.80
  -5 -12  -6   53.79   15.70
  -5 -12  -6  109.69   21.20
   5  12   6  106.59   18.90
  -6 -12  -6  155.68   26.70
   6  12   6  132.79   24.50
   6 -13  -6   -4.80   11.00
   6 -13  -6   17.20   13.00
  -6  13   6    2.40   22.60
   5 -13  -6  208.18   25.70
   5 -13  -6  210.88   29.50
  -5  13   6  188.18   36.80
   4 -13  -6  143.59   22.70
   4 -13  -6  112.29   18.50
  -4  13   6  176.18   32.80
   3 -13  -6   93.29   16.80
   3 -13  -6   89.89   17.80
  -3  13   6  109.49   26.00
   2 -13  -6  146.69   22.90
   2 -13  -6  222.38   25.30
  -2  13   6  211.38   33.10
   1 -13  -6    1.60    8.70
   1 -13  -6    9.40    8.20
  -1  13   6   25.30   14.30
   0 -13  -6    8.30    7.80
   0 -13  -6    8.00    8.40
   0  13   6   24.90   14.00
  -1 -13  -6  353.76   36.20
  -1 -13  -6  325.87   39.30
   1  13   6  351.76   39.70
  -2 -13  -6   15.50   10.10
  -2 -13  -6    8.70   12.50
   2  13   6    0.20   13.60
   2  13   6   30.10   11.80
  -3 -13  -6  257.07   31.60
  -3 -13  -6  184.08   31.40
   3  13   6  271.17   31.00
   3  13   6  292.07   34.30
  -4 -13  -6  143.99   24.20
  -4 -13  -6  138.19   23.70
   4  13   6  161.78   23.00
  -5 -13  -6    1.70   12.70
  -5 -13  -6   20.00   15.20
   5  13   6   21.80   13.80
  -6 -13  -6   53.69   19.20
   6  13   6   98.49   20.80
   5 -14  -6   19.70   12.50
  -5  14   6   50.69   31.10
   4 -14  -6  102.69   20.30
   4 -14  -6  154.18   21.90
  -4  14   6  170.68   33.40
   3 -14  -6  117.69   18.60
   3 -14  -6   92.09   18.10
  -3  14   6  125.69   27.70
   2 -14  -6   79.29   17.10
   2 -14  -6  133.59   19.10
  -2  14   6  120.89   25.60
   1 -14  -6  478.15   45.60
   1 -14  -6  465.45   45.50
  -1  14   6  480.95   51.79
   0 -14  -6   16.20    9.40
   0 -14  -6   38.30   11.80
   0  14   6   23.20   16.00
  -1 -14  -6  145.49   22.80
  -1 -14  -6  196.88   26.60
   1  14   6  214.88   30.70
  -2 -14  -6   73.29   16.20
  -2 -14  -6   91.99   18.20
   2  14   6   75.99   21.20
  -3 -14  -6   23.80   13.20
   3  14   6   22.80   18.10
  -4 -14  -6   49.00   19.00
  -4 -14  -6   63.59   17.90
  -4 -14  -6   22.40   15.60
   4  14   6   22.70   14.60
  -5 -14  -6   64.59   20.10
  -5 -14  -6   42.10   17.20
   5  14   6   40.70   16.20
   5 -15  -6   -0.60   11.40
   5 -15  -6   11.20   12.30
  -5  15   6   12.20   20.50
   4 -15  -6  105.49   21.70
   4 -15  -6  102.99   20.10
  -4  15   6  156.38   31.50
   3 -15  -6    1.10    9.40
   3 -15  -6   11.60   10.30
  -3  15   6   21.50   19.00
   2 -15  -6   -4.40    7.70
   2 -15  -6   -0.70    8.10
  -2  15   6    2.10   15.60
   1 -15  -6  203.98   28.30
   1 -15  -6  260.67   30.80
  -1  15   6  215.68   35.50
   0 -15  -6   88.69   17.40
   0 -15  -6   83.69   16.50
   0  15   6  103.49   26.20
  -1 -15  -6   22.40   11.00
  -1 -15  -6   31.60   11.50
   1  15   6   45.40   19.20
  -2 -15  -6  222.18   29.70
  -2 -15  -6  297.27   33.30
   2  15   6  194.18   33.00
  -3 -15  -6    1.80   10.50
  -3 -15  -6    4.60   11.80
   3  15   6    8.90   17.10
  -4 -15  -6   12.20   13.80
  -4 -15  -6   44.80   20.40
  -4 -15  -6   28.80   14.60
  -5 -15  -6   53.29   21.20
  -5 -15  -6   15.50   17.20
  -5 -15  -6   26.00   17.10
   4 -16  -6  134.39   21.80
   4 -16  -6  122.39   23.50
  -4  16   6   99.79   29.50
   3 -16  -6   59.39   16.20
   3 -16  -6   78.59   21.70
  -3  16   6  163.18   31.70
   2 -16  -6    7.40   10.70
   2 -16  -6   -1.90    8.40
  -2  16   6    9.70   16.80
   1 -16  -6  149.29   23.10
   1 -16  -6   91.09   19.20
  -1  16   6  153.68   31.30
   0 -16  -6  136.09   21.70
   0 -16  -6   88.49   18.20
   0  16   6  115.39   28.50
  -1 -16  -6    6.80    9.70
  -1 -16  -6   -0.20    9.30
   1  16   6    3.80   18.80
  -2 -16  -6  157.28   24.50
  -2 -16  -6  137.69   23.10
  -3 -16  -6   50.49   16.10
  -3 -16  -6   60.29   17.60
   3  16   6   19.70   20.00
  -4 -16  -6   -3.20   12.90
  -4 -16  -6   37.00   22.70
  -4 -16  -6    4.30   12.60
   3 -17  -6   80.69   18.90
   3 -17  -6  160.58   28.50
  -3  17   6  124.39   32.30
   2 -17  -6  122.89   21.30
   2 -17  -6   70.29   17.20
  -2  17   6  142.39   32.80
   1 -17  -6  198.88   42.00
   1 -17  -6  180.88   27.80
  -1  17   6  206.18   37.40
   0 -17  -6  126.99   21.90
   0 -17  -6  147.19   23.90
   0  17   6  142.29   32.60
  -1 -17  -6   23.60   12.70
   1  17   6   54.39   22.60
  -2 -17  -6   32.60   13.90
   2  17   6   17.30   21.50
  -3 -17  -6   36.60   16.10
  -3 -17  -6   58.49   18.70
   3  17   6   57.79   24.80
   1 -18  -6   11.30   10.80
   1 -18  -6   -3.00   10.00
  -1  18   6   10.70   25.20
   0 -18  -6   59.49   15.40
   0 -18  -6  109.09   20.20
   0  18   6   59.09   26.40
  -1 -18  -6   25.90   14.90
  -1 -18  -6   44.40   14.50
   1  18   6   38.70   24.40
  -1 -13   7   72.59   35.90
  -1 -13   7   96.39   20.60
   0  13  -7    1.50   25.70
   0 -13   7    6.00   10.50
   0 -13   7   -2.10   11.60
  -1  13  -7  192.18   41.90
   1 -13   7  220.68   30.50
   1 -13   7  233.78   28.10
  -2  13  -7    2.10   25.20
   2 -13   7   26.40   15.00
   2 -13   7   12.80   12.00
  -3  13  -7   46.10   29.50
   3 -13   7   75.89   17.50
   3 -13   7  114.59   24.40
  -2 -12   7   75.79   14.20
  -2 -12   7   68.09   17.00
  -2 -12   7   74.89   32.80
  -1 -12   7   13.60   44.50
  -1 -12   7   56.49   12.60
  -1 -12   7   55.39   16.00
   0  12  -7    4.20   23.30
   0 -12   7   -4.50   12.00
   0 -12   7   13.60    9.30
  -1  12  -7   82.99   30.00
   1 -12   7   83.29   18.70
  -2  12  -7   57.99   28.10
   2 -12   7   61.69   14.80
   2 -12   7   42.30   15.40
   3 -12   7    4.20   13.70
   3 -12   7   -1.60   10.50
  -4  12  -7   58.69   27.90
   4 -12   7   83.59   19.10
   4 -12   7   53.19   16.70
  -3 -11   7   53.59   15.20
  -3 -11   7   49.70   11.50
  -2 -11   7   41.50   14.20
  -2 -11   7   72.29   29.80
  -2 -11   7   72.79   12.40
  -1 -11   7  318.97   35.00
  -1 -11   7  303.17   31.00
   0  11  -7    4.90   21.50
   0 -11   7    6.90    8.20
   0 -11   7   12.90   11.80
  -1  11  -7    2.90   18.90
   1 -11   7    4.90   11.70
   1 -11   7    7.70    8.80
  -2  11  -7  121.09   31.40
   2 -11   7  135.99   23.00
   2 -11   7  144.59   22.40
  -3  11  -7   19.20   21.30
   3 -11   7   38.30   14.50
   3 -11   7   49.70   13.60
  -4  11  -7  154.28   37.10
   4 -11   7  156.58   24.20
   4 -11   7  136.59   23.10
  -5  11  -7   73.59   30.20
   5 -11   7  114.29   21.60
   5 -11   7   72.29   19.80
  -4 -10   7   27.30   10.10
  -4 -10   7   25.60   42.20
  -4 -10   7   41.40   13.80
  -3 -10   7  128.29   16.40
  -3 -10   7  114.19   19.00
  -3 -10   7  108.29   32.90
  -2 -10   7    6.60   11.10
  -2 -10   7   22.20   12.20
  -2 -10   7   34.40    9.20
  -2 -10   7   44.50   25.10
  -1 -10   7  385.16   32.20
  -1 -10   7  322.57   35.40
  -1 -10   7  269.57   33.40
   0  10  -7  157.68   33.30
   0 -10   7  157.68   21.20
   0 -10   7   96.69   16.90
   0 -10   7  155.28   18.10
  -1  10  -7   55.19   24.20
   1 -10   7   86.79   13.80
   1 -10   7   69.39   16.00
  -2  10  -7  133.79   30.90
   2 -10   7  130.39   21.70
   2 -10   7  165.28   20.60
  -3  10  -7    7.50   18.70
   3 -10   7   15.70   14.30
   3 -10   7   19.50   12.00
  -4  10  -7   -6.50   19.90
   4 -10   7    3.90   10.50
   4 -10   7   12.20   10.80
  -5  10  -7  156.68   34.10
   5 -10   7  101.09   19.70
   5 -10   7   99.19   20.20
  -6  10  -7   50.69   27.90
   6 -10   7   38.50   16.00
   6 -10   7   47.70   17.20
  -5  -9   7   50.89   14.20
  -5  -9   7   37.40   14.40
  -5  -9   7   13.60   26.60
  -4  -9   7   35.70   12.90
  -4  -9   7   12.30   23.30
  -4  -9   7   37.90   10.10
  -3  -9   7   23.70    7.80
  -3  -9   7   39.30   25.80
  -3  -9   7   46.30   13.20
  -3  -9   7   20.20   10.40
  -2  -9   7   78.39   16.30
  -2  -9   7   47.30   11.90
  -2  -9   7   66.19   10.80
  -2  -9   7   84.69   28.10
  -1  -9   7   36.30   20.20
  -1  -9   7   27.90    8.10
  -1  -9   7   17.10    9.20
   0   9  -7  357.46   48.00
   0  -9   7  366.06   33.90
   0  -9   7  326.77   44.70
  -1   9  -7   79.49   25.20
  -1   9  -7   70.99   13.00
   1  -9   7  108.59   14.20
   1  -9   7   53.89   14.40
  -2   9  -7  323.27   48.00
   2  -9   7  377.46   39.30
   2  -9   7  434.06   38.30
  -3   9  -7  315.27   46.80
   3  -9   7  333.27   33.80
   3  -9   7  310.67   34.20
  -4   9  -7    6.20   17.00
   4  -9   7   -3.10   10.70
   4  -9   7   14.00   10.50
  -5   9  -7  190.88   35.40
   5  -9   7  197.88   26.00
   5  -9   7  131.09   23.00
  -6   9  -7    0.20   22.30
   6  -9   7   29.80   15.60
   6  -9   7   25.60   14.30
  -5  -8   7   74.39   16.10
  -5  -8   7   93.79   31.40
  -5  -8   7  102.09   15.10
  -4  -8   7    2.40   11.50
  -4  -8   7   15.00    8.00
  -4  -8   7   12.20   10.10
  -4  -8   7   12.50   21.10
  -3  -8   7  120.89   18.30
  -3  -8   7  123.69   30.80
  -3  -8   7  121.49   16.50
  -2  -8   7   70.39   25.30
  -2  -8   7   74.29   11.00
  -2  -8   7   70.49   14.10
  -2  -8   7   89.09   13.00
  -1  -8   7   54.19   10.70
  -1  -8   7   52.69    9.50
  -1  -8   7   64.99   13.60
   0   8  -7  161.68   31.50
   0  -8   7  161.18   22.20
   0  -8   7  205.28   20.20
  -1   8  -7  209.68   33.90
  -1   8  -7  170.18   22.80
   1  -8   7  207.38   24.80
   1  -8   7  189.18   21.60
  -2   8  -7   14.80    7.80
  -2   8  -7   35.20   19.70
   2  -8   7    9.30   10.30
   2  -8   7   17.40    8.10
   3  -8   7  500.55   46.40
   3  -8   7  488.65   47.10
  -4   8  -7   62.59   21.20
   4  -8   7   56.79   15.60
   4  -8   7   55.79   13.70
  -5   8  -7  119.99   28.60
   5  -8   7  116.19   20.40
   5  -8   7   92.79   18.50
  -6   8  -7   23.70   23.10
   6  -8   7   61.69   16.40
   6  -8   7   54.89   16.40
  -7   8  -7   -6.90   23.10
   7  -8   7   -1.80   14.50
   7  -8   7  -15.50   11.00
  -6  -7   7   -4.00   10.70
  -6  -7   7   10.00   24.80
  -5  -7   7  119.29   15.70
  -5  -7   7   64.59   27.90
  -5  -7   7   91.29   15.90
  -4  -7   7   58.79   12.20
  -4  -7   7   43.70   14.10
  -4  -7   7   97.69   28.40
  -4  -7   7   58.49   11.60
  -4  -7   7    0.30   13.90
  -3  -7   7   52.29   24.50
  -3  -7   7   51.49    9.10
  -3  -7   7   46.20   10.80
  -3  -7   7   44.50   10.00
  -2  -7   7  206.48   19.00
  -2  -7   7  171.38   20.00
  -2  -7   7  166.88   21.60
  -2  -7   7  209.18   36.20
  -1  -7   7   49.00   10.00
  -1  -7   7   57.69   13.10
  -1  -7   7  116.39   24.90
  -1  -7   7   67.89    9.50
   0   7  -7  744.93   64.69
   0   7  -7  780.22   75.69
   0  -7   7  760.12   64.69
   0  -7   7  773.62   67.09
  -1   7  -7   83.99   22.00
  -1   7  -7   73.89   11.80
   1  -7   7   74.99   12.00
   1  -7   7   87.09   14.70
  -2   7  -7   65.89   11.60
  -2   7  -7   48.00   20.30
   2  -7   7   52.59   11.20
   2  -7   7   83.99   14.10
  -3   7  -7   37.70   18.20
   3  -7   7   22.20    9.60
   3  -7   7   13.50    7.90
  -4   7  -7   41.80   19.80
   4  -7   7   71.49   14.40
   4  -7   7   65.99   14.60
  -5   7  -7   28.70   19.30
   5  -7   7   12.50    9.50
   5  -7   7    3.40   10.90
  -6   7  -7  144.99   31.10
   6  -7   7  174.08   24.60
   6  -7   7  122.29   22.30
  -7   7  -7   10.90   24.30
   7  -7   7   25.10   15.70
   7  -7   7   -2.60   17.80
  -6  -6   7   -4.40   10.70
  -6  -6   7   14.00   24.10
  -5  -6   7    7.00    8.70
  -5  -6   7    4.20   10.00
  -5  -6   7    0.90   10.50
  -5  -6   7   -2.40   19.80
  -5  -6   7    5.90    8.60
  -4  -6   7   19.70    8.90
  -4  -6   7   40.50   10.10
  -4  -6   7   20.90   20.60
  -4  -6   7   27.60    7.90
  -3  -6   7   19.50    6.40
  -3  -6   7   15.00    7.30
  -3  -6   7   23.40   11.00
  -3  -6   7   27.10    8.80
  -2  -6   7  100.99   13.90
  -2  -6   7  113.49   16.60
  -2  -6   7  170.18   29.10
  -2  -6   7  118.19   13.10
  -2  -6   7  127.99   16.70
   1   6  -7  421.66   38.80
  -1  -6   7  429.96   47.60
  -1  -6   7  380.96   35.70
  -1  -6   7  432.36   38.30
  -1  -6   7  387.56   34.90
   0   6  -7   72.39   21.70
   0   6  -7   80.39   14.80
   0   6  -7   77.49   10.40
   0  -6   7   72.89   10.20
   0  -6   7   68.09   13.00
  -1   6  -7  779.02   68.59
  -1   6  -7  644.54   58.29
   1  -6   7  665.53   60.49
   1  -6   7  694.03   58.59
  -2   6  -7   23.50   16.20
  -2   6  -7    7.80    6.70
   2  -6   7   14.80    8.70
   2  -6   7    4.80    6.80
  -3   6  -7  360.86   42.80
  -3   6  -7  315.67   34.00
   3  -6   7  397.26   35.70
   3  -6   7  366.36   34.70
  -4   6  -7   83.39   21.90
   4  -6   7   69.19   13.80
   4  -6   7   67.09   14.70
  -5   6  -7    3.60   15.30
   5  -6   7   -1.40   12.30
   5  -6   7  -14.10    9.00
  -6   6  -7  176.58   31.60
   6  -6   7  112.29   21.40
   6  -6   7  133.59   21.50
  -7   6  -7   57.69   25.60
   7  -6   7   40.50   15.80
   7  -6   7   61.99   17.50
  -6  -5   7   56.99   25.90
  -5  -5   7    8.80    7.40
  -5  -5   7   16.70   19.60
  -5  -5   7   15.20    9.30
  -5  -5   7   -0.30    8.50
  -5  -5   7   24.10    9.00
  -4  -5   7  372.16   34.60
  -4  -5   7  324.77   33.50
  -4  -5   7  442.86   49.30
  -4  -5   7  386.26   33.80
  -3  -5   7   29.70    8.90
  -3  -5   7   20.70   17.20
  -3  -5   7   26.50    8.50
  -3  -5   7   13.90    9.70
  -3  -5   7   32.10    6.90
  -2  -5   7  154.68   18.00
  -2  -5   7  123.39   14.70
  -2  -5   7  154.08   14.50
  -2  -5   7  161.88   28.10
  -1  -5   7   97.49   11.10
  -1  -5   7  142.59   24.60
  -1  -5   7   93.29   11.30
  -1  -5   7  109.29   14.40
   0   5  -7   36.10    7.70
   0   5  -7   33.00    9.30
   0   5  -7   24.50   16.10
   0  -5   7   44.90    6.70
   0  -5   7   37.70   14.10
   0  -5   7   28.30    9.00
  -1   5  -7   47.50   17.10
  -1   5  -7   43.70    7.20
  -1   5  -7   13.00    8.20
   1  -5   7   46.00    7.90
   1  -5   7   11.20   12.60
   1  -5   7   32.00    9.20
  -2   5  -7  684.33   58.39
  -2   5  -7  730.23   65.89
   2  -5   7  612.44   60.49
   2  -5   7  705.03   59.79
   2  -5   7  672.63   64.09
  -3   5  -7  158.98   19.50
  -3   5  -7  158.38   26.20
   3  -5   7  149.09   20.00
   3  -5   7  182.28   26.80
   3  -5   7  196.78   21.70
  -4   5  -7  462.35   48.60
   4  -5   7  442.86   41.90
   4  -5   7  423.46   41.80
  -5   5  -7    1.60   15.60
   5  -5   7    6.60    9.30
   5  -5   7   -4.60    8.90
  -6   5  -7   33.00   18.80
   6  -5   7   26.40   12.50
   6  -5   7   36.20   13.10
  -7   5  -7   56.19   22.30
   7  -5   7   30.70   14.60
   7  -5   7   22.50   13.40
  -8   5  -7   -8.00   23.00
   8  -5   7   -1.10   13.90
   8  -5   7   -2.90   13.10
   7   4  -7    3.20   12.20
  -7  -4   7   42.40   26.30
   6   4  -7   40.50   12.60
  -6  -4   7   70.69   25.70
  -5  -4   7   -2.20   18.80
  -5  -4   7    9.70   11.20
  -5  -4   7    3.70    6.00
  -5  -4   7   -3.00    7.90
  -4  -4   7  213.28   32.90
  -4  -4   7  175.38   19.10
  -4  -4   7  161.38   18.40
  -4  -4   7  164.48   18.50
  -4  -4   7  171.78   19.30
  -3  -4   7  177.38   19.70
  -3  -4   7  161.98   20.00
  -3  -4   7  204.28   18.00
  -3  -4   7  171.58   29.10
  -3  -4   7  174.98   18.00
   2   4  -7   39.90    9.80
  -2  -4   7   33.40    6.00
  -2  -4   7   36.60   10.30
  -2  -4   7   32.80    5.30
  -2  -4   7   52.29   17.40
   1   4  -7  179.58   19.30
  -1  -4   7  158.68   14.60
  -1  -4   7  147.39   15.00
  -1  -4   7  198.28   18.70
  -1  -4   7  223.88   28.70
  -1  -4   7   92.69   22.10
   0   4  -7    5.80    4.00
   0   4  -7    9.80    7.00
   0   4  -7    1.60   12.50
   0  -4   7   -0.30    3.70
   0  -4   7    4.90    6.60
   0  -4   7   -3.40   10.20
  -1   4  -7    7.50   11.80
  -1   4  -7   -0.10    4.10
  -1   4  -7   -1.30    6.80
   1  -4   7   11.50    6.80
   1  -4   7    6.60    4.60
  -2   4  -7   20.80    7.60
  -2   4  -7   31.00   13.90
  -2   4  -7   25.70    7.10
   2  -4   7   29.60   17.10
   2  -4   7   27.40    7.10
   2  -4   7   16.30    8.00
  -3   4  -7    4.80   11.20
  -3   4  -7   -1.90    6.00
   3  -4   7   -3.20    5.90
   3  -4   7    8.30    7.90
   3  -4   7   -0.50   11.80
  -4   4  -7   23.40   14.40
   4  -4   7   30.20   10.00
   4  -4   7   43.40   10.60
   4  -4   7    3.70   13.40
  -5   4  -7  160.58   26.50
   5  -4   7  141.69   20.70
   5  -4   7  132.19   19.80
  -6   4  -7  -15.70   13.40
   6  -4   7   -9.70    9.10
   6  -4   7   24.60   18.10
  -7   4  -7  103.09   31.80
   7  -4   7  139.79   20.80
   7  -4   7   89.09   19.90
  -8   4  -7    4.20   22.50
   8  -4   7   14.10   14.00
   8  -4   7    3.20   13.10
   7   3  -7   25.90   13.50
  -7  -3   7   87.09   38.20
   6   3  -7   39.00   12.40
  -6  -3   7   47.20   13.10
  -6  -3   7   51.99   24.20
   5   3  -7  -28.40   13.80
  -5  -3   7   -4.60    7.00
  -5  -3   7   -4.30   17.20
  -4  -3   7    5.50    5.60
  -4  -3   7  -11.00   15.50
  -4  -3   7    2.50    5.80
  -3  -3   7   81.19    9.80
  -3  -3   7   92.69   12.00
  -3  -3   7   79.99   20.90
  -3  -3   7   80.19   10.80
  -3  -3   7   86.89    9.90
   2   3  -7  134.49   15.60
  -2  -3   7   76.09   19.80
  -2  -3   7  140.89   12.40
  -2  -3   7  131.69   12.50
  -2  -3   7  143.29   15.60
  -2  -3   7  164.28   25.80
   1   3  -7   78.89   11.90
  -1  -3   7   77.49   25.60
  -1  -3   7  105.19   12.60
  -1  -3   7  120.89   20.30
   0   3  -7  306.87   35.90
   0   3  -7  296.37   25.60
   0   3  -7  303.77   28.10
   0  -3   7  315.57   33.70
   0  -3   7  301.77   25.50
   0  -3   7  229.18   33.50
  -1   3  -7   83.09   17.70
  -1   3  -7   43.90    9.00
  -1   3  -7   75.09   11.30
   1  -3   7   78.09   16.70
   1  -3   7   78.39    9.40
   1  -3   7   91.59   12.00
  -2   3  -7  470.05   45.10
  -2   3  -7  397.16   36.30
   2  -3   7  402.26   37.60
   2  -3   7  399.76   36.40
   2  -3   7  417.46   41.20
  -3   3  -7   68.99   11.30
  -3   3  -7   67.39   12.60
  -3   3  -7  113.19   18.30
   3  -3   7   91.59   16.80
   3  -3   7   79.79   12.30
   3  -3   7   91.79   13.50
  -4   3  -7  114.19   20.30
  -4   3  -7   69.09   13.50
   4  -3   7   98.29   15.20
   4  -3   7   97.09   19.00
   4  -3   7  108.29   15.90
  -5   3  -7  141.19   23.50
   5  -3   7  127.39   19.10
   5  -3   7   95.59   21.40
   5  -3   7  142.69   19.40
  -6   3  -7    2.30   14.60
   6  -3   7    3.40   10.10
   6  -3   7   -2.80    9.70
  -7   3  -7   31.20   19.30
   7  -3   7   25.00   13.60
   7  -3   7   48.30   15.00
  -8   3  -7   90.39   27.40
   8  -3   7   60.99   18.20
   8  -3   7   48.10   16.60
   7   2  -7  -12.30   11.40
  -7  -2   7   20.50   25.10
   6   2  -7   49.80   12.30
  -6  -2   7   31.40   21.40
  -6  -2   7   28.30   11.70
  -5  -2   7   89.69   25.20
  -5  -2   7   78.09   12.20
   4   2  -7   63.49   10.00
  -4  -2   7   46.70    6.90
  -4  -2   7   59.29    9.50
  -4  -2   7   52.69   20.00
  -4  -2   7   63.79    7.70
  -3  -2   7  301.67   37.40
   2   2  -7    6.60    5.60
  -2  -2   7    3.20    5.10
  -2  -2   7    9.40   11.80
  -2  -2   7   -7.50   10.80
   1   2  -7   76.89   10.60
  -1  -2   7   96.19   18.40
  -1  -2   7   82.29   10.60
  -1  -2   7   53.09   16.10
   0   2  -7  476.75   38.90
   0   2  -7  482.45   41.20
   0  -2   7  471.25   48.00
   0  -2   7  446.06   38.90
   0  -2   7  457.85   41.10
   0  -2   7  520.75   46.10
  -1   2  -7   20.70    4.80
  -1   2  -7   16.30    6.50
  -1   2  -7    8.30   11.40
   1  -2   7   17.40    4.80
   1  -2   7   10.70    7.80
   1  -2   7   18.80   10.10
  -2   2  -7  671.23   62.99
  -2   2  -7  674.43   58.69
  -2   2  -7  699.83   59.69
   2  -2   7  694.33   59.69
   2  -2   7  723.53   58.99
   2  -2   7  692.73   62.19
  -3   2  -7  286.87   31.60
  -3   2  -7  250.57   26.40
  -3   2  -7  261.77   27.30
   3  -2   7  285.57   28.10
   3  -2   7  317.37   27.70
   3  -2   7  266.67   30.10
  -4   2  -7  220.38   23.90
  -4   2  -7  202.68   23.40
   4  -2   7  226.38   27.60
   4  -2   7  226.18   23.90
   4  -2   7  218.78   23.90
  -5   2  -7   17.30   13.10
   5  -2   7   27.80   13.50
   5  -2   7   27.50   10.70
   5  -2   7   17.80    9.70
  -6   2  -7   29.70   15.20
   6  -2   7    4.30   14.40
   6  -2   7  -12.90    9.00
   6  -2   7    1.20   10.70
  -7   2  -7    0.50   17.00
   7  -2   7   -4.20   10.00
  -8   2  -7    3.70   20.00
   8  -2   7    7.80   12.70
   7   1  -7  -13.70   10.60
  -7  -1   7   30.30   24.90
   6   1  -7   53.39   12.40
  -6  -1   7   39.00   12.20
  -6  -1   7   45.80   23.20
   5   1  -7   62.09   16.20
  -5  -1   7   60.99   11.30
   4   1  -7   24.70    7.60
  -4  -1   7   29.10    7.20
  -4  -1   7   13.90   16.50
   3   1  -7  409.06   36.20
   3   1  -7  426.26   46.00
  -3  -1   7  409.46   36.10
  -3  -1   7  455.05   36.30
  -3  -1   7  428.16   45.50
  -3  -1   7  422.26   35.90
  -2  -1   7  374.26   32.40
  -2  -1   7  367.86   39.60
   1   1  -7  196.28   20.10
  -1  -1   7  225.78   20.50
  -1  -1   7  225.68   27.70
   0   1  -7 1046.80   85.99
   0  -1   7 1014.80   89.59
   0  -1   7  983.90   89.09
   0  -1   7 1074.49   86.19
  -1   1  -7    8.50   10.50
  -1   1  -7    2.70    3.70
  -1   1  -7    1.50    5.40
   1  -1   7    7.60    8.80
   1  -1   7    5.80    4.00
   1  -1   7   -0.10    5.50
  -2   1  -7   12.80    4.80
  -2   1  -7   13.80    6.40
  -2   1  -7   30.20   11.10
   2  -1   7   13.70    9.30
   2  -1   7   15.10    5.60
   2  -1   7   23.50    8.60
  -3   1  -7  258.37   30.10
  -3   1  -7  370.26   34.20
  -3   1  -7  306.27   31.00
   3  -1   7  370.96   31.60
   3  -1   7  362.46   31.60
   3  -1   7  343.87   33.00
  -4   1  -7   76.49   13.00
  -4   1  -7   56.19   14.10
  -4   1  -7   49.00   10.50
   4  -1   7   83.89   14.50
   4  -1   7   61.49   12.10
   4  -1   7   78.99   12.60
  -5   1  -7  176.38   28.30
   5  -1   7  162.78   22.00
   5  -1   7  176.08   21.60
   5  -1   7  172.68   24.30
  -6   1  -7   70.19   17.70
   6  -1   7   44.70   16.80
   6  -1   7   21.50   21.60
   6  -1   7   54.19   13.20
  -7   1  -7   16.10   17.20
   7  -1   7    5.30   11.70
   7  -1   7   -0.30   11.10
   7  -1   7   27.70   18.60
  -8   1  -7   83.39   24.00
   8  -1   7   42.40   14.70
   8  -1   7   44.40   16.90
   7   0  -7    1.80   11.70
  -7   0   7   15.80   22.10
   6   0  -7    1.80    9.00
  -6   0   7   16.60   20.10
  -6   0   7    0.80    9.80
   5   0  -7  160.88   18.50
  -5   0   7  122.79   16.80
  -5   0   7  130.89   28.00
   4   0  -7   33.60    8.10
  -4   0   7   34.20    7.60
  -4   0   7   54.39   17.90
   3   0  -7  243.58   32.00
   3   0  -7  243.88   23.00
  -3   0   7  285.87   34.90
  -3   0   7  266.87   23.10
   2   0  -7  742.73   60.09
   2   0  -7  696.03   65.79
  -2   0   7  676.53   59.99
  -2   0   7  812.42   66.79
   1   0  -7    5.40    5.20
  -1   0   7    6.10   10.70
  -1   0   7    0.70    4.60
  -1   0   7    5.20   10.10
   0   0  -7  901.21   77.09
   0   0   7  987.40   77.29
   0   0   7  869.71   79.69
   0   0   7  937.51   80.59
  -1   0  -7  298.47   26.60
  -1   0  -7  284.27   25.00
   1   0   7  261.57   29.00
   1   0   7  294.87   26.70
  -2   0  -7    0.90    4.40
  -2   0  -7    1.60    8.70
  -2   0  -7    5.30    5.60
   2   0   7   -9.10    5.00
   2   0   7   -9.30    7.30
   2   0   7    3.00    4.70
  -3   0  -7  436.96   37.00
  -3   0  -7  335.07   34.60
  -3   0  -7  383.26   34.90
   3   0   7  375.46   35.70
   3   0   7  398.26   35.20
   3   0   7  374.76   34.90
  -4   0  -7  111.59   16.30
  -4   0  -7   75.39   13.20
  -4   0  -7   87.19   13.70
   4   0   7   80.79   14.30
   4   0   7  118.09   15.50
   4   0   7   86.59   14.80
  -5   0  -7   45.80   12.20
  -5   0  -7   45.80   13.70
   5   0   7   44.50   11.40
   5   0   7   55.29   12.40
   5   0   7   52.69   14.10
   6   0   7  161.18   23.60
   6   0   7  123.69   20.90
   6   0   7  172.98   21.10
  -7   0  -7   19.40   15.90
   7   0   7   13.40   12.00
   7   0   7   13.50   20.00
   7   0   7   17.40   11.90
  -8   0  -7   10.60   19.00
   8   0   7    3.60   12.40
   8   0   7  -28.00   10.80
   7  -1  -7   13.90   12.30
  -7   1   7   34.70   24.50
   6  -1  -7   12.90   10.30
  -6   1   7   16.20   20.10
   5  -1  -7  189.68   20.60
  -5   1   7  147.49   19.00
  -5   1   7  164.08   30.10
   4  -1  -7   40.10    8.60
  -4   1   7   43.50   17.60
  -4   1   7   35.60    7.90
   3  -1  -7  370.56   31.20
   3  -1  -7  387.36   38.90
  -3   1   7  325.87   30.80
  -3   1   7  359.96   40.00
   2  -1  -7  356.36   35.10
   2  -1  -7  328.57   27.80
   2  -1  -7  318.47   27.60
  -2   1   7  334.47   27.90
  -2   1   7  291.77   34.60
  -2   1   7  318.17   27.30
   1  -1  -7   66.99   14.50
   1  -1  -7   75.19    8.80
  -1   1   7   79.49    9.50
  -1   1   7   52.09   12.90
   0  -1  -7  251.87   21.80
   0  -1  -7  226.88   19.80
   0  -1  -7  222.58   19.70
   0   1   7  233.68   26.80
   0   1   7  254.27   21.90
   0   1   7  218.98   24.70
  -1  -1  -7  695.93   59.89
  -1  -1  -7  677.23   60.69
   1   1   7  730.83   62.59
   1   1   7  757.62   62.19
   1   1   7  735.73   60.89
   1   1   7  727.33   59.79
  -2  -1  -7    3.90    4.90
  -2  -1  -7    6.60    8.30
  -2  -1  -7    7.90    5.30
   2   1   7    9.30    4.90
   2   1   7    4.50    6.10
   2   1   7    5.50    6.60
  -3  -1  -7 1073.09   82.39
  -3  -1  -7  913.21   81.89
  -3  -1  -7  982.90   82.19
   3   1   7  985.80   82.19
   3   1   7  969.60   82.09
   3   1   7  915.11   81.49
  -4  -1  -7  185.98   22.60
  -4  -1  -7  236.08   23.40
  -4  -1  -7  215.18   27.00
   4   1   7  204.48   22.60
   4   1   7  190.98   22.40
   4   1   7  224.98   23.00
  -5  -1  -7   41.80   11.80
  -5  -1  -7   45.70   11.40
   5   1   7   35.80   11.10
   5   1   7   40.50   10.90
   5   1   7   50.39   13.00
  -6  -1  -7  119.59   20.00
   6   1   7  122.89   20.70
   6   1   7  142.89   20.90
   6   1   7  160.08   19.90
  -7  -1  -7   36.80   16.90
   7   1   7   54.49   17.50
   7   1   7   72.79   15.10
   7   1   7   43.90   15.70
  -8  -1  -7    5.00   17.00
   8   1   7   10.70   13.30
   8   1   7   12.80   12.60
   7  -2  -7  140.09   22.80
  -7   2   7   98.99   31.00
   6  -2  -7   -2.40    9.00
  -6   2   7   -1.20   20.70
   5  -2  -7  343.17   36.50
  -5   2   7  458.35   48.40
  -5   2   7  402.76   38.10
   4  -2  -7  315.77   30.00
  -4   2   7  326.57   40.10
   3  -2  -7   92.09   19.00
   3  -2  -7  101.09   12.00
  -3   2   7   88.09   19.40
  -3   2   7  111.99   12.10
   2  -2  -7  462.65   45.50
   2  -2  -7  497.05   39.90
   2  -2  -7  489.35   40.30
  -2   2   7  521.35   49.99
  -2   2   7  475.45   40.10
  -2   2   7  442.66   39.90
   1  -2  -7  529.85   49.00
   1  -2  -7  522.95   44.90
   1  -2  -7  546.95   44.10
  -1   2   7  534.05   45.00
  -1   2   7  524.55   49.20
   0  -2  -7  388.46   36.00
   0  -2  -7  366.96   32.10
   0  -2  -7  371.86   32.00
   0  -2  -7  380.46   33.10
   0   2   7  389.76   35.80
   0   2   7  396.46   33.30
  -1  -2  -7  657.63   53.89
  -1  -2  -7  695.93   53.19
   1   2   7  593.54   54.09
   1   2   7  620.14   52.99
   1   2   7  623.84   54.79
   1   2   7  598.34   53.59
  -2  -2  -7  237.18   21.50
  -2  -2  -7  224.48   21.70
   2   2   7  211.48   21.80
   2   2   7  208.68   21.20
   2   2   7  209.28   21.40
   2   2   7  236.98   21.40
  -3  -2  -7    7.70    6.80
  -3  -2  -7   -3.70    5.40
  -3  -2  -7    0.40    5.40
   3   2   7   -2.10    5.10
   3   2   7   17.00    7.70
   3   2   7   -1.10    4.50
  -4  -2  -7  922.01   74.19
  -4  -2  -7  811.82   75.49
   4   2   7  892.81   73.79
   4   2   7  906.31   75.29
   4   2   7  844.72   75.59
  -5  -2  -7  150.78   20.70
  -5  -2  -7  167.58   21.60
   5   2   7  199.78   23.90
   5   2   7  201.08   21.90
   5   2   7  206.38   22.60
  -6  -2  -7  153.78   20.10
   6   2   7  148.69   20.40
   6   2   7  139.89   19.60
   6   2   7  109.19   20.30
  -7  -2  -7   91.09   19.60
   7   2   7  122.79   20.60
   7   2   7   78.99   17.70
   7   2   7   95.59   17.20
  -8  -2  -7    2.80   16.50
   8   2   7    7.80   13.40
   8   2   7   -9.70   12.20
   7  -3  -7   42.60   18.10
  -7   3   7   23.20   25.20
   6  -3  -7   20.90   11.50
  -6   3   7   52.39   23.80
   5  -3  -7  -11.60    7.50
  -5   3   7    3.00    7.10
  -5   3   7   22.30   17.40
   4  -3  -7  274.97   27.40
  -4   3   7  282.77   27.10
  -4   3   7  299.97   37.30
   3  -3  -7  739.93   68.69
   3  -3  -7  761.32   63.39
  -3   3   7  740.63   63.09
  -3   3   7  762.42   70.09
   2  -3  -7  356.96   29.60
   2  -3  -7  337.67   28.80
   2  -3  -7  343.27   35.10
  -2   3   7  344.67   29.40
  -2   3   7  316.67   28.90
   1  -3  -7 1978.10  170.58
   1  -3  -7 2136.79  167.38
   1  -3  -7 2087.39  167.58
  -1   3   7 2093.99  170.98
  -1   3   7 1965.10  167.28
  -1   3   7 2059.59  167.58
   0  -3  -7   -1.50    3.70
   0  -3  -7    1.50    4.00
   0  -3  -7    6.90    4.80
   0   3   7   -0.60    5.40
   0   3   7   15.00    8.50
  -1  -3  -7 2542.15  205.08
  -1  -3  -7 2230.08  205.48
   1   3   7 2508.65  205.08
   1   3   7 2619.94  204.68
   1   3   7 2627.34  205.18
  -2  -3  -7  794.82   68.79
  -2  -3  -7  811.12   68.79
   2   3   7  802.82   67.19
   2   3   7  848.62   68.79
   2   3   7  819.12   68.99
   2   3   7  814.92   67.19
  -3  -3  -7  264.17   25.50
  -3  -3  -7  262.17   25.70
   3   3   7  282.87   26.00
   3   3   7  193.58   30.20
  -4  -3  -7  327.27   34.30
  -4  -3  -7  258.27   41.80
  -4  -3  -7  403.06   31.50
   4   3   7  340.87   34.10
   4   3   7  369.96   34.70
  -5  -3  -7   69.39   11.10
  -5  -3  -7   81.39   14.00
   5   3   7   56.29   12.50
   5   3   7   74.99   11.80
   5   3   7   71.99   14.40
  -6  -3  -7   21.20    9.70
   6   3   7    5.70   10.60
   6   3   7   10.90   10.60
  -7  -3  -7   36.10   13.20
   7   3   7   43.10   14.30
   7   3   7   45.70   14.80
   7   3   7   50.29   14.50
  -8  -3  -7   26.80   24.00
   8   3   7    1.50   12.90
   8   3   7   19.80   15.20
   7  -4  -7   80.29   16.80
  -7   4   7   54.59   26.70
   6  -4  -7   67.49   14.80
  -6   4   7   67.79   24.60
   5  -4  -7   15.20    9.00
  -5   4   7   39.90   19.80
  -5   4   7   12.60    8.70
   4  -4  -7  192.18   21.10
  -4   4   7  185.08   20.40
  -4   4   7  200.28   30.80
   3  -4  -7   -2.20    9.30
   3  -4  -7    8.50    5.70
  -3   4   7   -2.20   11.80
  -3   4   7    4.00    4.80
   2  -4  -7   46.60    7.50
   2  -4  -7   51.79    6.90
   2  -4  -7   46.10   13.00
  -2   4   7   35.30   15.70
  -2   4   7   51.89    7.00
  -2   4   7   36.90    6.80
   1  -4  -7  344.57   34.50
   1  -4  -7  407.66   33.40
   1  -4  -7  382.36   37.10
  -1   4   7  365.56   33.20
  -1   4   7  419.96   38.30
  -1   4   7  398.76   33.60
   0  -4  -7  141.19   15.10
   0  -4  -7  149.39   14.80
   0  -4  -7  145.29   14.90
   0   4   7  161.08   19.10
   0   4   7  130.89   15.70
  -1  -4  -7  271.27   25.10
  -1  -4  -7  290.17   24.70
  -1  -4  -7  250.47   24.60
   1   4   7  260.17   25.00
   1   4   7  267.77   24.50
   1   4   7  252.67   25.10
  -2  -4  -7 1213.08  100.59
  -2  -4  -7 1217.68  100.49
   2   4   7 1159.08  100.39
   2   4   7 1236.38  100.59
  -3  -4  -7  345.97   32.00
  -3  -4  -7  347.37   31.90
   3   4   7  347.37   32.00
   3   4   7  320.07   31.90
  -4  -4  -7  492.35   47.80
  -4  -4  -7  541.45   48.20
   4   4   7  502.35   47.80
   4   4   7  582.44   47.80
  -5  -4  -7  255.67   28.60
   5   4   7  288.27   29.00
   5   4   7  276.77   31.00
  -6  -4  -7    9.20    8.10
   6   4   7   -1.60   10.40
   6   4   7   -4.00   18.30
  -7  -4  -7   79.19   15.50
   7   4   7  109.89   18.10
   7   4   7   91.89   18.60
  -8  -4  -7   62.99   17.30
   8   4   7   49.60   17.80
   8   4   7   83.99   17.30
   7  -5  -7    5.30   12.20
  -7   5   7   -6.60   21.40
   6  -5  -7  110.89   18.70
  -6   5   7   98.19   27.40
   5  -5  -7   35.80   10.80
  -5   5   7   64.69   21.70
   4  -5  -7   96.49   13.50
  -4   5   7  112.99   23.10
  -4   5   7   69.79   12.50
   3  -5  -7  608.04   47.90
   3  -5  -7  550.74   55.19
   3  -5  -7  553.24   47.80
   3  -5  -7  549.65   49.80
  -3   5   7  566.44   49.70
  -3   5   7  622.74   56.79
   2  -5  -7    4.90    9.30
   2  -5  -7    5.60    5.20
   2  -5  -7   11.60    5.00
  -2   5   7   28.90   11.20
  -2   5   7   14.00    5.00
  -2   5   7    9.10    4.60
   1  -5  -7  666.03   53.49
   1  -5  -7  611.54   53.09
   1  -5  -7  616.54   56.49
  -1   5   7  618.44   56.89
  -1   5   7  631.14   53.19
  -1   5   7  629.94   53.29
   0  -5  -7  846.42   72.29
   0  -5  -7  893.41   72.39
   0  -5  -7  858.61   72.29
   0  -5  -7  861.91   75.39
   0   5   7  861.71   73.79
   0   5   7  860.31   72.49
  -1  -5  -7   91.09   11.90
  -1  -5  -7   84.59   11.40
  -1  -5  -7   86.19   11.70
  -1  -5  -7  100.19   12.90
   1   5   7  101.79   12.80
   1   5   7   83.39   11.50
  -2  -5  -7  137.49   16.00
  -2  -5  -7  123.69   15.00
   2   5   7  133.39   17.80
   2   5   7  107.39   14.70
  -3  -5  -7  470.25   41.90
  -3  -5  -7  440.66   41.90
   3   5   7  475.55   42.10
   3   5   7  482.15   42.40
  -4  -5  -7    9.20    8.70
  -4  -5  -7   13.10    8.10
   4   5   7   13.70    7.90
   4   5   7   12.00    8.50
   5   5   7  366.06   33.70
   5   5   7  297.17   33.90
   6   5   7   86.09   17.80
   6   5   7   74.19   15.60
  -7  -5  -7   13.00   17.70
  -7  -5  -7   42.10   11.40
   7   5   7   36.50   14.20
   7   5   7   72.79   15.40
  -8  -5  -7   46.50   17.30
   8   5   7   48.10   17.70
   8   5   7   61.19   16.60
   7  -6  -7   -0.90   12.00
  -7   6   7    7.40   22.60
   6  -6  -7   26.80   11.90
  -6   6   7   27.70   21.70
   5  -6  -7   86.79   15.20
   4  -6  -7   -1.30    6.40
   4  -6  -7    7.10    4.30
   4  -6  -7    6.80    4.20
  -4   6   7   11.10    6.90
  -4   6   7    0.90   15.10
   3  -6  -7  377.66   30.80
   3  -6  -7  361.36   39.00
   3  -6  -7  369.26   31.30
   3  -6  -7  337.17   32.80
  -3   6   7  338.77   40.30
  -3   6   7  316.07   32.50
   2  -6  -7  252.87   23.20
   2  -6  -7  243.48   28.70
   2  -6  -7  270.57   24.20
  -2   6   7  258.77   23.40
  -2   6   7  225.98   23.70
  -2   6   7  259.37   30.90
   1  -6  -7   67.49    9.80
   1  -6  -7   55.69   13.20
   1  -6  -7   69.19   10.10
  -1   6   7   75.89   15.40
  -1   6   7   60.69    9.50
  -1   6   7   93.69   11.00
   0  -6  -7 1909.51  161.88
   0  -6  -7 2001.10  162.18
   0  -6  -7 2052.79  162.28
   0  -6  -7 1948.91  163.18
   0   6   7 1955.70  163.28
   0   6   7 1968.60  161.98
  -1  -6  -7  145.69   16.80
  -1  -6  -7  145.09   17.40
  -1  -6  -7  126.09   16.20
  -1  -6  -7  137.89   16.60
   1   6   7  169.78   18.00
   1   6   7  144.79   16.50
  -2  -6  -7  690.23   54.69
  -2  -6  -7  687.03   57.29
  -2  -6  -7  628.34   57.19
   2   6   7  557.54   61.09
   2   6   7  686.73   57.49
  -3  -6  -7   22.90   13.00
  -4  -6  -7   52.79   11.90
   4   6   7   67.49   13.10
   4   6   7   53.69   12.10
   5   6   7   84.59   16.10
   5   6   7  101.19   15.80
   6   6   7   84.59   16.40
   6   6   7   77.09   17.20
   7   6   7   -0.50   11.20
   7   6   7    7.90   12.00
   8   6   7  103.19   20.40
   7  -7  -7   -9.70   10.80
  -7   7   7   16.10   24.00
   6  -7  -7   17.10   12.00
  -6   7   7    5.30   19.30
   5  -7  -7   77.39   15.30
  -5   7   7  102.79   25.90
   4  -7  -7   17.30    5.70
   4  -7  -7   -2.80    7.00
  -4   7   7   -7.80   14.70
  -4   7   7   -0.20    6.30
   3  -7  -7  328.27   37.70
   3  -7  -7  241.08   27.10
   3  -7  -7  288.77   25.70
   3  -7  -7  267.17   25.40
  -3   7   7  315.47   35.80
   2  -7  -7   11.50   10.10
   2  -7  -7    4.40    5.60
   2  -7  -7    1.60    5.10
  -2   7   7    4.30   11.20
  -2   7   7    5.20    5.20
  -2   7   7    1.20    5.70
   1  -7  -7   45.30    8.50
   1  -7  -7   74.19   14.80
   1  -7  -7   48.20    8.90
  -1   7   7   36.60   12.20
  -1   7   7   48.60    8.80
  -1   7   7   52.99    9.20
   0  -7  -7  237.18   24.40
   0  -7  -7  245.58   26.20
   0  -7  -7  262.07   24.60
   0   7   7  269.87   27.10
   0   7   7  249.08   24.80
  -1  -7  -7  143.69   17.90
  -1  -7  -7  153.38   17.80
  -1  -7  -7  154.38   20.70
  -1  -7  -7  138.39   17.60
   1   7   7  200.48   20.10
   1   7   7  142.09   17.20
  -2  -7  -7  301.07   27.90
  -2  -7  -7  273.87   29.40
  -2  -7  -7  304.47   30.10
   2   7   7  347.17   30.60
   2   7   7  338.37   28.30
  -3  -7  -7  472.95   42.50
  -3  -7  -7  432.96   42.40
   3   7   7  507.35   42.90
   3   7   7  446.46   42.60
  -4  -7  -7    9.70    9.10
   4   7   7    8.30    9.20
   4   7   7   17.90    9.30
   5   7   7  144.39   21.70
   5   7   7  164.98   21.40
   6   7   7  114.99   20.90
   6   7   7  166.48   21.60
   7   7   7    7.20   15.00
   7   7   7   -0.70   12.10
   8   7   7    8.70   14.60
   8   7   7    7.80   13.80
   7  -8  -7  136.09   23.90
   6  -8  -7   94.29   17.50
  -6   8   7   66.59   25.00
   5  -8  -7  227.28   27.20
   5  -8  -7  241.68   21.70
   5  -8  -7  195.08   23.30
  -5   8   7  275.07   38.50
   4  -8  -7   62.89   13.20
   4  -8  -7   85.69   10.90
   4  -8  -7   70.09   10.50
  -4   8   7   98.19   23.20
   3  -8  -7  301.07   30.80
   3  -8  -7  325.97   29.20
  -3   8   7  347.57   38.40
  -3   8   7  301.57   30.60
   2  -8  -7  148.99   23.10
   2  -8  -7  188.48   17.60
   2  -8  -7  136.89   17.60
  -2   8   7  104.19   17.80
  -2   8   7  151.38   23.80
   1  -8  -7   15.50    6.80
   1  -8  -7   20.60    6.80
   1  -8  -7   29.70   11.50
  -1   8   7   17.60    6.40
  -1   8   7   18.80    9.30
   0  -8  -7   31.60    8.30
   0  -8  -7   28.30    9.40
   0  -8  -7   23.00    7.90
   0   8   7   51.69   11.80
   0   8   7   34.90    9.00
  -1  -8  -7   89.99   14.00
  -1  -8  -7   91.59   14.10
  -1  -8  -7   84.39   13.90
  -1  -8  -7  109.49   14.80
   1   8   7  105.09   14.40
   1   8   7  131.69   16.00
  -2  -8  -7   39.90    9.90
  -2  -8  -7   43.90   10.80
  -2  -8  -7   61.69   11.40
  -2  -8  -7   45.50    8.60
   2   8   7   38.30    8.80
   2   8   7   48.00   11.20
  -3  -8  -7  340.07   33.60
  -3  -8  -7  332.87   30.10
  -3  -8  -7  328.47   33.40
  -3  -8  -7  356.56   30.30
   3   8   7  380.46   34.30
   3   8   7  337.67   33.70
   4   8   7  389.56   39.70
   4   8   7  436.56   40.30
   5   8   7   84.79   17.00
   5   8   7  137.69   19.10
   6   8   7   96.39   20.20
   6   8   7  190.98   22.90
   7   8   7   34.90   14.00
   7   8   7   -7.00   11.70
   8   8   7   19.60   16.30
   8   8   7   24.10   15.20
   7  -9  -7   14.10   13.70
  -7   9   7   50.09   27.70
   6  -9  -7   78.59   17.40
  -6   9   7   68.79   26.00
   5  -9  -7   59.29   10.40
   5  -9  -7   73.69   10.90
  -5   9   7   96.59   25.90
   4  -9  -7  448.26   38.50
   4  -9  -7  449.16   41.50
   4  -9  -7  419.96   38.50
  -4   9   7  377.16   48.90
   3  -9  -7   57.09   11.50
   3  -9  -7   36.10    9.30
  -3   9   7   54.39   18.00
   2  -9  -7  639.04   52.49
   2  -9  -7  575.94   53.09
   2  -9  -7  601.84   57.39
   2  -9  -7  596.24   52.19
  -2   9   7  537.85   52.49
  -2   9   7  657.83   58.89
   1  -9  -7  378.16   36.20
   1  -9  -7  390.26   36.40
   1  -9  -7  400.36   39.90
  -1   9   7  400.96   36.30
  -1   9   7  394.16   36.20
  -1   9   7  380.66   40.30
   0  -9  -7  213.18   25.90
   0  -9  -7  228.28   24.10
   0   9   7  243.58   26.60
   0   9   7  246.28   24.30
   0   9   7  225.48   23.30
  -1  -9  -7 1153.88   93.79
  -1  -9  -7 1090.89   93.69
  -1  -9  -7 1027.70   93.69
  -1  -9  -7 1174.58   94.29
   1   9   7 1070.39   93.89
   1   9   7 1135.49   93.79
  -2  -9  -7    9.90    7.60
  -2  -9  -7   15.80    8.40
  -2  -9  -7   34.80   10.00
   2   9   7   18.90    8.50
   2   9   7   33.00   10.20
  -3  -9  -7  220.68   25.40
  -3  -9  -7  177.28   20.40
   3   9   7  241.28   25.00
  -4  -9  -7   75.09   10.70
   4   9   7   94.29   15.80
   4   9   7  112.79   16.00
   5   9   7   -2.80   10.60
   5   9   7    8.20   10.10
   6   9   7   68.09   17.30
   6   9   7  103.79   19.00
   7   9   7   14.60   13.40
   7   9   7   57.69   16.00
   7 -10  -7   40.40   27.40
  -7  10   7   55.29   29.30
   6 -10  -7   19.30   12.90
   6 -10  -7   15.20    8.10
  -6  10   7   30.20   20.30
   5 -10  -7    2.60    9.10
   5 -10  -7   12.50    8.20
   5 -10  -7   11.90    8.30
  -5  10   7    2.10   17.80
   4 -10  -7  183.48   20.70
   4 -10  -7  174.38   20.20
   4 -10  -7  162.98   23.10
   3 -10  -7  111.99   15.60
   3 -10  -7  104.29   17.00
  -3  10   7  139.99   26.60
   2 -10  -7  190.18   21.60
   2 -10  -7  159.88   21.60
   2 -10  -7  178.98   21.20
  -2  10   7  199.28   29.30
   1 -10  -7  162.98   26.40
   1 -10  -7  168.18   21.60
   1 -10  -7  182.78   21.80
  -1  10   7  228.58   29.30
  -1  10   7  202.28   22.80
  -1  10   7  157.68   21.20
   0 -10  -7  189.88   25.00
   0 -10  -7  162.28   20.30
   0 -10  -7  164.08   20.90
   0  10   7  117.29   19.00
   0  10   7  190.38   22.10
   0  10   7  213.78   26.00
  -1 -10  -7  464.65   44.80
  -1 -10  -7  472.15   45.30
  -1 -10  -7  517.15   45.30
  -1 -10  -7  496.95   45.10
   1  10   7  483.55   45.50
   1  10   7  483.95   44.90
  -2 -10  -7  225.28   26.30
  -2 -10  -7  197.88   24.30
   2  10   7  235.48   26.10
   2  10   7  205.38   24.80
  -3 -10  -7  144.29   20.70
   3  10   7  104.99   18.10
  -4 -10  -7   72.59   12.60
  -4 -10  -7   92.99   18.10
  -4 -10  -7  108.69   14.80
   4  10   7  125.79   17.70
  -5 -10  -7   26.90    8.80
  -5 -10  -7   19.90    7.80
   5  10   7   40.70   13.40
   6  10   7    5.50   12.40
   6  10   7   12.30   12.30
   7  10   7   58.99   16.80
   7  10   7   29.30   18.00
   6 -11  -7   70.79   12.50
   6 -11  -7   68.49   17.30
  -6  11   7   73.69   27.90
   5 -11  -7   46.00   10.70
   5 -11  -7   28.40   10.80
  -5  11   7   40.50   22.20
   4 -11  -7  119.89   16.70
   4 -11  -7   93.19   15.50
   4 -11  -7  119.79   18.80
  -4  11   7  150.38   29.60
   3 -11  -7   89.59   15.30
   3 -11  -7   91.09   14.00
   3 -11  -7   69.79   13.20
  -3  11   7   95.29   23.00
   2 -11  -7  244.68   28.00
   2 -11  -7  251.17   27.10
   2 -11  -7  191.38   23.80
  -2  11   7  272.67   36.20
   1 -11  -7  234.48   32.50
   1 -11  -7  220.58   26.20
  -1  11   7  254.97   33.90
   0 -11  -7  141.79   24.80
   0 -11  -7  127.69   18.00
   0  11   7  129.49   18.80
   0  11   7  126.09   21.20
  -1 -11  -7   47.50   11.90
  -1 -11  -7   45.10   13.60
   1  11   7   54.69   13.00
  -2 -11  -7  319.57   34.50
  -2 -11  -7  357.56   35.20
   2  11   7  371.26   34.80
   2  11   7  319.97   35.60
  -3 -11  -7   97.49   17.70
  -3 -11  -7   52.89   13.10
   3  11   7  104.89   16.00
   3  11   7   61.89   15.30
  -4 -11  -7  412.96   39.80
  -4 -11  -7  313.97   35.00
  -4 -11  -7  387.56   36.10
   4  11   7  378.96   39.10
  -5 -11  -7   36.20   13.80
  -5 -11  -7   45.30   11.80
   5  11   7   47.00   13.80
   6  11   7   29.30   14.40
   6  11   7   15.80   13.50
   7  11   7   68.89   18.50
   7  11   7   68.29   19.20
   6 -12  -7  100.09   16.20
   6 -12  -7  122.49   22.60
  -6  12   7   86.69   29.40
   5 -12  -7   -3.50    9.20
   5 -12  -7   12.30    9.50
  -5  12   7   24.10   20.90
   4 -12  -7  183.48   27.00
   4 -12  -7  249.97   25.50
  -4  12   7  261.97   39.90
   3 -12  -7  708.73   64.09
   3 -12  -7  682.93   61.19
   2 -12  -7   52.89   12.50
   2 -12  -7   61.99   12.40
  -2  12   7   47.90   17.90
   1 -12  -7 1014.10   85.79
   1 -12  -7  967.50   85.99
  -1  12   7  998.40   90.19
   0 -12  -7  186.78   24.10
   0 -12  -7  184.48   28.00
   0  12   7  214.48   29.50
   0  12   7  213.68   25.80
  -1 -12  -7  183.58   24.10
  -1 -12  -7  193.88   27.40
   1  12   7  179.78   26.60
   1  12   7  185.78   24.40
  -2 -12  -7   34.80   12.20
  -2 -12  -7   23.00   11.10
   2  12   7   44.70   19.80
   2  12   7   10.50    9.40
  -3 -12  -7   43.20   12.80
  -3 -12  -7   47.40   16.90
   3  12   7   45.10   15.10
  -4 -12  -7   -0.10   10.10
  -4 -12  -7    5.20   10.00
  -4 -12  -7   12.40   11.00
   4  12   7    8.90   11.10
  -5 -12  -7  245.68   28.90
  -5 -12  -7  252.77   34.50
  -5 -12  -7  277.77   29.80
   5  12   7  280.17   32.50
  -6 -12  -7   20.00   14.30
  -6 -12  -7   28.70   17.30
   6  12   7   22.40   15.40
   6 -13  -7   62.19   15.10
   6 -13  -7   55.29   16.70
  -6  13   7   49.10   26.10
   5 -13  -7   40.10   12.20
   5 -13  -7   47.30   15.00
  -5  13   7   34.20   22.80
   4 -13  -7   22.90   11.30
   4 -13  -7   33.90   11.10
  -4  13   7   17.00   19.60
   3 -13  -7  219.78   29.20
   3 -13  -7  229.28   26.10
  -3  13   7  273.77   39.20
   2 -13  -7  256.77   29.80
   2 -13  -7  288.57   30.00
  -2  13   7  305.37   40.40
   1 -13  -7  103.89   25.20
   1 -13  -7  180.48   23.20
  -1  13   7  148.69   26.30
   0 -13  -7  635.14   60.69
   0 -13  -7  693.13   60.99
   0  13   7  690.13   64.69
  -1 -13  -7   60.79   15.80
  -1 -13  -7   25.00   13.50
   1  13   7   55.59   15.30
   1  13   7   63.59   17.00
  -2 -13  -7  372.26   36.40
   2  13   7  322.77   35.60
   2  13   7  317.37   37.90
  -3 -13  -7  359.26   37.00
  -3 -13  -7  262.47   34.40
   3  13   7  339.87   37.70
   3  13   7  339.87   35.40
  -4 -13  -7   31.60   13.90
  -4 -13  -7   78.69   17.50
  -4 -13  -7   75.49   23.60
   4  13   7   43.50   14.80
  -5 -13  -7  174.28   27.30
  -5 -13  -7  157.98   25.60
   5  13   7  183.18   25.90
  -6 -13  -7    7.10   15.10
   6  13   7   13.20   14.90
   5 -14  -7  252.87   29.60
  -5  14   7  215.48   42.40
   4 -14  -7    2.70   10.00
   4 -14  -7   12.90   10.10
  -4  14   7   23.60   20.70
   3 -14  -7  325.27   34.30
   3 -14  -7  283.37   34.10
  -3  14   7  378.96   48.70
   2 -14  -7  118.19   19.40
   2 -14  -7  123.49   20.30
  -2  14   7  126.19   27.70
   1 -14  -7   14.30    9.80
   1 -14  -7   11.90    9.30
  -1  14   7   17.80   14.60
   0 -14  -7  428.96   38.40
   0 -14  -7  314.57   36.90
   0  14   7  369.66   42.70
  -1 -14  -7  435.86   44.30
   1  14   7  464.05   48.40
  -2 -14  -7  222.68   28.10
  -2 -14  -7  145.39   25.80
   2  14   7  228.18   30.30
   2  14   7  173.78   25.50
  -3 -14  -7  402.96   40.40
  -3 -14  -7  340.67   40.10
   3  14   7  336.37   42.10
   3  14   7  383.06   39.40
  -4 -14  -7   76.79   19.80
  -4 -14  -7   63.19   19.00
   4  14   7   61.79   16.80
  -5 -14  -7  110.69   22.20
  -5 -14  -7   78.09   20.30
   5  14   7   92.09   20.10
   5 -15  -7   77.79   19.70
   5 -15  -7  134.99   20.70
  -5  15   7  147.99   35.40
   4 -15  -7   17.70   14.30
   4 -15  -7   27.80   12.40
  -4  15   7   36.50   21.70
   3 -15  -7   74.59   16.00
   3 -15  -7   32.00   12.90
  -3  15   7   74.19   23.00
   2 -15  -7  460.75   42.60
   2 -15  -7  399.76   42.30
  -2  15   7  394.06   49.40
   1 -15  -7    7.60    9.50
   1 -15  -7   -9.50    6.60
  -1  15   7    2.60   15.40
   0 -15  -7  386.96   39.20
   0 -15  -7  399.76   39.60
   0  15   7  354.26   44.40
  -1 -15  -7  217.18   30.00
  -1 -15  -7  241.58   30.80
   1  15   7  281.97   37.10
  -2 -15  -7   -5.10    9.40
  -2 -15  -7   -2.70   10.00
   2  15   7   -4.70   15.40
  -3 -15  -7   67.39   17.60
   3  15   7   46.50   19.70
  -4 -15  -7  266.87   35.30
  -4 -15  -7  272.27   35.80
   4  15   7  209.58   30.70
  -5 -15  -7   -3.20   13.80
   4 -16  -7   92.29   18.90
   4 -16  -7   77.99   19.20
  -4  16   7   65.59   25.50
   3 -16  -7    2.70   10.80
   3 -16  -7   -9.30    9.10
  -3  16   7    3.00   16.90
   2 -16  -7  203.98   28.30
   2 -16  -7  202.58   29.00
  -2  16   7  245.28   39.20
   1 -16  -7  105.99   18.40
   1 -16  -7   72.79   16.80
  -1  16   7   86.59   24.90
   0 -16  -7  124.79   20.70
   0 -16  -7  102.39   19.60
   0  16   7  134.59   28.10
  -1 -16  -7  308.97   34.30
  -1 -16  -7  277.87   35.00
  -2 -16  -7    2.50   10.60
  -2 -16  -7   18.60   11.70
   2  16   7   -9.90   16.60
  -3 -16  -7   20.20   13.40
  -3 -16  -7   40.20   14.50
   3  16   7   55.09   21.50
  -4 -16  -7   81.19   21.20
  -4 -16  -7   96.19   21.10
  -4 -16  -7   77.39   24.30
   3 -17  -7   12.90   12.70
   3 -17  -7   -2.20    9.70
  -3  17   7  -14.90   18.20
   2 -17  -7   65.59   17.20
   2 -17  -7   59.79   16.60
  -2  17   7   75.49   26.50
   1 -17  -7  116.19   22.70
   1 -17  -7  126.79   25.60
  -1  17   7  182.68   34.90
   0 -17  -7    6.70   10.00
   0 -17  -7   -1.10    9.80
   0  17   7    3.80   18.90
  -1 -17  -7  236.58   33.60
  -1 -17  -7  322.17   41.90
   1  17   7  294.97   42.10
  -2 -17  -7   97.89   24.30
  -2 -17  -7  112.39   21.70
   2  17   7  106.29   27.70
  -3 -17  -7   21.70   15.30
  -3 -17  -7   43.70   15.80
   1 -18  -7  230.48   34.20
   1 -18  -7  314.07   38.40
  -1  18   7  388.96   52.69
   0 -18  -7   72.39   18.90
   0 -18  -7   37.20   14.20
   0  18   7   59.99   24.60
  -1 -18  -7  113.09   21.40
  -1 -18  -7   58.69   16.30
   1  18   7   23.80   22.80
  -1 -12   8   43.70   31.90
  -1 -12   8   83.79   15.10
  -1 -12   8   91.29   26.40
   0  12  -8  175.88   38.20
   0 -12   8  138.69   20.40
  -1  12  -8  -12.70   22.60
   1 -12   8    5.90   14.70
   1 -12   8   -4.90   19.70
  -2  12  -8   41.50   27.20
   2 -12   8   75.39   16.30
   2 -12   8   44.80   15.70
  -3  12  -8   30.90   28.10
   3 -12   8   33.00   14.90
   3 -12   8   27.70   13.90
  -3 -11   8   -3.20   28.40
  -3 -11   8   14.30   14.20
  -2 -11   8   76.69   13.50
  -2 -11   8   71.09   33.90
  -2 -11   8   95.49   18.80
  -1 -11   8    6.30    8.10
  -1 -11   8   -8.30   23.70
  -1 -11   8    2.90   11.70
   0  11  -8   43.10   26.70
   0 -11   8   59.89   12.70
   0 -11   8   69.49   16.80
  -1  11  -8  205.98   41.40
   1 -11   8  248.28   27.50
   1 -11   8  234.38   30.90
  -2  11  -8    8.90   22.80
   2 -11   8   45.80   15.30
  -3  11  -8   91.89   30.30
   3 -11   8  105.09   18.90
   3 -11   8  102.09   23.40
  -4  11  -8   22.40   32.30
   4 -11   8   42.90   15.10
   4 -11   8   39.00   15.30
  -3 -10   8    7.80    7.60
  -3 -10   8   12.30   12.20
  -2 -10   8  103.39   31.20
  -2 -10   8   54.29   10.80
  -2 -10   8   44.40   13.90
  -1 -10   8   19.40   24.40
  -1 -10   8   23.70    8.00
  -1 -10   8   -0.20   10.70
  -1 -10   8  -11.70   14.60
   0  10  -8  -13.40   21.30
   0 -10   8   34.00   12.90
   0 -10   8  -10.70    8.40
   0 -10   8   14.80    8.70
  -1  10  -8   52.39   24.20
   1 -10   8   74.59   13.90
   1 -10   8   74.69   16.70
  -2  10  -8   34.30   24.50
   2 -10   8   29.80   10.70
   2 -10   8   20.60   11.90
  -3  10  -8   47.70   24.50
   3 -10   8   42.20   14.00
   3 -10   8   56.09   13.80
  -4  10  -8   98.09   29.70
   4 -10   8  128.89   21.50
   4 -10   8  128.19   21.80
  -5  10  -8    5.00   26.80
   5 -10   8   11.10   13.60
   5 -10   8    8.40   11.80
  -4  -9   8   76.49   13.40
  -4  -9   8   87.99   17.20
  -3  -9   8   62.69   15.20
  -3  -9   8  146.99   34.40
  -2  -9   8   80.09   16.70
  -2  -9   8  102.69   29.40
  -2  -9   8  127.09   16.80
  -1  -9   8   27.50   11.60
  -1  -9   8    5.00    9.30
  -1  -9   8   22.60    7.90
  -1  -9   8    4.80   21.50
   0   9  -8  -12.10   16.90
   0  -9   8    3.60    7.20
   0  -9   8   -0.80    9.60
   0  -9   8   10.90    9.20
  -1   9  -8    9.70   20.40
  -1   9  -8   44.20   11.60
   1  -9   8   37.40   13.40
   1  -9   8   43.60   10.40
  -2   9  -8   39.30   23.80
   2  -9   8   50.69   11.70
   2  -9   8   23.20   11.70
  -3   9  -8   23.00   20.20
   3  -9   8  -14.50    9.00
   3  -9   8   12.20   10.00
  -4   9  -8  234.38   40.20
   4  -9   8  214.28   29.60
   4  -9   8  260.97   31.20
  -5   9  -8   89.99   29.20
   5  -9   8   67.99   17.40
   5  -9   8   74.29   17.20
  -6   9  -8   13.00   24.60
   6  -9   8   20.00   16.10
  -5  -8   8   21.30   27.50
  -5  -8   8   -8.00   11.00
  -4  -8   8   79.79   28.50
  -4  -8   8   57.39   14.20
  -4  -8   8   62.29   12.50
  -3  -8   8   75.69   27.10
  -3  -8   8   39.00   10.80
  -3  -8   8   59.79    9.80
  -3  -8   8   62.09   14.30
  -2  -8   8   15.70    6.40
  -2  -8   8   14.50    6.40
  -2  -8   8   33.80   22.20
  -2  -8   8   -5.80    8.90
  -2  -8   8   16.60    8.10
  -1  -8   8   55.19    9.30
  -1  -8   8   45.30   10.80
  -1  -8   8   73.59   14.70
  -1  -8   8   92.99   27.20
   0   8  -8   -7.00   18.90
   0  -8   8   10.10    9.50
  -1   8  -8   78.99   24.70
  -1   8  -8   78.89   16.40
   1  -8   8  100.79   19.40
   1  -8   8  123.29   15.30
  -2   8  -8  109.69   16.70
  -2   8  -8  144.89   29.80
   2  -8   8  148.49   26.30
   2  -8   8  140.89   18.30
  -3   8  -8   16.90   17.00
   3  -8   8    8.40    9.60
   3  -8   8    1.60    8.00
  -4   8  -8   69.39   25.60
   4  -8   8   76.39   21.60
   4  -8   8   85.39   17.10
  -5   8  -8   38.60   22.60
   5  -8   8   18.00   11.30
   5  -8   8    6.70   12.50
  -6   8  -8    2.70   21.20
   6  -8   8    1.40   11.40
   6  -8   8    7.30   12.70
  -5  -7   8    6.60    8.50
  -5  -7   8   -8.50   23.80
  -5  -7   8   -1.70    9.60
  -4  -7   8   16.70   22.80
  -4  -7   8   25.80    9.40
  -4  -7   8   18.20    7.50
  -4  -7   8   24.30   11.60
  -3  -7   8   49.60   10.50
  -3  -7   8   85.69   26.70
  -3  -7   8   75.49    9.90
  -3  -7   8   89.69   14.60
  -2  -7   8   62.29   30.90
  -2  -7   8   57.29    8.80
  -2  -7   8   67.29   10.30
  -2  -7   8   64.59   13.00
  -1  -7   8  201.78   23.30
  -1  -7   8  240.48   22.30
  -1  -7   8  277.37   27.10
   0   7  -8   84.29   24.60
   0  -7   8   81.09   11.00
   0  -7   8   57.29   13.10
  -1   7  -8    3.30    6.50
  -1   7  -8  -15.90   15.90
   1  -7   8   -5.50    6.10
   1  -7   8   -1.40    8.40
  -2   7  -8  267.67   28.50
  -2   7  -8  337.77   42.50
   2  -7   8  285.47   30.90
   2  -7   8  301.77   29.20
  -3   7  -8   67.99   20.50
   3  -7   8   18.80   10.50
   3  -7   8   22.30    9.60
   4  -7   8   58.19   14.80
   4  -7   8   58.19   13.20
  -5   7  -8   99.09   26.60
   5  -7   8   75.09   17.00
   5  -7   8   96.69   17.80
  -6   7  -8   12.20   21.80
   6  -7   8   -9.90   10.60
   6  -7   8   -6.50    9.00
  -7   7  -8  -16.40   22.30
   7  -7   8   -5.90   14.60
   7  -7   8   -3.50   12.60
  -6  -6   8   83.49   31.00
  -5  -6   8   27.90   24.10
  -5  -6   8    7.90    9.50
  -4  -6   8   40.20    8.20
  -4  -6   8   27.80    8.40
  -4  -6   8   27.00    9.60
  -4  -6   8   48.50   22.90
  -4  -6   8   32.90   12.40
  -3  -6   8   40.40   11.90
  -3  -6   8   36.40    6.80
  -3  -6   8   49.20   21.70
  -3  -6   8   52.89   11.10
  -2  -6   8   40.80    6.80
  -2  -6   8   37.30   10.80
  -2  -6   8   50.69   23.60
  -2  -6   8   31.90    7.40
  -1  -6   8    0.70   17.00
  -1  -6   8    8.10    4.60
  -1  -6   8   15.30    8.80
   0   6  -8  221.48   34.00
   0  -6   8  212.78   24.00
   0  -6   8  182.08   19.50
  -1   6  -8   56.29   20.50
  -1   6  -8   57.29    9.30
   1  -6   8   29.00   10.60
   1  -6   8   62.59   10.10
  -2   6  -8    9.70   15.50
  -2   6  -8   28.50    8.10
   2  -6   8   22.90    9.90
   2  -6   8   26.50    8.80
  -3   6  -8   95.39   15.60
  -3   6  -8  126.69   24.60
   3  -6   8  110.19   16.60
   3  -6   8  124.49   16.80
  -4   6  -8   30.30   18.90
   4  -6   8   64.69   13.40
   4  -6   8   51.59   16.10
  -5   6  -8  237.48   41.90
   5  -6   8  285.97   30.70
   5  -6   8  259.07   31.10
  -6   6  -8   80.89   25.70
   6  -6   8   58.99   16.50
   6  -6   8   57.89   16.10
  -7   6  -8   79.19   26.70
   7  -6   8   21.10   15.50
   7  -6   8   62.89   19.50
  -6  -5   8   23.40   11.40
  -5  -5   8   44.70   10.00
  -5  -5   8   44.70   12.10
  -5  -5   8   50.09   12.10
  -5  -5   8   25.60   21.90
  -5  -5   8   55.29   11.80
  -4  -5   8    2.80    6.10
  -4  -5   8  -11.40   18.50
  -4  -5   8   -2.10    7.70
  -4  -5   8   10.10    9.40
  -4  -5   8   -8.10    5.40
  -3  -5   8  232.98   23.10
  -3  -5   8  169.58   19.40
  -3  -5   8  184.78   23.70
  -3  -5   8  240.58   19.40
  -2  -5   8  373.46   43.20
  -2  -5   8  284.67   27.60
  -2  -5   8  343.67   31.40
  -2  -5   8  324.77   27.20
   1   5  -8  248.78   26.40
  -1  -5   8  260.87   26.20
  -1  -5   8  237.58   21.70
  -1  -5   8  225.48   22.20
  -1  -5   8  346.27   39.50
   0   5  -8  223.48   25.40
   0   5  -8  306.57   36.90
   0  -5   8  228.38   25.20
   0  -5   8  229.88   21.80
  -1   5  -8   -0.30   14.50
  -1   5  -8    5.30    5.00
   1  -5   8    3.90    7.70
   1  -5   8    2.00    5.70
  -2   5  -8  286.27   37.30
  -2   5  -8  281.77   26.40
   2  -5   8  232.18   28.00
   2  -5   8  292.77   28.00
  -3   5  -8   30.30    9.30
  -3   5  -8   62.89   18.50
   3  -5   8   52.39   11.30
  -4   5  -8   -8.10   13.60
   4  -5   8   19.30   10.20
   4  -5   8    0.80    7.70
  -5   5  -8  102.59   23.70
   5  -5   8   67.79   15.60
   5  -5   8   79.79   16.60
  -6   5  -8  157.78   32.20
   6  -5   8  180.78   25.00
   6  -5   8  110.09   21.40
  -7   5  -8  -12.10   19.30
   7  -5   8   -6.60   12.10
   7  -5   8   -0.70   12.00
  -6  -4   8   50.79   26.20
  -5  -4   8   78.09   13.30
  -5  -4   8  101.49   14.10
  -5  -4   8  100.59   29.00
  -4  -4   8    4.20    6.90
  -4  -4   8    9.40    8.40
  -4  -4   8    8.60    7.90
  -4  -4   8    5.20    5.80
  -4  -4   8   14.60   19.00
  -3  -4   8  248.18   21.30
  -3  -4   8  278.47   36.70
  -3  -4   8  271.87   25.40
  -3  -4   8  209.48   21.20
   2   4  -8  222.88   25.90
  -2  -4   8  286.67   37.80
  -2  -4   8  258.57   25.30
   1   4  -8   61.19   11.50
  -1  -4   8   48.70   18.40
  -1  -4   8   59.59   10.90
   0   4  -8  248.38   25.10
   0   4  -8  243.58   34.20
   0   4  -8  253.07   21.40
   0  -4   8  169.98   28.60
   0  -4   8  265.17   24.90
   0  -4   8  225.48   21.30
  -1   4  -8  286.67   24.90
  -1   4  -8  356.56   37.40
  -1   4  -8  246.28   27.40
   1  -4   8  260.87   27.30
   1  -4   8  211.98   32.20
   1  -4   8  279.17   25.10
  -2   4  -8   12.10   13.60
  -2   4  -8   23.90    7.20
   2  -4   8   17.30    7.00
   2  -4   8   11.40    8.00
   2  -4   8   18.60   13.00
  -3   4  -8  205.88   30.30
  -3   4  -8  331.47   37.20
   3  -4   8  309.07   28.70
   3  -4   8  273.47   29.20
   3  -4   8  326.17   37.60
  -4   4  -8   45.70   17.50
   4  -4   8   48.70   12.00
   4  -4   8   37.30   16.50
   4  -4   8   45.10   11.90
  -5   4  -8   57.19   20.40
   5  -4   8   40.10   13.20
   5  -4   8   49.00   12.70
  -6   4  -8   84.09   22.60
   6  -4   8  125.79   19.60
   6  -4   8   63.49   15.90
   7  -4   8   47.20   16.30
   7  -4   8   49.40   17.20
  -8   4  -8  -15.00   21.90
   8  -4   8    0.40   13.30
   8  -4   8   -5.10   14.00
   6   3  -8    1.40    9.40
  -6  -3   8   16.60   22.10
  -5  -3   8  208.98   22.90
  -5  -3   8  253.57   38.50
  -4  -3   8  119.79   13.40
  -4  -3   8   88.29   11.80
  -4  -3   8  105.99   16.80
  -3  -3   8  284.67   27.40
  -3  -3   8  351.66   27.70
  -3  -3   8  324.37   29.70
  -3  -3   8  317.67   30.50
  -3  -3   8  385.96   43.00
   2   3  -8  178.38   21.00
  -2  -3   8  232.18   31.60
  -2  -3   8  191.98   20.20
   1   3  -8   16.50    7.60
  -1  -3   8   11.50    7.40
  -1  -3   8   20.10   13.50
  -1  -3   8   -1.00   13.00
   0   3  -8   -3.60    5.80
   0   3  -8    6.20    3.40
   0  -3   8    7.50    3.40
   0  -3   8   13.00   13.80
   0  -3   8   -3.60    9.80
   0  -3   8    4.10    6.50
  -1   3  -8  114.19   16.10
  -1   3  -8  156.78   24.80
  -1   3  -8  133.99   19.80
   1  -3   8  170.28   15.60
   1  -3   8  153.88   23.60
   1  -3   8  173.08   18.30
  -2   3  -8   92.99   15.10
  -2   3  -8  117.79   13.90
  -2   3  -8  100.89   20.80
   2  -3   8  119.99   20.70
   2  -3   8  140.59   16.80
   2  -3   8  133.99   15.10
  -3   3  -8  312.17   30.40
  -3   3  -8  328.87   37.10
   3  -3   8  278.87   35.40
   3  -3   8  319.47   31.30
   3  -3   8  347.07   30.80
  -4   3  -8  160.98   25.30
  -4   3  -8  146.19   18.90
   4  -3   8  151.08   20.30
   4  -3   8  147.89   19.80
   4  -3   8  165.78   25.50
  -5   3  -8   17.20   14.50
   5  -3   8    5.50   14.10
   5  -3   8   -6.20    8.90
   5  -3   8   -4.40    8.90
  -6   3  -8  325.37   38.10
   6  -3   8  288.77   37.50
   6  -3   8  239.58   32.70
  -7   3  -8   24.60   19.40
   7  -3   8   40.90   15.30
   7  -3   8   31.10   14.70
  -8   3  -8   54.69   26.10
   8  -3   8    0.30   13.30
   8  -3   8   32.60   14.70
   7   2  -8   15.70   13.20
  -7  -2   8   50.99   29.10
   6   2  -8    9.40   10.00
  -6  -2   8   19.00   21.00
  -6  -2   8   20.70   11.90
   5   2  -8   97.49   13.40
  -5  -2   8   88.89   13.40
  -5  -2   8   91.49   25.10
  -4  -2   8   60.49    8.30
  -4  -2   8   87.29   23.10
  -4  -2   8   27.60   11.80
  -4  -2   8   62.59    7.90
  -3  -2   8   19.50   16.20
  -3  -2   8   15.20    6.10
  -3  -2   8    4.40    6.30
  -3  -2   8    4.00    3.60
  -3  -2   8    1.20    3.20
   2   2  -8  373.36   32.80
  -2  -2   8  351.96   32.50
  -2  -2   8  356.76   40.70
   1   2  -8  476.65   39.30
  -1  -2   8  439.16   45.40
  -1  -2   8  374.86   45.20
  -1  -2   8  442.66   39.00
   0   2  -8  334.67   29.50
   0  -2   8  281.57   34.70
   0  -2   8  322.57   35.80
   0  -2   8  306.07   34.90
  -1   2  -8  706.43   56.19
  -1   2  -8  763.92   66.29
  -1   2  -8  639.24   57.79
   1  -2   8  641.04   57.89
   1  -2   8  683.23   56.29
   1  -2   8  609.94   61.19
  -2   2  -8   58.39   12.00
  -2   2  -8   97.29   20.30
  -2   2  -8   83.09   10.80
   2  -2   8   78.69   11.00
   2  -2   8   60.19   11.60
   2  -2   8   83.89   16.20
  -3   2  -8  289.77   27.50
  -3   2  -8  280.67   28.20
   3  -2   8  280.87   27.50
   3  -2   8  285.07   28.30
   3  -2   8  272.37   31.50
  -4   2  -8  140.89   18.70
  -4   2  -8  152.58   24.00
   4  -2   8  147.09   22.40
   4  -2   8  156.18   19.90
   4  -2   8  172.68   20.50
  -5   2  -8   18.90   14.20
   5  -2   8   30.70   21.30
   5  -2   8   30.30   11.30
   5  -2   8   25.20   10.90
  -6   2  -8  203.18   28.60
   6  -2   8  155.58   27.50
   6  -2   8  201.08   24.20
   6  -2   8  161.28   24.40
  -7   2  -8   77.09   20.40
   7  -2   8   50.29   15.00
   7  -2   8   55.69   16.00
  -8   2  -8   -3.40   19.90
   8  -2   8    3.70   11.80
   8  -2   8  -10.10   12.50
   7   1  -8   -5.80   11.70
   6   1  -8   17.10   10.10
  -6  -1   8   40.00   23.40
  -6  -1   8   11.90   10.30
   5   1  -8    4.10    7.90
  -5  -1   8  -13.40   16.50
  -5  -1   8   16.40    7.60
   4   1  -8  175.78   17.70
  -4  -1   8  151.58   16.80
  -4  -1   8  161.38   30.00
  -3  -1   8   32.00    6.20
  -3  -1   8   17.70   14.70
   2   1  -8  106.19   12.60
  -2  -1   8  110.49   12.10
  -2  -1   8  117.19   21.70
  -2  -1   8   70.69   18.70
   1   1  -8  963.50   80.69
  -1  -1   8 1002.40   80.79
  -1  -1   8  940.51   85.29
  -1  -1   8  945.21   86.19
   0   1  -8   24.30    7.10
   0  -1   8   37.20    8.00
   0  -1   8   24.80   12.30
  -1   1  -8  361.26   38.30
  -1   1  -8  388.76   31.10
  -1   1  -8  356.86   33.00
   1  -1   8  363.76   31.10
   1  -1   8  329.47   36.30
   1  -1   8  324.77   36.20
  -2   1  -8 1123.69  102.69
  -2   1  -8 1235.78  101.89
  -2   1  -8 1326.67  105.99
   2  -1   8 1218.78  104.69
   2  -1   8 1223.48  102.89
   2  -1   8 1255.67  101.99
  -3   1  -8   71.49   12.80
  -3   1  -8   68.79   11.20
  -3   1  -8   91.79   16.60
   3  -1   8   75.79   14.50
   3  -1   8  107.09   17.50
   3  -1   8   88.29   13.40
  -4   1  -8   96.29   18.00
  -4   1  -8   68.99   13.30
   4  -1   8  106.99   17.20
   4  -1   8  110.89   16.20
   4  -1   8  100.49   15.50
   5  -1   8  110.59   17.00
   5  -1   8   82.99   14.90
   5  -1   8   79.99   17.20
  -6   1  -8   23.70   13.80
   6  -1   8    0.70    8.80
   6  -1   8   21.50   23.20
   6  -1   8    3.90   10.40
  -7   1  -8   82.69   20.90
   7  -1   8   95.39   22.40
   7  -1   8   83.09   17.60
   7  -1   8   93.29   18.70
  -8   1  -8  105.09   25.20
   8  -1   8   67.89   17.20
   7   0  -8   -9.00   11.00
  -7   0   8    7.50   23.70
   6   0  -8  120.59   16.90
  -6   0   8  123.69   29.10
  -6   0   8   76.49   15.00
   5   0  -8   64.49   13.20
  -5   0   8   56.39   21.60
  -5   0   8   44.50   10.00
   4   0  -8  213.88   21.00
  -4   0   8  191.88   20.20
  -4   0   8  249.48   34.10
   3   0  -8  121.29   13.20
  -3   0   8  130.39   13.00
  -3   0   8  163.68   25.90
  -3   0   8  137.59   13.00
   2   0  -8  400.36   35.20
   2   0  -8  322.07   39.50
  -2   0   8  367.96   32.00
  -2   0   8  367.76   39.50
   1   0  -8  708.33   59.69
  -1   0   8  695.03   65.49
  -1   0   8  716.03   59.69
  -1   0   8  713.63   64.79
   0   0  -8  512.65   45.10
   0   0   8  513.45   45.20
   0   0   8  536.85   48.80
   0   0   8  532.95   49.50
  -1   0  -8  140.29   13.80
  -1   0  -8  130.09   15.90
   1   0   8  106.79   18.30
   1   0   8  156.88   16.40
   1   0   8  155.68   20.30
   1   0   8  148.69   13.90
  -2   0  -8  547.65   46.40
  -2   0  -8  560.94   50.19
  -2   0  -8  517.65   47.20
   2   0   8  527.35   48.70
   2   0   8  550.84   47.50
   2   0   8  530.95   46.30
  -3   0  -8  118.79   18.00
  -3   0  -8  135.89   19.00
  -3   0  -8  130.29   16.40
   3   0   8  106.89   18.30
   3   0   8  123.19   17.40
   3   0   8  179.28   18.50
  -4   0  -8   88.59   14.90
  -4   0  -8   82.29   14.90
  -4   0  -8   76.79   13.60
   4   0   8   74.49   14.40
   4   0   8  103.89   14.80
   4   0   8  121.09   15.60
  -5   0  -8  280.17   30.90
   5   0   8  255.97   28.60
   5   0   8  253.97   28.50
   5   0   8  269.07   30.70
   6   0   8   19.50   13.10
   6   0   8    7.90   15.40
   6   0   8   -3.90    9.10
  -7   0  -8  108.99   21.40
   7   0   8  120.29   26.10
   7   0   8  107.49   20.80
  -8   0  -8   73.39   21.80
   8   0   8   57.49   18.30
   8   0   8   65.99   17.20
   7  -1  -8    5.90   11.70
  -7   1   8   17.20   24.50
   6  -1  -8    0.60    8.90
  -6   1   8   19.80   22.30
  -6   1   8   18.50   11.20
   5  -1  -8   27.10    9.90
  -5   1   8   30.00    8.50
  -5   1   8   20.20   19.20
   4  -1  -8   53.29    9.40
  -4   1   8   22.20   16.30
  -4   1   8   52.69    8.80
   3  -1  -8  693.73   59.59
   3  -1  -8  740.03   70.39
  -3   1   8  732.73   68.09
  -3   1   8  718.33   59.39
  -2   1   8   43.90   14.70
   1  -1  -8  680.03   59.19
   1  -1  -8  635.14   54.19
  -1   1   8  644.24   54.29
  -1   1   8  616.84   60.59
   0  -1  -8  364.16   30.40
   0  -1  -8  344.47   30.40
   0  -1  -8  357.66   32.50
   0   1   8  406.96   36.20
   0   1   8  363.86   37.10
   0   1   8  392.86   32.70
  -1  -1  -8   15.90    4.70
  -1  -1  -8   22.40    6.70
   1   1   8    9.60    9.40
   1   1   8   20.70    6.40
   1   1   8   11.50    4.40
   1   1   8   22.50   10.00
  -2  -1  -8  112.69   13.70
  -2  -1  -8   89.59   12.00
   2   1   8  132.59   14.90
   2   1   8   77.39   11.40
  -3  -1  -8  428.36   38.00
  -3  -1  -8  432.96   38.60
  -3  -1  -8  390.86   36.70
   3   1   8  392.06   39.10
   3   1   8  412.06   37.50
   3   1   8  386.66   37.20
  -4  -1  -8   19.50    8.90
  -4  -1  -8   10.60    9.30
  -4  -1  -8   15.40    8.30
   4   1   8   10.40    8.70
   4   1   8   21.40    8.10
  -5  -1  -8  237.78   27.70
   5   1   8  256.97   27.90
   5   1   8  258.37   29.50
   5   1   8  230.68   26.90
  -6  -1  -8   84.39   16.30
   6   1   8   75.99   15.70
   6   1   8   87.79   15.70
   6   1   8   27.60   22.40
  -7  -1  -8   76.39   20.90
   7   1   8   39.70   14.50
   7   1   8   83.99   20.80
   7   1   8   59.89   17.70
  -8  -1  -8  102.09   21.90
   8   1   8   43.80   17.30
   8   1   8   73.99   17.70
   7  -2  -8    0.10   11.20
  -7   2   8   53.79   27.00
   6  -2  -8   84.29   14.90
  -6   2   8   51.69   24.60
   5  -2  -8   82.19   13.30
  -5   2   8   62.59   12.20
   4  -2  -8    0.50    6.30
  -4   2   8   16.50   16.70
  -4   2   8    6.60    6.00
   3  -2  -8  477.35   41.20
   3  -2  -8  477.75   49.10
  -3   2   8  486.25   49.99
   2  -2  -8  165.58   14.40
   2  -2  -8  139.29   13.80
   2  -2  -8  121.79   21.00
  -2   2   8  135.79   13.60
  -2   2   8  154.58   14.60
  -2   2   8  157.38   23.20
   1  -2  -8   91.09    8.60
   1  -2  -8   72.49   15.40
   1  -2  -8   80.59    8.50
   1  -2  -8   83.29   10.50
  -1   2   8   66.89   15.50
  -1   2   8   98.59   11.10
   0  -2  -8  731.83   64.69
   0  -2  -8  746.83   62.19
   0  -2  -8  731.43   60.99
   0  -2  -8  738.03   60.89
   0   2   8  743.33   62.19
   0   2   8  743.93   64.79
  -1  -2  -8  167.58   16.70
  -1  -2  -8  151.68   17.60
   1   2   8  169.28   18.10
   1   2   8  175.38   16.70
   1   2   8  190.28   19.80
  -2  -2  -8  186.68   19.50
  -2  -2  -8  207.48   20.40
   2   2   8  206.68   20.90
   2   2   8  192.38   20.90
   2   2   8  197.28   19.60
  -3  -2  -8  781.72   67.99
  -3  -2  -8  852.61   67.79
  -3  -2  -8  836.02   68.29
   3   2   8  729.83   66.59
   3   2   8  791.72   68.09
  -4  -2  -8   -9.00    6.50
  -4  -2  -8   11.50    7.80
  -4  -2  -8   -2.30    6.10
   4   2   8   -5.20    6.60
   4   2   8   -2.30    6.80
   4   2   8   10.30    7.50
  -5  -2  -8   32.00   10.70
   5   2   8   50.59   12.20
   5   2   8   49.70   12.40
   5   2   8   46.40   10.60
  -6  -2  -8  225.58   24.90
   6   2   8  136.29   33.40
   6   2   8  180.78   23.90
   6   2   8  212.28   24.80
  -7  -2  -8   11.10   12.60
   7   2   8    6.70   12.80
   7   2   8   11.30   11.90
   7   2   8   -6.60   11.50
  -8  -2  -8   38.90   20.10
   8   2   8   40.00   17.40
   8   2   8   36.80   16.10
   7  -3  -8   69.59   21.40
  -7   3   8   72.29   29.50
   6  -3  -8   97.59   16.60
  -6   3   8   98.79   28.10
   5  -3  -8  243.68   24.10
  -5   3   8  170.28   23.70
   4  -3  -8   13.50    7.20
  -4   3   8    9.90   16.10
  -4   3   8    3.60    5.80
   3  -3  -8  111.19   12.50
   3  -3  -8   98.99   20.70
  -3   3   8   91.89   11.90
  -3   3   8  102.39   22.20
   2  -3  -8  211.98   18.80
   2  -3  -8  196.58   26.50
  -2   3   8  205.08   27.80
  -2   3   8  217.08   18.90
  -2   3   8  184.08   18.50
   1  -3  -8  519.25   45.10
   1  -3  -8  569.74   44.50
   1  -3  -8  518.55   49.00
  -1   3   8  529.75   45.20
  -1   3   8  487.85   49.40
   0  -3  -8 1414.06  115.09
   0  -3  -8 1372.06  116.99
   0  -3  -8 1408.86  114.39
   0  -3  -8 1394.96  114.39
   0   3   8 1411.66  115.19
   0   3   8 1366.96  117.19
  -1  -3  -8 1505.05  121.09
  -1  -3  -8 1449.15  120.79
   1   3   8 1356.36  121.39
   1   3   8 1546.15  121.39
   1   3   8 1445.16  120.89
   1   3   8 1469.95  120.09
  -2  -3  -8   -0.40    4.80
  -2  -3  -8    8.70    5.90
   2   3   8    9.00    5.30
   2   3   8   -1.70    5.00
   2   3   8   16.40    6.00
  -3  -3  -8 1492.45  120.59
  -3  -3  -8 1401.76  120.29
   3   3   8 1461.65  120.59
   3   3   8 1407.66  117.69
   3   3   8 1476.25  120.39
  -4  -3  -8  269.87   29.10
  -4  -3  -8  270.87   29.40
   4   3   8  337.77   29.90
   4   3   8  303.17   29.80
  -5  -3  -8   24.30    7.60
   5   3   8   13.00   10.10
   5   3   8   24.10   10.10
   5   3   8   16.90    6.70
  -6  -3  -8  263.67   27.70
   6   3   8  319.47   30.50
   6   3   8  246.88   27.70
   6   3   8  309.97   47.20
  -7  -3  -8   -6.80   10.40
   7   3   8   -1.10   10.90
   7   3   8   -1.20   11.40
   7   3   8    2.60   12.40
  -8  -3  -8   -5.30   13.00
   8   3   8   -5.10   13.50
   8   3   8   -3.20   13.20
   7  -4  -8   15.40   12.70
  -7   4   8   35.20   27.90
   6  -4  -8   23.10   11.80
  -6   4   8   86.09   26.00
   5  -4  -8  140.39   18.60
  -5   4   8  115.99   16.90
   4  -4  -8  330.67   34.60
  -4   4   8  365.36   33.50
  -4   4   8  423.16   44.90
   3  -4  -8    7.60    5.70
   3  -4  -8   -0.90   10.50
  -3   4   8   -3.90   12.50
  -3   4   8    2.60    5.10
   2  -4  -8  964.50   78.29
   2  -4  -8  933.21   78.79
   2  -4  -8  885.21   83.39
  -2   4   8 1022.20   84.99
  -2   4   8  946.01   78.69
  -2   4   8  945.91   78.29
   1  -4  -8  331.97   32.60
   1  -4  -8  314.77   28.20
   1  -4  -8  328.57   27.80
  -1   4   8  318.77   28.30
  -1   4   8  330.77   33.50
  -1   4   8  285.47   27.40
   0  -4  -8    2.40    5.30
   0  -4  -8    2.60    5.10
   0  -4  -8    3.00    3.80
   0  -4  -8   -6.80    7.10
   0   4   8   15.70    8.90
   0   4   8    3.80    5.80
  -1  -4  -8   37.80    8.30
  -1  -4  -8   24.00    6.30
  -1  -4  -8   37.40    8.80
   1   4   8   33.50    8.40
   1   4   8   25.50    6.70
   1   4   8   28.00    8.10
  -2  -4  -8  357.36   33.90
  -2  -4  -8  372.86   33.70
   2   4   8  382.16   33.80
   2   4   8  365.36   31.80
   2   4   8  418.56   36.20
   2   4   8  365.36   31.90
  -4  -4  -8  269.37   29.50
  -4  -4  -8  257.97   29.40
   4   4   8  329.27   30.00
   4   4   8  323.17   30.10
   5   4   8  180.88   25.10
   5   4   8  244.38   25.30
   6   4   8   31.00   12.40
   6   4   8   14.80   11.20
  -7  -4  -8   41.90   10.90
   7   4   8   85.59   18.60
   7   4   8   78.99   17.60
   8   4   8    8.20   13.90
   8   4   8    5.00   15.00
   7  -5  -8   82.49   17.00
  -7   5   8   31.40   26.80
   6  -5  -8   -5.00    9.50
  -6   5   8    7.90   22.00
   5  -5  -8   -3.70    8.00
  -5   5   8    6.90    9.00
  -5   5   8   -9.00   17.80
   4  -5  -8   51.99   10.10
  -4   5   8   56.79   19.20
  -4   5   8   37.90    9.50
   3  -5  -8  165.68   17.00
   3  -5  -8  180.48   19.20
   3  -5  -8  172.28   27.20
  -3   5   8  217.98   29.60
  -3   5   8  211.88   19.50
   2  -5  -8  338.47   32.90
   2  -5  -8  352.06   29.90
   2  -5  -8  331.97   35.50
  -2   5   8  314.67   29.50
  -2   5   8  317.27   29.10
  -2   5   8  335.07   36.50
   1  -5  -8  391.36   38.60
   1  -5  -8  378.06   34.70
   1  -5  -8  437.56   34.90
  -1   5   8  391.16   34.60
  -1   5   8  372.46   34.90
  -1   5   8  422.06   39.70
   0  -5  -8  242.28   23.10
   0  -5  -8  219.78   25.30
   0  -5  -8  242.18   22.80
   0  -5  -8  268.67   23.00
   0   5   8  247.78   26.20
   0   5   8  232.08   23.30
  -1  -5  -8  921.01   70.89
  -1  -5  -8  831.12   70.69
  -1  -5  -8  794.62   70.59
  -1  -5  -8  858.71   70.69
   1   5   8  818.42   70.49
   1   5   8  808.92   70.89
  -2  -5  -8  298.97   29.40
  -2  -5  -8  331.87   29.40
   2   5   8  303.07   29.30
   2   5   8  314.37   29.90
  -3  -5  -8  140.39   18.10
   3   5   8  156.58   19.20
   3   5   8  149.29   18.20
  -4  -5  -8  286.57   30.00
  -4  -5  -8  296.67   30.50
   4   5   8  312.77   30.60
   4   5   8  297.17   30.40
   5   5   8   11.70   10.20
   5   5   8   14.60   10.00
   6   5   8   14.60   10.60
   6   5   8   22.20   12.00
   7   5   8   34.70   14.10
   7   5   8   82.29   30.40
   8   5   8   22.70   14.20
   7  -6  -8   88.59   18.60
  -7   6   8   72.59   32.10
   6  -6  -8  113.69   19.30
  -6   6   8  111.79   28.30
   5  -6  -8  228.58   27.00
  -5   6   8  252.67   38.40
   4  -6  -8   68.79   12.00
  -4   6   8   41.60   10.30
  -4   6   8  106.29   23.70
   3  -6  -8   33.40    8.70
   3  -6  -8   31.60    7.10
   3  -6  -8   50.69    7.10
  -3   6   8   36.20    7.90
  -3   6   8   50.19   16.70
   2  -6  -8  178.38   18.00
   2  -6  -8  165.88   17.20
   2  -6  -8  211.08   28.70
  -2   6   8  153.78   17.20
  -2   6   8  149.39   17.30
  -2   6   8  219.48   26.90
   1  -6  -8  472.85   41.50
   1  -6  -8  478.65   41.70
   1  -6  -8  493.75   45.30
  -1   6   8  441.46   41.40
  -1   6   8  496.35   41.80
  -1   6   8  494.15   45.60
   0  -6  -8  111.19   15.60
   0  -6  -8  163.68   20.10
   0  -6  -8  139.09   16.30
   0  -6  -8  146.09   16.90
   0   6   8  169.18   17.70
   0   6   8  185.68   20.80
  -1  -6  -8  569.64   50.59
  -1  -6  -8  575.04   50.59
  -1  -6  -8  617.04   50.89
  -1  -6  -8  586.94   50.69
   1   6   8  572.34   50.29
  -2  -6  -8  387.06   35.50
  -2  -6  -8  378.36   35.40
   2   6   8  399.06   35.70
   2   6   8  375.66   35.40
  -3  -6  -8   26.40    9.00
  -3  -6  -8   23.80    8.30
   3   6   8   26.70    8.90
   3   6   8   41.00    9.60
  -4  -6  -8  405.86   40.20
   4   6   8  388.56   37.60
   4   6   8  389.16   38.20
   5   6   8  123.79   20.20
   5   6   8  167.18   20.10
   6   6   8   21.00   12.50
   6   6   8   12.90   11.80
   7   6   8  103.29   19.00
   7   6   8   89.19   19.60
   8   6   8   -5.10   13.40
   8   6   8   -6.20   13.40
   7  -7  -8   24.50   12.70
   6  -7  -8  174.98   26.70
  -6   7   8  188.68   37.10
   5  -7  -8    1.10    8.70
  -5   7   8    1.00   17.60
   4  -7  -8  279.97   30.40
   4  -7  -8  281.77   26.80
   4  -7  -8  319.67   26.70
  -4   7   8  278.67   30.00
  -4   7   8  411.26   45.60
   3  -7  -8  352.66   29.50
   3  -7  -8  335.37   29.60
   3  -7  -8  303.67   31.30
  -3   7   8  263.77   37.70
  -3   7   8  341.07   39.70
   2  -7  -8  138.19   15.90
   2  -7  -8  159.68   25.80
   2  -7  -8  141.79   16.80
  -2   7   8  157.28   16.30
  -2   7   8  114.59   15.90
  -2   7   8  172.98   24.80
   1  -7  -8  317.77   31.00
   1  -7  -8  340.07   31.40
   1  -7  -8  330.87   34.80
  -1   7   8  374.46   31.60
  -1   7   8  324.47   31.20
  -1   7   8  374.56   37.60
   0  -7  -8   13.00    7.70
   0  -7  -8    9.90    5.90
   0  -7  -8    3.60    6.00
   0  -7  -8    4.40    5.60
   0   7   8   21.50    9.70
   0   7   8   13.80    8.10
  -1  -7  -8   98.89   13.70
  -1  -7  -8   94.59   13.10
  -1  -7  -8   82.49   12.80
  -1  -7  -8   78.39   15.10
   1   7   8   82.49   12.90
   1   7   8   90.49   13.40
  -2  -7  -8   45.10   10.20
  -2  -7  -8   47.20    7.90
   2   7   8   51.69    7.60
   2   7   8   56.19   11.30
  -3  -7  -8  153.78   20.50
  -3  -7  -8  168.58   20.90
   3   7   8  205.88   21.50
   3   7   8  156.98   20.30
   4   7   8   90.89   16.10
   4   7   8  115.99   16.80
   5   7   8  292.57   31.70
   5   7   8  234.08   28.60
   6   7   8   38.60   13.20
   6   7   8   24.30   13.30
   7   7   8   81.69   19.80
   7   7   8  119.39   20.20
   8   7   8   16.70   14.80
   8   7   8   34.80   16.10
   7  -8  -8   13.30   13.20
  -7   8   8   24.10   25.70
   6  -8  -8  313.97   34.50
  -6   8   8  281.97   46.20
   5  -8  -8  138.99   19.30
  -5   8   8  120.79   28.10
   4  -8  -8  372.06   34.70
   4  -8  -8  401.66   34.80
   4  -8  -8  397.06   38.20
  -4   8   8  417.56   47.40
   3  -8  -8  451.65   40.50
   3  -8  -8  464.25   42.30
   3  -8  -8  487.65   40.60
  -3   8   8  467.05   49.40
  -3   8   8  427.56   41.80
   2  -8  -8  116.29   20.00
   2  -8  -8  103.89   14.30
   2  -8  -8  110.69   13.30
  -2   8   8  115.39   21.20
  -2   8   8   95.39   12.90
  -2   8   8   51.79   13.90
   1  -8  -8  595.24   52.19
   1  -8  -8  557.24   55.29
   1  -8  -8  599.04   51.89
  -1   8   8  654.93   56.19
  -1   8   8  564.24   51.99
  -1   8   8  633.94   57.89
   0  -8  -8  227.18   24.50
   0  -8  -8  243.18   27.10
   0  -8  -8  265.07   25.00
   0  -8  -8  287.47   25.10
   0   8   8  240.48   24.90
   0   8   8  215.28   27.20
  -1  -8  -8  143.89   18.60
  -1  -8  -8  132.69   18.00
  -1  -8  -8  144.39   18.20
   1   8   8  134.69   17.50
   1   8   8  181.88   20.00
  -2  -8  -8  514.95   45.30
  -2  -8  -8  478.15   43.10
  -2  -8  -8  508.15   45.70
  -2  -8  -8  502.95   45.00
   2   8   8  491.45   43.00
   2   8   8  499.15   45.10
   3   8   8  113.49   15.90
   3   8   8   69.59   14.10
   4   8   8   18.70   11.00
   4   8   8   37.70   11.70
   5   8   8  237.38   40.20
   5   8   8  297.57   31.70
   6   8   8  188.48   26.70
   7   8   8   29.50   14.30
   7   8   8   50.29   16.30
   8   8   8   37.50   17.00
   8   8   8   46.40   18.10
   7  -9  -8    8.50   13.40
  -7   9   8   19.60   26.70
   6  -9  -8   74.19   17.30
  -6   9   8  133.49   32.20
   5  -9  -8    9.80    7.10
   5  -9  -8   22.70   17.10
   5  -9  -8   -4.70    6.20
  -5   9   8   -0.80   16.30
   4  -9  -8   -1.60    7.50
   4  -9  -8    5.10    6.50
   4  -9  -8    2.90    6.70
  -4   9   8   -5.00   17.20
   3  -9  -8   12.10    6.90
   3  -9  -8    2.60    6.30
  -3   9   8   14.80   14.20
   2  -9  -8  538.25   49.70
   2  -9  -8  582.84   48.90
   2  -9  -8  564.64   54.49
  -2   9   8  583.04   49.10
  -2   9   8  484.75   49.00
  -2   9   8  582.94   55.29
   1  -9  -8    9.90   10.70
   1  -9  -8    7.50    6.90
   1  -9  -8    9.10    6.80
  -1   9   8    7.10   11.80
  -1   9   8   33.80    8.60
  -1   9   8    8.20    6.00
   0  -9  -8  905.31   80.59
   0  -9  -8  923.41   79.09
   0  -9  -8  980.50   80.09
   0  -9  -8  927.91   79.19
   0   9   8  892.51   78.89
   0   9   8  921.91   80.69
  -1  -9  -8  109.49   16.10
  -1  -9  -8  135.89   17.50
  -1  -9  -8  105.59   16.50
  -1  -9  -8  101.99   16.30
   1   9   8  111.99   16.40
   1   9   8  144.89   17.50
  -2  -9  -8  578.64   50.69
  -2  -9  -8  552.54   48.40
  -2  -9  -8  569.54   51.59
  -2  -9  -8  517.75   49.90
   2   9   8  552.14   49.99
   2   9   8  544.35   48.50
  -3  -9  -8  751.72   63.09
  -3  -9  -8  747.63   67.29
   3   9   8  770.72   66.89
   4   9   8    7.70    9.10
   4   9   8   14.40   10.70
   5   9   8  307.67   37.00
   5   9   8  411.66   38.00
   6   9   8   77.79   16.40
   6   9   8   47.10   15.00
   7   9   8   19.00   14.20
   7   9   8   -0.10   12.80
   6 -10  -8   12.80    7.20
   6 -10  -8   33.10   14.80
  -6  10   8   61.69   26.80
   5 -10  -8  416.36   40.20
   5 -10  -8  362.26   36.50
   5 -10  -8  368.96   35.30
  -5  10   8  429.96   53.99
   4 -10  -8   22.50   10.40
   4 -10  -8   25.30    8.50
   4 -10  -8   27.60    8.80
  -4  10   8   34.00   19.00
   3 -10  -8  360.76   34.20
   3 -10  -8  400.86   38.90
  -3  10   8  334.07   43.20
   2 -10  -8   21.50    9.10
   2 -10  -8   29.70    9.40
   2 -10  -8   25.20    9.00
  -2  10   8   94.49   20.80
   1 -10  -8   54.89   11.50
   1 -10  -8   39.90   10.20
   1 -10  -8   66.29   17.20
  -1  10   8   74.69   18.20
  -1  10   8   68.99   12.70
  -1  10   8   62.19   11.70
   0 -10  -8   45.60   10.70
   0 -10  -8   35.90   12.00
   0 -10  -8   26.80    9.50
   0 -10  -8   35.30    9.80
   0  10   8   37.20   15.20
   0  10   8   29.40    9.90
  -1 -10  -8  199.48   24.20
  -1 -10  -8  204.78   25.10
   1  10   8  199.58   24.70
   1  10   8  209.08   24.40
  -2 -10  -8   41.10   11.80
  -2 -10  -8   43.10   10.70
   2  10   8   59.89   12.50
   2  10   8   39.70   11.60
  -3 -10  -8  170.08   19.80
  -3 -10  -8  183.98   24.50
   3  10   8  203.28   23.90
   4  10   8  130.89   19.70
   5  10   8   39.00   13.60
   5  10   8   30.90   13.10
   6  10   8  157.18   25.20
   6  10   8  166.28   24.10
   7  10   8   10.90   15.00
   6 -11  -8   -3.30   11.90
   5 -11  -8  125.39   23.40
   5 -11  -8  128.09   22.20
   5 -11  -8  166.98   18.90
  -5  11   8  181.38   34.30
   4 -11  -8   88.39   15.40
   4 -11  -8  116.29   16.00
   4 -11  -8  145.19   20.10
  -4  11   8  104.89   27.20
   3 -11  -8  124.89   19.10
   3 -11  -8  116.19   17.40
   3 -11  -8  140.59   18.00
  -3  11   8  168.98   28.40
   2 -11  -8  430.06   36.10
   2 -11  -8  361.16   34.60
   2 -11  -8  295.77   34.80
  -2  11   8  377.06   42.00
   1 -11  -8   15.10   11.40
   1 -11  -8   -1.80    7.20
  -1  11   8    6.90   11.80
  -1  11   8   13.90    8.60
   0 -11  -8  226.78   26.60
   0 -11  -8  282.37   33.80
   0  11   8  230.28   27.00
   0  11   8  289.57   33.00
  -1 -11  -8  233.48   27.60
  -1 -11  -8  202.58   26.40
   1  11   8  233.88   27.60
   1  11   8  250.07   26.30
  -2 -11  -8   40.50   12.60
  -2 -11  -8   23.90   10.50
   2  11   8   26.70   11.80
   2  11   8   21.20   10.50
  -3 -11  -8  103.69   16.70
  -3 -11  -8  158.98   22.00
   3  11   8  161.48   20.80
  -4 -11  -8   25.60    8.80
  -4 -11  -8   14.60    7.80
  -4 -11  -8   36.40   12.50
  -5 -11  -8    8.20   10.30
   5  11   8    2.40   12.00
   6  11   8   65.29   18.00
   6  11   8   73.29   17.60
   7  11   8  120.49   23.50
   7  11   8  103.59   22.10
   6 -12  -8    2.80    9.50
   6 -12  -8    7.30   12.50
  -6  12   8   10.40   22.70
   5 -12  -8   78.89   18.90
   5 -12  -8  133.89   17.30
  -5  12   8  145.79   33.50
   4 -12  -8   21.80   11.50
   4 -12  -8   38.30   10.70
  -4  12   8   24.00   19.80
   3 -12  -8   21.30   10.10
   3 -12  -8   15.10    9.20
  -3  12   8   23.80   18.20
   2 -12  -8  233.38   28.20
   2 -12  -8  213.28   26.40
  -2  12   8  272.37   36.80
   1 -12  -8  242.78   28.50
  -1  12   8  334.27   38.90
   0 -12  -8  121.49   20.20
   0 -12  -8  160.98   25.10
   0  12   8  197.28   22.90
   0  12   8  174.58   25.40
  -1 -12  -8  416.06   40.30
  -1 -12  -8  345.07   40.50
   1  12   8  409.76   41.70
   1  12   8  481.15   40.90
  -2 -12  -8   13.10   10.20
  -2 -12  -8    9.50    9.40
   2  12   8   27.40   11.30
   2  12   8   15.90   12.70
  -3 -12  -8  211.98   27.30
  -3 -12  -8  180.98   23.30
   3  12   8  195.68   24.90
   3  12   8  202.58   28.50
  -4 -12  -8   89.29   19.50
  -4 -12  -8   88.99   15.50
  -4 -12  -8  109.09   20.90
   4  12   8  121.69   19.50
  -5 -12  -8   16.50   13.30
   5  12   8  -10.60   11.50
  -6 -12  -8   25.70   15.20
   6  12   8   52.89   16.60
   6 -13  -8    6.40   11.70
   5 -13  -8   56.79   13.80
   5 -13  -8   68.09   17.30
  -5  13   8   67.79   25.50
   4 -13  -8  250.17   31.90
   4 -13  -8  269.87   28.70
  -4  13   8  255.87   42.00
   3 -13  -8   13.00    9.70
   3 -13  -8    4.40    9.00
  -3  13   8    1.10   15.20
   2 -13  -8  280.87   34.20
   2 -13  -8  298.07   34.10
  -2  13   8  354.96   44.90
   1 -13  -8  184.68   22.30
  -1  13   8  104.69   23.10
   0 -13  -8   59.19   14.70
   0  13   8  106.69   17.70
   0  13   8  147.89   22.70
  -1 -13  -8    2.50   10.90
   1  13   8   24.20   13.20
  -2 -13  -8  358.06   41.00
  -2 -13  -8  433.26   41.30
   2  13   8  384.06   41.80
   2  13   8  445.56   41.50
  -3 -13  -8   20.10   12.30
  -3 -13  -8   16.00   11.70
   3  13   8   12.00   10.80
   3  13   8   17.40   13.70
  -4 -13  -8  305.97   39.60
  -4 -13  -8  330.47   35.10
   4  13   8  347.07   37.00
  -5 -13  -8  136.29   18.50
  -5 -13  -8  121.59   24.10
   5  13   8  145.69   23.40
  -6 -13  -8   74.89   21.30
   6  13   8   48.90   17.90
   5 -14  -8  -18.10   18.90
  -5  14   8  -21.40   17.60
   4 -14  -8  177.28   32.30
   4 -14  -8  173.58   25.70
  -4  14   8  164.88   33.10
   3 -14  -8  262.07   38.40
   3 -14  -8  196.28   27.90
  -3  14   8  207.98   37.00
   2 -14  -8  -12.10    6.60
   2 -14  -8    8.30   10.10
  -2  14   8   -9.40   13.30
   1 -14  -8  386.86   37.80
   1 -14  -8  357.46   38.10
  -1  14   8  386.36   43.80
   0 -14  -8   -4.30    8.60
   0 -14  -8   15.50    8.50
   0  14   8   -0.30   14.00
  -1 -14  -8   11.50    9.60
   1  14   8  -14.20   12.70
   1  14   8   11.50   10.70
  -2 -14  -8   55.99   15.00
  -2 -14  -8   68.69   17.40
   2  14   8   74.09   15.80
   2  14   8   74.99   19.20
  -3 -14  -8   18.60   14.70
  -3 -14  -8    8.50   12.00
   3  14   8   46.80   14.50
   3  14   8   23.70   15.70
  -4 -14  -8   93.59   25.50
  -4 -14  -8   26.70   16.80
  -4 -14  -8   38.40   15.70
   4  14   8   41.00   15.30
  -5 -14  -8   65.79   16.80
  -5 -14  -8   33.30   20.00
   5  14   8   20.10   15.00
   4 -15  -8   61.19   17.70
   4 -15  -8   93.49   17.70
  -4  15   8   85.69   30.30
   3 -15  -8   63.19   14.60
   3 -15  -8   40.80   13.30
  -3  15   8   40.70   20.20
   2 -15  -8    3.00    9.70
   2 -15  -8    9.80    9.60
  -2  15   8   13.40   14.90
   1 -15  -8   36.70   12.30
   1 -15  -8   45.70   13.50
  -1  15   8   59.39   20.00
   0 -15  -8  247.68   31.30
   0 -15  -8  245.38   31.40
   0  15   8  278.27   38.20
  -1 -15  -8   -4.50    8.40
  -1 -15  -8  -11.90    9.40
   1  15   8   13.40   15.40
  -2 -15  -8  186.68   28.00
   2  15   8  170.98   26.20
   2  15   8  262.57   32.90
  -3 -15  -8   20.10   15.70
  -3 -15  -8   30.60   14.30
   3  15   8   21.70   17.30
   3  15   8   31.80   13.80
  -4 -15  -8   11.90   15.40
  -4 -15  -8    3.00   13.10
   4  15   8    8.20   13.40
  -5 -15  -8    9.20   15.50
   5  15   8   10.00   14.90
   4 -16  -8   45.50   16.10
   4 -16  -8   34.60   14.20
  -4  16   8   27.90   21.70
   3 -16  -8  181.88   24.40
  -3  16   8   73.89   26.60
   2 -16  -8   18.40   12.50
   2 -16  -8   19.80   10.50
  -2  16   8   16.60   16.90
   1 -16  -8   65.49   15.60
   1 -16  -8   67.99   15.60
  -1  16   8   51.69   20.30
   0 -16  -8  149.59   22.90
   0 -16  -8  140.99   23.30
   0  16   8  223.48   34.20
  -1 -16  -8   31.80   12.90
  -1 -16  -8   42.70   13.50
   1  16   8   51.19   20.40
  -2 -16  -8   50.79   15.20
  -2 -16  -8   38.90   14.70
   2  16   8   34.10   18.60
  -3 -16  -8  126.39   23.90
   3  16   8  142.19   27.70
  -4 -16  -8   14.80   18.60
  -4 -16  -8    2.60   12.20
   3 -17  -8  177.08   26.50
   3 -17  -8  143.29   25.10
  -3  17   8  170.38   35.60
   2 -17  -8  118.99   22.00
   2 -17  -8  141.09   23.50
  -2  17   8  124.39   31.10
   1 -17  -8   80.89   18.90
  -1  17   8   68.29   24.30
   0 -17  -8  173.18   27.00
   0 -17  -8  215.38   28.60
   0  17   8  199.48   35.00
  -1 -17  -8   46.60   15.20
  -1 -17  -8   27.10   14.50
   1  17   8   38.30   21.20
  -2 -17  -8    5.90   12.60
  -2 -17  -8    9.80   14.00
  -3 -17  -8   77.99   19.30
  -3 -17  -8   50.29   17.60
   3  17   8   33.50   21.90
   1 -18  -8   51.29   17.10
   1 -18  -8   60.59   16.10
  -1  18   8   39.50   25.90
   0 -18  -8  392.36   45.10
   0 -18  -8  434.56   46.50
   0  18   8  510.15   59.59
  -1 -18  -8  164.98   27.70
  -1 -18  -8  178.88   28.80
   1  18   8  258.17   38.90
   0  12  -9  132.39   37.10
   0 -12   9  157.08   26.20
   0 -12   9  192.08   23.10
  -1  12  -9   79.79   32.80
   1 -12   9  157.18   25.30
   1 -12   9   79.49   20.00
  -2  12  -9  120.59   38.00
   2 -12   9  181.58   27.10
   2 -12   9  161.38   23.80
  -2 -11   9   29.70   29.50
  -2 -11   9    3.80   13.90
  -1 -11   9   28.80   10.30
  -1 -11   9   48.00   28.60
  -1 -11   9    1.70   12.80
   0  11  -9   62.19   50.09
   0 -11   9   60.09   16.40
   0 -11   9   54.39   12.80
   1 -11   9    3.60   12.90
   1 -11   9    1.90    9.70
   2 -11   9   54.29   24.50
   2 -11   9   52.09   14.00
  -3  11  -9  116.39   35.30
   3 -11   9  104.79   20.70
   3 -11   9   71.29   17.20
  -4  11  -9   23.50   26.30
   4 -11   9   26.70   14.60
   4 -11   9   23.50   12.80
  -3 -10   9   93.69   33.10
  -3 -10   9   87.49   18.90
  -2 -10   9   37.50   15.00
  -2 -10   9   36.10   48.50
  -1 -10   9   48.70   15.40
  -1 -10   9   47.20   10.70
  -1 -10   9   42.40   28.90
   0  10  -9   52.19   26.50
   0 -10   9   91.79   13.80
   0 -10   9   60.49   16.10
  -1  10  -9   13.00   23.30
   1 -10   9   28.30   12.70
   1 -10   9    6.20    9.10
  -2  10  -9  -28.10   19.50
   2 -10   9   29.80   13.60
   2 -10   9   40.30   11.70
  -3  10  -9  -14.70   21.00
   3 -10   9   31.90   13.90
   3 -10   9   31.60   12.10
  -4  10  -9    9.00   24.10
   4 -10   9   16.40   12.70
   4 -10   9   13.80   11.00
  -5  10  -9   31.40   27.10
   5 -10   9   38.30   15.10
   5 -10   9   46.10   16.70
  -4  -9   9   -0.40   12.60
  -4  -9   9  -20.50   24.20
  -3  -9   9   35.70   14.30
  -2  -9   9   86.49   29.50
  -2  -9   9   83.29   17.10
  -2  -9   9   79.49   11.60
  -1  -9   9   42.00   13.40
  -1  -9   9   10.00    9.20
  -1  -9   9   23.90   24.90
  -1  -9   9   22.70    9.10
   0   9  -9  203.68   38.10
   0  -9   9  249.48   28.70
   0  -9   9  194.78   23.30
   0  -9   9  215.38   23.30
  -1   9  -9   54.99   12.80
  -1   9  -9   45.90   23.60
   1  -9   9   59.69   12.10
   1  -9   9   78.79   15.90
  -2   9  -9   70.49   27.20
   2  -9   9   42.20   13.00
   2  -9   9   63.19   12.90
  -3   9  -9   83.59   28.10
   3  -9   9  126.49   18.30
   3  -9   9   83.99   18.50
  -4   9  -9  -14.30   20.40
   4  -9   9    7.00   10.40
   4  -9   9    7.80   12.80
  -5   9  -9   23.00   24.40
   5  -9   9   21.60   13.80
   5  -9   9   11.00   23.30
  -4  -8   9   11.00   44.10
  -4  -8   9    5.70   11.40
  -3  -8   9   54.19   26.10
  -3  -8   9   41.40   16.30
  -3  -8   9   45.00    7.90
  -2  -8   9   51.89    8.50
  -2  -8   9   40.50    9.90
  -2  -8   9   63.99   26.50
  -1  -8   9    0.50    5.80
  -1  -8   9   -1.60    7.00
  -1  -8   9   13.50   22.60
  -1  -8   9   -6.20    9.70
   0   8  -9  -15.60   18.00
   0  -8   9    8.10    7.70
   0  -8   9    7.00    7.10
   0  -8   9   -6.60    9.80
  -1   8  -9   30.60   11.00
  -1   8  -9   32.10   21.30
   1  -8   9   53.39   13.50
   1  -8   9   40.00    9.80
  -2   8  -9   16.10    9.40
  -2   8  -9   -8.50   19.70
   2  -8   9    9.10    8.60
   2  -8   9    0.20    9.30
  -3   8  -9  127.69   29.60
   3  -8   9  110.39   19.60
   3  -8   9  151.88   20.50
  -4   8  -9   60.09   25.10
   4  -8   9   61.49   15.50
   4  -8   9   71.09   15.60
  -5   8  -9   35.40   24.20
   5  -8   9   55.89   15.90
   5  -8   9   24.00   12.30
  -6   8  -9   19.10   26.10
   6  -8   9   24.10   14.40
   6  -8   9   59.79   20.90
  -5  -7   9  -20.80   23.90
  -5  -7   9    6.70   16.90
  -4  -7   9   44.40    8.40
  -4  -7   9   62.99   28.90
  -4  -7   9   62.29   13.50
  -3  -7   9  -13.10   19.00
  -3  -7   9    5.30    4.80
  -3  -7   9    5.90    9.70
  -2  -7   9   50.69    7.40
  -2  -7   9   38.60   23.00
  -2  -7   9   61.09   13.60
  -2  -7   9   38.90    8.00
  -1  -7   9   14.60   10.00
  -1  -7   9    8.70   19.20
  -1  -7   9    5.60    5.30
  -1  -7   9   -5.30    7.10
   0   7  -9    7.80   18.80
   0  -7   9    8.60    9.40
   0  -7   9    1.70    5.60
  -1   7  -9  111.49   14.90
   1  -7   9  106.89   14.80
   1  -7   9  113.09   22.80
  -2   7  -9   21.60    8.50
   2  -7   9   32.20    9.80
   2  -7   9   26.10   10.40
  -3   7  -9   70.79   24.70
   3  -7   9   84.49   16.90
   3  -7   9  110.59   16.80
  -4   7  -9   96.39   26.10
   4  -7   9  118.09   19.20
   4  -7   9   77.69   15.90
  -5   7  -9  -13.00   18.70
   5  -7   9   14.60   10.80
   5  -7   9    8.20   12.40
  -6   7  -9   24.00   23.70
   6  -7   9   13.40   14.40
   6  -7   9   15.60   12.40
  -5  -6   9   24.50   11.30
  -4  -6   9   22.80    5.80
  -4  -6   9   -5.50   11.70
  -4  -6   9   23.20   10.50
  -4  -6   9   49.99   25.50
  -3  -6   9   20.40   20.50
  -3  -6   9    0.20    8.90
  -2  -6   9  104.69   27.40
  -2  -6   9   98.19   16.10
  -1  -6   9  147.69   16.90
  -1  -6   9  195.18   22.10
  -1  -6   9  174.28   16.40
  -1  -6   9  170.28   16.30
   0   6  -9   76.89   23.60
   0  -6   9   81.29   11.10
   0  -6   9  123.29   16.70
  -1   6  -9  167.58   31.20
  -1   6  -9  157.48   18.80
   1  -6   9  213.28   23.20
   1  -6   9  174.88   19.10
  -2   6  -9   76.09   12.20
  -2   6  -9   92.69   24.50
   2  -6   9   69.09   14.30
   2  -6   9   76.79   12.60
  -3   6  -9    7.30   17.90
  -3   6  -9    1.70    7.60
   3  -6   9   11.20   11.10
   3  -6   9    5.50    8.20
  -4   6  -9   63.99   23.40
   4  -6   9   71.69   14.70
   4  -6   9   61.99   15.20
  -5   6  -9   -9.60   18.10
   5  -6   9    9.90   11.40
   5  -6   9    9.00    9.70
  -6   6  -9    5.50   20.40
   6  -6   9   14.60   13.20
   6  -6   9   22.40   14.80
  -7   6  -9   75.69   29.00
   7  -6   9   80.49   20.60
   7  -6   9   92.49   22.70
  -6  -5   9    6.20   24.10
  -5  -5   9    4.40    8.20
  -5  -5   9   -5.80   20.70
  -5  -5   9   18.90    7.50
  -4  -5   9   46.40   12.30
  -4  -5   9   35.30   23.50
  -4  -5   9   25.80    5.80
  -4  -5   9   32.70   10.00
  -3  -5   9   15.70   18.50
  -3  -5   9   30.80    8.90
  -3  -5   9   18.60   11.20
   2   5  -9   14.00   11.00
  -2  -5   9   23.20    9.50
  -1  -5   9  336.87   42.70
  -1  -5   9  264.57   29.30
   0  -5   9  123.79   14.80
   0  -5   9  246.98   33.20
   0  -5   9  156.78   19.40
  -1   5  -9  176.58   31.50
  -1   5  -9  192.88   19.10
   1  -5   9  216.48   23.60
   1  -5   9  171.48   19.20
  -2   5  -9  156.48   29.10
  -2   5  -9  139.59   17.10
   2  -5   9  150.78   19.70
   2  -5   9  144.19   17.90
  -3   5  -9    6.50   15.90
  -3   5  -9   -6.60    6.60
   3  -5   9   -4.60    8.30
   3  -5   9    1.00    6.80
  -4   5  -9  248.78   35.90
   4  -5   9  228.18   27.70
   4  -5   9  224.58   28.50
  -5   5  -9   10.00   17.60
   5  -5   9   -3.80   11.00
   5  -5   9    7.00   13.40
  -6   5  -9   47.50   23.60
   6  -5   9   57.39   16.00
   6  -5   9   37.50   14.70
  -7   5  -9   30.70   23.20
   7  -5   9   30.40   15.60
   7  -5   9   22.50   15.40
  -6  -4   9   32.00   27.60
  -5  -4   9   21.60    7.50
  -5  -4   9   14.50   21.80
  -4  -4   9   91.49   26.30
  -4  -4   9  100.29   13.90
  -4  -4   9  108.99   15.10
  -4  -4   9  116.89   11.90
  -3  -4   9  143.99   19.50
  -3  -4   9  206.38   20.00
  -3  -4   9  134.09   29.40
   2   4  -9   25.90   19.80
  -2  -4   9   30.00    9.40
  -2  -4   9   35.70   19.50
   1   4  -9  524.15   48.40
  -1  -4   9  561.84   56.59
  -1  -4   9  529.35   48.00
   0   4  -9   19.40    8.80
   0  -4   9   61.39   19.50
   0  -4   9   10.00    4.40
   0  -4   9   24.70    9.20
  -1   4  -9    8.90    4.80
  -1   4  -9   17.30   16.30
   1  -4   9    8.70    8.50
   1  -4   9    2.90    5.00
  -2   4  -9  106.09   13.70
  -2   4  -9   80.29   21.90
   2  -4   9  118.39   15.00
   2  -4   9   88.19   22.60
   2  -4   9  123.29   17.10
  -3   4  -9  114.29   17.20
  -3   4  -9  118.39   24.50
   3  -4   9  150.28   19.00
   3  -4   9  108.49   16.10
  -4   4  -9   86.39   22.40
   4  -4   9   68.99   13.90
   4  -4   9   53.89   13.20
  -5   4  -9  356.46   41.50
   5  -4   9  289.17   33.50
   5  -4   9  308.97   33.30
  -6   4  -9  -22.00   16.50
   6  -4   9  -14.90    9.10
   6  -4   9  -12.00   10.60
  -7   4  -9  118.69   29.60
   7  -4   9  120.69   23.00
   7  -4   9  126.69   22.80
  -6  -3   9   38.70   25.80
  -5  -3   9   50.29   24.30
  -5  -3   9   19.00    7.60
  -5  -3   9   23.00    7.80
  -4  -3   9   64.19    8.10
  -4  -3   9   64.39   23.80
  -4  -3   9   59.59    7.90
  -4  -3   9   40.80    9.10
  -4  -3   9   70.79   10.70
  -3  -3   9  208.08   23.90
  -3  -3   9  240.68   23.50
  -3  -3   9  234.58   35.50
   2   3  -9   89.29   14.00
  -2  -3   9  107.59   13.70
  -2  -3   9   51.59   19.80
   1   3  -9  299.67   29.90
  -1  -3   9  291.27   29.50
  -1  -3   9  355.36   40.10
   0   3  -9  618.64   58.19
   0  -3   9  697.53   58.39
   0  -3   9  696.63   64.89
  -1   3  -9   15.70    8.50
  -1   3  -9   24.50   15.40
  -1   3  -9   22.00    9.00
   1  -3   9   20.80   12.60
   1  -3   9    6.30    7.50
   1  -3   9   10.80    5.30
  -2   3  -9  313.47   27.00
  -2   3  -9  312.67   38.00
   2  -3   9  252.27   28.50
   2  -3   9  285.57   34.10
   2  -3   9  267.87   26.70
  -3   3  -9  178.18   26.80
  -3   3  -9  119.19   18.00
   3  -3   9  147.69   25.10
   3  -3   9  182.98   21.10
   3  -3   9  183.08   19.10
  -4   3  -9   29.80   15.90
   4  -3   9   10.20   14.30
   4  -3   9   13.20   10.60
   4  -3   9   27.10    9.90
  -5   3  -9  251.47   34.80
   5  -3   9  232.58   30.00
   5  -3   9  249.18   34.10
   5  -3   9  324.37   44.60
  -6   3  -9   82.59   21.90
   6  -3   9   56.19   14.90
   6  -3   9   69.89   15.80
  -7   3  -9    1.90   18.80
   7  -3   9   -5.10   13.60
   7  -3   9   10.30   12.80
  -8   3  -9   82.09   27.90
   8  -3   9   44.20   17.30
   8  -3   9   81.29   19.90
   6   2  -9   48.50   11.90
  -6  -2   9   33.90   24.80
  -5  -2   9  100.69   13.50
  -5  -2   9  137.89   29.40
  -4  -2   9    3.30    5.80
  -4  -2   9    8.50    4.90
  -4  -2   9    3.00   16.70
  -4  -2   9   17.50    6.50
  -3  -2   9  216.78   20.90
  -3  -2   9  178.58   30.80
   2   2  -9    9.10    7.30
  -2  -2   9   22.70    7.40
  -2  -2   9   11.20   14.80
   1   2  -9    4.20    7.30
  -1  -2   9   18.80   13.30
  -1  -2   9   18.10    8.90
  -1  -2   9    8.60   14.10
   0   2  -9  313.17   28.90
   0  -2   9  285.87   34.90
   0  -2   9  299.37   35.90
   0  -2   9  288.87   28.80
  -1   2  -9  603.74   49.99
  -1   2  -9  580.44   52.59
  -1   2  -9  714.83   59.29
   1  -2   9  604.54   56.79
   1  -2   9  545.55   49.99
   1  -2   9  594.54   52.39
  -2   2  -9  163.98   19.60
  -2   2  -9  153.18   16.90
  -2   2  -9  171.98   25.90
   2  -2   9  156.98   17.40
   2  -2   9  159.68   23.50
   2  -2   9  158.68   19.40
  -3   2  -9  862.51   77.59
  -3   2  -9  976.10   82.89
   3  -2   9  982.80   78.19
   3  -2   9  873.61   78.59
   3  -2   9  883.51   81.09
  -4   2  -9   10.10   14.10
  -4   2  -9    3.10    7.90
   4  -2   9    2.50    7.90
   4  -2   9    3.40   12.60
   4  -2   9    2.60    8.10
  -5   2  -9  137.79   23.10
   5  -2   9   90.49   20.80
   5  -2   9  124.09   19.00
   5  -2   9  101.99   17.80
  -6   2  -9   54.69   18.10
   6  -2   9   32.60   13.70
   6  -2   9   36.90   17.00
   6  -2   9   27.80   12.00
  -7   2  -9   -1.00   16.80
   7  -2   9    4.30   12.70
   7  -2   9   -0.70   11.20
  -8   2  -9   61.29   25.20
   8  -2   9   27.20   16.20
   8  -2   9   16.00   14.60
   7   1  -9   -1.20   12.10
  -7  -1   9   16.10   24.70
   6   1  -9   -4.30    9.00
  -6  -1   9   30.20   23.80
   5   1  -9   23.10    8.60
  -5  -1   9   45.20   21.70
  -5  -1   9   27.60    8.00
  -4  -1   9  123.29   13.70
  -3  -1   9   35.70   16.60
  -3  -1   9   18.30    6.50
   2   1  -9  627.24   53.69
  -2  -1   9  677.53   62.29
  -2  -1   9  605.34   53.49
   1   1  -9   11.50    6.40
  -1  -1   9   21.40   12.00
  -1  -1   9    5.90    6.20
  -1  -1   9    0.00   12.10
   0   1  -9  968.90   80.49
   0  -1   9  915.41   84.99
   0  -1   9  959.30   81.69
   0  -1   9  972.10   84.79
  -1   1  -9  650.43   50.59
  -1   1  -9  549.15   52.49
   1  -1   9  604.34   50.59
   1  -1   9  606.44   52.79
   1  -1   9  580.04   56.19
  -2   1  -9    8.10    5.50
  -2   1  -9   15.70   12.80
  -2   1  -9   13.60    7.90
   2  -1   9    3.70    7.20
   2  -1   9    5.10    5.50
   2  -1   9   18.40   11.40
  -3   1  -9  379.86   36.60
  -3   1  -9  380.26   37.60
  -3   1  -9  429.56   42.30
   3  -1   9  382.76   37.30
   3  -1   9  416.16   36.80
   3  -1   9  417.96   40.10
  -4   1  -9  583.24   53.89
  -4   1  -9  587.44   59.79
   4  -1   9  593.44   56.09
   4  -1   9  623.84   54.39
   4  -1   9  622.94   54.19
  -5   1  -9   42.40   15.50
   5  -1   9   33.20   14.80
   5  -1   9   31.60   11.50
   5  -1   9   31.80   10.80
  -6   1  -9  188.88   25.20
   6  -1   9  101.49   19.30
   6  -1   9   80.69   28.10
  -7   1  -9   20.90   17.20
   7  -1   9   48.20   19.50
   7  -1   9   18.80   14.10
   7  -1   9   23.20   13.30
  -8   1  -9   24.40   20.90
   8  -1   9   44.70   16.90
   8  -1   9    6.10   13.70
   7   0  -9   49.00   14.70
  -7   0   9   47.20   28.50
   6   0  -9   26.10   10.70
  -6   0   9   21.70   11.90
  -6   0   9   30.20   23.30
   5   0  -9   63.39   11.40
  -5   0   9   63.09   11.00
  -5   0   9   57.09   22.70
   4   0  -9   69.39   10.20
  -4   0   9   55.09   20.70
  -4   0   9   93.79   15.20
  -3   0   9  109.59   12.10
  -3   0   9  100.69   23.00
   2   0  -9  248.98   24.20
  -2   0   9  290.37   34.20
  -2   0   9  259.87   24.10
   1   0  -9  292.07   25.60
  -1   0   9  195.48   37.40
  -1   0   9  262.17   25.50
  -1   0   9  292.17   32.70
   0   0  -9 1395.56  111.69
   0   0   9 1354.46  111.59
   0   0   9 1271.57  115.29
  -1   0  -9  718.03   59.89
  -1   0  -9  690.53   61.69
   1   0   9  733.53   59.99
   1   0   9  700.53   64.59
   1   0   9  725.23   61.89
   1   0   9  746.43   64.69
  -2   0  -9   43.10   14.20
  -2   0  -9   41.60    7.60
   2   0   9   38.60   12.00
   2   0   9   37.80    9.60
  -3   0  -9  225.28   24.90
  -3   0  -9  260.77   29.50
  -3   0  -9  231.28   24.30
   3   0   9  235.28   24.20
   3   0   9  275.07   27.40
   3   0   9  226.98   25.10
  -4   0  -9  227.78   27.60
  -4   0  -9  206.48   23.80
   4   0   9  223.88   26.40
   4   0   9  192.98   23.30
   4   0   9  233.18   24.70
  -5   0  -9  108.99   19.20
   5   0   9   97.89   16.70
   5   0   9  103.49   17.00
   5   0   9  102.29   18.20
   6   0   9   75.19   17.20
   6   0   9  112.89   18.90
   6   0   9  139.49   21.60
  -7   0  -9   69.89   19.50
   7   0   9  100.19   18.50
   7   0   9   84.49   35.70
   7   0   9   77.59   18.80
  -8   0  -9    7.80   19.00
   8   0   9    2.70   12.90
   8   0   9   -7.60   13.70
   7  -1  -9   58.89   16.10
  -7   1   9  112.99   34.90
   6  -1  -9    6.20    9.30
  -6   1   9   -0.50    9.40
  -6   1   9    4.20   21.80
   5  -1  -9   86.09   13.60
  -5   1   9   73.99   12.30
  -5   1   9   75.49   25.20
   4  -1  -9  135.49   15.30
  -4   1   9  130.99   15.10
  -4   1   9  191.68   31.30
   3  -1  -9    7.10    4.40
  -3   1   9    7.10    3.80
  -3   1   9    7.10   14.10
  -3   1   9   13.20    4.70
   2  -1  -9  251.17   22.90
   2  -1  -9  278.47   32.90
  -2   1   9  293.07   34.20
  -2   1   9  191.48   21.30
   1  -1  -9  697.33   61.89
   1  -1  -9  655.83   56.19
  -1   1   9  667.03   61.39
  -1   1   9  650.03   56.29
   0  -1  -9    2.80    5.20
   0   1   9    1.60   10.60
   0   1   9    3.50    6.00
   0   1   9   -7.20    8.50
  -1  -1  -9 1236.58  101.39
   1   1   9 1172.78  103.39
   1   1   9 1253.37  103.09
   1   1   9 1191.48  104.69
   1   1   9 1208.18   99.79
  -2  -1  -9  567.64   52.29
  -2  -1  -9  594.94   51.39
   2   1   9  621.04   51.49
   2   1   9  596.44   53.79
   2   1   9  621.44   52.59
   2   1   9  599.44   53.69
  -3  -1  -9  253.47   25.70
  -3  -1  -9  192.28   21.60
  -3  -1  -9  191.68   21.30
   3   1   9  198.38   21.80
   3   1   9  194.58   22.40
   3   1   9  198.68   22.80
  -4  -1  -9  480.75   41.00
  -4  -1  -9  422.76   39.80
   4   1   9  379.56   39.80
   4   1   9  399.46   39.70
   4   1   9  425.26   39.70
  -5  -1  -9   77.69   16.00
   5   1   9  110.69   17.70
   5   1   9  106.69   16.80
   5   1   9   82.89   15.60
  -6  -1  -9   26.10   12.70
   6   1   9   22.10   11.20
   6   1   9   47.40   14.20
   6   1   9   37.10   12.90
   7   1   9   75.59   18.40
   7   1   9  113.49   19.40
   7   1   9  146.99   21.50
  -8  -1  -9   28.30   17.90
   8   1   9   21.50   14.70
   7  -2  -9   31.20   13.60
  -7   2   9   49.10   41.10
   6  -2  -9   96.49   16.70
  -6   2   9  120.49   21.50
  -6   2   9  115.29   30.30
   5  -2  -9   -8.30    7.30
  -5   2   9   -7.70    6.70
  -5   2   9   -0.90   17.70
   4  -2  -9  645.24   55.09
  -4   2   9  699.03   66.29
  -4   2   9  618.34   54.69
   3  -2  -9  172.28   16.50
  -3   2   9  155.68   25.80
  -3   2   9  155.68   15.80
   2  -2  -9  178.78   21.70
   2  -2  -9  232.78   20.20
   2  -2  -9  270.77   31.40
  -2   2   9  246.68   31.20
  -2   2   9  243.98   21.50
  -2   2   9  237.18   20.00
   1  -2  -9  641.04   63.29
   1  -2  -9  703.33   58.69
  -1   2   9  750.12   64.59
  -1   2   9  696.13   58.79
   0  -2  -9   77.29   10.90
   0  -2  -9   78.99    8.60
   0  -2  -9   79.79    8.40
   0   2   9   56.29   14.20
   0   2   9   76.59   11.00
   0   2   9   70.29   14.80
  -1  -2  -9  149.99   16.20
  -1  -2  -9  124.99   14.10
   1   2   9  161.08   17.80
   1   2   9  128.09   14.00
   1   2   9  159.28   19.30
   1   2   9  111.99   17.70
  -2  -2  -9  774.32   65.09
  -2  -2  -9  759.32   65.69
   2   2   9  759.12   65.79
   2   2   9  734.13   67.19
   2   2   9  812.52   65.19
   2   2   9  764.72   65.79
  -3  -2  -9   90.89   13.90
  -3  -2  -9   97.19   14.50
   3   2   9   92.29   13.70
   3   2   9  111.79   14.60
  -4  -2  -9  645.94   53.39
  -4  -2  -9  567.84   53.89
   4   2   9  582.84   53.99
   4   2   9  590.44   52.09
   4   2   9  620.64   54.09
  -5  -2  -9  479.95   44.10
   5   2   9  432.66   45.40
   5   2   9  490.05   45.40
   5   2   9  504.75   43.60
  -6  -2  -9    7.60   10.60
   6   2   9    8.40   10.60
   6   2   9   13.50   11.50
  -7  -2  -9   64.79   16.30
   7   2   9  113.79   19.40
   7   2   9   69.69   17.50
   7   2   9   92.29   17.00
  -8  -2  -9   28.90   18.50
   8   2   9   32.60   15.10
   7  -3  -9    5.30   12.70
   6  -3  -9   90.39   16.50
  -6   3   9  118.19   30.00
   5  -3  -9   10.40    8.40
  -5   3   9    2.70    7.80
  -5   3   9    9.40   18.60
   4  -3  -9  136.59   16.30
  -4   3   9  167.28   29.60
  -4   3   9  129.69   15.80
   3  -3  -9  332.27   29.10
  -3   3   9  312.77   28.60
  -3   3   9  312.77   39.00
   2  -3  -9    1.20    3.60
   2  -3  -9   -5.20   11.30
   2  -3  -9    5.90    4.80
  -2   3   9  -12.90   10.60
  -2   3   9    4.30    3.50
  -2   3   9    2.80    4.90
   1  -3  -9  254.77   25.20
   1  -3  -9  272.87   30.60
   1  -3  -9  281.97   24.10
   1  -3  -9  295.97   24.30
  -1   3   9  267.57   25.30
   0  -3  -9  118.89   13.50
   0  -3  -9  183.28   26.30
   0  -3  -9  143.89   15.30
   0  -3  -9  126.79   13.40
   0   3   9  159.48   16.40
   0   3   9  147.69   19.90
  -1  -3  -9  184.28   17.80
  -1  -3  -9  154.28   19.00
   1   3   9  180.98   20.70
   1   3   9  184.38   17.90
   1   3   9  191.68   19.70
   1   3   9  182.28   21.80
  -2  -3  -9  652.93   56.09
  -2  -3  -9  651.03   56.59
   2   3   9  630.54   56.59
   2   3   9  641.64   55.59
   2   3   9  650.93   55.99
   2   3   9  687.53   56.09
  -3  -3  -9  122.39   16.90
   3   3   9  158.98   15.60
  -4  -3  -9  197.88   25.80
  -4  -3  -9  259.67   29.60
   4   3   9  229.48   25.40
   4   3   9  226.38   24.90
   5   3   9  638.74   55.49
   5   3   9  577.84   55.69
  -6  -3  -9   12.20    8.30
   6   3   9    7.40   10.70
   6   3   9   22.60   11.60
  -7  -3  -9   60.99   13.20
   7   3   9   88.99   17.40
   7   3   9   68.19   16.80
   8   3   9   88.89   20.10
   7  -4  -9    7.20   11.80
   6  -4  -9  175.68   22.80
  -6   4   9  170.38   34.90
   5  -4  -9   -4.20    7.70
  -5   4   9   -2.80   18.60
  -5   4   9   -4.90    7.20
   4  -4  -9   41.30   10.50
  -4   4   9   34.40    8.80
  -4   4   9   16.30   16.50
   3  -4  -9  198.08   18.60
  -3   4   9  139.49   17.50
  -3   4   9  238.48   31.30
  -3   4   9  173.38   16.10
   2  -4  -9   92.69   10.30
   2  -4  -9   67.69   13.90
   2  -4  -9   95.19   20.60
  -2   4   9  117.19   20.80
  -2   4   9   79.79    9.80
  -2   4   9   64.29    9.70
   1  -4  -9   47.20   12.20
   1  -4  -9   27.30    5.70
   1  -4  -9   23.30    7.10
  -1   4   9   37.80    7.50
  -1   4   9   24.60   13.70
   0  -4  -9 2651.23  220.78
   0  -4  -9 2726.93  218.88
   0  -4  -9 2379.16  220.08
   0  -4  -9 2736.63  218.28
   0   4   9 2680.83  218.88
   0   4   9 2872.51  221.28
  -1  -4  -9  370.66   34.80
  -1  -4  -9  413.16   34.20
  -1  -4  -9  387.76   36.90
   1   4   9  352.16   36.40
   1   4   9  384.56   35.60
  -2  -4  -9 1101.29   91.19
  -2  -4  -9 1046.90   90.79
   2   4   9 1068.79   90.69
   2   4   9 1082.09   89.69
   2   4   9 1096.39   89.69
   2   4   9 1101.99   91.29
  -3  -4  -9   38.40    9.90
  -3  -4  -9   25.50    9.00
   3   4   9   44.50   10.30
   3   4   9   48.40   10.40
  -4  -4  -9   30.00   10.20
   4   4   9   55.39   12.10
   4   4   9   67.99   12.70
   5   4   9   49.50   13.60
   5   4   9   89.69   15.40
   6   4   9  212.48   26.50
   6   4   9  231.88   29.00
   7   4   9  -14.60   11.40
   7   4   9   -3.40   12.40
   8   4   9   15.90   17.20
   8   4   9   48.50   16.20
   7  -5  -9    6.50   12.80
  -7   5   9   -6.80   29.20
   6  -5  -9  121.59   19.00
  -6   5   9  119.79   31.60
   5  -5  -9  194.88   21.90
  -5   5   9  147.09   20.70
  -5   5   9  171.28   32.30
   4  -5  -9   11.10    7.50
  -4   5   9    7.90   14.90
  -4   5   9    6.90    7.10
   3  -5  -9  612.54   54.59
   3  -5  -9  616.34   52.69
  -3   5   9  736.53   63.89
  -3   5   9  630.84   54.49
   2  -5  -9   -0.50    5.40
   2  -5  -9    7.10    5.10
   2  -5  -9    2.50   11.70
  -2   5   9   12.30    4.90
  -2   5   9    1.30   12.00
  -2   5   9    2.80    5.70
   1  -5  -9   21.70    6.00
   1  -5  -9   12.40    9.80
   1  -5  -9   21.70    6.80
  -1   5   9   26.50    5.70
  -1   5   9   34.50    7.80
  -1   5   9   44.70   14.20
   0  -5  -9   33.90    7.40
   0  -5  -9   38.30    8.70
   0  -5  -9   36.90    7.00
   0  -5  -9   33.20   10.90
   0   5   9   36.70    8.50
   0   5   9   52.29   12.00
  -1  -5  -9  310.47   31.40
  -1  -5  -9  352.26   32.30
  -1  -5  -9  332.07   32.30
  -1  -5  -9  369.86   31.80
   1   5   9  358.26   32.70
   1   5   9  372.76   33.90
  -2  -5  -9  122.99   15.00
  -2  -5  -9   87.59   14.30
   2   5   9  123.99   15.70
   2   5   9   94.99   14.10
   2   5   9  111.59   12.10
   2   5   9  100.59   12.80
  -3  -5  -9 1099.39   91.69
  -3  -5  -9  827.42   95.79
   3   5   9 1178.28   92.09
   3   5   9 1144.39   91.89
   4   5   9   15.40   10.40
   4   5   9    1.90    8.00
   5   5   9  389.56   42.20
   5   5   9  480.25   42.40
   6   5   9   52.89   15.70
   6   5   9   92.89   16.00
   7   5   9   39.20   13.90
   7   5   9   37.80   14.20
   8   5   9   35.80   15.50
   8   5   9   16.30   15.00
   7  -6  -9    3.40   12.80
  -7   6   9   15.30   26.40
   6  -6  -9   -5.00    9.50
  -6   6   9   46.10   23.90
   5  -6  -9  109.49   17.20
  -5   6   9  126.39   29.40
   4  -6  -9  205.18   23.40
  -4   6   9  200.08   23.00
  -4   6   9  275.37   36.60
   3  -6  -9  452.55   42.00
   3  -6  -9  525.55   43.10
  -3   6   9  456.25   42.20
  -3   6   9  479.15   50.99
   2  -6  -9  344.17   32.10
   2  -6  -9  336.07   38.50
   2  -6  -9  351.86   32.80
  -2   6   9  348.97   32.60
  -2   6   9  447.06   41.10
  -2   6   9  379.66   32.40
   1  -6  -9  106.89   13.20
   1  -6  -9  115.09   18.40
   1  -6  -9   89.49   12.00
  -1   6   9  107.49   13.00
  -1   6   9   86.39   11.60
   0  -6  -9  761.52   68.69
   0  -6  -9  816.62   66.79
   0  -6  -9  800.62   66.99
   0  -6  -9  774.82   66.69
   0   6   9  778.12   67.09
   0   6   9  795.02   68.89
  -1  -6  -9    7.20    6.40
  -1  -6  -9   -1.80    7.40
  -1  -6  -9    6.00    5.70
  -1  -6  -9    8.20    5.90
   1   6   9   12.70    6.90
   1   6   9    8.20    7.00
  -2  -6  -9   13.40   12.60
  -2  -6  -9   60.39    9.70
   2   6   9   39.20    9.10
   2   6   9   24.80    6.30
   2   6   9   38.30   10.00
  -3  -6  -9  381.66   37.80
  -3  -6  -9  388.96   37.80
   3   6   9  409.96   38.20
   3   6   9  427.96   38.00
   4   6   9   28.70   10.70
   4   6   9   52.39   11.70
   5   6   9  120.09   19.40
   5   6   9  142.39   19.60
   6   6   9  286.47   32.50
   6   6   9  291.07   34.20
   7   6   9    8.50   13.90
   7   6   9   -1.60   11.70
   8   6   9   55.39   17.40
   8   6   9   39.20   17.00
   7  -7  -9   62.39   17.00
  -7   7   9   28.30   24.70
   6  -7  -9    2.20   16.00
  -6   7   9    3.50   20.20
   5  -7  -9  135.19   18.90
  -5   7   9  116.09   27.20
   4  -7  -9  142.89   18.00
   4  -7  -9  118.49   13.20
   4  -7  -9  128.99   13.30
  -4   7   9  100.99   16.30
  -4   7   9  146.99   28.00
   3  -7  -9    3.40    6.70
   3  -7  -9   -1.20    5.70
  -3   7   9    3.60    6.70
  -3   7   9   26.70   17.00
   2  -7  -9  706.83   61.89
   2  -7  -9  764.22   67.49
   2  -7  -9  703.23   61.19
  -2   7   9  749.53   61.39
  -2   7   9  669.03   61.69
  -2   7   9  767.82   68.29
   1  -7  -9  622.64   52.19
   1  -7  -9  556.64   55.69
   1  -7  -9  598.74   52.39
  -1   7   9  586.24   52.19
  -1   7   9  592.84   52.09
  -1   7   9  679.73   57.29
   0  -7  -9  207.08   21.10
   0  -7  -9  198.88   23.70
   0  -7  -9  199.38   20.80
   0  -7  -9  207.98   21.30
   0   7   9  206.48   23.90
   0   7   9  181.78   21.20
  -1  -7  -9 1025.50   88.29
  -1  -7  -9 1019.00   88.29
  -1  -7  -9 1107.29   94.39
  -1  -7  -9 1117.29   88.69
   1   7   9 1008.90   88.09
   1   7   9 1025.70   88.29
  -2  -7  -9   10.50    5.30
  -2  -7  -9   14.40    7.60
  -2  -7  -9   11.30    9.20
  -2  -7  -9   13.00    7.30
   2   7   9   11.10    5.10
   2   7   9   17.80    8.70
  -3  -7  -9  304.67   31.60
  -3  -7  -9  352.26   33.90
   3   7   9  336.37   32.30
   3   7   9  291.17   31.50
   4   7   9   53.69   12.50
   4   7   9   61.09   13.40
   5   7   9   11.80   11.00
   5   7   9    4.00    9.10
   6   7   9  186.38   25.90
   6   7   9  151.28   33.40
   7   7   9  124.39   21.20
   7   7   9   93.09   20.50
   8   7   9    3.20   15.00
   8   7   9    1.00   13.40
   7  -8  -9   63.09   17.40
  -7   8   9   45.60   29.50
   6  -8  -9  117.79   19.70
  -6   8   9   79.29   29.20
   5  -8  -9  114.99   18.80
  -5   8   9  136.69   30.30
   4  -8  -9  378.26   36.50
   4  -8  -9  393.46   39.70
   4  -8  -9  449.16   36.60
  -4   8   9  502.45   55.99
   3  -8  -9  142.59   17.10
   3  -8  -9  110.69   13.50
   3  -8  -9   91.19   13.10
  -3   8   9  138.19   25.50
  -3   8   9   96.89   14.90
   2  -8  -9  862.71   75.29
   2  -8  -9  954.90   76.49
   2  -8  -9  859.81   80.49
  -2   8   9  906.81   81.49
  -2   8   9  879.11   75.39
   1  -8  -9  338.27   30.60
   1  -8  -9  297.67   34.00
   1  -8  -9  315.37   30.30
  -1   8   9  311.87   34.60
  -1   8   9  330.37   30.20
  -1   8   9  323.27   30.50
   0  -8  -9  149.39   17.80
   0  -8  -9  117.79   18.80
   0  -8  -9  134.59   16.50
   0  -8  -9  119.39   16.30
   0   8   9  148.99   17.90
   0   8   9  114.79   18.50
  -1  -8  -9  321.87   31.00
  -1  -8  -9  344.47   31.60
  -1  -8  -9  289.27   30.70
  -1  -8  -9  282.97   30.90
   1   8   9  334.17   31.10
   1   8   9  343.17   31.30
  -2  -8  -9  208.18   24.20
  -2  -8  -9  236.18   25.20
  -2  -8  -9  228.18   22.30
  -2  -8  -9  226.78   24.50
   2   8   9  221.58   21.60
   2   8   9  240.08   24.90
   3   8   9   24.00   10.40
   3   8   9   21.00    9.00
   4   8   9  586.74   53.59
   4   8   9  573.74   53.49
   5   8   9    9.60   11.60
   5   8   9   13.50   11.30
   6   8   9  128.09   21.00
   6   8   9  137.29   22.20
   7   8   9   40.80   15.10
   7   8   9   85.99   18.40
   8   8   9   -1.50   14.80
   8   8   9    9.60   14.40
   7  -9  -9   37.90   15.90
  -7   9   9   48.80   29.50
   6  -9  -9   13.50   12.70
  -6   9   9    2.20   21.80
   5  -9  -9   43.50   22.40
   5  -9  -9   57.29    9.10
  -5   9   9   83.69   25.20
   4  -9  -9   85.39   11.90
   4  -9  -9   77.19   14.60
   4  -9  -9   77.19   11.70
  -4   9   9   75.29   23.30
   3  -9  -9   64.19   11.70
   3  -9  -9   41.60   10.50
   3  -9  -9   47.20    9.60
  -3   9   9   51.69   18.30
   2  -9  -9   -7.30    5.90
   2  -9  -9   -2.40    6.80
  -2   9   9    3.40    7.00
  -2   9   9   -6.90    5.20
  -2   9   9   21.20   13.50
   1  -9  -9  123.39   16.90
   1  -9  -9  166.28   22.50
  -1   9   9  155.78   22.90
  -1   9   9  128.29   17.30
  -1   9   9  112.39   16.30
   0  -9  -9  511.35   47.30
   0  -9  -9  479.65   47.30
   0  -9  -9  535.75   47.70
   0  -9  -9  547.75   49.90
   0   9   9  548.15   49.80
   0   9   9  552.04   47.60
  -1  -9  -9    5.80    7.60
  -1  -9  -9   10.90    7.60
  -1  -9  -9   -9.40    7.80
  -1  -9  -9    0.90    6.40
   1   9   9    8.30    8.10
   1   9   9   -0.50    7.40
  -2  -9  -9  425.56   42.70
  -2  -9  -9  396.16   38.60
  -2  -9  -9  402.56   36.50
   2   9   9  390.66   36.10
   2   9   9  382.86   38.50
  -3  -9  -9  120.59   18.70
   3   9   9  135.69   19.70
   4   9   9  369.06   38.20
   4   9   9  391.56   38.40
   5   9   9  223.88   28.60
   6   9   9   40.00   15.40
   6   9   9   42.90   14.10
   7   9   9  171.88   24.70
   7   9   9  146.89   25.90
   6 -10  -9   48.30   15.60
  -6  10   9   49.99   30.80
   5 -10  -9    4.70    7.70
   5 -10  -9   14.50   10.20
   5 -10  -9    3.30    7.00
  -5  10   9   26.90   22.60
   4 -10  -9   46.90   10.50
   4 -10  -9   45.80   12.60
   4 -10  -9   37.30    9.60
  -4  10   9   17.50   18.40
   3 -10  -9  648.04   57.39
   3 -10  -9  645.94   59.09
   3 -10  -9  680.13   58.49
  -3  10   9  665.23   66.39
   2 -10  -9   25.70    9.00
   2 -10  -9   14.40    7.90
  -2  10   9   27.90    9.30
  -2  10   9    5.10   14.00
   1 -10  -9  659.63   65.39
   1 -10  -9  732.13   61.79
   1 -10  -9  741.13   62.09
  -1  10   9  712.23   61.99
  -1  10   9  745.33   66.39
  -1  10   9  614.04   64.59
   0 -10  -9  251.47   28.10
   0 -10  -9  237.88   25.90
   0 -10  -9  249.18   26.60
   0 -10  -9  266.97   31.10
   0  10   9  232.68   29.70
   0  10   9  241.28   27.60
  -1 -10  -9  541.85   48.20
  -1 -10  -9  520.15   48.40
   1  10   9  515.75   48.00
   1  10   9  508.35   47.90
  -2 -10  -9   17.50    9.20
   2  10   9   17.00    9.50
   2  10   9   14.70   10.20
  -3 -10  -9   37.60   12.90
  -3 -10  -9   45.70    8.30
   3  10   9   34.60   12.80
   4  10   9   12.10   11.10
   5  10   9   29.00   12.50
   5  10   9   25.70   12.90
   6  10   9   19.60   12.90
   6  10   9   16.00   12.80
   7  10   9   12.30   14.00
   7  10   9   -0.50   13.40
   6 -11  -9   63.59   17.00
  -6  11   9   56.09   26.60
   5 -11  -9   36.60   10.30
   5 -11  -9   24.90    9.40
   5 -11  -9   18.00   11.40
  -5  11   9   10.90   22.40
   4 -11  -9  121.79   18.20
   4 -11  -9  164.58   22.40
   4 -11  -9  168.08   19.10
  -4  11   9  156.98   32.20
   3 -11  -9  282.17   27.80
   3 -11  -9  255.37   27.90
   3 -11  -9  257.87   29.30
  -3  11   9  303.47   40.10
   2 -11  -9   24.90    8.60
   2 -11  -9   26.20    9.50
   2 -11  -9   30.60   10.40
  -2  11   9   45.20   17.30
   1 -11  -9  313.17   37.80
   1 -11  -9  323.57   33.40
  -1  11   9  346.27   33.90
  -1  11   9  374.66   39.00
   0 -11  -9 1006.30   89.09
   0 -11  -9 1000.00   85.09
   0  11   9  959.10   84.69
   0  11   9  970.20   86.99
  -1 -11  -9   40.00   11.90
  -1 -11  -9   24.90   10.00
   1  11   9   38.30   12.20
   1  11   9   35.60   11.30
  -2 -11  -9  694.23   62.29
  -2 -11  -9  760.12   64.39
   2  11   9  670.63   62.69
   2  11   9  730.63   63.69
  -3 -11  -9  326.67   35.10
  -3 -11  -9  317.07   31.00
   3  11   9  346.47   35.00
  -4 -11  -9   65.79   16.60
   4  11   9   77.29   16.50
   5  11   9  182.48   25.40
   6  11   9   26.10   13.80
   6  11   9   -5.70   12.40
   7  11   9   13.40   15.10
   7  11   9   34.80   17.50
   6 -12  -9   91.49   22.40
  -6  12   9   52.29   28.80
   5 -12  -9  171.78   25.20
   5 -12  -9  145.29   19.90
  -5  12   9  166.68   35.50
   4 -12  -9   61.39   13.00
   4 -12  -9   49.10   13.20
  -4  12   9   77.29   25.00
   3 -12  -9  336.67   34.90
   3 -12  -9  301.07   32.50
  -3  12   9  386.96   46.80
   2 -12  -9   67.69   15.20
   2 -12  -9  109.09   16.50
  -2  12   9  134.39   25.00
   1 -12  -9  119.29   19.00
  -1  12   9  153.08   20.20
  -1  12   9  139.39   24.70
   0 -12  -9  467.55   49.40
   0 -12  -9  535.85   47.50
   0  12   9  495.35   49.50
   0  12   9  505.35   47.30
  -1 -12  -9  421.16   37.60
  -1 -12  -9  323.97   37.60
   1  12   9  366.16   36.80
   1  12   9  349.77   37.70
  -2 -12  -9  123.79   19.00
  -2 -12  -9  150.08   21.70
   2  12   9  113.09   19.70
   2  12   9  154.58   20.90
  -3 -12  -9  253.67   27.70
  -3 -12  -9  277.47   33.30
   3  12   9  279.27   30.70
   3  12   9  247.18   28.90
  -4 -12  -9   82.09   18.70
   4  12   9  108.89   18.40
  -5 -12  -9   61.89   17.60
   5  12   9   63.99   16.10
  -6 -12  -9   60.99   20.00
   6  12   9   78.79   18.80
   5 -13  -9   64.69   13.80
   5 -13  -9   53.49   17.20
   4 -13  -9   23.70   10.30
   4 -13  -9   24.00   12.20
  -4  13   9   -8.70   16.70
   3 -13  -9   90.39   16.20
   3 -13  -9  108.49   18.70
  -3  13   9   90.19   26.00
   2 -13  -9  362.76   40.00
   2 -13  -9  450.65   39.80
  -2  13   9  403.66   46.90
  -1  13   9   10.20   14.40
   0 -13  -9  677.13   69.69
   0  13   9  717.23   61.99
   0  13   9  635.34   64.09
  -1 -13  -9  290.57   40.00
  -1 -13  -9  238.98   31.40
   1  13   9  251.97   31.00
  -2 -13  -9   48.90   13.30
  -2 -13  -9   25.00   12.10
   2  13   9   22.10   11.20
   2  13   9   45.30   17.30
  -3 -13  -9   52.69   14.90
  -3 -13  -9   65.89   14.20
   3  13   9   50.99   15.30
   3  13   9   69.79   16.00
  -4 -13  -9  225.28   31.20
  -4 -13  -9  221.98   24.60
   4  13   9  181.88   26.40
  -5 -13  -9   -0.30   12.20
   5  13   9    7.40   12.90
  -6 -13  -9  168.28   28.10
   6  13   9  120.39   23.50
   5 -14  -9  110.69   18.30
   5 -14  -9  106.49   27.60
  -5  14   9   85.89   29.10
   4 -14  -9   30.60   13.70
   4 -14  -9   37.70   15.70
  -4  14   9   59.79   23.80
   3 -14  -9   78.59   16.80
  -3  14   9   73.29   23.30
   2 -14  -9  448.66   53.79
   2 -14  -9  387.76   40.30
  -2  14   9  382.66   48.20
   1 -14  -9    7.90    8.00
   1 -14  -9   -2.10    8.00
  -1  14   9   13.10   14.20
   0 -14  -9   15.30    9.40
   0  14   9   19.60   13.70
   0  14   9   27.70   12.00
  -1 -14  -9  815.92   71.09
  -1 -14  -9  742.73   73.89
   1  14   9  773.52   70.59
   1  14   9  784.62   72.89
  -2 -14  -9    6.70   10.60
  -2 -14  -9   15.30   16.60
   2  14   9   13.50   14.10
   2  14   9    5.50   10.10
  -3 -14  -9  181.28   27.00
  -3 -14  -9  234.68   31.00
   3  14   9  293.67   31.30
  -4 -14  -9  171.28   28.80
  -4 -14  -9  213.58   25.70
   4  14   9  175.98   26.20
   5  14   9    5.70   13.30
   4 -15  -9  133.69   20.10
   4 -15  -9   92.69   23.60
   3 -15  -9   -1.60    9.50
   3 -15  -9   16.60   10.60
  -3  15   9   -8.00   16.70
   2 -15  -9   93.99   18.40
   2 -15  -9   93.79   17.90
  -2  15   9  103.19   25.40
   1 -15  -9  117.19   19.40
   1 -15  -9   92.49   17.90
  -1  15   9  130.89   26.60
   0 -15  -9   30.10   12.10
   0 -15  -9  102.99   18.50
   0  15   9   39.30   17.20
  -1 -15  -9   86.09   17.80
   1  15   9  103.59   22.20
   1  15   9   99.39   19.10
  -2 -15  -9  103.99   19.20
  -2 -15  -9   37.10   20.30
   2  15   9   78.99   21.00
   2  15   9   76.39   17.10
  -3 -15  -9   48.20   15.60
   3  15   9   11.30   16.10
   3  15   9   31.30   14.70
  -4 -15  -9  163.38   28.20
   4  15   9  149.79   24.70
  -5 -15  -9   15.80   15.60
   5  15   9   12.90   14.80
   4 -16  -9   62.19   17.60
   4 -16  -9   61.59   16.60
  -4  16   9   86.99   28.30
   3 -16  -9   47.20   15.10
  -3  16   9   28.00   19.50
   2 -16  -9   26.10   11.80
   2 -16  -9   19.00   11.70
  -2  16   9   36.20   19.60
   1 -16  -9  175.88   27.00
   1 -16  -9  220.88   29.40
  -1  16   9  230.18   35.40
   0 -16  -9    8.80    9.50
   0 -16  -9   -2.80    9.10
   0  16   9    1.80   18.20
  -1 -16  -9  346.77   41.70
  -1 -16  -9  342.37   38.80
   1  16   9  397.36   46.40
  -2 -16  -9   95.99   19.80
   2  16   9  102.59   24.40
   2  16   9   68.19   17.80
  -3 -16  -9   41.40   16.80
   3  16   9   45.30   20.50
   3  16   9   42.10   15.70
  -4 -16  -9   59.89   19.20
  -4 -16  -9   56.19   22.00
   4  16   9   67.89   18.10
   3 -17  -9   30.00   14.90
   3 -17  -9   36.70   14.70
  -3  17   9   30.40   21.70
   2 -17  -9    8.00   10.40
   2 -17  -9   14.40   12.10
  -2  17   9   21.60   20.00
   1 -17  -9  103.19   20.80
  -1  17   9  116.79   27.90
   0 -17  -9   55.99   16.50
   0 -17  -9   62.69   16.80
   0  17   9   77.69   23.40
  -1 -17  -9   36.40   16.60
  -1 -17  -9   37.20   17.20
   1  17   9   31.70   21.00
  -2 -17  -9  391.46   41.80
  -2 -17  -9  289.27   40.00
   2  17   9  348.17   45.70
  -3 -17  -9    2.90   12.40
  -3 -17  -9   -3.00   12.40
   3  17   9    9.60   19.60
   1 -18  -9   91.49   20.20
   1 -18  -9  109.29   22.10
  -1  18   9  107.19   29.10
   0 -18  -9  139.89   24.50
   0 -18  -9  126.49   22.00
   0  18   9  112.89   29.70
  -1 -18  -9   17.70   12.20
  -1 -18  -9    0.30   10.60
   1  18   9    3.20   20.10
   0 -11  10   61.99   31.90
   0 -11  10   28.90   13.10
   0 -11  10   38.70   17.30
  -1  11 -10   73.59   32.20
   1 -11  10   98.19   17.40
   1 -11  10   91.09   19.90
  -2  11 -10    8.40   25.90
   2 -11  10    1.90   12.40
   2 -11  10   -6.10   10.50
  -2 -10  10   15.60   13.90
  -2 -10  10   31.60   30.20
  -1 -10  10   65.59   16.90
  -1 -10  10   72.89   30.50
   0 -10  10   22.60   13.30
   0 -10  10   15.10    9.20
  -1  10 -10   64.39   31.10
   1 -10  10   91.29   18.20
   1 -10  10   67.69   14.30
  -2  10 -10   46.60   28.50
   2 -10  10   37.80   19.20
   2 -10  10   57.29   13.80
   3 -10  10    7.40   11.70
   3 -10  10   -0.20   10.50
  -4  10 -10   54.59   29.90
   4 -10  10   83.79   17.60
   4 -10  10   85.29   19.90
  -3  -9  10   38.10   15.00
  -3  -9  10   45.20   28.50
  -2  -9  10   18.90   13.10
  -1  -9  10   96.39   30.60
  -1  -9  10   80.49   17.00
  -1  -9  10   62.49   10.60
   0  -9  10   24.10   12.90
   0  -9  10   10.20   24.30
   0  -9  10   17.10    8.50
  -1   9 -10    4.00    9.60
  -1   9 -10   -6.10   21.70
   1  -9  10    1.10    8.30
   1  -9  10   15.00   12.10
  -2   9 -10   46.80   26.60
   2  -9  10  114.19   16.80
   2  -9  10   77.39   17.60
  -3   9 -10    9.90   24.10
   3  -9  10   28.50   12.60
   3  -9  10    7.10   10.60
  -4   9 -10   67.49   28.00
   4  -9  10   25.40   13.10
   5  -9  10  145.59   24.30
   5  -9  10  123.59   23.70
  -4  -8  10   -5.30   25.50
  -4  -8  10   45.80   16.10
  -3  -8  10   85.09   17.10
  -2  -8  10   -4.70   23.50
  -2  -8  10   14.10   11.50
  -1  -8  10  171.48   35.20
  -1  -8  10  117.19   14.00
  -1  -8  10  132.39   20.70
   0  -8  10   44.30    9.90
   0  -8  10   54.29   13.60
   0  -8  10   36.70   24.60
   0  -8  10   42.70    9.30
  -1   8 -10   15.30   21.80
  -1   8 -10   28.10    9.80
   1  -8  10    4.90   10.70
   1  -8  10   12.10    8.30
  -2   8 -10   40.20   16.00
  -2   8 -10   85.99   27.90
   2  -8  10   88.29   14.90
   2  -8  10  114.99   18.20
  -3   8 -10   -6.90   19.30
   3  -8  10   13.90   11.70
   3  -8  10   -3.40    8.30
  -4   8 -10  -32.20   18.80
   4  -8  10   -2.50   11.20
   4  -8  10   -4.50    9.60
  -5   8 -10   66.99   28.70
   5  -8  10   50.69   15.40
  -4  -7  10   -7.70   24.20
  -4  -7  10   31.40   13.50
  -3  -7  10   69.49   28.30
  -3  -7  10   55.99   13.60
  -2  -7  10  106.59   17.80
  -2  -7  10   88.79   28.50
  -1  -7  10   31.30   23.20
  -1  -7  10   26.60   22.00
   0  -7  10  145.09   17.90
   0  -7  10  180.18   18.70
   0  -7  10  212.98   36.80
   0  -7  10  182.68   23.40
  -1   7 -10   34.10    9.20
  -1   7 -10   16.90   22.70
   1  -7  10   35.80   12.40
  -2   7 -10  124.09   17.80
  -2   7 -10  159.48   31.90
   2  -7  10  130.39   20.70
   2  -7  10  166.58   19.60
  -3   7 -10  159.78   33.60
   3  -7  10  147.89   20.10
   3  -7  10  119.49   20.70
  -4   7 -10    4.50   20.70
   4  -7  10  -12.90   10.20
   4  -7  10   18.00   14.70
  -5   7 -10   90.19   30.70
   5  -7  10  119.59   20.30
   5  -7  10  123.89   23.00
  -6   7 -10   26.70   26.00
   6  -7  10   37.30   19.30
   6  -7  10   11.30   12.80
  -5  -6  10  119.19   34.20
  -4  -6  10   22.60   24.90
  -4  -6  10   -0.10   10.90
  -3  -6  10  235.28   39.60
  -3  -6  10  205.58   24.80
  -2  -6  10   43.20   23.60
  -2  -6  10   12.70   10.00
  -1  -6  10   39.40   11.50
  -1  -6  10   48.30   22.30
   0  -6  10   98.59   15.90
   0  -6  10  172.58   32.50
   0  -6  10   76.69   10.80
  -1   6 -10  178.68   19.10
  -1   6 -10  166.88   50.99
   1  -6  10  166.48   19.20
   1  -6  10  180.28   23.70
  -2   6 -10  137.79   33.40
  -2   6 -10  158.38   18.70
   2  -6  10  130.69   21.00
   2  -6  10  186.08   20.40
   3  -6  10  183.78   24.40
   3  -6  10  183.98   22.90
  -4   6 -10    9.40   19.70
   4  -6  10   18.50   12.30
   4  -6  10    4.20    9.20
  -5   6 -10   25.30   22.20
   5  -6  10   68.59   17.00
   5  -6  10   42.00   14.80
  -6   6 -10    6.30   23.30
   6  -6  10    6.90   12.80
   6  -6  10    8.50   13.10
  -5  -5  10   65.09   43.50
  -4  -5  10   23.70   10.40
  -4  -5  10   42.80   24.00
  -3  -5  10   74.69   15.60
  -3  -5  10   82.29   26.30
  -3  -5  10   85.69   14.40
  -2  -5  10  258.37   28.30
  -2  -5  10  271.77   41.80
  -1  -5  10   22.20   10.00
   0  -5  10  355.46   32.00
   0  -5  10  265.47   26.60
   0  -5  10  407.06   44.10
  -1   5 -10  332.67   30.40
  -1   5 -10  354.96   45.00
   1  -5  10  365.96   34.30
   1  -5  10  311.47   30.50
  -2   5 -10    5.70    6.50
  -2   5 -10   26.30   19.50
   2  -5  10    1.40   10.10
   2  -5  10   -3.30    6.50
  -3   5 -10  390.06   47.60
  -3   5 -10  337.17   35.80
   3  -5  10  418.66   39.10
   3  -5  10  388.36   36.30
  -4   5 -10   96.99   26.20
   4  -5  10   66.89   15.10
   4  -5  10   92.79   17.00
  -5   5 -10   10.30   22.50
   5  -5  10    7.20   10.30
   5  -5  10   -1.20   10.80
  -6   5 -10  235.48   37.50
   6  -5  10  138.59   24.40
   6  -5  10  194.28   27.20
  -7   5 -10    9.60   24.00
   7  -5  10   57.39   29.00
   7  -5  10    3.50   16.00
  -5  -4  10   37.50   24.80
  -4  -4  10  105.09   16.00
  -4  -4  10  148.89   31.60
  -3  -4  10   -4.50    7.80
  -3  -4  10   -9.10   18.30
   2   4 -10  527.05   48.50
  -2  -4  10  532.35   48.00
   1   4 -10  324.27   35.80
  -1  -4  10  382.56   47.10
  -1  -4  10  396.06   35.70
   0  -4  10  147.09   28.40
   0  -4  10  161.28   20.20
  -1   4 -10  374.66   32.40
  -1   4 -10  392.86   45.60
   1  -4  10  396.06   36.20
   1  -4  10  335.67   32.40
  -2   4 -10   56.19   10.20
  -2   4 -10  117.39   24.10
   2  -4  10   77.19   14.50
   2  -4  10   82.69   12.20
  -3   4 -10   93.69   13.90
  -3   4 -10   80.19   22.70
   3  -4  10   83.29   15.50
   3  -4  10   85.79   13.80
  -4   4 -10  175.38   31.00
   4  -4  10  107.99   20.00
   4  -4  10  148.49   20.50
  -5   4 -10   40.20   20.70
   5  -4  10   18.10   16.40
   5  -4  10   24.90   13.00
  -6   4 -10   43.10   21.60
   6  -4  10   48.80   15.00
   6  -4  10   46.90   15.10
  -7   4 -10   96.89   28.60
   7  -4  10  107.99   21.40
   7  -4  10   89.59   20.40
  -6  -3  10   41.60   28.10
  -5  -3  10  135.49   32.50
  -4  -3  10   82.19   27.50
  -4  -3  10  133.19   15.00
  -4  -3  10   98.69   13.30
  -3  -3  10  -10.40    9.70
  -3  -3  10   30.20   20.00
   2   3 -10  204.98   22.70
  -2  -3  10  177.38   20.90
  -2  -3  10  169.78   31.00
   1   3 -10  184.18   21.20
  -1  -3  10  177.98   20.50
  -1  -3  10  117.59   27.10
   0   3 -10    8.20    8.90
   0  -3  10    6.90    8.50
   0  -3  10   29.10   18.00
  -1   3 -10   52.69   20.00
  -1   3 -10   38.80    7.90
   1  -3  10   54.39    8.10
   1  -3  10   78.59   13.00
  -2   3 -10  261.57   25.00
  -2   3 -10  314.97   38.30
   2  -3  10  234.58   33.70
   2  -3  10  260.57   25.10
   2  -3  10  227.48   27.30
  -3   3 -10   82.29   19.90
  -3   3 -10   65.49   13.00
   3  -3  10   60.19   11.90
   3  -3  10   87.19   14.30
   3  -3  10   90.29   19.40
  -4   3 -10  271.87   36.90
   4  -3  10  282.47   29.40
   4  -3  10  306.47   42.20
   4  -3  10  269.67   30.50
  -5   3 -10   30.20   18.40
   5  -3  10   76.69   16.00
   5  -3  10   64.89   15.80
  -6   3 -10   67.69   21.40
   6  -3  10   28.00   12.90
   6  -3  10   87.99   17.90
  -7   3 -10   55.59   22.80
   7  -3  10   21.00   15.60
   7  -3  10   50.09   16.40
  -6  -2  10   72.89   34.20
  -5  -2  10    2.60    6.60
  -5  -2  10   15.30   19.10
  -4  -2  10  156.68   17.50
  -4  -2  10  223.48   35.90
  -3  -2  10   71.99   38.00
  -3  -2  10  103.19   13.20
   2   2 -10   75.89   12.50
  -2  -2  10   71.99   21.10
  -2  -2  10   75.29   13.70
   1   2 -10  293.37   31.50
  -1  -2  10  382.06   42.20
  -1  -2  10  341.07   31.70
   0   2 -10   32.60    9.50
   0  -2  10   14.70    8.30
   0  -2  10    5.10   12.80
   0  -2  10   25.00   15.70
  -1   2 -10   80.49    9.10
  -1   2 -10   49.10   11.70
   1  -2  10   79.29    9.70
   1  -2  10   84.99   13.30
   1  -2  10   99.69   20.70
   1  -2  10   57.49   17.10
  -2   2 -10  257.97   25.10
  -2   2 -10  318.97   37.00
   2  -2  10  210.78   32.80
   2  -2  10  259.17   27.40
   2  -2  10  276.17   25.30
  -3   2 -10   29.90    9.30
  -3   2 -10   58.39   17.90
   3  -2  10   56.69   13.10
   3  -2  10   43.40   10.40
  -4   2 -10   69.99   20.60
   4  -2  10   51.79   12.30
   4  -2  10   39.50   12.40
   4  -2  10   46.60   16.90
  -5   2 -10  487.95   48.90
   5  -2  10  459.75   43.80
   5  -2  10  378.76   47.70
   5  -2  10  483.05   47.10
  -6   2 -10    2.50   15.80
   6  -2  10  -13.20    9.50
   6  -2  10    9.00   12.40
  -7   2 -10  113.59   25.60
   7  -2  10   78.09   18.60
   7  -2  10   67.39   18.80
  -8   2 -10   39.80   24.80
   8  -2  10   36.90   17.20
   8  -2  10   11.50   15.40
   6   1 -10   -9.50    8.90
  -6  -1  10   -1.60   22.30
  -5  -1  10   42.70   22.20
  -5  -1  10   -0.20   11.10
  -4  -1  10   -5.20   19.00
  -3  -1  10   63.09   10.40
  -3  -1  10  117.49   24.90
   2   1 -10   38.70    9.40
  -2  -1  10   29.10    7.90
  -2  -1  10   14.70   16.60
   1   1 -10   60.29   10.90
  -1  -1  10   46.20   18.70
  -1  -1  10   54.39   17.10
  -1  -1  10   64.19   11.20
   0   1 -10  426.06   38.90
   0  -1  10  433.56   45.70
   0  -1  10  414.66   38.90
   0  -1  10  438.66   44.90
  -1   1 -10    7.30    7.60
  -1   1 -10    0.40    4.00
   1  -1  10    9.10    7.50
   1  -1  10    8.20   12.60
   1  -1  10   -2.80   11.50
   1  -1  10   -4.40    3.90
  -2   1 -10  704.13   61.49
  -2   1 -10  691.23   63.19
  -2   1 -10  856.31   68.59
   2  -1  10  759.32   63.49
   2  -1  10  687.83   61.29
   2  -1  10  700.13   65.79
  -3   1 -10  187.48   21.50
  -3   1 -10  257.57   31.00
   3  -1  10  181.48   21.00
   3  -1  10  214.88   24.00
   3  -1  10  167.58   25.50
  -4   1 -10  217.08   28.30
  -4   1 -10  151.18   20.60
   4  -1  10  184.48   22.10
   4  -1  10  167.48   24.80
   4  -1  10  197.78   23.60
  -5   1 -10   37.20   15.90
   5  -1  10   23.90   14.70
   5  -1  10   26.70   12.70
   5  -1  10   33.00   11.70
  -6   1 -10   39.50   18.60
   6  -1  10   36.70   13.00
   6  -1  10   29.50   17.80
   6  -1  10   42.30   14.30
  -7   1 -10  -21.60   16.10
   7  -1  10   15.50   12.70
   7  -1  10    5.70   13.60
   7  -1  10   21.40   19.20
  -8   1 -10   38.80   22.20
   8  -1  10   37.40   15.30
   8  -1  10   31.30   17.80
   6   0 -10  178.58   23.30
  -6   0  10  222.78   38.40
   5   0 -10   56.99   10.30
  -5   0  10   83.69   25.00
  -5   0  10   63.39   10.00
  -4   0  10   71.89   22.30
  -4   0  10  110.99   11.30
   3   0 -10  403.26   34.10
  -3   0  10  262.17   39.70
  -3   0  10  315.07   29.00
   2   0 -10    6.50    6.60
  -2   0  10    0.70    6.60
  -2   0  10    6.40   13.70
   1   0 -10  369.26   34.30
  -1   0  10  425.46   42.40
  -1   0  10  297.67   41.20
  -1   0  10  411.06   34.70
   0   0 -10  110.99   15.10
   0   0  10  140.49   20.90
   0   0  10  110.79   20.20
   0   0  10  132.89   16.20
  -1   0 -10    9.20    4.30
   1   0  10   -2.10   10.20
   1   0  10   19.80    8.30
   1   0  10   15.30    5.00
  -2   0 -10  156.78   17.20
  -2   0 -10  141.79   19.00
   2   0  10  177.98   20.40
   2   0  10  142.69   22.40
   2   0  10  197.08   24.10
   2   0  10  174.48   17.40
  -3   0 -10  157.38   21.80
  -3   0 -10   83.49   13.50
   3   0  10  119.89   15.90
   3   0  10  105.19   14.60
   3   0  10  103.99   17.80
  -4   0 -10    2.90   12.70
  -4   0 -10   -6.10    7.40
   4   0  10   -4.20    7.00
   4   0  10    1.70    8.90
   4   0  10    4.10   11.30
  -5   0 -10   96.89   19.80
   5   0  10   84.69   17.60
   5   0  10  103.19   17.20
   5   0  10   96.29   17.10
  -6   0 -10   -0.90   14.40
   6   0  10   19.50   12.50
   6   0  10    1.10   11.20
   6   0  10   20.20   13.80
  -7   0 -10    4.60   16.40
   7   0  10   13.30   24.40
   7   0  10  -10.90   10.20
   7   0  10   -2.70   11.70
  -8   0 -10   31.00   20.80
   8   0  10   35.00   16.90
   8   0  10   40.90   16.00
   7  -1 -10   11.00   12.40
  -7   1  10    2.60   25.50
   6  -1 -10   12.00    9.80
  -6   1  10  -11.30   21.00
   5  -1 -10  107.39   13.40
  -5   1  10   69.99   11.60
  -5   1  10   93.59   26.80
   4  -1 -10   22.00    6.40
  -4   1  10  -18.80   30.00
  -4   1  10   23.70    7.20
   3  -1 -10  124.19   13.70
  -3   1  10  135.59   26.10
  -3   1  10  124.49   13.60
   2  -1 -10  312.67   28.60
  -2   1  10  315.57   28.50
  -2   1  10  318.47   38.80
   1  -1 -10   19.00    6.90
  -1   1  10   11.90   12.00
  -1   1  10   11.10    7.10
  -1   1  10    9.60   13.00
   0  -1 -10  721.93   63.29
   0   1  10  812.52   67.79
   0   1  10  700.43   67.79
  -1  -1 -10   56.89   10.70
  -1  -1 -10   60.99    8.50
   1   1  10   83.39    9.30
   1   1  10   65.39   11.90
   1   1  10  100.69   16.10
   1   1  10   51.89   14.00
  -2  -1 -10    0.20    6.40
  -2  -1 -10    2.50    5.40
   2   1  10    9.00    7.50
   2   1  10   -1.20    9.90
   2   1  10    3.50    5.60
   2   1  10   -2.10    8.90
  -3  -1 -10  372.46   35.50
  -3  -1 -10  313.57   31.60
  -3  -1 -10  301.97   33.90
   3   1  10  348.97   33.80
   3   1  10  334.27   33.00
   3   1  10  334.07   31.60
  -4  -1 -10   42.40   12.10
  -4  -1 -10   98.49   16.50
   4   1  10   69.49   13.70
   4   1  10   64.39   14.30
   4   1  10   41.90   11.90
  -5  -1 -10    6.00   12.30
   5   1  10   -1.80   10.20
   5   1  10   18.70    9.30
   5   1  10   13.30   10.70
  -6  -1 -10  243.58   30.70
   6   1  10  279.47   31.70
   6   1  10  253.47   29.80
   6   1  10  246.48   31.60
  -7  -1 -10  -16.40   16.10
   7   1  10    0.80   11.90
   7   1  10   17.30   14.20
   7   1  10  -15.30   11.40
  -8  -1 -10   -0.20   19.40
   8   1  10   17.60   16.40
   8   1  10   27.80   14.80
   7  -2 -10   -0.10   12.10
  -7   2  10   -2.90   25.70
   6  -2 -10   -3.00    9.40
  -6   2  10    8.10   24.30
   5  -2 -10   63.59   11.90
  -5   2  10   51.99   23.00
  -5   2  10   57.69   10.50
   4  -2 -10  112.79   13.20
  -4   2  10  142.39   35.70
  -4   2  10   92.49   12.30
   3  -2 -10   51.79    7.10
   3  -2 -10   61.09    7.60
  -3   2  10   60.99   20.10
  -3   2  10   41.60    6.50
  -3   2  10   46.50    7.00
   2  -2 -10  766.02   66.69
   2  -2 -10  824.42   74.79
  -2   2  10  838.72   74.89
  -2   2  10  798.12   66.89
   1  -2 -10   -1.90   13.30
   1  -2 -10    7.80    6.30
  -1   2  10    4.30    6.20
  -1   2  10   14.30   12.20
   0  -2 -10  395.16   35.30
   0  -2 -10  354.66   32.90
   0  -2 -10  400.86   32.90
   0   2  10  446.46   41.50
   0   2  10  393.26   35.50
   0   2  10  428.26   41.70
  -1  -2 -10  221.58   23.10
  -1  -2 -10  199.58   21.40
   1   2  10  204.98   23.10
   1   2  10  255.77   26.20
   1   2  10  265.87   27.40
   1   2  10  224.68   21.00
  -2  -2 -10   17.00    7.80
  -2  -2 -10   19.40    6.90
   2   2  10   40.10   10.80
   2   2  10   18.60    8.50
   2   2  10   21.40    6.80
   2   2  10   26.30    9.90
  -3  -2 -10  262.17   26.90
  -3  -2 -10  241.58   27.10
   3   2  10  273.17   27.80
   3   2  10  289.97   27.00
   3   2  10  278.07   27.80
  -4  -2 -10   45.90   12.00
   4   2  10   65.59   12.30
   4   2  10   59.19   10.90
   4   2  10   56.09   12.60
  -5  -2 -10    3.20   10.40
   5   2  10   10.30    9.20
   5   2  10    8.00   10.40
   5   2  10    0.60    8.60
  -6  -2 -10   70.39   15.00
   6   2  10   88.39   17.20
  -7  -2 -10   43.20   14.10
   7   2  10   71.29   16.20
   7   2  10   71.39   17.40
   8   2  10   30.20   14.80
   8   2  10   16.50   15.00
   7  -3 -10   53.09   15.20
  -7   3  10   75.09   32.00
   6  -3 -10   -2.70    9.40
  -6   3  10   -4.60   20.20
   5  -3 -10  155.88   18.50
  -5   3  10  143.79   30.30
  -5   3  10  127.69   17.60
   4  -3 -10   62.59   10.10
  -4   3  10   76.59   23.10
  -4   3  10   38.00    8.30
   3  -3 -10    3.90    5.30
  -3   3  10    0.70   14.90
  -3   3  10   10.60    4.90
   2  -3 -10  102.19   21.20
   2  -3 -10  146.69   14.20
   2  -3 -10  122.99   12.80
  -2   3  10  141.39   23.70
  -2   3  10  106.89   13.70
   1  -3 -10  230.28   21.20
   1  -3 -10  240.78   21.00
   1  -3 -10  223.38   23.10
   1  -3 -10  316.37   32.40
  -1   3  10  237.78   23.40
  -1   3  10  250.77   29.70
   0  -3 -10   41.50    6.30
   0  -3 -10   20.00    5.20
   0  -3 -10   23.90   11.30
   0  -3 -10   26.30    7.30
   0   3  10   44.10    9.00
   0   3  10   39.40   12.70
  -1  -3 -10   81.39   12.60
  -1  -3 -10   99.69   12.20
   1   3  10  109.19   12.10
   1   3  10   94.69   14.00
   1   3  10   91.29   16.40
   1   3  10  113.89   15.90
  -2  -3 -10  172.68   19.10
  -2  -3 -10  205.48   22.80
   2   3  10  160.98   20.40
   2   3  10  172.38   21.50
   2   3  10  180.58   20.70
   2   3  10  177.58   18.80
  -3  -3 -10   28.90    9.70
  -3  -3 -10   45.90   10.20
   3   3  10   29.60    8.20
   3   3  10   40.00    8.60
   3   3  10   51.39    9.80
   3   3  10   55.59   11.90
  -4  -3 -10  203.88   24.90
   4   3  10  212.18   20.70
   4   3  10  200.18   20.30
   4   3  10  229.68   24.50
   4   3  10  233.28   25.30
   5   3  10   12.70    9.90
   5   3  10   -3.30    9.00
   6   3  10   50.29   14.00
   7   3  10   21.10   13.10
   7   3  10  -17.10   10.60
   8   3  10   -7.70   13.90
   8   3  10  -18.40   12.00
   7  -4 -10   77.29   22.80
  -7   4  10   28.80   27.30
   6  -4 -10   72.79   15.10
  -6   4  10   83.49   28.90
   5  -4 -10  161.58   19.50
  -5   4  10  125.79   18.60
  -5   4  10  147.69   31.10
   4  -4 -10  168.48   19.60
  -4   4  10  185.98   19.60
  -4   4  10  198.68   32.80
   3  -4 -10    3.10    4.10
   3  -4 -10    6.80    5.90
  -3   4  10    1.70    4.90
  -3   4  10    2.20    4.50
  -3   4  10   10.50   16.50
   2  -4 -10   45.10    8.30
   2  -4 -10   60.59    8.20
   2  -4 -10   61.99   16.60
  -2   4  10   40.00    8.60
  -2   4  10   88.79   18.90
   1  -4 -10  123.09   14.10
   1  -4 -10  163.58   23.20
   1  -4 -10  128.49   13.80
   1  -4 -10  128.79   15.20
  -1   4  10  157.98   23.40
  -1   4  10  165.68   16.70
   0  -4 -10   19.10   11.10
   0  -4 -10   28.80    7.60
   0  -4 -10   18.00    5.50
   0   4  10   23.20   10.70
   0   4  10   23.00    7.60
  -1  -4 -10   13.70    7.50
  -1  -4 -10   18.30    6.20
   1   4  10   14.60   10.30
   1   4  10   22.90    8.30
   1   4  10   29.70   10.60
  -2  -4 -10  167.78   17.80
  -2  -4 -10  135.89   17.90
   2   4  10  149.99   17.80
   2   4  10  163.18   19.20
   2   4  10  155.18   17.20
   2   4  10  130.69   16.90
  -3  -4 -10   38.10   10.50
  -3  -4 -10   26.70    9.80
   3   4  10   65.79   11.50
   3   4  10   43.80   10.80
   4   4  10  215.08   25.70
   4   4  10  246.58   27.10
   5   4  10   14.90   10.50
   5   4  10   61.39   14.00
   6   4  10   51.79   15.30
   7   4  10   22.30   13.50
   7   4  10   15.30   13.80
   8   4  10  -19.80   12.00
   8   4  10  -11.40   13.70
   7  -5 -10   38.60   14.50
  -7   5  10    6.00   26.60
   6  -5 -10   65.49   15.10
  -6   5  10   57.69   25.40
   5  -5 -10   17.40    9.70
  -5   5  10   15.50   19.90
  -5   5  10    9.60    8.90
   4  -5 -10  264.97   27.00
  -4   5  10  232.78   25.90
  -4   5  10  388.46   42.50
   3  -5 -10  139.79   16.30
   3  -5 -10  128.89   14.30
  -3   5  10  150.38   16.40
  -3   5  10  179.68   28.60
  -3   5  10  139.49   14.70
   2  -5 -10   68.89   17.10
   2  -5 -10   99.99   11.40
   2  -5 -10   75.49   10.60
  -2   5  10   79.29   19.40
  -2   5  10   80.69   10.80
  -2   5  10   78.79   10.60
   1  -5 -10  797.12   75.49
   1  -5 -10  880.11   70.79
   1  -5 -10  855.21   71.29
   1  -5 -10  838.42   70.89
  -1   5  10  877.61   76.09
  -1   5  10  821.72   71.19
   0  -5 -10   11.80    6.80
   0  -5 -10   15.50    5.90
   0  -5 -10   15.90   10.70
   0  -5 -10   27.70    6.70
   0   5  10   17.90    9.60
   0   5  10   33.90   12.10
  -1  -5 -10 1173.38  102.59
  -1  -5 -10 1303.27  101.79
  -1  -5 -10 1199.98  101.49
  -1  -5 -10 1178.88  101.89
   1   5  10 1253.57  102.19
   1   5  10 1205.08  102.39
  -2  -5 -10   75.39   11.70
  -2  -5 -10   75.49   12.60
   2   5  10   71.79   13.20
   2   5  10   63.89    9.90
   2   5  10   93.69   16.40
   2   5  10   64.69   10.70
  -3  -5 -10    8.90    7.60
  -3  -5 -10   14.60    8.40
   3   5  10   15.10    8.30
   3   5  10   12.20    7.10
   4   5  10   61.29   12.80
   4   5  10   49.50   13.00
   5   5  10  244.88   28.80
   5   5  10  252.87   29.40
   6   5  10   20.60   12.40
   6   5  10    9.40   15.80
   7   5  10  204.58   26.80
   7   5  10  182.68   27.50
   8   5  10    2.80   14.70
   8   5  10    3.50   14.90
   7  -6 -10   18.90   14.50
  -7   6  10   42.30   27.80
   6  -6 -10   88.69   17.20
  -6   6  10  119.99   31.60
   5  -6 -10  -11.70    7.90
  -5   6  10    1.80   19.40
   4  -6 -10   63.89   11.80
  -4   6  10   86.99   27.30
  -4   6  10   37.30   10.10
   3  -6 -10  155.08   19.50
   3  -6 -10   99.19   17.80
  -3   6  10  196.58   29.80
  -3   6  10  108.39   15.20
  -3   6  10  154.78   15.10
   2  -6 -10   63.89   10.10
   2  -6 -10   56.79   10.00
   2  -6 -10   48.60   15.10
  -2   6  10   74.69   18.70
  -2   6  10   54.19    9.00
  -2   6  10   49.90    9.40
   1  -6 -10  339.67   32.10
   1  -6 -10  359.36   36.60
   1  -6 -10  366.26   31.50
  -1   6  10  342.67   32.10
  -1   6  10  318.97   37.10
   0  -6 -10  641.94   51.79
   0  -6 -10  592.74   51.69
   0  -6 -10  584.54   54.49
   0  -6 -10  523.75   51.69
   0   6  10  628.64   54.89
   0   6  10  623.64   52.29
  -1  -6 -10   34.90    8.50
  -1  -6 -10   32.70    8.10
  -1  -6 -10   28.30    9.50
  -1  -6 -10   30.70   12.70
   1   6  10   30.60    9.20
   1   6  10   11.60    8.30
  -2  -6 -10  801.92   67.19
  -2  -6 -10  816.52   66.89
   2   6  10  747.03   66.39
   2   6  10  742.53   64.59
   2   6  10  740.83   66.89
   2   6  10  793.32   64.49
  -3  -6 -10   55.09   11.30
   3   6  10   45.60   11.00
   3   6  10   56.49   12.40
   4   6  10  107.59   17.20
   4   6  10   94.89   16.60
   5   6  10   34.40   12.30
   5   6  10   65.69   14.50
   6   6  10   16.70   11.50
   6   6  10   -3.50   10.70
   7   6  10    3.10   13.40
   7   6  10   25.70   13.20
   8   6  10   32.50   16.30
   8   6  10   29.70   15.70
   7  -7 -10   -2.90   13.30
  -7   7  10    8.00   24.70
   6  -7 -10   53.99   25.00
  -6   7  10  118.59   31.00
   5  -7 -10  201.48   23.50
  -5   7  10  141.79   31.10
   4  -7 -10  182.48   20.50
  -4   7  10  126.89   18.10
   3  -7 -10  439.66   38.00
   3  -7 -10  416.26   36.30
  -3   7  10  335.57   37.20
  -3   7  10  495.05   48.30
   2  -7 -10    6.10    6.90
   2  -7 -10   19.50   13.30
   2  -7 -10   18.00    7.20
  -2   7  10   20.40   13.80
  -2   7  10   11.20    5.90
  -2   7  10   15.20    7.70
   1  -7 -10  144.59   17.60
   1  -7 -10  149.79   23.30
   1  -7 -10  137.39   17.10
  -1   7  10  141.99   16.80
  -1   7  10  198.08   26.00
  -1   7  10  182.08   24.60
   0  -7 -10  359.26   35.00
   0  -7 -10  373.16   37.80
   0  -7 -10  390.36   35.20
   0  -7 -10  413.56   35.60
   0   7  10  383.16   38.10
   0   7  10  370.96   35.40
  -1  -7 -10   79.29   14.30
  -1  -7 -10   78.39   13.40
  -1  -7 -10   97.29   13.60
  -1  -7 -10   94.69   14.10
   1   7  10   89.29   13.80
   1   7  10  108.19   14.70
  -2  -7 -10  268.77   27.30
  -2  -7 -10  267.37   27.30
  -2  -7 -10  238.98   29.20
   2   7  10  270.37   24.30
   2   7  10  270.07   27.50
  -3  -7 -10  473.55   42.70
   3   7  10  463.35   42.50
   3   7  10  416.36   41.90
   4   7  10   25.00   11.30
   4   7  10    3.30    9.00
   5   7  10  208.48   31.70
   5   7  10  197.28   25.50
   6   7  10   71.39   16.10
   6   7  10   45.50   14.50
   7   7  10   40.80   16.10
   7   7  10   34.00   15.90
   8   7  10   41.60   17.20
   8   7  10   30.90   16.30
   6  -8 -10  -10.90   10.20
  -6   8  10   12.70   21.40
   5  -8 -10   82.59   15.80
  -5   8  10   92.49   27.80
   4  -8 -10    9.30    6.40
   4  -8 -10   20.00    9.00
   4  -8 -10   11.40    7.90
  -4   8  10   16.70   19.10
   3  -8 -10  425.86   40.20
   3  -8 -10  507.45   42.30
  -3   8  10  480.35   50.39
  -3   8  10  430.36   41.60
   2  -8 -10  182.38   21.40
   2  -8 -10  203.28   22.20
  -2   8  10  277.17   33.40
  -2   8  10  203.88   26.40
   1  -8 -10  121.69   16.30
   1  -8 -10  151.08   16.80
   1  -8 -10  148.99   24.50
  -1   8  10  153.18   17.20
  -1   8  10   79.39   14.20
  -1   8  10  146.89   23.10
   0  -8 -10  796.82   65.89
   0  -8 -10  615.74   69.39
   0  -8 -10  829.82   65.99
   0  -8 -10  760.02   68.09
   0   8  10  753.52   65.89
   0   8  10  768.72   67.99
  -1  -8 -10   50.49   11.20
  -1  -8 -10   41.20   11.40
  -1  -8 -10   39.50    9.90
   1   8  10   48.90   11.40
   1   8  10   36.20   10.30
  -2  -8 -10  157.08   15.50
  -2  -8 -10   96.89   16.80
  -2  -8 -10  106.49   17.40
   2   8  10  117.69   14.70
   2   8  10  144.59   18.70
   3   8  10  248.58   27.40
   3   8  10  245.08   27.50
   4   8  10   17.70   10.90
   4   8  10   -1.10    9.30
   5   8  10   17.60   10.80
   6   8  10  254.87   33.00
   6   8  10  303.57   33.70
   7   8  10    2.80   12.70
   7   8  10   -4.00   13.00
   6  -9 -10  143.49   22.90
  -6   9  10  177.28   54.99
   5  -9 -10   45.40   20.10
  -5   9  10   30.00   22.10
   4  -9 -10   79.59   11.60
   4  -9 -10   82.39   14.40
   4  -9 -10   72.99   11.70
  -4   9  10   68.79   22.30
   3  -9 -10  105.89   15.90
   3  -9 -10  122.79   18.10
   3  -9 -10  115.49   14.80
  -3   9  10  127.09   25.70
   2  -9 -10   35.80    9.00
   2  -9 -10   36.40    9.50
  -2   9  10   19.40    8.90
  -2   9  10   55.89   17.50
  -2   9  10    9.20    7.00
   1  -9 -10   47.80   10.00
   1  -9 -10   10.80   12.30
   1  -9 -10   31.50   10.50
  -1   9  10   11.70    8.90
  -1   9  10   30.70    8.50
  -1   9  10   31.00   13.70
   0  -9 -10    2.20    7.00
   0  -9 -10   14.80    8.80
   0  -9 -10   17.50    8.10
   0  -9 -10    4.70    9.50
   0   9  10   16.10    9.00
   0   9  10    8.00   11.00
  -1  -9 -10   31.30   11.90
  -1  -9 -10   31.20    9.80
  -1  -9 -10   15.50   10.20
  -1  -9 -10   11.80    8.50
   1   9  10   37.60   10.50
   1   9  10   42.10   11.40
  -2  -9 -10   15.10    7.80
  -2  -9 -10   -3.20    7.50
   2   9  10    4.70    6.90
   2   9  10    7.70    9.40
  -3  -9 -10  101.39   17.90
   3   9  10  165.58   20.50
   4   9  10  121.59   19.10
   4   9  10  136.09   19.70
   5   9  10   15.30   12.80
   5   9  10   17.50   11.70
   6   9  10   37.30   14.40
   6   9  10   92.79   18.00
   7   9  10   39.70   17.10
   6 -10 -10   -7.40   11.30
  -6  10  10  -16.90   21.60
   5 -10 -10  149.59   23.30
   5 -10 -10  191.78   18.70
   5 -10 -10  165.28   18.90
  -5  10  10  158.08   33.10
   4 -10 -10   60.19   11.50
   4 -10 -10   88.39   15.50
  -4  10  10   48.60   22.60
   3 -10 -10   84.29   15.20
   3 -10 -10   90.79   13.30
   3 -10 -10  111.19   16.70
  -3  10  10  101.09   25.10
   2 -10 -10  254.37   25.90
   2 -10 -10  225.48   26.30
  -2  10  10  233.88   33.60
  -2  10  10  261.37   26.20
   1 -10 -10  118.19   17.20
   1 -10 -10  116.99   17.30
   1 -10 -10  123.89   23.10
  -1  10  10  159.18   24.60
  -1  10  10  141.99   18.30
   0 -10 -10  430.96   37.90
   0 -10 -10  362.36   40.10
   0  10  10  375.86   40.20
   0  10  10  397.96   37.80
  -1 -10 -10  531.45   51.79
  -1 -10 -10  574.94   51.69
   1  10  10  575.94   51.79
   1  10  10  582.84   51.89
  -2 -10 -10   31.20   10.90
  -2 -10 -10   10.30    9.90
   2  10  10   15.90   11.30
   2  10  10   31.80    9.80
  -3 -10 -10  855.51   74.59
   3  10  10  806.62   73.39
   5  10  10   80.39   16.20
   5  10  10   43.30   14.90
   6  10  10   50.29   16.10
   6  10  10   35.20   15.30
   7  10  10    4.50   14.60
   7  10  10    1.70   12.60
   6 -11 -10    9.30   13.00
  -6  11  10    1.20   24.40
   5 -11 -10   44.40   14.70
   5 -11 -10   71.89   16.10
  -5  11  10   18.60   23.30
   4 -11 -10  138.09   20.50
   4 -11 -10  128.19   16.60
   4 -11 -10   97.59   16.70
  -4  11  10  125.99   28.50
   3 -11 -10   -8.20    8.10
   3 -11 -10   10.30    8.40
   3 -11 -10    5.00    8.30
   2 -11 -10  419.66   44.70
   2 -11 -10  406.96   41.20
  -2  11  10  487.25   48.80
   1 -11 -10   15.90    8.40
  -1  11  10   34.40   15.40
  -1  11  10   20.90    9.60
   0 -11 -10  207.58   25.00
   0  11  10  213.78   25.20
   0  11  10  193.48   27.70
  -1 -11 -10  206.88   25.10
  -1 -11 -10  192.28   25.70
   1  11  10  208.38   24.90
   1  11  10  190.78   24.80
  -2 -11 -10   58.89   13.70
  -2 -11 -10   58.09   14.80
   2  11  10  102.59   17.40
   2  11  10   99.99   14.80
  -3 -11 -10    8.60   10.10
  -3 -11 -10   23.20    7.10
   3  11  10   23.30   13.60
  -4 -11 -10  485.85   49.30
   4  11  10  500.35   48.10
   5  11  10   23.50   14.10
   6  11  10   71.19   18.10
   6  11  10   74.89   18.20
   7  11  10   95.39   21.40
   7  11  10  109.39   22.40
   5 -12 -10    6.80    9.70
   5 -12 -10   30.70   13.40
  -5  12  10   -3.10   22.50
   4 -12 -10  126.89   17.50
   4 -12 -10  105.89   19.00
  -4  12  10  115.39   29.80
   3 -12 -10   74.39   15.00
   3 -12 -10   73.19   13.70
  -3  12  10   64.39   22.10
   2 -12 -10  197.28   25.80
   2 -12 -10  212.38   26.80
  -2  12  10  296.87   37.20
   1 -12 -10  328.27   35.90
  -1  12  10  367.26   36.40
  -1  12  10  409.46   42.20
   0 -12 -10   12.60    8.40
   0 -12 -10    6.60   12.40
   0  12  10   19.90   10.10
   0  12  10   14.00   12.90
  -1 -12 -10  366.96   35.80
  -1 -12 -10  305.77   36.60
   1  12  10  348.77   35.40
   1  12  10  353.56   36.30
  -2 -12 -10  116.49   18.20
  -2 -12 -10  116.79   20.10
   2  12  10  129.59   19.90
  -3 -12 -10    4.50    9.90
  -3 -12 -10   14.50    9.40
   3  12  10    7.80   10.60
  -4 -12 -10  161.98   24.70
   4  12  10  143.29   22.70
  -5 -12 -10   13.50   12.50
   5  12  10   25.00   14.30
   6  12  10   -3.60   13.90
   5 -13 -10   -1.10   11.40
   5 -13 -10    1.80    9.90
  -5  13  10   -9.80   22.50
   4 -13 -10  228.98   25.70
   4 -13 -10  196.48   28.00
  -4  13  10  182.38   37.20
   3 -13 -10   38.40   12.30
   3 -13 -10   36.10   11.20
  -3  13  10   23.20   17.40
   2 -13 -10   -5.40    7.60
   2 -13 -10    4.30    8.50
   1 -13 -10  143.19   22.70
  -1  13  10  138.19   20.90
  -1  13  10  147.99   26.10
   0  13  10  333.77   34.20
   0  13  10  291.57   36.50
  -1 -13 -10    9.80   15.00
  -1 -13 -10    8.30   10.30
   1  13  10   15.00   12.00
   1  13  10    6.90   10.80
  -2 -13 -10  305.77   32.90
  -2 -13 -10  278.87   31.60
   2  13  10  307.87   34.40
   2  13  10  249.18   31.80
  -3 -13 -10   45.30   14.70
  -3 -13 -10   28.10   11.80
   3  13  10   25.20   12.30
   3  13  10   23.40   12.40
  -4 -13 -10   44.40   15.20
   4  13  10   27.60   12.50
  -5 -13 -10   34.20   15.10
   5  13  10   32.30   14.10
  -6 -13 -10    8.10   14.30
   5 -14 -10   58.49   20.40
   5 -14 -10   53.19   14.70
  -5  14  10   40.70   25.90
   4 -14 -10   44.70   13.00
   4 -14 -10   45.30   15.50
  -4  14  10   65.09   25.00
   3 -14 -10  177.68   25.60
   3 -14 -10  171.68   33.10
  -3  14  10  175.08   32.40
   2 -14 -10    4.60    8.50
   2 -14 -10  -15.10   12.40
  -2  14  10    9.20   15.50
   1 -14 -10  135.59   22.30
   1 -14 -10  182.88   24.10
  -1  14  10  208.78   31.20
   0 -14 -10  142.49   21.60
   0  14  10  139.89   24.80
   0  14  10  151.18   23.10
  -1 -14 -10   15.30   14.10
  -1 -14 -10   45.70   12.70
   1  14  10   61.69   16.80
   1  14  10   35.40   13.50
  -2 -14 -10   26.60   11.20
  -2 -14 -10   19.60   12.70
   2  14  10   34.50   15.20
   2  14  10    5.30   10.70
  -3 -14 -10   80.79   16.50
  -3 -14 -10  111.89   20.90
   3  14  10   93.09   18.50
   3  14  10   79.49   16.40
  -4 -14 -10   -6.10   11.20
  -4 -14 -10   16.00    9.90
   4  14  10   18.60   13.00
   5  14  10   91.99   20.60
   4 -15 -10   -1.50   10.30
   3 -15 -10  166.58   23.30
   3 -15 -10  138.29   23.50
  -3  15  10  168.08   33.50
   2 -15 -10  129.39   22.30
   2 -15 -10  176.88   24.80
  -2  15  10  172.28   31.10
   1 -15 -10   84.49   17.20
   1 -15 -10   73.89   17.20
  -1  15  10   95.39   22.70
   0 -15 -10  100.99   18.90
   0  15  10  107.29   22.40
  -1 -15 -10   51.49   14.30
   1  15  10   76.79   19.60
   1  15  10   59.39   15.80
  -2 -15 -10  123.59   20.70
  -2 -15 -10   80.29   19.70
   2  15  10   86.89   19.10
   2  15  10   77.59   20.30
  -3 -15 -10  119.99   22.00
   3  15  10   95.39   19.90
   3  15  10  140.69   29.10
  -4 -15 -10    5.70   14.00
  -4 -15 -10    6.70   15.40
   4  15  10   -0.30   13.00
  -5 -15 -10   36.10   17.90
   5  15  10  113.09   21.80
   3 -16 -10   56.79   15.80
  -3  16  10   58.99   24.40
   2 -16 -10  167.98   24.80
   2 -16 -10  151.68   24.50
  -2  16  10  154.18   31.90
   1 -16 -10    4.60    8.90
   1 -16 -10   31.60   13.20
  -1  16  10   14.80   17.50
   0 -16 -10  161.68   25.40
   0 -16 -10  182.48   26.20
  -1 -16 -10  107.59   20.50
   1  16  10  122.99   25.00
   1  16  10   74.99   17.50
  -2 -16 -10    4.20   11.30
   2  16  10    1.40   16.70
   2  16  10   -8.20   10.50
   3  16  10   92.79   22.10
  -4 -16 -10   49.99   16.20
   4  16  10   55.19   18.10
   2 -17 -10  158.48   26.10
   2 -17 -10  158.58   25.80
  -2  17  10  191.18   34.50
   1 -17 -10   19.20   12.80
  -1  17  10    7.90   17.70
   0 -17 -10   95.79   21.80
   0 -17 -10   97.29   20.10
   0  17  10  110.69   27.10
  -1 -17 -10   72.99   22.40
  -2 -17 -10    2.60   11.20
   2  17  10    6.40   18.20
  -3 -17 -10   36.90   15.60
   3  17  10   35.60   16.30
   3  17  10   42.70   20.60
   1 -18 -10  143.29   23.60
   1 -18 -10   79.39   18.90
  -1  18  10  117.29   29.40
   0 -18 -10    2.40   11.10
   0 -18 -10   10.20   11.60
   0  18  10   16.70   20.40
  -1 -18 -10  145.99   25.30
  -1 -18 -10  124.89   22.90
   1  18  10  137.99   31.00
  -1 -10  11   41.70   34.70
  -1 -10  11   29.00   22.10
   0 -10  11   12.40   27.00
  -1  10 -11  -11.20   23.60
   1 -10  11    9.10   14.00
   1 -10  11   15.10   10.40
  -2  10 -11  -27.50   23.40
   2 -10  11    4.00   10.20
   2 -10  11    9.50   12.80
  -3  10 -11   35.90   28.70
   3 -10  11   33.80   16.10
   3 -10  11   42.40   14.40
  -2  -9  11  104.79   20.30
  -2  -9  11  143.19   37.60
  -1  -9  11  104.79   35.70
  -1  -9  11   60.39   16.30
   0  -9  11  126.19   21.60
   0  -9  11  249.58   46.50
   0  -9  11  106.79   15.50
  -1   9 -11   73.39   30.00
   1  -9  11  103.79   15.30
   1  -9  11   96.19   19.70
  -2   9 -11   10.80   25.60
   2  -9  11    3.20    9.00
   2  -9  11   -6.70   11.60
  -3   9 -11   14.60   26.30
   3  -9  11   39.40   21.50
   4  -9  11   24.30   13.30
   4  -9  11   22.00   14.60
  -3  -8  11   -7.30   24.30
  -3  -8  11   12.10   13.30
  -2  -8  11   32.60   13.70
  -1  -8  11   40.30   14.20
  -1  -8  11   46.30   28.00
   0  -8  11   -1.60   10.90
   0  -8  11   -0.40    6.60
   0  -8  11   24.10   23.30
   0  -8  11  -10.70   10.80
  -1   8 -11   88.39   29.70
   1  -8  11   93.59   18.40
   1  -8  11   96.39   14.40
  -2   8 -11   31.70   25.20
  -2   8 -11   10.30   13.10
   2  -8  11   25.10   10.10
   2  -8  11   24.20   13.00
  -3   8 -11   22.70   24.30
   3  -8  11   14.60   10.40
   3  -8  11   27.50   13.90
  -4   8 -11  119.49   34.90
   4  -8  11   86.99   17.80
  -5   8 -11  -37.00   23.10
   5  -8  11    2.80   11.60
   5  -8  11    4.10   13.60
  -4  -7  11   82.59   33.20
  -4  -7  11   74.99   17.70
  -3  -7  11  -13.00   15.70
  -2  -7  11   75.79   16.30
  -2  -7  11  144.19   33.90
  -1  -7  11   70.59   26.90
  -1  -7  11   50.09   14.10
   0  -7  11   -0.40    5.70
   0  -7  11  -13.20    9.60
   0  -7  11  -34.90   18.90
  -1   7 -11   86.19   27.10
  -1   7 -11   42.90   10.30
   1  -7  11   49.70   14.20
   1  -7  11   39.50   11.20
  -2   7 -11   93.09   29.10
  -2   7 -11   79.39   13.60
   2  -7  11   82.49   14.50
   2  -7  11  101.79   18.10
  -3   7 -11   -3.60   20.70
   3  -7  11   18.20    9.70
   3  -7  11    0.20   11.60
  -4   7 -11  177.28   37.80
   4  -7  11  163.28   24.50
   4  -7  11  163.78   25.00
  -5   7 -11   40.60   25.60
   5  -7  11   37.70   14.00
   6  -7  11   23.50   16.30
  -4  -6  11   28.70   12.90
  -4  -6  11    9.10   25.50
  -3  -6  11   63.19   29.00
  -3  -6  11   62.99   15.30
  -2  -6  11    5.30   20.80
  -2  -6  11    2.30   10.40
  -1  -6  11  379.16   50.69
  -1  -6  11  354.36   37.40
   0  -6  11    9.60    5.20
   0  -6  11    6.40   15.00
   0  -6  11   -6.70   19.50
  -1   6 -11  153.38   17.40
  -1   6 -11   92.89   30.00
   1  -6  11  149.19   22.00
   1  -6  11  169.08   17.80
  -2   6 -11   63.99   24.90
  -2   6 -11   53.59   11.10
   2  -6  11   67.69   12.40
   2  -6  11   73.19   15.80
  -3   6 -11   28.00   22.30
   3  -6  11   32.90   10.20
   3  -6  11   39.60   13.30
  -4   6 -11   23.70   22.60
   4  -6  11   10.40   10.10
   4  -6  11   39.50   13.90
  -5   6 -11  105.79   30.00
   5  -6  11   76.49   19.30
   5  -6  11   81.89   17.40
  -6   6 -11  -17.00   23.10
   6  -6  11    1.10   18.00
   6  -6  11   -2.70   12.80
  -5  -5  11   -7.40   23.20
  -4  -5  11   12.10   10.40
  -4  -5  11  -25.80   21.20
  -3  -5  11   31.10   11.80
  -3  -5  11   12.20   20.80
  -2  -5  11   -2.80   10.10
  -2  -5  11    6.00   19.10
  -1  -5  11    9.40   20.50
  -1  -5  11   32.00   11.70
   0  -5  11  444.06   56.89
   0  -5  11  379.36   38.90
  -1   5 -11   35.10   22.90
  -1   5 -11   21.90    6.90
   1  -5  11   28.10   11.30
   1  -5  11   13.30    6.70
  -2   5 -11  389.26   36.80
  -2   5 -11  499.75   51.99
   2  -5  11  406.26   37.00
   2  -5  11  361.46   39.50
  -3   5 -11   49.20   12.00
  -3   5 -11   70.69   24.40
   3  -5  11   79.29   13.80
   3  -5  11   81.69   16.10
   4  -5  11    0.20    8.50
   4  -5  11   -2.80    9.60
  -5   5 -11   88.49   28.30
   5  -5  11   81.39   18.50
   5  -5  11  101.29   18.90
  -6   5 -11    8.90   22.40
   6  -5  11   -4.80   14.30
   6  -5  11   14.50   12.50
  -5  -4  11   44.70   27.50
  -4  -4  11   36.90   25.30
  -4  -4  11   30.80   10.90
  -3  -4  11   76.79   15.40
  -3  -4  11   92.79   14.40
  -3  -4  11   94.79   28.00
  -2  -4  11   19.00   10.60
  -2  -4  11   25.40   20.00
  -1  -4  11   97.29   16.20
   0  -4  11  403.66   39.30
   0  -4  11  406.26   48.60
  -1   4 -11  247.98   22.90
   1  -4  11  263.07   35.20
   1  -4  11  180.28   23.30
   1  -4  11  151.58   18.20
  -2   4 -11  202.18   21.70
  -2   4 -11  222.08   34.90
   2  -4  11  201.38   21.80
   2  -4  11  214.88   25.80
  -3   4 -11  264.37   29.60
  -3   4 -11  328.67   43.50
   3  -4  11  306.87   29.80
   3  -4  11  298.17   32.00
  -4   4 -11    8.60   18.80
   4  -4  11    4.50   10.60
   4  -4  11   20.80   10.30
  -5   4 -11   66.59   23.80
   5  -4  11   54.79   14.70
   5  -4  11   40.60   14.90
   6  -4  11   39.00   14.20
   6  -4  11   71.19   17.60
  -7   4 -11  -10.70   22.50
  -5  -3  11    1.70   26.20
  -4  -3  11   40.80   23.10
  -4  -3  11   22.60    9.30
  -4  -3  11   50.69   10.70
  -3  -3  11  139.89   30.50
  -3  -3  11  134.39   17.20
   2   3 -11  276.37   29.30
  -2  -3  11  280.17   40.60
  -2  -3  11  275.87   28.40
   1   3 -11   23.80   11.10
  -1  -3  11   46.90   11.80
  -1  -3  11   67.79   22.90
   0  -3  11  377.16   45.50
   0  -3  11  346.67   35.00
  -1   3 -11   30.70    6.40
   1  -3  11   47.90   12.00
   1  -3  11   51.89    7.60
   1  -3  11   53.59   20.60
  -2   3 -11   -3.70    5.70
  -2   3 -11   28.50   19.20
   2  -3  11   13.40    6.30
   2  -3  11    2.90    8.70
  -3   3 -11   63.29   20.40
  -3   3 -11   26.30   12.10
   3  -3  11   37.30   10.20
   3  -3  11   23.90   11.00
  -4   3 -11  311.57   40.20
   4  -3  11  272.47   29.40
   4  -3  11  276.97   31.20
  -5   3 -11   -9.80   16.80
   5  -3  11   17.90   12.20
   5  -3  11   13.00   12.80
  -6   3 -11   51.59   23.20
   6  -3  11   80.79   17.20
   6  -3  11   78.99   18.50
  -7   3 -11   -9.60   23.60
   7  -3  11    4.20   13.30
   7  -3  11   -1.60   15.40
  -6  -2  11   25.80   26.20
  -5  -2  11    8.30   20.40
  -4  -2  11    4.60   20.50
  -4  -2  11    8.20    7.30
  -4  -2  11   28.60   10.20
  -3  -2  11    8.10   11.50
  -3  -2  11   11.50   18.00
   2   2 -11   77.79   13.70
  -2  -2  11   92.49   13.60
  -2  -2  11   62.19   22.00
   1   2 -11  162.68   20.40
  -1  -2  11  146.49   18.80
  -1  -2  11  186.88   29.80
   0   2 -11  104.69   15.80
   0  -2  11   96.89   15.10
   0  -2  11  121.99   24.20
  -1   2 -11  342.77   28.30
   1  -2  11  315.67   28.50
   1  -2  11  331.77   32.60
   1  -2  11  231.48   45.10
   1  -2  11  341.27   39.60
  -2   2 -11    1.10   16.20
  -2   2 -11    2.80    6.10
   2  -2  11    3.80   13.70
   2  -2  11    5.20    9.10
   2  -2  11   -1.60    5.80
  -3   2 -11  296.57   36.30
  -3   2 -11  219.78   25.00
   3  -2  11  248.98   33.00
   3  -2  11  243.98   27.20
   3  -2  11  224.38   24.60
  -4   2 -11  201.58   30.80
   4  -2  11  169.58   21.90
   4  -2  11  134.59   25.90
  -5   2 -11   15.90   17.30
   5  -2  11   -7.10   10.30
   5  -2  11  -12.10   16.20
   5  -2  11   -0.50    8.60
  -6   2 -11   20.60   19.50
   6  -2  11   40.10   15.70
   6  -2  11   62.99   15.70
  -7   2 -11   49.40   23.90
   7  -2  11   47.00   17.10
   7  -2  11   52.49   16.80
  -6  -1  11    0.60   24.80
  -5  -1  11  295.87   44.60
  -4  -1  11   52.49   22.60
  -3  -1  11  211.08   21.90
  -3  -1  11  210.68   34.20
   2   1 -11    3.20    7.70
  -2  -1  11   13.60   10.60
  -2  -1  11   -3.70   15.30
   1   1 -11    5.20    8.10
  -1  -1  11    8.50    8.50
  -1  -1  11   10.50   15.40
   0   1 -11   -1.10    7.40
   0  -1  11    3.20    8.30
   0  -1  11  -11.00   13.90
   0  -1  11   12.60   15.20
  -1   1 -11  240.18   22.10
  -1   1 -11  250.07   26.50
   1  -1  11  249.58   26.40
   1  -1  11  307.27   34.50
   1  -1  11  250.07   22.50
   1  -1  11  217.98   31.30
  -2   1 -11  218.78   23.90
   2  -1  11  237.88   23.90
   2  -1  11  270.37   27.00
   2  -1  11  316.97   34.10
  -3   1 -11  194.88   28.70
  -3   1 -11  166.68   19.70
   3  -1  11  174.18   26.50
   3  -1  11  158.58   21.90
   3  -1  11  181.18   20.50
  -4   1 -11  539.95   50.89
   4  -1  11  481.45   45.90
   4  -1  11  462.15   44.80
   4  -1  11  465.85   49.60
  -5   1 -11  144.29   24.50
   5  -1  11   89.29   17.10
   5  -1  11  106.29   19.70
   5  -1  11   74.89   28.70
  -6   1 -11  149.09   27.00
   6  -1  11  140.19   22.80
   6  -1  11  135.69   21.60
   6  -1  11  132.29   25.10
  -7   1 -11   43.10   21.40
   7  -1  11   35.60   16.40
   7  -1  11   36.90   15.50
   6   0 -11    9.40   12.90
  -6   0  11   35.80   26.90
  -5   0  11   20.50   22.80
  -5   0  11   19.40    6.90
  -4   0  11  580.04   62.99
   3   0 -11  253.67   21.70
  -3   0  11  179.58   20.80
  -3   0  11  191.08   35.00
   2   0 -11  386.26   36.60
  -2   0  11  398.96   36.70
  -2   0  11  469.25   48.10
   1   0 -11  544.75   49.70
  -1   0  11  622.34   57.99
  -1   0  11  559.74   49.80
   0   0 -11  314.17   34.20
   0   0  11  190.68   30.20
   0   0  11  240.88   24.80
   0   0  11  234.58   31.50
  -1   0 -11  562.84   49.60
  -1   0 -11  547.45   46.50
   1   0  11  488.35   53.79
   1   0  11  545.45   46.60
   1   0  11  570.94   49.60
   1   0  11  617.34   54.79
  -2   0 -11  138.99   16.10
   2   0  11  181.68   24.10
   2   0  11  115.59   21.90
   2   0  11  148.99   16.50
   2   0  11  148.69   19.20
  -3   0 -11  132.69   16.90
   3   0  11  141.79   19.10
   3   0  11  143.69   22.10
   3   0  11  133.39   17.40
  -4   0 -11  148.69   22.40
   4   0  11  207.58   24.80
   4   0  11  161.98   21.80
   4   0  11  170.68   23.00
   5   0  11   23.20   11.80
   5   0  11   49.99   15.50
   5   0  11   18.30   14.80
  -6   0 -11   -6.00   13.90
   6   0  11    5.90   14.10
   6   0  11    8.20   12.10
   6   0  11   -0.20   11.70
  -7   0 -11   21.40   18.50
   7   0  11    1.50   14.30
   7   0  11   20.40   13.60
   8   0  11   25.30   17.30
   8   0  11   40.10   16.80
   5  -1 -11    4.00    6.70
  -5   1  11    0.60   19.40
  -5   1  11    4.40    6.50
  -4   1  11   16.30   18.60
   3  -1 -11  137.39   17.00
  -3   1  11   81.79   10.90
  -3   1  11   71.79   22.40
   2  -1 -11   40.50    8.80
  -2   1  11   32.20    9.00
  -2   1  11   30.70   17.50
   1  -1 -11  176.98   18.10
  -1   1  11  179.58   26.40
  -1   1  11  114.39   24.20
  -1   1  11  126.69   20.40
   0  -1 -11  615.94   55.19
   0   1  11  690.73   60.69
   0   1  11  615.54   55.29
  -1  -1 -11  172.88   18.90
  -1  -1 -11  124.89   14.70
   1   1  11  141.19   14.90
   1   1  11  169.28   19.10
   1   1  11  147.29   24.70
   1   1  11  143.49   22.40
  -2  -1 -11  893.61   81.79
  -2  -1 -11  943.71   80.39
   2   1  11  945.91   82.09
   2   1  11 1004.50   80.59
   2   1  11  909.51   83.49
   2   1  11 1048.70   84.09
  -3  -1 -11   10.30    7.70
   3   1  11   26.50   12.30
   3   1  11   19.90   12.10
   3   1  11    6.90    7.50
   3   1  11   39.40   11.30
  -4  -1 -11  119.09   20.80
  -4  -1 -11   98.49   17.60
   4   1  11  125.59   19.30
   4   1  11  138.29   19.30
   4   1  11  153.48   18.80
  -5  -1 -11  424.76   41.30
   5   1  11  364.66   38.20
   5   1  11  376.46   41.50
   5   1  11  370.96   38.50
  -6  -1 -11   -7.80   13.20
   6   1  11    2.10   11.60
   6   1  11   13.60   12.50
   6   1  11   11.40   11.30
  -7  -1 -11   54.89   18.00
   7   1  11   87.89   18.80
   7   1  11  108.19   28.20
   7   1  11   50.69   16.10
   8   1  11  119.39   25.20
   8   1  11  111.99   22.10
   6  -2 -11   68.99   13.90
  -6   2  11   82.89   30.00
   5  -2 -11   12.70    7.90
  -5   2  11    3.70   19.70
  -5   2  11    9.10    7.10
   4  -2 -11   29.70    7.30
  -4   2  11   68.59   23.40
  -4   2  11   43.80    8.60
   3  -2 -11  217.68   18.10
  -3   2  11  167.38   30.90
  -3   2  11  154.48   18.10
   2  -2 -11    9.70    6.80
  -2   2  11   -9.00    6.80
  -2   2  11    7.00   14.80
   1  -2 -11   48.20    9.90
  -1   2  11   54.29   10.30
  -1   2  11   36.80   16.30
   0  -2 -11  286.27   26.40
   0  -2 -11  246.08   23.00
   0   2  11  234.88   31.70
   0   2  11  334.27   32.50
   0   2  11  296.47   26.70
  -1  -2 -11    3.40    6.50
  -1  -2 -11    6.30    7.90
   1   2  11   -2.70   10.20
   1   2  11   13.20    5.30
   1   2  11    1.80    7.50
   1   2  11    5.90   11.60
  -2  -2 -11  275.27   26.70
  -2  -2 -11  251.77   28.00
   2   2  11  268.77   30.30
   2   2  11  304.87   30.10
   2   2  11  294.07   28.70
   2   2  11  280.17   26.70
  -3  -2 -11   76.79   13.30
   3   2  11   98.29   15.60
   3   2  11   85.19   14.50
   3   2  11   77.99   14.80
   3   2  11   89.59   13.30
  -4  -2 -11   31.20   13.00
   4   2  11   49.80   13.10
   4   2  11   51.69   12.20
   4   2  11   61.49   12.70
   5   2  11  241.78   28.10
   5   2  11  209.88   27.60
  -6  -2 -11   31.90   13.30
   6   2  11   44.50   16.80
   6   2  11   29.10   13.30
   6   2  11   42.80   14.70
  -7  -2 -11   26.80   13.50
   7   2  11   45.20   15.00
   7   2  11   32.40   15.00
   8   2  11   60.49   19.70
   8   2  11   63.69   18.80
   6  -3 -11   10.60   10.50
  -6   3  11   61.49   27.60
   5  -3 -11    4.40    9.80
  -5   3  11   13.60    8.30
  -5   3  11   36.80   23.00
   4  -3 -11   -0.30    5.90
  -4   3  11    4.00    5.50
  -4   3  11  -10.50   16.80
   3  -3 -11  563.74   45.90
   3  -3 -11  508.45   46.30
  -3   3  11  556.14   46.00
  -3   3  11  620.34   58.99
  -3   3  11  534.95   46.10
   2  -3 -11    4.60    6.20
   2  -3 -11    5.60    3.90
  -2   3  11    5.60    6.30
  -2   3  11  -16.40   11.50
   1  -3 -11  155.48   23.50
   1  -3 -11  132.59   14.80
   1  -3 -11  118.49   11.40
   1  -3 -11  106.79   11.60
  -1   3  11  118.79   15.30
  -1   3  11  135.79   22.80
   0  -3 -11   25.80    8.00
   0  -3 -11   25.70    5.60
   0  -3 -11   19.80    4.80
   0   3  11   26.80    8.70
   0   3  11   12.60   12.70
   0   3  11   32.90   12.60
  -1  -3 -11   -2.30    5.20
   1   3  11    3.10    7.90
   1   3  11    8.50   10.80
   1   3  11  -16.80    8.50
  -2  -3 -11    1.80    7.70
  -2  -3 -11   -5.60    5.60
   2   3  11   -2.30    5.50
   2   3  11    4.70    9.30
   2   3  11   10.20    8.80
   2   3  11  -12.70    7.40
  -3  -3 -11  357.36   33.70
   3   3  11  346.27   33.10
   3   3  11  365.66   33.00
   3   3  11  313.37   34.20
   3   3  11  339.17   33.20
   4   3  11    9.00    7.20
   4   3  11   13.10   10.60
   4   3  11   22.60    9.50
   4   3  11   10.90    7.40
   5   3  11  258.37   30.80
   5   3  11  277.07   30.70
   6   3  11   93.99   18.50
   6   3  11  119.59   19.60
   7   3  11   37.50   15.20
   7   3  11   17.80   13.50
   8   3  11   45.10   18.20
   8   3  11   29.70   16.40
   6  -4 -11   21.10   11.70
  -6   4  11   37.20   25.60
   5  -4 -11   64.19   12.50
  -5   4  11   51.79   12.80
  -5   4  11   47.40   24.00
   4  -4 -11   64.39   11.20
  -4   4  11   64.79   22.70
  -4   4  11   65.59   10.70
   3  -4 -11  265.97   24.60
   3  -4 -11  270.77   25.80
  -3   4  11  275.07   24.90
  -3   4  11  371.26   42.30
  -3   4  11  279.77   25.50
   2  -4 -11  270.27   25.10
   2  -4 -11  271.17   26.10
  -2   4  11  277.97   26.10
  -2   4  11  318.57   36.80
   1  -4 -11   37.10    8.40
   1  -4 -11   57.89   18.50
   1  -4 -11   25.90    6.50
  -1   4  11   35.80    8.90
  -1   4  11   36.20   14.40
   0  -4 -11  348.97   34.90
   0  -4 -11  333.77   37.70
   0  -4 -11  370.86   31.40
   0  -4 -11  369.86   33.10
   0   4  11  316.97   38.70
   0   4  11  378.56   33.50
  -1  -4 -11   63.69    9.80
  -1  -4 -11   69.29   10.00
   1   4  11   75.29   12.40
   1   4  11   79.79   14.70
   1   4  11   40.10   13.40
  -2  -4 -11  163.48   18.90
  -2  -4 -11  139.49   19.60
   2   4  11  158.48   18.30
   2   4  11  166.48   19.50
   2   4  11  156.08   20.00
  -3  -4 -11  292.17   34.40
   3   4  11  242.78   24.50
   3   4  11  242.68   27.50
   3   4  11  277.97   26.90
   3   4  11  253.07   24.10
   4   4  11   15.60    9.10
   4   4  11   19.30   10.20
   5   4  11   97.89   16.90
   5   4  11  108.89   18.40
   6   4  11  116.89   20.40
   6   4  11  116.09   19.60
   7   4  11   -5.30   12.20
   7   4  11    5.90   12.90
   8   4  11   13.20   15.70
   8   4  11    2.10   13.80
   6  -5 -11  102.89   17.70
  -6   5  11   71.19   29.20
   5  -5 -11   62.49   12.60
  -5   5  11   55.29   23.70
  -5   5  11   47.10   11.50
   4  -5 -11   -6.40    8.70
  -4   5  11   23.50   19.50
  -4   5  11    1.90    6.20
   3  -5 -11   -4.70    5.60
   3  -5 -11    7.70    6.80
  -3   5  11    7.70    5.50
  -3   5  11    7.70   16.70
  -3   5  11    1.00    5.30
   2  -5 -11  125.69   14.40
   2  -5 -11  117.99   13.90
  -2   5  11  142.59   24.90
  -2   5  11  114.39   13.50
  -2   5  11  119.29   14.40
   1  -5 -11   85.19   11.50
   1  -5 -11   94.69   11.50
   1  -5 -11   85.19   12.70
  -1   5  11  133.29   21.70
  -1   5  11   93.89   13.40
   0  -5 -11   57.09    9.30
   0  -5 -11   55.49    9.80
   0  -5 -11   93.79   16.80
   0  -5 -11   71.19   11.90
   0   5  11   83.09   12.40
   0   5  11   83.79   16.70
  -1  -5 -11  176.28   20.00
  -1  -5 -11  158.48   19.80
  -1  -5 -11  189.18   23.50
   1   5  11  257.87   24.10
   1   5  11  203.68   21.60
  -2  -5 -11   10.40    7.40
  -2  -5 -11    6.90    8.00
   2   5  11    9.50    8.40
   2   5  11    7.00    6.90
   2   5  11   11.10    8.60
   2   5  11   -1.60    7.20
  -3  -5 -11  718.43   63.59
   3   5  11  748.93   64.09
   3   5  11  701.63   63.09
   4   5  11   30.50   11.20
   4   5  11   23.70   10.60
   5   5  11  100.59   18.30
   5   5  11  105.19   18.70
   6   5  11  156.98   23.50
   6   5  11  147.09   22.40
   7   5  11    9.20   13.70
   7   5  11   -7.30   11.00
   8   5  11    2.30   14.20
   8   5  11    7.10   15.50
   6  -6 -11    1.30   11.30
  -6   6  11  -21.00   22.50
   5  -6 -11   78.79   15.70
  -5   6  11  143.59   31.30
   4  -6 -11  124.09   16.40
  -4   6  11  106.29   27.70
   3  -6 -11   -1.50    7.80
   3  -6 -11    0.40    6.50
  -3   6  11    1.00    5.70
  -3   6  11    8.30   16.20
  -3   6  11    1.80    5.90
   2  -6 -11  319.17   29.40
   2  -6 -11  300.67   29.70
  -2   6  11  289.37   29.10
  -2   6  11  355.16   30.00
  -2   6  11  337.17   39.40
   1  -6 -11   61.49    9.50
   1  -6 -11   53.49    9.60
   1  -6 -11   56.79   11.00
  -1   6  11  104.79   19.10
  -1   6  11   58.29   17.00
   0  -6 -11   29.00   12.20
   0  -6 -11   40.70    8.30
   0  -6 -11   44.50    8.60
   0  -6 -11   36.90   10.00
   0   6  11   26.40    9.60
   0   6  11   72.49   14.90
  -1  -6 -11  183.98   20.60
  -1  -6 -11  200.18   21.00
  -1  -6 -11  160.98   21.60
  -1  -6 -11  216.88   23.90
   1   6  11  180.98   22.80
   1   6  11  209.28   22.90
  -2  -6 -11   95.89   15.20
  -2  -6 -11  107.49   14.90
   2   6  11  107.59   13.30
   2   6  11   96.19   13.50
   2   6  11   91.19   15.60
   2   6  11  105.09   14.50
  -3  -6 -11   41.90   10.20
   3   6  11   47.30   10.60
   3   6  11   28.50    9.30
   4   6  11  614.04   53.79
   4   6  11  552.74   53.39
   5   6  11    6.10   10.90
   5   6  11   10.70   13.50
   6   6  11  197.08   27.30
   6   6  11  205.88   27.30
   7   6  11   22.70   14.80
   7   6  11   33.60   15.00
   8   6  11    3.60   14.80
   8   6  11    1.10   14.70
   6  -7 -11   41.90   16.90
  -6   7  11    1.90   27.60
   5  -7 -11   -6.10    8.70
  -5   7  11    8.90   22.20
   4  -7 -11   41.00   11.40
  -4   7  11   86.09   25.90
  -4   7  11   58.99   11.40
   3  -7 -11  241.78   24.70
   3  -7 -11  193.38   23.00
  -3   7  11  228.88   24.00
  -3   7  11  262.07   36.30
  -3   7  11  254.47   23.00
   2  -7 -11  200.78   21.60
   2  -7 -11  202.18   21.50
  -2   7  11  256.37   33.30
  -2   7  11  179.78   20.70
  -2   7  11  176.68   20.20
   1  -7 -11  615.44   55.79
   1  -7 -11  684.13   55.79
   1  -7 -11  651.73   55.99
  -1   7  11  632.84   60.89
  -1   7  11  627.44   55.89
   0  -7 -11   30.40   17.10
   0  -7 -11   22.70   11.80
   0  -7 -11   32.80    9.40
   0  -7 -11   33.50    8.50
   0   7  11   24.90    9.10
   0   7  11   31.80   12.70
  -1  -7 -11  485.65   45.40
  -1  -7 -11  512.15   47.00
  -1  -7 -11  493.55   45.90
  -1  -7 -11  560.34   46.00
   1   7  11  457.75   45.60
   1   7  11  525.95   46.20
  -2  -7 -11   11.60    8.30
  -2  -7 -11   26.50    9.20
   2   7  11   31.20    7.80
   2   7  11   30.40   10.50
   3   7  11   13.20    9.80
   3   7  11   25.40    9.90
   4   7  11   41.60   12.40
   4   7  11   55.59   13.60
   5   7  11   42.40   16.60
   5   7  11   30.90   12.90
   6   7  11   13.20   12.30
   6   7  11   10.40   13.20
   7   7  11   60.89   17.80
   7   7  11   67.59   19.30
   6  -8 -11   11.40   12.20
   5  -8 -11   36.20   12.50
  -5   8  11   23.40   22.20
   4  -8 -11   16.90    9.50
   4  -8 -11   37.10    7.80
  -4   8  11   36.80   20.70
   3  -8 -11    8.00    7.80
   3  -8 -11   12.50    9.00
  -3   8  11    9.30    7.20
  -3   8  11   21.20   18.20
   2  -8 -11   34.60    9.00
   2  -8 -11   31.60    8.70
  -2   8  11   13.40    8.30
  -2   8  11    2.00   15.30
   1  -8 -11  136.89   18.50
   1  -8 -11  168.78   18.70
   1  -8 -11  139.49   19.00
   1  -8 -11  169.68   26.00
  -1   8  11  170.88   19.90
  -1   8  11  192.58   26.30
   0  -8 -11  512.65   45.60
   0  -8 -11  533.15   42.30
   0  -8 -11  395.96   41.50
   0  -8 -11  455.95   41.90
   0   8  11  441.16   42.10
   0   8  11  418.86   46.20
  -1  -8 -11  104.09   17.00
  -1  -8 -11  102.99   16.40
  -1  -8 -11  142.79   17.60
  -1  -8 -11  142.19   19.00
   1   8  11  134.79   17.70
   1   8  11  122.59   17.70
  -2  -8 -11  246.88   24.40
  -2  -8 -11  235.18   27.10
  -2  -8 -11  245.18   27.00
   2   8  11  262.27   27.40
   2   8  11  239.38   23.60
   3   8  11    6.50    8.80
   3   8  11   18.30   11.00
   4   8  11  142.39   19.30
   4   8  11  110.79   18.80
   5   8  11   25.00   12.60
   5   8  11   17.00   11.20
   6   8  11    9.10   13.30
   6   8  11   21.00   12.50
   7   8  11   42.90   17.40
   7   8  11   43.90   17.50
   6  -9 -11   31.80   14.40
  -6   9  11   55.69   28.20
   5  -9 -11    1.90   14.30
  -5   9  11   -3.10   17.60
   4  -9 -11  384.56   32.80
   4  -9 -11  331.57   33.00
   4  -9 -11  386.36   36.60
  -4   9  11  312.67   46.50
   3  -9 -11  202.88   22.60
   3  -9 -11  221.78   24.20
  -3   9  11  206.18   33.60
   2  -9 -11  284.57   28.30
   2  -9 -11  247.68   27.50
  -2   9  11  262.77   28.00
  -2   9  11  328.17   37.30
  -2   9  11  291.07   28.10
   1  -9 -11  207.38   30.70
   1  -9 -11  215.28   24.10
   1  -9 -11  221.18   24.30
  -1   9  11  259.17   31.70
  -1   9  11  238.18   24.90
   0  -9 -11   22.40    9.50
   0  -9 -11   41.10    9.50
   0  -9 -11   31.70   13.70
   0  -9 -11   22.90    9.60
   0   9  11   34.50   12.90
   0   9  11   32.80   10.90
  -1  -9 -11    4.40    7.60
  -1  -9 -11   -0.60    9.10
  -1  -9 -11   15.60    8.80
   1   9  11    0.50    9.00
   1   9  11   -3.60    9.30
  -2  -9 -11   37.60    9.60
  -2  -9 -11   46.30   11.70
   2   9  11   27.40    8.30
   2   9  11   39.60   12.20
  -3  -9 -11  101.69   17.60
   3   9  11  125.09   18.50
   4   9  11   -3.50    9.20
   5   9  11   96.49   18.40
   5   9  11   78.49   16.80
   6   9  11   38.20   14.00
   6   9  11   18.00   14.50
   7   9  11  110.59   21.70
   7   9  11   63.09   19.30
   6 -10 -11   60.89   17.30
  -6  10  11  105.19   31.80
   5 -10 -11  -10.00    9.70
  -5  10  11  -15.90   19.10
   4 -10 -11   37.00   10.30
   4 -10 -11   24.00   11.00
   4 -10 -11   20.30    9.90
  -4  10  11   28.70   19.10
   3 -10 -11  158.08   25.20
   3 -10 -11  179.58   22.40
   3 -10 -11  186.58   20.40
   2 -10 -11  263.57   27.30
   2 -10 -11  224.48   27.70
  -2  10  11  287.67   37.70
  -2  10  11  303.97   28.20
   1 -10 -11  300.97   35.70
   1 -10 -11  243.48   27.10
   1 -10 -11  245.38   28.20
  -1  10  11  321.37   36.50
  -1  10  11  234.38   28.00
   0 -10 -11 1001.10   96.49
   0 -10 -11 1180.28   95.19
   0  10  11 1122.59   97.19
   0  10  11 1146.49   94.99
  -1 -10 -11   31.20   12.50
  -1 -10 -11   28.70   10.10
   1  10  11   31.00   12.10
   1  10  11   24.10   10.60
  -2 -10 -11  788.02   62.29
  -2 -10 -11  738.23   63.99
   2  10  11  657.23   60.59
   2  10  11  650.43   63.09
  -3 -10 -11  314.77   32.50
   3  10  11  254.17   31.40
   4  10  11   -4.40   10.80
   5  10  11  297.67   36.60
   5  10  11  335.27   36.40
   6  10  11  -10.90   11.30
   6  10  11   12.70   14.90
   7  10  11   39.20   15.60
   7  10  11   33.70   17.30
   6 -11 -11   39.80   15.90
  -6  11  11   43.40   28.80
   5 -11 -11  101.89   13.60
   5 -11 -11  102.79   19.30
  -5  11  11  104.69   30.00
   4 -11 -11    9.50   11.40
   4 -11 -11   33.60    9.90
  -4  11  11   26.00   22.10
   3 -11 -11  149.29   18.80
   3 -11 -11  150.58   19.00
   3 -11 -11  124.29   19.90
  -3  11  11  207.98   31.80
   2 -11 -11  110.99   18.20
  -2  11  11  161.98   19.10
  -2  11  11   98.29   24.50
   1 -11 -11   21.40    9.00
  -1  11  11   12.00    9.60
  -1  11  11   26.50   15.90
   0 -11 -11  515.85   46.30
   0  11  11  485.45   48.50
   0  11  11  473.45   46.20
  -1 -11 -11  312.87   32.70
  -1 -11 -11  306.17   31.30
   1  11  11  255.07   31.10
   1  11  11  290.67   31.30
  -2 -11 -11  289.67   27.70
  -2 -11 -11  264.87   30.80
   2  11  11  241.18   29.20
   2  11  11  212.28   26.40
   3  11  11  252.47   30.80
  -4 -11 -11   86.59   19.10
   4  11  11   97.89   18.90
   5  11  11   23.80   14.30
   6  11  11  173.68   25.10
   6  11  11  164.88   26.10
   7  11  11   19.70   15.30
   5 -12 -11   81.89   18.20
   5 -12 -11   54.49   12.50
   4 -12 -11   44.80   12.30
   4 -12 -11   79.89   15.90
   4 -12 -11   29.60   19.20
  -4  12  11   44.70   24.00
   3 -12 -11   86.49   14.00
   3 -12 -11   63.09   14.60
  -3  12  11   57.29   23.40
   2 -12 -11  244.18   29.80
  -2  12  11  269.77   38.30
   1 -12 -11   26.70   10.30
  -1  12  11   33.90   11.60
  -1  12  11   13.90   15.60
   0 -12 -11  164.18   22.00
   0 -12 -11  136.49   24.10
   0  12  11  164.18   25.30
   0  12  11  189.28   24.10
  -1 -12 -11  389.36   42.20
  -1 -12 -11  425.86   41.10
   1  12  11  438.16   41.50
   1  12  11  389.86   40.80
  -2 -12 -11   12.60   10.60
   2  12  11   -5.10    9.60
   2  12  11   11.60   10.50
  -3 -12 -11  359.46   32.90
  -3 -12 -11  418.26   39.90
   3  12  11  330.97   38.20
  -4 -12 -11  178.38   26.50
   4  12  11  167.48   24.80
  -5 -12 -11   32.70   14.80
   5  12  11    5.50   13.50
  -6 -12 -11   17.60   17.00
   6  12  11   26.00   15.40
   5 -13 -11   25.70   11.30
   5 -13 -11   14.70   13.60
  -5  13  11   19.20   25.00
   4 -13 -11   84.09   17.70
   4 -13 -11   73.09   14.40
  -4  13  11   77.09   26.20
   3 -13 -11   21.60   11.30
   3 -13 -11   -5.90    8.60
  -3  13  11   42.50   20.90
   2 -13 -11  322.77   35.80
   2 -13 -11  356.76   35.50
  -2  13  11  376.36   58.89
   1 -13 -11    4.30    8.00
  -1  13  11   27.80   15.50
  -1  13  11    8.20    9.90
   0 -13 -11  270.47   33.50
   0  13  11  276.47   34.70
  -1 -13 -11  275.57   32.80
   1  13  11  255.27   31.90
   1  13  11  298.47   33.80
  -2 -13 -11   40.90   14.50
  -2 -13 -11   38.40   14.00
   2  13  11   40.90   13.90
   2  13  11   23.00   13.20
  -3 -13 -11   39.80   12.90
  -3 -13 -11   35.00   14.20
   3  13  11   37.30   14.20
  -4 -13 -11  273.67   36.90
   4  13  11  314.47   35.90
  -5 -13 -11   -2.10   12.70
   5  13  11    4.10   13.40
  -6 -13 -11   63.39   19.40
   6  13  11   30.30   17.10
   4 -14 -11    0.20   10.70
   4 -14 -11   17.80   13.30
  -4  14  11   -8.60   19.40
   3 -14 -11   20.70   11.60
   3 -14 -11    7.30   17.80
  -3  14  11    1.50   17.30
   2 -14 -11   24.30   11.10
   2 -14 -11   15.50   11.20
  -2  14  11   22.10   18.10
   1 -14 -11  244.98   29.40
  -1  14  11  246.58   29.60
  -1  14  11  206.08   33.20
   0 -14 -11   16.80   10.40
   0  14  11    9.10   11.40
   0  14  11   -2.90   12.10
  -1 -14 -11  361.86   37.00
  -1 -14 -11  316.17   38.90
   1  14  11  309.67   37.50
   1  14  11  380.36   37.40
  -2 -14 -11  116.29   20.30
  -2 -14 -11   95.49   19.00
   2  14  11   94.49   19.30
   2  14  11  127.59   22.60
  -3 -14 -11   92.19   20.30
  -3 -14 -11  102.39   16.90
   3  14  11   83.79   17.80
   3  14  11   96.79   17.10
  -4 -14 -11   16.30   14.50
   4  14  11   21.90   14.20
  -5 -14 -11   33.90   16.40
   4 -15 -11  145.59   21.50
  -4  15  11  113.59   31.70
   3 -15 -11   21.10   12.70
   3 -15 -11   12.50   11.40
  -3  15  11   46.60   22.30
   2 -15 -11   68.29   16.20
   2 -15 -11   82.49   17.10
  -2  15  11  101.69   25.10
   1 -15 -11   19.30   11.30
   1 -15 -11    8.50   11.30
  -1  15  11  -15.60   13.20
   0 -15 -11    8.00    9.70
   0  15  11  -20.60    8.80
   0  15  11    0.10   13.10
  -1 -15 -11   56.59   14.80
   1  15  11   29.00   15.90
   1  15  11   15.40   12.50
  -2 -15 -11  105.79   20.60
  -2 -15 -11   69.89   19.30
   2  15  11  104.89   21.20
   2  15  11   61.59   17.30
  -3 -15 -11  -10.70   10.50
   3  15  11   -5.30   11.10
   3  15  11    0.90   14.00
  -5 -15 -11   54.49   19.30
   5  15  11   55.39   18.30
   3 -16 -11  231.28   28.30
  -3  16  11  184.78   37.70
   2 -16 -11   17.80   12.10
   2 -16 -11   36.00   13.80
  -2  16  11   43.70   20.40
   1 -16 -11  162.38   26.50
   1 -16 -11  192.38   27.50
  -1  16  11  243.08   36.60
   0 -16 -11    4.80    9.80
  -1 -16 -11   37.80   13.70
   1  16  11   31.20   15.20
   1  16  11   16.70   17.20
  -2 -16 -11  187.28   28.00
   2  16  11  188.58   29.90
   2  16  11  179.68   26.70
   3  16  11   -5.30   19.70
  -4 -16 -11   83.89   20.60
   4  16  11   55.39   18.20
   2 -17 -11   61.09   16.50
   2 -17 -11   43.80   15.70
  -2  17  11   44.20   22.40
   1 -17 -11   29.00   15.70
   1 -17 -11   24.60   14.10
  -1  17  11    5.00   17.30
   0 -17 -11   83.99   18.70
   0  17  11  113.09   26.10
   1  17  11   -2.80   17.80
  -2 -17 -11  158.68   25.00
   2  17  11   98.19   21.70
   2  17  11  161.88   28.90
  -3 -17 -11    4.00   13.90
   3  17  11   11.80   12.60
   3  17  11   30.90   26.70
   0 -18 -11   55.29   16.50
   0 -18 -11   17.30   13.10
   0  18  11   60.09   23.50
  -1 -18 -11   31.10   15.30
  -1 -18 -11    4.90   11.60
   1  18  11   21.90   20.30
  -1  -9  12   16.50   16.00
  -1  -9  12    6.20   28.90
   0  -9  12   68.79   20.50
   0  -9  12   64.19   31.00
   1  -9  12  122.29   18.50
   1  -9  12   97.59   36.10
  -2   9 -12  105.69   36.30
   2  -9  12   89.39   20.70
   2  -9  12  113.59   18.00
  -3   9 -12   87.29   34.20
   3  -9  12  118.39   22.60
   3  -9  12  124.89   20.80
  -2  -8  12   40.60   31.50
  -2  -8  12   20.00   14.70
  -1  -8  12   39.70   31.10
  -1  -8  12   66.69   17.60
   0  -8  12   44.50   16.40
   0  -8  12   84.29   31.00
   1  -8  12  -20.80   23.10
   1  -8  12   -2.30   12.10
  -2   8 -12  -12.10   22.00
   2  -8  12    0.40    8.60
   2  -8  12  -10.30   11.70
  -3   8 -12   65.99   29.60
   3  -8  12   21.40   11.60
  -4   8 -12   54.49   30.60
   4  -8  12    2.00   11.40
   4  -8  12   14.60   14.00
  -3  -7  12   16.20   14.20
  -3  -7  12    8.80   25.90
  -2  -7  12   66.79   16.90
  -1  -7  12  -23.70   22.30
  -1  -7  12   16.90   12.90
   0  -7  12  136.69   34.10
   0  -7  12  104.69   20.00
   1  -7  12   78.79   17.20
   1  -7  12   53.99   10.90
   1  -7  12   77.39   28.90
  -2   7 -12   35.30   25.20
  -2   7 -12   40.80   11.90
   2  -7  12   26.90   10.10
   2  -7  12   35.30   14.30
  -3   7 -12  144.69   35.30
   3  -7  12  102.39   17.50
   3  -7  12  112.09   20.20
  -4   7 -12   24.80   25.00
   4  -7  12   15.50   11.60
  -5   7 -12   15.70   25.90
   5  -7  12    9.00   14.30
   5  -7  12   -0.70   11.40
  -3  -6  12   16.40   13.30
  -3  -6  12   22.60   32.20
  -2  -6  12   57.79   17.20
  -2  -6  12   78.19   27.40
  -1  -6  12   15.20   23.00
  -1  -6  12    7.80   11.60
   0  -6  12   37.80   14.40
   0  -6  12   57.59   26.00
   1  -6  12  110.29   28.70
   1  -6  12  123.89   19.30
   1  -6  12   86.29   12.70
  -2   6 -12    5.80   20.70
  -2   6 -12    1.70    7.80
   2  -6  12    3.40   11.80
   2  -6  12   15.80    8.00
  -3   6 -12  206.18   39.50
   3  -6  12  221.38   26.70
   3  -6  12  238.78   29.60
  -4   6 -12  102.09   30.00
   4  -6  12   88.29   18.10
   4  -6  12  114.49   20.50
  -5   6 -12  -32.10   21.30
   5  -6  12    3.30   10.80
   6  -6  12   21.10   16.20
  -4  -5  12   43.50   13.90
  -4  -5  12   33.70   26.20
  -3  -5  12    9.60   23.60
  -3  -5  12   -1.10   10.50
  -2  -5  12   65.89   27.30
  -2  -5  12   76.89   15.40
  -1  -5  12   74.59   15.70
  -1  -5  12  103.59   28.80
   0  -5  12   57.99   22.50
   0  -5  12   61.59   24.50
  -1   5 -12   95.89   14.00
   1  -5  12   90.19   16.90
   1  -5  12   75.49   11.00
   1  -5  12   74.89   25.90
  -2   5 -12   65.69   11.60
  -2   5 -12   99.09   26.90
   2  -5  12  111.29   17.80
   2  -5  12   73.19   12.70
  -3   5 -12   16.00   21.10
  -3   5 -12    1.60    8.40
   3  -5  12   20.60    9.20
   3  -5  12   -5.40    9.90
  -4   5 -12  217.58   39.10
   4  -5  12  209.58   26.20
   4  -5  12  208.38   28.30
  -5   5 -12   70.59   26.60
   5  -5  12  107.99   20.10
   5  -5  12   77.29   17.20
  -6   5 -12   27.90   26.90
   6  -5  12   21.40   14.10
   6  -5  12   29.70   15.90
  -4  -4  12   14.90   11.10
  -3  -4  12   39.80   24.10
  -3  -4  12   37.90   12.50
  -2  -4  12   54.49   13.00
  -2  -4  12   43.90   24.10
  -1  -4  12   79.29   15.20
  -1  -4  12   81.29   26.30
   0  -4  12  -11.40    9.50
   0  -4  12  -10.90   18.50
  -1   4 -12  210.78   20.10
   1  -4  12  215.78   27.60
   1  -4  12  186.68   19.40
   1  -4  12  252.57   37.60
  -2   4 -12   86.19   24.90
  -2   4 -12   59.89   10.40
   2  -4  12   57.19   11.70
   2  -4  12   67.09   15.30
  -3   4 -12   27.10   10.40
  -3   4 -12   57.39   23.00
   3  -4  12   41.00   10.20
   3  -4  12   38.70   14.10
  -4   4 -12   48.10   23.70
   4  -4  12   36.60   13.70
   4  -4  12   40.60   12.10
   5  -4  12   -2.10    9.90
   5  -4  12   10.30   13.20
  -6   4 -12   23.40   24.70
   6  -4  12  -24.40   12.20
   6  -4  12   15.10   12.30
  -5  -3  12   38.40   26.40
  -4  -3  12   32.80   23.90
  -4  -3  12   -7.40   12.70
  -3  -3  12    9.10   10.00
  -3  -3  12    2.90   20.40
   2   3 -12   -4.60   13.90
  -2  -3  12  -10.70   17.80
  -2  -3  12   -5.20    9.20
  -1  -3  12  214.58   37.50
  -1  -3  12  162.28   21.60
   0  -3  12   17.00   18.80
   0  -3  12   21.30   10.30
  -1   3 -12   53.19    7.80
   1  -3  12   55.69   13.40
   1  -3  12   59.39    8.20
   1  -3  12  110.29   25.80
  -2   3 -12  185.28   21.20
   2  -3  12  210.68   21.30
   2  -3  12  243.98   27.30
  -3   3 -12    7.50    8.20
  -3   3 -12   -1.90   17.40
   3  -3  12   16.70    8.50
   3  -3  12    7.80   14.10
  -4   3 -12   98.69   27.00
   4  -3  12  100.79   17.00
   4  -3  12   92.69   18.00
  -5   3 -12   -3.60   18.90
   5  -3  12    7.00   12.40
   5  -3  12   15.50   11.20
  -6   3 -12   -1.40   20.50
   6  -3  12   -6.40   12.90
   6  -3  12    2.80   12.00
  -7   3 -12   19.90   29.40
   7  -3  12   21.10   17.80
  -5  -2  12   42.20   27.80
  -4  -2  12   62.79   11.90
  -4  -2  12   36.50    9.50
  -4  -2  12   91.69   27.10
  -3  -2  12  108.79   15.70
  -3  -2  12  174.38   31.50
   2   2 -12    8.10    9.30
  -2  -2  12    7.60    9.30
  -2  -2  12  -14.90   17.10
   1   2 -12  119.19   19.70
  -1  -2  12  141.69   18.90
  -1  -2  12  173.68   30.20
   0  -2  12   -7.40    8.60
   0  -2  12    0.70   16.70
  -1   2 -12    3.20    3.80
   1  -2  12    3.10    4.50
   1  -2  12   -2.60    8.60
   1  -2  12   11.70   16.40
  -2   2 -12   17.30    7.00
   2  -2  12   -6.10    8.60
   2  -2  12   58.69   20.10
   2  -2  12   20.50    7.10
  -3   2 -12   48.20   16.30
  -3   2 -12   87.69   23.40
   3  -2  12   80.99   12.90
   3  -2  12   90.09   20.90
  -4   2 -12  -19.50   16.10
   4  -2  12    2.30    8.80
   4  -2  12    3.50   10.40
  -5   2 -12  272.87   38.10
   5  -2  12  283.77   32.30
   5  -2  12  186.38   30.70
  -6   2 -12    1.10   19.20
   6  -2  12   15.60   13.30
   6  -2  12   16.10   11.50
  -7   2 -12   82.29   26.70
   7  -2  12   49.90   17.90
   7  -2  12   60.69   22.60
  -5  -1  12   40.60   26.40
  -4  -1  12   -8.10   19.10
  -3  -1  12  289.37   40.30
  -3  -1  12  213.68   23.80
   2   1 -12  118.39   16.80
  -2  -1  12  126.19   15.90
  -2  -1  12   65.09   36.50
   1   1 -12  229.58   26.70
  -1  -1  12  265.17   27.20
  -1  -1  12  296.07   38.30
   0   1 -12   46.20   13.00
   0  -1  12   94.09   22.00
   0  -1  12   53.59   12.70
  -1   1 -12   67.49    8.50
   1  -1  12   88.29    9.60
   1  -1  12   96.39   21.70
   1  -1  12   86.09   14.50
  -2   1 -12   63.69   10.40
   2  -1  12   83.29   19.90
   2  -1  12   37.80   17.10
   2  -1  12  106.89   15.90
   2  -1  12   69.49   10.60
  -3   1 -12   14.50    8.80
  -3   1 -12   33.30   17.90
   3  -1  12   34.00   11.40
   3  -1  12    7.80   14.60
   3  -1  12   23.00    8.60
  -4   1 -12   36.40   17.50
   4  -1  12    2.50   10.80
   4  -1  12   22.20    9.80
   4  -1  12   42.70   17.60
  -5   1 -12  116.39   25.00
   5  -1  12   81.69   17.30
   5  -1  12  121.19   23.40
   5  -1  12  119.09   19.70
  -6   1 -12   43.20   20.80
   6  -1  12   35.10   14.00
   6  -1  12   22.00   19.10
   6  -1  12   34.10   14.90
  -7   1 -12    6.00   20.40
   7  -1  12    2.00   14.40
   7  -1  12    7.80   13.70
  -6   0  12   36.90   27.70
  -5   0  12   34.30   24.20
  -4   0  12    7.50   18.40
   3   0 -12   23.70    8.20
  -3   0  12   21.60   19.60
  -3   0  12    6.40    7.50
   2   0 -12  407.46   35.50
  -2   0  12  345.97   46.00
  -2   0  12  361.96   35.60
   1   0 -12  326.87   36.50
  -1   0  12  316.27   38.80
  -1   0  12  229.28   27.00
   0   0 -12  554.34   51.49
   0   0  12  593.54   58.09
   0   0  12  588.84   51.59
  -1   0 -12  464.85   40.10
   1   0  12  504.15   44.20
   1   0  12  559.14   50.59
   1   0  12  416.76   49.00
   1   0  12  466.35   40.30
  -2   0 -12  316.57   31.30
   2   0  12  343.97   31.50
   2   0  12  373.16   39.50
   2   0  12  364.46   34.40
  -3   0 -12  537.95   48.50
   3   0  12  572.14   48.50
   3   0  12  525.35   52.39
   3   0  12  494.25   49.80
   3   0  12  566.44   53.29
  -4   0 -12   28.00   16.50
   4   0  12    3.40   14.00
   4   0  12   -5.80    8.00
   4   0  12   10.10   13.90
  -5   0 -12  205.48   29.70
   5   0  12  192.48   27.40
   5   0  12  195.28   26.20
   5   0  12  190.68   25.00
  -6   0 -12   46.20   18.60
   6   0  12   16.10   13.40
   6   0  12   31.50   16.40
   6   0  12   39.40   13.80
  -7   0 -12    1.00   18.30
   7   0  12   13.30   14.20
   7   0  12    0.60   14.30
  -6   1  12   -6.30   22.60
  -5   1  12  161.58   34.10
  -4   1  12   27.50   20.70
   3  -1 -12  169.28   18.40
  -3   1  12  151.28   17.70
  -3   1  12  189.78   31.40
   2  -1 -12   37.20    9.50
  -2   1  12   25.50    9.20
  -2   1  12   16.10   17.60
   1  -1 -12   -0.50    7.50
  -1   1  12   -2.00   13.30
  -1   1  12   13.00    8.40
   0  -1 -12   33.80   10.00
   0   1  12   26.20   16.00
   0   1  12   41.90   15.80
   0   1  12   15.10    9.40
  -1  -1 -12   -3.40    4.50
  -1  -1 -12   -9.60    8.50
   1   1  12    0.70    8.70
   1   1  12   16.00   13.50
   1   1  12    0.90   20.30
   1   1  12    9.00    5.40
  -2  -1 -12  168.48   20.40
   2   1  12  208.68   24.10
   2   1  12  234.38   28.90
   2   1  12  196.38   27.00
   2   1  12  208.28   20.70
  -3  -1 -12   38.90   10.00
   3   1  12   38.00   12.40
   3   1  12   22.50    8.80
   3   1  12   37.40   14.60
   3   1  12   28.90   13.30
   4   1  12  258.17   28.60
   4   1  12  299.57   32.20
   4   1  12  257.87   30.80
  -5  -1 -12   -0.20   13.70
   5   1  12   -0.20    9.70
   5   1  12   16.00   12.30
   5   1  12   17.70   12.50
  -6  -1 -12  143.79   23.50
   6   1  12  148.19   21.20
   6   1  12  122.19   21.70
   6   1  12   88.49   19.20
  -7  -1 -12   27.70   17.80
   7   1  12   49.60   15.90
   7   1  12   30.30   15.90
  -6   2  12  -18.80   21.50
  -5   2  12   93.99   28.60
  -4   2  12  133.19   30.00
   3  -2 -12    3.80    7.30
  -3   2  12    7.50    6.40
   2  -2 -12  186.18   22.20
  -2   2  12  273.27   36.40
  -2   2  12  239.88   22.80
   1  -2 -12  218.28   23.60
  -1   2  12  270.27   34.70
  -1   2  12  219.08   23.90
   0  -2 -12  192.88   26.00
   0   2  12  189.38   20.50
   0   2  12  158.28   24.90
   0   2  12  131.09   24.90
  -1  -2 -12  191.38   26.90
  -1  -2 -12  257.27   26.00
   1   2  12  260.97   26.40
   1   2  12  282.37   31.30
   1   2  12  228.48   29.90
  -2  -2 -12   -2.20    6.60
   2   2  12  -16.30   10.70
   2   2  12    2.20    6.50
   2   2  12    6.20    9.10
   2   2  12   27.00   12.00
  -3  -2 -12   76.59   13.30
   3   2  12   73.29   14.20
   3   2  12   87.29   15.70
   3   2  12   66.69   11.90
   3   2  12   68.59   15.70
   4   2  12    1.70    9.50
   4   2  12    8.80   10.20
   4   2  12   11.70   10.70
   4   2  12   -0.30    9.10
   5   2  12    4.70   15.60
   5   2  12  -12.80    9.80
   5   2  12   -4.30   10.20
   5   2  12  -13.40    8.80
   6   2  12   41.10   17.00
   6   2  12  -15.70   10.70
   6   2  12   29.50   13.40
   7   2  12    6.40   13.30
   7   2  12   16.90   14.20
   8   2  12  -24.00   14.00
   6  -3 -12   -4.10    9.30
  -6   3  12   13.40   25.20
   5  -3 -12   -2.80    7.50
  -5   3  12    7.40    7.00
  -5   3  12   16.10   20.50
   4  -3 -12   62.59    9.30
  -4   3  12   75.89   13.30
  -4   3  12   58.39   23.90
   3  -3 -12   13.60   12.30
  -3   3  12   13.90   17.20
  -3   3  12    9.60    6.10
   2  -3 -12   20.10    7.50
  -2   3  12   14.90    7.90
  -2   3  12   19.90   16.40
   1  -3 -12  543.45   54.99
   1  -3 -12  534.05   47.20
  -1   3  12  511.65   47.90
  -1   3  12  568.64   54.69
   0  -3 -12   -5.50    9.50
   0  -3 -12    4.60    4.50
   0  -3 -12    3.00    3.60
   0   3  12   -2.60   14.50
   0   3  12    7.60   12.70
   0   3  12   -6.90    7.60
  -1  -3 -12  240.68   22.20
  -1  -3 -12  236.78   25.50
  -1  -3 -12  201.48   22.10
   1   3  12  216.78   28.70
   1   3  12  239.08   25.90
   1   3  12  291.67   32.30
  -2  -3 -12   85.29   12.90
   2   3  12   78.19   12.10
   2   3  12   72.19   14.20
   2   3  12   80.49   15.50
   2   3  12   86.19   16.00
  -3  -3 -12   62.09   18.50
   3   3  12   60.59   11.80
   3   3  12   59.79   13.50
   3   3  12   49.99   12.50
   3   3  12   53.79   12.40
   4   3  12   24.20   10.20
   4   3  12   15.90    8.70
   4   3  12   14.20    9.20
   4   3  12    3.60   10.60
   5   3  12   22.30   11.20
   5   3  12    0.20   10.20
   6   3  12   39.00   15.00
   6   3  12   60.09   16.40
   7   3  12  106.49   20.50
   7   3  12   77.69   19.70
   8   3  12    3.90   15.20
   8   3  12   -1.00   20.40
   6  -4 -12   30.50   12.00
  -6   4  12   25.30   26.10
  -5   4  12   73.69   26.90
  -5   4  12   37.10    9.80
   4  -4 -12  233.88   24.00
  -4   4  12  250.77   38.20
  -4   4  12  246.18   23.50
  -3   4  12   37.80   18.80
   2  -4 -12  160.98   17.70
   2  -4 -12  152.48   16.30
   2  -4 -12  176.98   16.40
  -2   4  12  204.88   30.00
  -2   4  12  150.98   17.90
   1  -4 -12  435.46   35.80
   1  -4 -12  422.06   36.10
   1  -4 -12  416.76   38.30
   1  -4 -12  370.86   45.30
  -1   4  12  418.96   39.60
  -1   4  12  416.76   45.00
   0  -4 -12   52.69    8.10
   0  -4 -12   87.59   18.20
   0  -4 -12   72.39   12.30
   0   4  12   44.90   16.10
   0   4  12   58.59   12.00
  -1  -4 -12   58.49    9.70
  -1  -4 -12   69.39   10.60
  -1  -4 -12   41.70   10.90
   1   4  12   66.49   16.30
   1   4  12   73.89   13.20
   1   4  12   69.29   15.60
  -2  -4 -12  505.45   42.60
   2   4  12  490.05   44.10
   2   4  12  408.06   44.20
   2   4  12  477.95   44.20
   2   4  12  437.46   43.30
  -3  -4 -12    5.70    8.40
   3   4  12   16.70    8.90
   3   4  12   10.80    9.80
   3   4  12    6.90    8.40
   3   4  12   23.60    8.60
   4   4  12  376.56   37.70
   4   4  12  390.76   38.90
   5   4  12  123.99   19.40
   5   4  12  120.19   19.80
   6   4  12   51.69   15.70
   6   4  12   61.79   15.70
   7   4  12   75.89   18.70
   7   4  12   73.79   18.50
   8   4  12    9.00   14.90
   8   4  12    3.10   22.10
   6  -5 -12  101.99   17.00
  -6   5  12   96.59   31.80
   5  -5 -12    9.90    9.50
  -5   5  12   20.00    9.70
  -5   5  12   19.40   21.20
   4  -5 -12  449.95   42.60
  -4   5  12  513.15   56.79
  -4   5  12  469.35   41.80
   3  -5 -12  405.46   35.40
   3  -5 -12  395.16   34.20
  -3   5  12  306.77   33.30
  -3   5  12  445.66   47.50
  -3   5  12  389.66   33.20
   2  -5 -12  270.97   23.80
   2  -5 -12  238.98   24.40
   2  -5 -12  210.88   23.10
  -2   5  12  357.66   39.40
  -2   5  12  237.08   24.30
   1  -5 -12  154.88   15.90
   1  -5 -12  160.78   25.50
   1  -5 -12  141.79   17.80
   1  -5 -12  146.49   16.90
  -1   5  12  156.48   18.80
  -1   5  12  190.88   28.30
   0  -5 -12  266.07   23.70
   0  -5 -12  212.28   23.90
   0  -5 -12  237.68   33.70
   0  -5 -12  325.97   33.10
   0   5  12  247.68   31.50
   0   5  12  251.67   26.00
  -1  -5 -12   -0.10    6.50
  -1  -5 -12   -0.30    7.60
  -1  -5 -12    0.40    5.90
   1   5  12   -8.00   11.20
   1   5  12    8.20    8.40
   1   5  12   -8.80    9.30
  -2  -5 -12  355.46   34.20
   2   5  12  346.67   35.40
   2   5  12  368.66   34.80
   2   5  12  367.96   34.20
  -3  -5 -12   89.69   15.90
   3   5  12  136.29   18.90
   3   5  12  128.49   16.80
   4   5  12   38.80   12.90
   4   5  12   55.79   14.60
   5   5  12   83.69   17.00
   5   5  12   81.39   18.20
   6   5  12   36.60   14.00
   6   5  12   60.89   15.20
   7   5  12   19.60   15.00
   7   5  12   30.80   16.10
   6  -6 -12   13.20   12.40
  -6   6  12   12.00   24.50
   5  -6 -12   -0.30    9.20
  -5   6  12    7.50   10.30
  -5   6  12   13.20   23.50
   4  -6 -12    9.20    8.40
  -4   6  12   16.20   20.70
  -4   6  12   -1.60    7.10
   3  -6 -12  196.38   20.60
   3  -6 -12  223.78   22.30
  -3   6  12  180.08   21.40
  -3   6  12  214.38   33.20
  -3   6  12  234.18   21.10
   2  -6 -12  199.98   21.20
   2  -6 -12  190.78   21.90
  -2   6  12  187.08   31.10
  -2   6  12  249.78   22.30
   1  -6 -12  325.57   29.80
   1  -6 -12  287.37   36.90
   1  -6 -12  308.77   30.50
   1  -6 -12  336.07   29.30
  -1   6  12  324.37   37.80
  -1   6  12  297.07   30.70
   0  -6 -12  718.93   62.59
   0  -6 -12  691.43   63.89
   0  -6 -12  763.12   62.39
   0  -6 -12  727.93   66.79
   0   6  12  697.43   63.39
   0   6  12  790.72   67.79
  -1  -6 -12   29.50    8.00
  -1  -6 -12    1.50   11.10
  -1  -6 -12   21.20    8.50
  -1  -6 -12   33.60   10.30
   1   6  12   10.70    8.70
   1   6  12   19.50   11.20
  -2  -6 -12  401.76   36.40
   2   6  12  380.36   35.60
   2   6  12  365.86   33.70
   2   6  12  310.47   33.90
  -3  -6 -12  266.77   29.30
   3   6  12  249.48   29.70
   3   6  12  313.37   29.40
   4   6  12   19.00   11.40
   4   6  12   41.50   11.90
   5   6  12   36.10   15.40
   5   6  12   23.00   13.30
   6   6  12   66.69   17.00
   6   6  12   72.49   16.50
   7   6  12   18.70   14.60
   7   6  12   -3.10   13.60
   6  -7 -12  127.59   20.30
  -6   7  12   68.49   28.30
   5  -7 -12   10.90   10.10
  -5   7  12   68.79   26.30
   4  -7 -12   21.00    9.80
  -4   7  12   11.50    8.40
  -4   7  12   33.10   21.70
   3  -7 -12  242.68   24.00
   3  -7 -12  244.88   25.40
  -3   7  12  206.18   24.50
  -3   7  12  251.67   37.60
  -3   7  12  263.97   23.90
   2  -7 -12   31.50    9.70
  -2   7  12   20.70    7.20
  -2   7  12   14.30   15.90
  -2   7  12   41.60   15.20
   1  -7 -12   74.39   12.00
   1  -7 -12   70.59   18.60
   1  -7 -12   77.89   13.40
   1  -7 -12   77.89   12.50
  -1   7  12   83.09   13.40
  -1   7  12  104.29   21.00
   0  -7 -12 1004.00   89.69
   0  -7 -12 1077.79   89.69
   0  -7 -12 1080.99   92.89
   0   7  12 1131.29   93.79
   0   7  12 1020.10   89.89
  -1  -7 -12  106.19   17.40
  -1  -7 -12   86.79   16.40
  -1  -7 -12  103.89   14.90
  -1  -7 -12   94.89   14.80
   1   7  12   94.29   16.30
   1   7  12   95.29   15.80
  -2  -7 -12   67.09   12.90
  -2  -7 -12   44.10   11.40
   2   7  12   80.39   11.10
   2   7  12   52.39   13.50
   2   7  12   51.39   11.70
   3   7  12  939.61   80.89
   3   7  12  924.41   81.39
   4   7  12   28.60   11.50
   4   7  12   37.20   12.90
   5   7  12  158.48   23.20
   5   7  12  154.58   22.80
   6   7  12   59.59   17.00
   6   7  12   81.19   17.30
   7   7  12   26.90   15.00
   7   7  12    4.30   13.90
   6  -8 -12   -5.90   12.20
  -6   8  12  -10.70   24.10
   5  -8 -12  128.59   19.10
  -5   8  12   77.69   28.50
   4  -8 -12   14.10    6.30
   4  -8 -12    0.10   10.00
   4  -8 -12   21.20   10.00
  -4   8  12   13.30   20.50
   3  -8 -12  210.28   22.90
   3  -8 -12  250.87   24.70
  -3   8  12  171.38   23.20
  -3   8  12  252.57   23.10
  -3   8  12  215.88   36.60
   2  -8 -12  255.17   27.60
   2  -8 -12  253.67   27.90
  -2   8  12  294.47   28.00
  -2   8  12  348.07   38.80
   1  -8 -12   47.40   12.00
   1  -8 -12   46.00    9.80
   1  -8 -12   49.70   11.00
   1  -8 -12   35.80   16.10
  -1   8  12   42.60   17.80
  -1   8  12   64.29   11.90
   0  -8 -12  648.54   61.69
   0  -8 -12  724.83   62.59
   0  -8 -12  770.12   61.79
   0  -8 -12  749.23   65.69
   0   8  12  678.53   64.39
   0   8  12  679.03   62.09
  -1  -8 -12  145.79   19.80
  -1  -8 -12  169.68   20.90
  -1  -8 -12  156.28   22.00
   1   8  12  153.68   21.00
   1   8  12  190.48   22.80
  -2  -8 -12   -7.70    7.60
  -2  -8 -12   -2.30    8.00
   2   8  12   -9.30    8.80
   2   8  12    6.30    6.90
   3   8  12  259.77   29.20
   3   8  12  270.17   29.80
   4   8  12  114.99   18.50
   5   8  12  -12.50    9.90
   5   8  12   19.60   12.20
   6   8  12   89.39   18.00
   6   8  12  118.19   19.90
   7   8  12   30.00   16.60
   6  -9 -12    6.10   13.00
  -6   9  12   18.80   25.30
   5  -9 -12  121.69   21.20
  -5   9  12   61.39   27.10
   4  -9 -12   87.29   15.70
   4  -9 -12   81.59   12.80
   4  -9 -12   93.89   12.20
  -4   9  12   87.19   27.40
   3  -9 -12   18.30   10.10
   3  -9 -12   34.60   10.70
   2  -9 -12  632.94   57.19
   2  -9 -12  642.34   54.99
  -2   9  12  547.65   54.39
  -2   9  12  686.93   62.99
  -2   9  12  608.04   54.39
   1  -9 -12   52.19   11.80
   1  -9 -12   37.00   11.40
   1  -9 -12   83.09   12.50
   1  -9 -12   81.29   18.80
  -1   9  12   82.19   19.60
  -1   9  12   33.70   11.80
   0  -9 -12  651.23   60.59
   0  -9 -12  698.43   63.99
   0  -9 -12  686.33   60.49
   0   9  12  743.13   63.89
   0   9  12  660.93   60.69
  -1  -9 -12  531.35   44.90
  -1  -9 -12  437.66   45.70
  -1  -9 -12  463.95   44.70
   1   9  12  450.75   44.60
   1   9  12  493.75   44.80
  -2  -9 -12   31.40    9.50
  -2  -9 -12   17.80    9.80
   2   9  12   31.60   11.80
   2   9  12   10.50    7.60
  -3  -9 -12  178.08   24.80
   3   9  12  228.18   27.50
   4   9  12  126.19   21.20
   5   9  12  -15.60    9.20
   5   9  12    8.10   12.30
   6   9  12   83.29   18.80
   6   9  12   24.90   13.80
   7   9  12   59.69   17.80
   7   9  12   52.19   18.00
  -6  10  12   20.20   25.40
   5 -10 -12   75.29   16.90
  -5  10  12   84.79   28.80
   4 -10 -12  181.08   20.30
   4 -10 -12  161.08   20.60
   4 -10 -12  204.28   24.70
  -4  10  12  157.08   33.40
   3 -10 -12    4.10   13.30
   3 -10 -12   11.70    8.70
  -3  10  12   21.90   18.00
   2 -10 -12  144.09   19.80
   2 -10 -12  165.48   20.70
  -2  10  12  165.78   20.00
  -2  10  12  151.08   27.50
   1 -10 -12  105.49   16.10
  -1  10  12   99.69   22.00
  -1  10  12  114.39   17.00
   0 -10 -12   21.70    9.30
   0 -10 -12   52.09   16.60
   0  10  12   29.40   12.00
   0  10  12   42.80   14.10
  -1 -10 -12  342.07   37.80
  -1 -10 -12  366.26   36.70
   1  10  12  375.26   36.90
   1  10  12  386.76   37.20
  -2 -10 -12  483.95   46.40
  -2 -10 -12  525.05   44.90
   2  10  12  472.15   46.10
   2  10  12  453.55   42.90
  -3 -10 -12   35.80   12.50
  -4 -10 -12  922.21   81.19
   4  10  12  876.01   79.89
   5  10  12   49.90   15.90
   5  10  12   38.80   14.30
   6  10  12  110.39   20.70
   6  10  12   81.49   20.60
   7  10  12  116.99   23.40
   5 -11 -12   10.20   12.40
   5 -11 -12   19.70    9.40
   4 -11 -12  110.29   18.40
   4 -11 -12   87.69   14.10
  -4  11  12   75.89   25.90
   3 -11 -12  156.08   18.90
   3 -11 -12  136.99   20.50
   3 -11 -12  136.79   19.30
  -3  11  12  171.38   31.40
   2 -11 -12   35.30   10.50
  -2  11  12   17.50   16.80
  -2  11  12   26.00   10.60
   1 -11 -12  232.28   26.50
  -1  11  12  235.98   33.00
  -1  11  12  237.98   27.50
   0 -11 -12   75.89   18.50
   0 -11 -12   75.49   14.10
   0  11  12   90.39   16.40
   0  11  12   76.79   17.80
  -1 -11 -12  391.96   37.00
  -1 -11 -12  345.27   38.10
   1  11  12  352.06   37.00
   1  11  12  348.37   36.70
  -2 -11 -12   86.89   16.80
  -2 -11 -12   64.79   19.10
   2  11  12   45.40   19.20
   2  11  12   69.29   12.50
  -3 -11 -12   -2.50    9.60
   3  11  12   27.90   13.20
  -4 -11 -12   60.69   16.70
   4  11  12  110.69   18.70
   5  11  12  111.39   20.80
   6  11  12   14.70   15.70
   6  11  12   23.80   16.90
   5 -12 -12   74.19   17.90
  -5  12  12   76.79   30.20
   4 -12 -12   88.39   17.10
   4 -12 -12   68.39   13.30
   4 -12 -12   54.19   19.40
  -4  12  12   55.59   24.00
   3 -12 -12  247.58   27.90
   3 -12 -12  272.27   30.40
  -3  12  12  211.48   36.90
   2 -12 -12   42.20   11.90
  -2  12  12   49.80   12.70
  -2  12  12   38.90   21.20
   1 -12 -12  203.08   26.70
  -1  12  12  233.08   33.40
  -1  12  12  257.67   28.50
   0 -12 -12  226.38   28.70
   0 -12 -12  252.87   33.80
   0  12  12  255.27   32.00
   0  12  12  260.87   29.80
  -1 -12 -12   72.49   15.40
  -1 -12 -12  102.59   19.00
   1  12  12  102.59   17.80
  -2 -12 -12  220.38   26.20
  -2 -12 -12  194.18   28.30
   2  12  12  187.08   26.30
   2  12  12  223.58   25.00
  -3 -12 -12   38.70   14.20
   3  12  12   42.70   14.20
  -4 -12 -12   31.00   13.30
   4  12  12   22.40   12.90
  -5 -12 -12   89.79   20.40
   5  12  12   99.29   19.90
  -6 -12 -12   60.49   18.90
   5 -13 -12   44.40   15.90
   5 -13 -12   34.30   15.10
  -5  13  12   17.20   25.00
   4 -13 -12   -6.80    9.80
   4 -13 -12   18.90   12.70
  -4  13  12   -4.10   20.80
   3 -13 -12   78.39   15.00
   3 -13 -12   64.49   15.30
  -3  13  12   61.39   23.80
   2 -13 -12   61.19   15.00
  -2  13  12   76.49   22.60
   1 -13 -12   46.10   12.40
  -1  13  12   44.10   17.60
  -1  13  12   40.20   13.90
   0 -13 -12   93.19   18.20
   0  13  12  131.69   23.80
   0  13  12  126.49   19.90
  -1 -13 -12   16.50   10.40
   1  13  12    2.90   10.80
   1  13  12    7.30   10.70
  -2 -13 -12  109.89   19.50
  -2 -13 -12  145.39   21.80
   2  13  12  103.99   19.50
   2  13  12  100.89   17.90
  -3 -13 -12  122.69   21.20
   3  13  12  116.39   20.90
  -4 -13 -12    9.00   12.40
   4  13  12  -11.70   12.00
  -5 -13 -12   36.90   16.20
   5  13  12   81.59   18.70
  -6 -13 -12    8.60   14.10
   6  13  12   18.10   16.30
   4 -14 -12   34.00   12.80
   4 -14 -12   31.10   14.90
   3 -14 -12  167.98   24.00
  -3  14  12  118.79   30.30
   2 -14 -12   22.90   11.50
   2 -14 -12   32.10   11.90
  -2  14  12   24.80   18.30
   1 -14 -12   55.89   13.80
  -1  14  12   15.10   15.70
  -1  14  12    6.90   10.80
   0 -14 -12   56.29   14.10
   0  14  12   81.59   16.50
   0  14  12   68.99   17.90
  -1 -14 -12   61.39   17.90
  -1 -14 -12   55.39   14.90
   1  14  12   49.20   15.10
   1  14  12   54.79   14.90
  -2 -14 -12   18.80   14.30
  -2 -14 -12   23.40   12.40
   2  14  12    5.90   16.20
   2  14  12   37.00   13.70
  -3 -14 -12  100.39   20.70
  -3 -14 -12  110.79   20.60
   3  14  12  119.49   21.10
  -4 -14 -12   54.89   17.80
   4  14  12   27.60   13.50
  -5 -14 -12   87.69   21.70
   5  14  12   77.99   20.40
   4 -15 -12  104.79   27.80
   4 -15 -12   73.29   17.00
  -4  15  12   76.29   28.50
   3 -15 -12   92.29   18.20
   3 -15 -12  121.69   21.30
  -3  15  12  112.29   28.30
   2 -15 -12  601.64   54.99
   2 -15 -12  585.14   55.99
  -2  15  12  541.35   62.79
   1 -15 -12    1.20    9.90
  -1  15  12   -6.00   14.90
   0 -15 -12  309.17   35.20
   0  15  12  312.17   37.60
   0  15  12  330.37   39.80
  -1 -15 -12   79.49   17.20
   1  15  12   78.79   20.00
   1  15  12   90.19   19.40
  -2 -15 -12   39.30   15.10
   2  15  12   70.49   16.40
   2  15  12   33.00   16.80
  -3 -15 -12   27.40   14.40
   3  15  12   24.60   14.50
  -4 -15 -12    9.90   14.30
   4  15  12   22.30   16.70
   3 -16 -12    4.30   12.90
   3 -16 -12    5.10   12.30
   2 -16 -12    2.60   10.30
   2 -16 -12   24.80   13.80
  -2  16  12   25.30   21.00
   1 -16 -12  267.27   32.40
   1 -16 -12  252.67   32.60
  -1  16  12  223.68   36.50
   0 -16 -12   -1.90   10.50
   0  16  12    9.60   12.70
  -1 -16 -12  218.68   31.60
   1  16  12  263.37   33.20
   1  16  12  302.27   36.10
  -2 -16 -12  -17.00   10.90
   2  16  12   -2.70   15.80
   2  16  12   -7.80   12.10
  -3 -16 -12  109.79   22.00
   3  16  12   82.19   19.40
  -4 -16 -12   93.09   22.40
   4  16  12   87.49   20.60
   2 -17 -12  180.48   27.60
   2 -17 -12  178.28   26.90
  -2  17  12  153.48   32.20
   1 -17 -12   15.70   13.40
   1 -17 -12   35.90   13.00
  -1  17  12   18.70   18.80
   0 -17 -12   -9.60   12.40
   0 -17 -12   -4.50   12.30
   0  17  12   15.60   16.90
  -1 -17 -12   57.69   16.50
   1  17  12   38.30   19.40
   1  17  12   20.60   16.60
  -2 -17 -12   49.20   17.30
   2  17  12   78.49   22.80
   2  17  12   74.79   18.30
  -3 -17 -12    0.40   13.20
   3  17  12    6.30   14.00
  -1  -8  13  144.29   39.60
  -1  -8  13  148.19   24.40
   0  -8  13    2.30   14.20
   0  -8  13   -4.10   25.30
   1  -8  13  116.09   39.40
  -2   8 -13  115.09   59.99
   2  -8  13   46.70   16.90
   2  -8  13   23.20   11.20
  -3   8 -13   13.20   31.50
   3  -8  13   20.10   12.20
   3  -8  13   35.10   16.70
  -2  -7  13   24.20   15.60
  -2  -7  13   32.50   29.60
  -1  -7  13   13.10   13.90
  -1  -7  13   27.10   28.70
   0  -7  13   17.30   25.60
   0  -7  13   40.10   15.50
   1  -7  13    7.10    6.60
   1  -7  13   11.80   25.00
   1  -7  13   -8.10   11.80
  -2   7 -13   72.49   30.60
   2  -7  13  115.99   20.90
   2  -7  13  106.59   15.80
  -3   7 -13  -12.00   23.90
   3  -7  13   26.90   11.30
  -4   7 -13   19.00   27.00
   4  -7  13   36.60   13.80
   4  -7  13   68.89   18.90
  -3  -6  13   23.70   29.50
  -3  -6  13   38.80   15.20
  -2  -6  13   37.70   36.50
  -2  -6  13   10.30   12.40
  -1  -6  13   35.40   14.90
  -1  -6  13   78.39   29.90
   0  -6  13   98.29   18.90
   0  -6  13   58.09   27.70
   1  -6  13   11.10   23.30
   1  -6  13   -9.20   11.30
  -2   6 -13   45.60   11.20
   2  -6  13   40.60   14.50
   2  -6  13   49.99   11.10
  -3   6 -13   -4.50   23.10
   3  -6  13   14.10   10.20
   3  -6  13   38.00   14.20
  -4   6 -13   10.10   25.50
  -5   6 -13   53.49   30.10
   5  -6  13   34.40   16.30
   5  -6  13   40.30   15.10
  -3  -5  13   13.00   13.60
  -3  -5  13   24.90   25.50
  -2  -5  13   32.30   23.50
  -2  -5  13   40.90   22.10
  -1  -5  13   27.00   25.40
  -1  -5  13   -3.80   11.40
   0  -5  13  128.69   30.50
   0  -5  13   85.39   17.50
   1  -5  13   77.69   26.30
   1  -5  13   55.49   15.60
  -2   5 -13   67.19   11.70
   2  -5  13   84.59   17.10
   2  -5  13   92.09   27.90
  -3   5 -13   57.09   15.00
  -3   5 -13  131.59   31.20
   3  -5  13  104.09   16.10
   3  -5  13  113.19   19.50
  -4   5 -13   40.20   26.20
   4  -5  13    3.00   12.60
   4  -5  13   16.00   10.60
  -5   5 -13   38.30   28.20
   5  -5  13   90.39   29.50
   5  -5  13   68.39   16.20
  -4  -4  13   16.00   26.00
  -3  -4  13   18.30   12.60
  -3  -4  13   33.30   25.10
  -2  -4  13   14.60   12.10
  -2  -4  13   35.70   23.60
  -1  -4  13   11.50   10.50
  -1  -4  13   -4.20   19.90
   0  -4  13  152.98   26.50
   0  -4  13  142.89   30.70
   1  -4  13  130.89   20.40
   1  -4  13  155.38   32.40
  -2   4 -13    7.30    6.70
   2  -4  13   23.00   20.80
   2  -4  13   16.80   11.70
   2  -4  13    5.20    7.20
  -3   4 -13  103.29   17.20
  -3   4 -13  185.98   36.80
   3  -4  13  185.78   20.30
   3  -4  13  142.59   22.00
  -4   4 -13   55.99   25.50
   4  -4  13   45.40   14.90
   4  -4  13   47.40   12.90
  -5   4 -13   17.70   24.20
   5  -4  13   18.90   11.70
   5  -4  13   -4.60   12.00
  -6   4 -13   15.90   24.60
   6  -4  13    6.70   13.50
   6  -4  13    8.20   15.80
  -4  -3  13   58.49   28.70
  -3  -3  13   48.00   26.20
  -3  -3  13    9.70   10.60
  -2  -3  13   51.89   13.60
  -2  -3  13   71.09   26.10
  -1  -3  13  -17.30   16.50
  -1  -3  13    1.10   10.70
   0  -3  13    5.30   11.00
   0  -3  13   19.10   19.70
   1  -3  13   96.49   29.40
   1  -3  13  130.19   28.80
  -2   3 -13    6.80    6.50
   2  -3  13   11.90   18.20
   2  -3  13    9.20    6.80
   2  -3  13   15.40   11.50
  -3   3 -13   20.40    9.40
  -3   3 -13   40.50   21.60
   3  -3  13   30.60    9.50
   3  -3  13   17.40   11.60
  -4   3 -13   74.69   24.90
   4  -3  13   54.19   13.40
   4  -3  13   38.40   15.40
  -5   3 -13  -15.70   19.10
   5  -3  13   -8.40    9.40
   5  -3  13   14.20   12.90
   6  -3  13   32.10   13.50
  -5  -2  13    9.00   24.30
  -4  -2  13   43.10   10.20
  -4  -2  13   47.60   27.30
  -3  -2  13    3.70    9.70
  -3  -2  13    9.10   20.00
   2   2 -13  135.69   20.70
  -2  -2  13  132.79   18.60
  -2  -2  13  130.89   29.80
  -1  -2  13  259.77   39.60
  -1  -2  13  245.68   28.10
   0  -2  13  170.78   30.90
   0  -2  13  156.58   21.40
   1  -2  13  368.76   42.90
   1  -2  13  265.77   31.60
  -2   2 -13   26.00    7.60
   2  -2  13   20.10    8.00
   2  -2  13   22.40   18.20
   3  -2  13   94.59   17.80
   3  -2  13   97.29   14.80
  -4   2 -13   67.09   23.50
   4  -2  13   78.19   16.90
   4  -2  13   60.19   13.70
  -5   2 -13   35.10   21.20
   5  -2  13   28.30   12.50
   5  -2  13   30.70   14.40
  -6   2 -13   56.99   24.70
   6  -2  13   22.10   15.90
   6  -2  13   21.00   13.90
  -7   2 -13   59.89   27.80
   7  -2  13   72.19   32.10
   7  -2  13   65.79   19.30
  -5  -1  13   24.10   24.20
  -4  -1  13   93.59   28.90
  -3  -1  13   18.30   20.60
  -3  -1  13    0.50    8.80
   2   1 -13   27.50   11.70
  -2  -1  13   59.59   12.10
  -2  -1  13   20.80   20.60
  -1  -1  13   80.09   15.00
  -1  -1  13  127.89   26.90
   0  -1  13  128.89   26.30
   0  -1  13  128.29   18.60
   1  -1  13  122.39   24.90
   1  -1  13   84.69   16.10
  -2   1 -13  310.47   29.90
   2  -1  13  322.67   30.10
   2  -1  13  387.96   41.30
   2  -1  13  309.07   33.70
  -3   1 -13   15.80    9.80
   3  -1  13   45.30   17.70
   3  -1  13   21.30   21.50
   3  -1  13   24.90    8.40
   3  -1  13   12.60   10.30
  -4   1 -13  161.98   28.80
   4  -1  13  152.08   20.40
   4  -1  13  175.48   28.20
   4  -1  13  137.59   22.30
  -5   1 -13  111.99   25.20
   5  -1  13  110.89   20.70
   5  -1  13   90.19   25.20
   5  -1  13   88.89   24.40
  -6   1 -13   26.10   21.00
   6  -1  13   17.20   14.40
   6  -1  13   28.80   13.30
  -7   1 -13   22.10   23.60
   7  -1  13   37.40   16.20
   7  -1  13   20.20   16.50
  -5   0  13    9.10   22.60
  -4   0  13    0.30   20.20
   3   0 -13  193.88   20.60
  -3   0  13  156.78   31.80
  -3   0  13  153.48   18.60
   2   0 -13    0.20    9.60
  -2   0  13   14.00    9.10
  -2   0  13   10.40   18.70
   1   0 -13   11.10    9.40
  -1   0  13   30.60   10.50
  -1   0  13    0.60   15.60
   0   0  13   73.39   14.60
   0   0  13   77.79   22.00
  -1   0 -13   30.20    5.50
   1   0  13   77.19   14.10
   1   0  13   33.50   18.40
  -2   0 -13  207.08   22.70
   2   0  13  325.97   34.30
   2   0  13  233.08   32.20
   2   0  13  216.68   22.90
   2   0  13  242.08   27.00
  -3   0 -13  251.97   31.10
   3   0  13  281.97   34.90
   3   0  13  325.37   31.00
   3   0  13  327.57   37.70
   3   0  13  422.16   39.00
   4   0  13  303.67   33.60
   4   0  13  212.78   26.50
   4   0  13  208.88   27.80
  -5   0 -13  374.46   42.70
   5   0  13  419.66   38.10
   5   0  13  278.17   37.70
  -6   0 -13   -2.90   17.60
   6   0  13   18.20   12.80
   6   0  13   -2.00   12.80
  -7   0 -13   77.79   24.80
   7   0  13   44.40   17.90
   7   0  13   56.99   22.20
  -4   1  13   -8.70   19.20
   3  -1 -13  186.08   19.20
  -3   1  13  137.09   17.50
  -3   1  13  262.27   36.70
   2  -1 -13   24.00    9.30
  -2   1  13   27.50   19.90
  -2   1  13   27.20    9.70
   1  -1 -13  261.17   29.40
  -1   1  13  335.87   41.20
  -1   1  13  313.57   29.90
   0  -1 -13   38.80   10.60
   0   1  13   48.90   18.10
   0   1  13   44.30   11.70
  -1  -1 -13  157.58   16.50
   1   1  13  220.08   23.70
   1   1  13  143.99   25.70
   1   1  13  247.78   30.40
  -2  -1 -13   58.49   10.80
   2   1  13   95.89   16.30
   2   1  13  105.79   20.60
   2   1  13   87.99   12.00
  -3  -1 -13    4.30    9.30
   3   1  13   32.20   15.20
   3   1  13   -6.20    9.70
   3   1  13   10.40   13.60
   3   1  13   10.70    8.00
   4   1  13   21.90   10.20
   4   1  13    1.80   18.90
   4   1  13    2.80   11.40
   4   1  13   -7.30   13.60
   5   1  13   26.30   14.70
   5   1  13   53.69   16.20
   5   1  13   38.90   13.70
   5   1  13   43.50   15.30
   6   1  13   99.49   19.10
   6   1  13   82.19   17.90
   6   1  13   77.49   19.30
   7   1  13  -13.80   12.30
   7   1  13   -3.70   13.20
  -5   2  13   -6.30   22.30
  -4   2  13    8.30   20.10
   3  -2 -13   17.60    7.90
  -3   2  13   34.10   20.50
  -3   2  13   16.10    7.50
   2  -2 -13   -2.10    7.00
  -2   2  13    0.50   10.80
  -2   2  13   16.30   17.30
   1  -2 -13   -1.00   13.70
  -1   2  13   -1.80    8.50
  -1   2  13    8.50   15.50
   0  -2 -13  337.97   32.40
   0   2  13  291.97   31.70
   0   2  13  450.85   40.90
   0   2  13  254.87   37.80
  -1  -2 -13    8.30    7.30
  -1  -2 -13   20.80    6.20
   1   2  13   19.40   10.00
   1   2  13   34.20   15.00
   1   2  13   17.40   26.80
  -2  -2 -13  193.28   22.40
   2   2  13  174.98   27.10
   2   2  13  264.27   30.70
   2   2  13  230.58   22.30
   2   2  13  237.98   26.60
  -3  -2 -13  381.16   39.00
   3   2  13  332.57   35.90
   3   2  13  305.77   32.10
   3   2  13  314.47   34.10
   3   2  13  344.87   36.00
   4   2  13   74.59   14.20
   4   2  13   66.59   15.70
   4   2  13   50.09   15.80
   4   2  13   86.39   16.50
   5   2  13  136.69   18.70
   5   2  13  109.19   19.60
   5   2  13  123.69   21.50
   5   2  13  134.69   19.10
   6   2  13    7.90   12.90
   6   2  13  -21.30   10.30
   6   2  13   35.20   16.10
   6   2  13   12.90   10.00
   7   2  13   19.60   15.70
   7   2  13   23.10   14.90
  -6   3  13   -1.50   25.40
  -5   3  13   54.69   26.50
  -4   3  13   26.40   21.20
   3  -3 -13  130.79   14.70
  -3   3  13   92.99   12.50
  -3   3  13  123.29   26.50
   2  -3 -13   64.99   10.80
  -2   3  13   57.09   19.30
  -2   3  13   30.40   11.60
   1  -3 -13   34.30   10.10
  -1   3  13   51.59   18.80
  -1   3  13   12.80    9.90
   0  -3 -13   86.79   11.10
   0  -3 -13  115.29   15.60
   0  -3 -13  121.99   11.00
   0   3  13  113.39   22.40
   0   3  13  155.08   23.60
   0   3  13  120.09   16.50
  -1  -3 -13   84.49   12.00
  -1  -3 -13  103.79   12.30
   1   3  13  116.59   19.90
   1   3  13   80.99   19.20
   1   3  13   94.09   15.90
  -2  -3 -13    7.60    7.10
   2   3  13   -0.70    6.30
   2   3  13   15.20   11.70
   2   3  13   -4.20    9.60
   2   3  13    0.00   11.50
  -3  -3 -13  243.18   27.70
   3   3  13  279.37   27.50
   3   3  13  275.27   30.10
   3   3  13  271.07   29.60
   3   3  13  224.48   28.70
   4   3  13   90.39   16.50
   4   3  13  107.69   16.00
   5   3  13   60.59   14.80
   5   3  13   87.39   18.00
   6   3  13  170.88   25.40
   6   3  13  166.58   25.20
   7   3  13    1.40   13.10
   7   3  13    0.50   13.60
  -6   4  13   11.70   26.10
   5  -4 -13   35.70    9.80
  -5   4  13   39.30   26.70
   4  -4 -13   16.80    7.00
  -4   4  13   50.39   23.50
   3  -4 -13   30.50    6.70
   3  -4 -13   47.90    9.20
  -3   4  13   48.90    8.30
  -3   4  13   49.80   21.20
   2  -4 -13  363.46   33.80
  -2   4  13  429.46   45.80
  -2   4  13  338.37   34.40
   1  -4 -13    5.00    8.50
   1  -4 -13    6.00    3.90
   1  -4 -13    3.60    4.40
  -1   4  13    5.40    8.60
  -1   4  13   11.30   14.60
   0  -4 -13  435.26   34.70
   0  -4 -13  335.07   36.10
   0  -4 -13  393.46   37.60
   0   4  13  360.56   44.20
   0   4  13  415.96   43.90
   0   4  13  443.96   38.10
  -1  -4 -13   61.59   10.10
  -1  -4 -13   64.99   10.70
   1   4  13   52.69   16.70
   1   4  13   67.59   13.30
   1   4  13   69.29   20.40
  -2  -4 -13   39.80    9.80
   2   4  13   43.00   12.80
   2   4  13   30.60   11.30
   2   4  13   40.30   10.00
   2   4  13   40.50   13.10
  -3  -4 -13   29.30   10.60
   3   4  13   29.60    9.80
   3   4  13   58.69   13.50
   3   4  13   53.99   11.60
   4   4  13   88.19   15.80
   5   4  13  -16.30    9.60
   5   4  13  -11.20   15.00
   6   4  13  286.07   33.30
   6   4  13  229.18   30.90
   7   4  13   12.10   14.40
   7   4  13   48.30   16.80
   6  -5 -13   -1.90   10.60
  -6   5  13   -7.10   26.50
   5  -5 -13  100.79   15.80
  -5   5  13  107.69   32.20
   4  -5 -13   39.70    9.40
  -4   5  13   43.30   23.30
  -4   5  13   41.00    9.00
   3  -5 -13   -1.50    5.90
   3  -5 -13    9.50    6.60
  -3   5  13    8.20    6.70
  -3   5  13   23.80   19.80
   2  -5 -13  155.68   17.50
   2  -5 -13  187.88   19.30
  -2   5  13  124.89   20.10
  -2   5  13  301.07   35.40
   1  -5 -13  196.68   24.20
   1  -5 -13  228.58   23.60
   1  -5 -13  229.08   21.50
  -1   5  13  341.87   37.20
  -1   5  13  229.68   24.70
   0  -5 -13   86.89   11.80
   0  -5 -13  100.59   11.70
   0  -5 -13   82.49   13.80
   0   5  13   77.59   14.30
   0   5  13   98.99   20.50
  -1  -5 -13  399.06   32.90
  -1  -5 -13  346.17   32.70
   1   5  13  332.47   34.60
   1   5  13  338.27   36.70
   1   5  13  310.37   38.20
  -2  -5 -13   13.50    8.60
   2   5  13   15.60   10.10
   2   5  13    6.40    7.40
   2   5  13   15.90   11.10
   2   5  13    6.40    9.30
  -3  -5 -13   95.39   17.00
   3   5  13  137.59   17.90
   3   5  13  117.09   18.90
   3   5  13  123.79   14.70
   3   5  13  127.99   14.90
   4   5  13  127.89   19.00
   5   5  13   -5.50   11.00
   5   5  13   -2.40   11.50
   6   5  13  110.19   19.60
   6   5  13   79.89   18.80
   7   5  13    3.00   15.30
   7   5  13   48.80   17.40
   6  -6 -13   14.70   12.40
  -6   6  13   44.80   29.20
   5  -6 -13   81.19   14.60
  -5   6  13   44.20   25.00
   4  -6 -13  161.88   18.80
  -4   6  13  166.28   34.00
  -4   6  13  132.49   17.50
   3  -6 -13    7.20    6.90
   3  -6 -13    3.30    6.30
  -3   6  13   -6.30    5.50
  -3   6  13   -1.80   18.50
  -3   6  13    6.80    7.00
   2  -6 -13   49.40    9.00
   2  -6 -13   31.80    9.90
   2  -6 -13   49.40    9.30
  -2   6  13   42.80   12.50
  -2   6  13   40.90   19.70
   1  -6 -13   18.50    7.50
   1  -6 -13   18.50   13.90
   1  -6 -13   16.60    6.50
  -1   6  13    1.60    8.60
  -1   6  13   13.50   14.60
   0  -6 -13  656.43   61.39
   0  -6 -13  679.63   60.29
   0  -6 -13  768.42   59.99
   0  -6 -13  664.93   67.69
   0   6  13  698.13   65.19
   0   6  13  705.43   61.49
  -1  -6 -13  229.78   24.80
  -1  -6 -13  271.07   34.10
   1   6  13  242.38   28.90
   1   6  13  233.08   26.30
   1   6  13  226.38   28.70
  -2  -6 -13  719.93   61.29
  -2  -6 -13  722.73   65.29
   2   6  13  692.83   60.89
   2   6  13  652.33   61.79
   3   6  13   28.90   12.50
   3   6  13   23.80   10.20
   4   6  13  317.17   32.30
   4   6  13  247.78   42.40
   5   6  13   47.90   14.90
   5   6  13   36.20   13.60
   6   6  13   19.90   13.70
   6   6  13   -4.80   12.60
   7   6  13   17.40   15.00
   7   6  13   75.29   19.10
   6  -7 -13   35.50   14.50
  -6   7  13   27.00   26.50
   5  -7 -13    2.70   10.40
  -5   7  13    5.70   23.30
   4  -7 -13  178.68   19.70
  -4   7  13  181.98   33.80
  -4   7  13  114.89   17.90
   3  -7 -13  119.79   15.40
   3  -7 -13  130.79   17.00
  -3   7  13  132.69   17.10
  -3   7  13  186.68   31.80
  -3   7  13  155.58   16.30
   2  -7 -13   52.29   11.10
   2  -7 -13   48.00   14.80
   2  -7 -13   69.79   12.40
  -2   7  13   75.49   21.30
  -2   7  13   40.10   10.50
   1  -7 -13  289.77   29.80
   1  -7 -13  282.57   48.40
   1  -7 -13  275.87   30.70
   1  -7 -13  327.87   29.30
  -1   7  13  319.37   30.70
  -1   7  13  357.26   39.60
   0  -7 -13   13.50   14.60
   0  -7 -13    7.10    7.70
   0  -7 -13   11.00    9.30
   0  -7 -13   11.30    9.50
   0   7  13   16.40   13.10
   0   7  13  -10.60    8.70
  -1  -7 -13   49.90   11.60
  -1  -7 -13   65.79   12.20
  -1  -7 -13   47.20   15.40
   1   7  13   47.40   13.60
   1   7  13   78.29   14.00
  -2  -7 -13  162.18   19.70
  -2  -7 -13  135.69   19.60
   2   7  13  154.38   18.40
   2   7  13  151.98   22.50
   2   7  13  136.39   20.70
   3   7  13   52.89   13.50
   3   7  13   23.70   10.70
   4   7  13    9.60   10.20
   4   7  13   32.40   13.20
   5   7  13  169.78   24.30
   5   7  13  155.08   22.80
   6   7  13   30.60   14.20
   6   7  13   10.80   13.40
   7   7  13   68.39   18.50
   5  -8 -13    1.60   10.30
  -5   8  13    2.90   21.10
   4  -8 -13    4.60    9.10
  -4   8  13  -11.10   20.40
   3  -8 -13  123.59   16.70
   3  -8 -13  128.89   15.90
  -3   8  13  105.69   16.10
  -3   8  13  129.99   27.60
  -3   8  13  108.89   16.40
   2  -8 -13   24.60    8.60
   2  -8 -13   43.40   11.40
  -2   8  13   20.00    8.90
  -2   8  13   30.90   17.70
   1  -8 -13  355.96   31.10
   1  -8 -13  275.87   31.50
   1  -8 -13  331.27   31.80
  -1   8  13  286.97   31.70
  -1   8  13  369.26   41.10
   0  -8 -13  563.64   57.59
   0  -8 -13  634.94   53.39
   0  -8 -13  584.24   60.69
   0   8  13  645.74   58.29
   0   8  13  570.74   53.99
  -1  -8 -13   60.69   13.10
  -1  -8 -13   71.69   16.30
  -1  -8 -13   77.69   13.30
   1   8  13   52.59   13.80
   1   8  13   78.79   14.70
  -2  -8 -13  644.84   49.00
   2   8  13  526.45   45.60
   2   8  13  482.05   47.70
   2   8  13  442.16   45.90
   3   8  13   86.09   16.60
   4   8  13   25.70   12.40
   4   8  13   46.60   13.70
   5   8  13   89.89   18.60
   5   8  13  108.79   19.30
   6   8  13   14.20   14.10
   6   8  13   12.00   13.90
   7   8  13    2.60   13.50
   7   8  13   12.80   17.60
   5  -9 -13   86.99   16.50
  -5   9  13   36.10   25.90
   4  -9 -13   47.00    9.00
   4  -9 -13   34.00   12.00
   4  -9 -13   32.10    9.00
  -4   9  13   23.70   22.00
   3  -9 -13  397.46   35.30
   3  -9 -13  306.27   33.60
  -3   9  13  364.66   33.50
  -3   9  13  317.97   46.00
   2  -9 -13   17.00    8.50
   2  -9 -13   18.00   10.50
  -2   9  13   19.80   16.20
  -2   9  13   27.30    9.60
   1  -9 -13  127.59   17.50
   1  -9 -13   91.19   18.00
   1  -9 -13  128.59   17.30
  -1   9  13  114.59   23.00
  -1   9  13  139.09   17.60
   0  -9 -13  485.15   59.49
   0  -9 -13  391.56   39.20
   0  -9 -13  459.05   39.10
   0   9  13  366.86   42.40
   0   9  13  390.96   39.30
  -1  -9 -13  242.48   29.20
  -1  -9 -13  234.08   26.10
  -1  -9 -13  218.68   34.40
   1   9  13  207.18   26.50
   1   9  13  220.38   26.50
  -2  -9 -13  210.38   24.70
   2   9  13  179.58   21.50
   2   9  13  201.58   25.50
  -3  -9 -13  440.96   42.50
   3   9  13  373.16   52.29
   4   9  13   11.60   11.30
   4   9  13   28.00   12.30
   5   9  13   55.29   15.40
   5   9  13  108.29   19.60
   6   9  13   72.49   18.20
   6   9  13   40.10   16.00
   7   9  13   -5.20   12.80
   7   9  13   -2.50   25.00
   5 -10 -13   70.69   16.70
   4 -10 -13   -4.20    7.60
   4 -10 -13  -13.80    9.30
   4 -10 -13    7.90   10.20
  -4  10  13    3.10   19.20
   3 -10 -13  165.88   21.10
   3 -10 -13  130.39   21.30
  -3  10  13  153.88   29.60
   2 -10 -13  233.98   26.10
   2 -10 -13  185.68   24.90
  -2  10  13  252.67   34.80
  -2  10  13  228.18   25.30
   1 -10 -13   47.80   11.50
  -1  10  13   51.19   18.10
  -1  10  13   75.69   13.40
   0 -10 -13  160.78   25.80
   0 -10 -13  153.88   20.90
   0  10  13  168.38   21.90
   0  10  13  182.88   25.60
  -1 -10 -13  141.29   23.20
  -1 -10 -13  157.48   21.40
   1  10  13  212.08   24.00
   1  10  13  123.69   20.40
  -2 -10 -13    6.60   13.00
  -2 -10 -13    7.60    9.70
   2  10  13   12.00   11.20
   2  10  13    5.60    7.90
  -3 -10 -13  145.09   22.20
   3  10  13  172.78   23.60
  -4 -10 -13  251.97   30.40
   4  10  13  202.48   28.00
   5  10  13   72.89   17.30
   5  10  13   45.10   15.00
   6  10  13  292.57   34.60
   6  10  13  249.18   33.80
   5 -11 -13    3.30   12.50
  -5  11  13    4.00   22.70
   4 -11 -13   38.20   13.10
   4 -11 -13   30.50   10.50
  -4  11  13   40.20   23.30
   3 -11 -13   24.70   11.10
   3 -11 -13    9.80   11.00
   3 -11 -13   34.30   10.50
  -3  11  13   14.00   18.90
   2 -11 -13  116.59   17.10
  -2  11  13  100.59   16.30
  -2  11  13   96.99   23.80
   1 -11 -13   92.49   16.20
  -1  11  13  102.29   16.30
  -1  11  13   75.99   20.50
   0 -11 -13   97.29   15.50
   0 -11 -13   98.39   21.00
   0  11  13  108.29   20.40
   0  11  13   67.19   15.50
  -1 -11 -13  288.07   35.00
  -1 -11 -13  298.57   32.80
   1  11  13  287.57   33.00
   1  11  13  370.56   41.00
  -2 -11 -13   18.90   11.00
  -2 -11 -13    9.30   17.10
   2  11  13    1.10    8.20
   2  11  13   19.90   12.10
  -3 -11 -13  277.77   34.30
   3  11  13  303.87   33.80
  -4 -11 -13   49.40   15.10
   4  11  13   60.29   15.40
  -5 -11 -13    2.00   12.50
   5  11  13   14.00   13.60
   6  11  13   40.40   20.20
   5 -12 -13  166.98   25.10
  -5  12  13  118.69   33.70
   4 -12 -13    5.00   11.30
   4 -12 -13   22.60   10.70
  -4  12  13   45.40   23.90
   3 -12 -13    3.30    9.20
   3 -12 -13   15.50   10.50
  -3  12  13   12.00   18.80
   2 -12 -13  107.39   18.70
  -2  12  13  113.59   17.80
  -2  12  13  165.88   32.90
   1 -12 -13   28.40   11.00
  -1  12  13   39.30   17.90
  -1  12  13   51.29   13.50
   0 -12 -13   19.40   16.20
   0 -12 -13   -0.80    8.20
   0  12  13    2.00   12.30
   0  12  13   11.70   11.00
  -1 -12 -13  326.97   36.50
  -1 -12 -13  348.07   34.50
   1  12  13  293.87   34.40
   1  12  13  285.37   34.10
  -2 -12 -13    9.80   12.30
  -2 -12 -13   25.70   12.30
   2  12  13   17.20   10.30
   2  12  13    4.00   11.50
  -3 -12 -13  113.99   20.40
   3  12  13  110.69   19.90
  -4 -12 -13  130.19   22.70
   4  12  13  117.39   21.70
  -5 -12 -13   -0.10   12.20
   5  12  13   37.50   16.40
  -6 -12 -13   36.10   16.90
   6  12  13   52.69   17.60
   4 -13 -13   83.29   15.90
   4 -13 -13  129.89   20.90
  -4  13  13   82.89   31.00
   3 -13 -13   21.70   11.60
   3 -13 -13   19.70   10.90
  -3  13  13    6.00   19.50
   2 -13 -13  172.68   24.10
  -2  13  13  176.88   31.30
   1 -13 -13   73.99   15.70
  -1  13  13   91.99   22.60
   0 -13 -13   59.89   13.70
   0  13  13   35.00   12.70
   0  13  13   44.10   15.90
  -1 -13 -13   85.19   16.00
   1  13  13   77.39   16.70
   1  13  13   67.79   16.80
  -2 -13 -13   44.20   14.40
  -2 -13 -13   67.39   15.50
   2  13  13   70.79   16.50
   2  13  13   37.80   13.20
  -3 -13 -13    4.40   11.40
   3  13  13   -0.10   11.70
  -4 -13 -13  139.89   24.00
   4  13  13  108.29   21.40
   4 -14 -13   20.40   12.60
   4 -14 -13   32.30   15.30
  -4  14  13   12.30   24.10
   3 -14 -13  118.19   20.00
  -3  14  13   76.29   24.90
   2 -14 -13   50.89   14.40
   2 -14 -13   53.59   14.90
  -2  14  13   51.99   21.20
   1 -14 -13  191.88   25.40
  -1  14  13  266.27   44.50
  -1  14  13  143.39   23.00
   0 -14 -13    5.40   10.40
   0  14  13    6.80   14.20
   0  14  13   15.20   11.60
  -1 -14 -13   70.39   16.50
  -1 -14 -13   84.49   21.00
   1  14  13   91.99   18.60
   1  14  13  108.49   19.50
  -2 -14 -13   99.59   19.70
  -2 -14 -13   98.59   19.70
   2  14  13   71.59   18.10
   2  14  13  116.89   19.40
  -3 -14 -13   -0.50   11.90
   3  14  13  -11.50   11.10
  -4 -14 -13   44.00   17.30
   4  14  13   69.29   18.10
  -5 -14 -13   31.30   16.80
   5  14  13   31.70   17.10
   3 -15 -13   47.20   14.20
   3 -15 -13   23.40   13.50
  -3  15  13   43.10   22.90
   2 -15 -13   -7.20    9.80
   2 -15 -13   11.50   11.30
  -2  15  13    8.00   17.90
   1 -15 -13  116.49   20.90
  -1  15  13  110.89   20.70
  -1  15  13  177.58   29.60
   0 -15 -13  323.27   36.60
   0  15  13  289.17   37.70
   0  15  13  280.87   35.70
  -1 -15 -13   10.20   10.90
   1  15  13   34.40   15.20
   1  15  13   24.70   15.00
  -2 -15 -13  374.46   41.20
   2  15  13  383.36   40.80
   2  15  13  350.36   43.30
  -3 -15 -13   19.80   13.80
   3  15  13   15.10   13.40
  -4 -15 -13  120.19   24.30
   4  15  13  106.49   20.90
   2 -16 -13    9.80   11.90
   2 -16 -13    0.00   11.00
  -2  16  13   10.50   19.10
   1 -16 -13  128.19   21.70
   1 -16 -13  103.69   22.00
  -1  16  13  159.18   27.70
   0 -16 -13   -3.40   10.50
   0  16  13    0.90   12.20
  -1 -16 -13   30.20   14.70
   1  16  13   35.80   14.70
   1  16  13   39.20   17.60
  -2 -16 -13  -17.60   11.30
   2  16  13  -23.30   14.30
  -3 -16 -13  140.29   25.10
   3  16  13  135.09   22.90
   1 -17 -13    4.00   12.00
   1 -17 -13    0.40   12.50
  -1  17  13    1.40   17.70
   0 -17 -13  350.36   39.70
   0  17  13  344.77   44.10
  -1 -17 -13   -8.60    9.80
   1  17  13  -16.40   16.10
   1  17  13    0.20   12.50
  -2 -17 -13   65.99   17.80
   2  17  13   83.79   23.00
   2  17  13   62.59   18.80
   0  -7  14  137.09   35.40
   0  -7  14   94.69   20.70
   1  -7  14   65.49   39.80
   2  -7  14   21.80   16.00
   3  -7  14    9.70   10.60
   3  -7  14    8.40   14.70
  -2  -6  14   44.70   28.80
  -2  -6  14   27.40   15.40
  -1  -6  14   65.49   18.30
  -1  -6  14   77.89   33.70
   0  -6  14   -4.40   12.40
   0  -6  14   20.50   26.00
   1  -6  14  159.98   37.10
   1  -6  14  160.08   25.20
   2  -6  14   65.49   18.10
   2  -6  14   97.79   31.20
  -3   6 -14   77.39   31.90
   3  -6  14   48.40   18.70
   3  -6  14   41.10   12.50
  -4   6 -14  140.59   37.20
   4  -6  14  108.39   22.80
   4  -6  14  152.98   22.10
  -2  -5  14   13.30   25.30
  -2  -5  14    0.40   13.50
  -1  -5  14   29.20   13.40
  -1  -5  14   42.50   25.60
   0  -5  14    1.40   11.10
   0  -5  14   -8.80   21.80
   1  -5  14   38.50   14.30
   1  -5  14   20.80   23.90
  -2   5 -14   40.00   12.40
   2  -5  14   52.19   16.20
   2  -5  14   39.30   10.40
   2  -5  14   57.29   27.30
   3  -5  14   -0.70   11.40
   3  -5  14    5.90    9.10
  -4   5 -14  153.58   35.20
   4  -5  14  138.59   33.50
   4  -5  14  107.89   19.10
  -5   5 -14   60.19   29.80
   5  -5  14   45.30   17.20
   5  -5  14   76.59   17.50
  -3  -4  14   75.39   30.20
  -3  -4  14   23.70   13.80
  -2  -4  14    7.90   24.80
  -2  -4  14    6.70   19.50
  -1  -4  14  120.69   20.60
  -1  -4  14  129.39   32.00
   0  -4  14    5.50   22.80
   0  -4  14   -5.30   11.10
   1  -4  14   50.19   15.10
   1  -4  14   70.19   25.30
  -2   4 -14  113.09   14.00
   2  -4  14  100.79   19.70
   2  -4  14  129.59   29.80
   2  -4  14   94.19   13.80
  -3   4 -14   -7.00    9.10
   3  -4  14   10.00   11.60
   3  -4  14   -9.40   20.40
   3  -4  14    6.80    8.50
  -4   4 -14   66.09   26.60
   4  -4  14   71.39   17.50
   4  -4  14   35.10   12.30
  -5   4 -14   73.49   28.80
   5  -4  14   80.09   19.60
   5  -4  14   98.29   17.90
  -4  -3  14   -6.90   24.10
  -3  -3  14   45.50   13.80
  -2  -3  14   26.20   12.60
  -2  -3  14   26.10   23.40
  -1  -3  14   42.60   13.60
  -1  -3  14   71.49   27.20
   0  -3  14  215.78   27.90
   0  -3  14  211.68   37.10
   1  -3  14   -5.30   10.70
   1  -3  14   15.00   19.70
  -2   3 -14  150.98   16.80
   2  -3  14  123.19   16.20
   2  -3  14  160.78   22.00
   2  -3  14  189.58   38.00
  -3   3 -14   42.50   11.80
   3  -3  14   67.49   42.00
   3  -3  14   66.79   16.20
   3  -3  14   57.49   12.00
   4  -3  14   27.80   13.80
   4  -3  14   15.40   10.50
  -5   3 -14   40.20   29.80
   5  -3  14   63.69   18.00
   5  -3  14   75.89   16.70
  -6   3 -14   -0.60   24.60
   6  -3  14    3.90   13.00
   6  -3  14  -13.50   14.70
  -4  -2  14   -1.90   22.80
  -3  -2  14   50.69   26.00
  -3  -2  14   17.10   11.60
  -2  -2  14   46.90   13.00
  -2  -2  14   70.29   27.80
  -1  -2  14    5.80   10.60
  -1  -2  14  -16.20   18.30
   0  -2  14  147.49   30.70
   0  -2  14  156.38   21.90
   1  -2  14   79.49   18.50
   1  -2  14  120.39   28.40
  -2   2 -14   90.09   12.30
   2  -2  14  213.68   30.40
   2  -2  14  102.29   18.70
   2  -2  14   99.49   13.30
  -3   2 -14   62.69   16.60
   3  -2  14   54.19   14.80
   3  -2  14   67.49   12.50
   3  -2  14  108.59   24.10
   4  -2  14   -2.20    8.90
   4  -2  14    3.50   11.70
  -5   2 -14   95.99   28.00
   5  -2  14  108.69   21.20
   5  -2  14  132.29   20.40
  -6   2 -14    5.20   22.90
   6  -2  14   10.10   15.90
   6  -2  14   26.50   14.20
  -4  -1  14   43.90   45.20
  -3  -1  14  122.79   30.20
  -3  -1  14   90.89   15.00
   2   1 -14  112.69   28.00
  -2  -1  14  125.89   18.50
  -2  -1  14  157.28   33.10
  -1  -1  14   12.70   10.80
  -1  -1  14    7.10   19.20
   0  -1  14  158.08   31.20
   0  -1  14  170.18   21.90
   1  -1  14   16.80   18.30
   1  -1  14    8.50   10.50
  -2   1 -14    5.50    6.20
   2  -1  14   19.80   12.10
   2  -1  14   -8.90   16.40
   2  -1  14  -14.30    5.80
  -3   1 -14   58.49   21.80
   3  -1  14   84.49   21.20
   3  -1  14   14.00   11.50
   3  -1  14   31.50    9.20
   4  -1  14   56.49   13.60
   4  -1  14   73.49   22.70
   4  -1  14   60.19   17.30
  -5   1 -14   21.60   21.00
   5  -1  14   16.40   14.10
   5  -1  14    6.90   10.80
  -6   1 -14  193.78   32.20
   6  -1  14  150.58   30.70
   6  -1  14  151.98   24.50
  -5   0  14   27.90   27.50
  -4   0  14   45.60   25.70
   3   0 -14   13.00   10.40
  -3   0  14   -4.60   19.70
  -3   0  14    5.60   10.00
   2   0 -14   73.49   14.40
  -2   0  14   68.39   13.10
  -2   0  14   44.70   22.60
  -1   0  14  261.17   28.70
   0   0  14   28.00   18.00
   0   0  14   -0.50   10.00
   1   0  14  253.77   31.20
   1   0  14  350.76   40.70
  -2   0 -14   26.20    8.00
   2   0  14   22.20   15.90
   2   0  14   56.89   19.40
   2   0  14   34.90    8.50
  -3   0 -14  110.49   25.30
   3   0  14  120.99   25.00
   3   0  14  121.19   19.90
   3   0  14  182.38   27.40
   3   0  14  113.59   16.90
   4   0  14    5.90   15.90
   4   0  14   20.80   10.40
   4   0  14   30.00   17.40
   4   0  14   21.50   12.60
   5   0  14   25.00   18.00
   5   0  14    6.60   13.10
   5   0  14    6.20   17.50
   5   0  14    2.20   11.70
   6   0  14   60.19   17.10
   6   0  14   58.99   17.80
   7   0  14   76.49   21.40
  -5   1  14   42.60   26.90
  -4   1  14   61.99   25.30
   3  -1 -14   18.80    9.50
  -3   1  14   14.40    8.70
  -3   1  14   -5.30   18.80
   2  -1 -14  115.49   20.30
  -2   1  14  115.19   27.00
  -2   1  14  105.49   16.00
   1  -1 -14  121.89   18.20
  -1   1  14  135.69   18.00
  -1   1  14  123.59   26.30
   0   1  14   -2.10   14.70
   0   1  14   -1.60    9.60
   1   1  14  131.29   25.30
   1   1  14  146.29   20.10
  -2  -1 -14   54.69   10.60
   2   1  14   95.09   11.70
   2   1  14  113.99   21.30
   2   1  14   61.69   14.90
   2   1  14   57.69   18.60
  -3  -1 -14  155.38   26.10
   3   1  14  198.98   21.40
   3   1  14  210.98   28.60
   3   1  14  181.48   24.00
   3   1  14  112.79   28.70
   4   1  14   72.49   17.70
   4   1  14  163.18   23.80
   4   1  14  126.69   18.80
   4   1  14  113.09   21.90
   5   1  14   70.89   18.60
   5   1  14   76.19   17.80
   5   1  14   61.59   24.90
   6   1  14    1.80   12.70
   6   1  14   33.30   15.20
   6   1  14   10.60   15.10
   7   1  14    2.90   16.10
   7   1  14   -7.50   14.80
  -5   2  14   33.00   26.80
  -4   2  14  244.38   41.20
   3  -2 -14   15.70    8.20
  -3   2  14   14.00    8.20
  -3   2  14   12.50   19.50
   2  -2 -14  137.89   18.40
  -2   2  14  132.09   28.10
  -2   2  14  152.58   18.50
   1  -2 -14  241.58   25.60
  -1   2  14  226.08   25.10
  -1   2  14  189.18   33.10
   0   2  14    8.70    9.50
   0   2  14   14.50   15.60
  -1  -2 -14   21.60    6.00
  -1  -2 -14   30.00    6.30
   1   2  14   16.80   15.80
   1   2  14   33.90   17.60
   1   2  14   24.50   11.10
  -2  -2 -14  190.88   23.90
   2   2  14  266.77   32.90
   2   2  14  292.77   29.90
   2   2  14  253.77   24.50
  -3  -2 -14    1.90    9.10
   3   2  14   27.60   18.20
   3   2  14    3.60    8.30
   3   2  14   -9.20   16.50
   3   2  14   18.50   14.50
   4   2  14  159.98   21.20
   4   2  14   72.79   16.10
   4   2  14  116.49   20.20
   4   2  14  111.09   20.00
   5   2  14  192.28   24.10
   5   2  14  189.08   24.80
   5   2  14  186.28   26.90
   6   2  14   48.20   16.40
   6   2  14   80.89   14.10
   6   2  14   52.99   16.80
   7   2  14   46.00   20.10
   7   2  14   52.69   23.30
  -5   3  14    5.10   23.70
  -4   3  14   63.79   25.00
   3  -3 -14  161.78   17.20
  -3   3  14  135.69   16.20
  -3   3  14  149.59   30.60
   2  -3 -14   40.70   11.10
  -2   3  14   57.79   11.20
   1  -3 -14  448.76   43.90
  -1   3  14  498.65   44.30
  -1   3  14  506.25   52.49
   0   3  14  351.56   39.40
   0   3  14  276.67   31.20
  -1  -3 -14  233.98   22.40
   1   3  14  204.48   30.90
   1   3  14  288.77   34.20
   1   3  14  225.68   27.20
  -2  -3 -14  474.05   42.90
   2   3  14  470.65   47.70
   2   3  14  417.76   47.50
   2   3  14  507.65   45.60
   2   3  14  497.05   43.70
  -3  -3 -14    3.60    9.30
   3   3  14   14.60   14.50
   3   3  14   28.70    9.50
   3   3  14   21.60   13.00
   3   3  14   28.50   13.40
   4   3  14   64.59   16.70
   4   3  14  120.59   17.30
   4   3  14   88.89   15.90
   4   3  14  101.49   17.10
   5   3  14   30.30    9.30
   5   3  14   25.40    9.10
   5   3  14   18.40   13.30
   5   3  14   27.90   16.60
   6   3  14   19.60   13.30
   6   3  14   14.80   14.00
   7   3  14   20.30   16.20
  -5   4  14   -1.90   40.50
  -4   4  14   50.19   23.60
   3  -4 -14  215.28   21.80
  -3   4  14  206.18   22.00
  -3   4  14  255.37   37.70
   2  -4 -14    4.90    7.70
  -2   4  14   -1.70    8.10
  -2   4  14   -1.70   16.00
   1  -4 -14  366.16   37.00
  -1   4  14  423.66   45.90
  -1   4  14  401.06   37.30
   0  -4 -14  798.72   62.29
   0  -4 -14  736.53   70.39
   0  -4 -14  678.93   62.49
   0   4  14  819.02   71.49
   0   4  14  678.63   71.69
   0   4  14  793.72   65.99
  -1  -4 -14   -4.20    5.70
  -1  -4 -14    5.70    6.70
   1   4  14    1.60   16.30
   1   4  14    0.20    9.40
   1   4  14    8.80   12.50
  -2  -4 -14  356.66   34.50
   2   4  14  420.36   39.20
   2   4  14  391.06   34.40
   2   4  14  349.17   36.50
   2   4  14  290.67   38.00
  -3  -4 -14  384.56   40.10
   3   4  14  443.76   41.10
   3   4  14  469.95   40.00
   3   4  14  374.46   41.30
   3   4  14  407.96   40.40
   4   4  14   42.50   14.50
   4   4  14   63.19   14.00
   4   4  14   51.89   10.20
   4   4  14   46.90    9.90
   5   4  14  160.38   22.50
   5   4  14  109.29   21.00
   6   4  14    7.40   13.80
   6   4  14   -0.80   12.60
   7   4  14    1.70   16.30
   5  -5 -14   36.80   10.10
   4  -5 -14   -2.80    6.50
  -4   5  14    3.90   20.40
   3  -5 -14  243.58   25.10
   3  -5 -14  273.77   25.90
   3  -5 -14  272.97   25.40
  -3   5  14  288.47   26.30
  -3   5  14  339.37   44.30
   2  -5 -14  104.89   14.30
   2  -5 -14  106.09   11.80
   2  -5 -14   82.79   11.20
  -2   5  14  123.79   25.90
  -2   5  14  114.89   14.80
   1  -5 -14   94.59   12.80
   1  -5 -14   98.99   11.10
   1  -5 -14   69.49   14.10
  -1   5  14   98.09   23.80
  -1   5  14  106.59   15.50
   0  -5 -14  546.25   43.40
   0  -5 -14  428.96   50.59
   0  -5 -14  464.65   43.60
   0   5  14  448.76   52.19
   0   5  14  498.45   51.69
   0   5  14  569.74   46.80
  -1  -5 -14   55.99   10.80
  -1  -5 -14   69.09   11.00
   1   5  14   50.39   13.40
   1   5  14   38.40   15.00
   1   5  14   45.40   17.20
  -2  -5 -14    2.30    8.50
   2   5  14    6.30   10.70
   2   5  14   14.70   12.60
   2   5  14    6.10   10.70
  -3  -5 -14  491.05   48.90
   3   5  14  488.45   49.99
   3   5  14  465.35   47.50
   3   5  14  571.94   49.10
   3   5  14  564.04   47.20
   4   5  14   62.79   14.20
   4   5  14   64.19   15.90
   5   5  14  164.08   23.70
   5   5  14  158.98   24.60
   6   5  14  122.09   21.50
   6   5  14   84.39   19.40
   5  -6 -14   36.30   11.50
   4  -6 -14    1.40    7.90
  -4   6  14   40.40   23.40
   3  -6 -14  122.49   15.80
   3  -6 -14  135.29   15.80
   3  -6 -14  107.79   15.20
  -3   6  14  157.38   16.30
  -3   6  14  176.68   33.40
   2  -6 -14  103.19   13.60
   2  -6 -14   94.99   12.90
   2  -6 -14   98.09   14.60
  -2   6  14  151.78   27.70
  -2   6  14   94.39   14.00
   1  -6 -14   -8.60    6.30
   1  -6 -14  -14.00    8.60
  -1   6  14   -3.20   15.00
  -1   6  14    1.70    8.80
   0  -6 -14  626.74   64.99
   0  -6 -14  712.23   57.99
   0  -6 -14  635.34   58.39
   0   6  14  701.33   60.29
   0   6  14  697.23   64.79
  -1  -6 -14   27.30    9.10
  -1  -6 -14   29.00   11.60
   1   6  14   14.50   11.30
   1   6  14   13.20   18.10
   1   6  14   12.10   13.50
  -2  -6 -14   -1.10    8.20
  -2  -6 -14   -7.60    7.50
   2   6  14    7.30   10.40
   2   6  14   -5.70   10.10
   2   6  14  -10.40   11.20
   3   6  14  394.26   33.70
   3   6  14  328.97   39.80
   3   6  14  362.06   33.60
   3   6  14  428.26   37.90
   4   6  14  168.58   22.40
   4   6  14  164.38   24.00
   5   6  14   12.20   12.30
   5   6  14   -5.20   10.50
   6   6  14  204.38   28.50
   6   6  14  222.38   29.60
   7   6  14  -19.30   16.10
   5  -7 -14   77.09   15.30
   4  -7 -14   25.40   10.30
  -4   7  14   27.30   23.50
   3  -7 -14   22.30    8.10
   3  -7 -14   18.60   10.30
  -3   7  14   13.40   19.20
  -3   7  14   10.30    8.20
   2  -7 -14  128.69   19.70
   2  -7 -14  170.28   18.80
   2  -7 -14  168.98   19.60
  -2   7  14  208.68   32.90
  -2   7  14  169.98   19.30
   1  -7 -14   80.49   14.50
   1  -7 -14   88.59   12.60
   1  -7 -14   69.29   12.80
  -1   7  14   86.69   14.20
  -1   7  14   94.09   23.00
   0  -7 -14  180.18   22.20
   0  -7 -14  152.78   20.10
   0  -7 -14  196.48   28.00
   0   7  14  161.48   22.10
   0   7  14  218.08   28.60
  -1  -7 -14  765.62   73.09
  -1  -7 -14  876.91   71.79
   1   7  14  895.61   77.79
   1   7  14  783.32   72.59
  -2  -7 -14   26.80   10.70
  -2  -7 -14   29.60   10.50
   2   7  14   45.20   11.40
   2   7  14   17.00   12.20
   2   7  14    1.60   11.10
   3   7  14  373.46   37.50
   4   7  14   69.39   17.10
   4   7  14   71.29   15.40
   5   7  14    0.70   11.50
   5   7  14    2.60   11.40
   6   7  14   14.90   13.50
   6   7  14   -2.60   12.60
   7   7  14   32.90   22.20
   7   7  14   34.60   17.90
   5  -8 -14   27.40   12.60
  -5   8  14    6.10   29.50
   4  -8 -14   81.19   14.90
  -4   8  14   54.29   26.70
   3  -8 -14    8.40    8.40
   3  -8 -14    2.60    8.50
  -3   8  14    4.00   19.40
   2  -8 -14   25.70    8.90
   2  -8 -14   20.00   11.70
   2  -8 -14   31.00   10.90
  -2   8  14   29.20   18.50
  -2   8  14   23.00    9.70
   1  -8 -14   60.49   12.10
   1  -8 -14   47.80   13.60
   1  -8 -14   70.59   11.80
  -1   8  14   60.69   18.90
  -1   8  14   33.70   11.10
   0  -8 -14   14.70    7.60
   0  -8 -14    8.10   14.80
   0   8  14    3.50   13.20
   0   8  14   12.50   10.20
  -1  -8 -14  269.57   31.60
  -1  -8 -14  236.58   27.70
  -1  -8 -14  265.17   27.80
   1   8  14  250.37   31.10
   1   8  14  277.87   30.70
  -2  -8 -14  139.89   20.30
   2   8  14  157.28   18.90
   2   8  14  134.59   21.80
  -3  -8 -14   50.39   13.60
   3   8  14   88.99   16.90
   4   8  14  395.06   52.39
   4   8  14  377.56   40.10
   5   8  14    4.30   12.20
   5   8  14   10.50   11.80
   6   8  14  118.39   21.00
   6   8  14   44.50   17.10
   7   8  14   33.30   16.90
   7   8  14    8.40   14.80
   5  -9 -14   23.00   13.00
  -5   9  14    7.30   24.50
   4  -9 -14   73.69   15.40
   4  -9 -14  115.69   12.30
   4  -9 -14   55.49   14.10
  -4   9  14   84.09   26.90
   3  -9 -14   94.79   17.10
   3  -9 -14  149.99   18.90
  -3   9  14  163.68   30.50
  -3   9  14  143.19   17.40
   2  -9 -14  150.48   19.80
   2  -9 -14  151.28   19.30
   2  -9 -14  123.49   19.30
  -2   9  14  160.28   28.90
  -2   9  14  149.29   19.10
   1  -9 -14  248.28   26.30
   1  -9 -14  212.48   27.00
  -1   9  14  330.77   37.10
  -1   9  14  253.27   27.80
   0  -9 -14   11.80    9.80
   0  -9 -14   28.70   15.90
   0  -9 -14   38.30   10.20
   0   9  14   32.70   11.40
   0   9  14   38.30   15.30
  -1  -9 -14  543.75   47.80
  -1  -9 -14  488.65   49.99
   1   9  14  524.95   50.09
   1   9  14  486.85   48.00
  -2  -9 -14   17.50   10.00
   2   9  14   10.50   11.40
   2   9  14    8.60    8.90
   2   9  14    5.00   15.20
  -3  -9 -14    6.30    9.90
   3   9  14   -2.60   11.20
   4   9  14   59.79   15.40
   4   9  14  114.39   19.20
   5   9  14   79.49   19.90
   5   9  14  105.29   19.60
   6   9  14   -6.30   12.10
   6   9  14   15.00   14.50
   5 -10 -14    6.20   12.20
  -5  10  14  -17.90   21.20
   4 -10 -14   19.30    8.90
   4 -10 -14    1.90   10.60
  -4  10  14   26.70   24.20
   3 -10 -14   56.89   13.40
   3 -10 -14   55.99   14.40
  -3  10  14   61.89   24.80
   2 -10 -14    4.30    8.00
  -2  10  14    2.60   25.40
  -2  10  14   10.50    9.40
   1 -10 -14   61.79   12.80
  -1  10  14   61.89   14.40
  -1  10  14   53.89   18.90
   0 -10 -14  177.48   29.40
   0 -10 -14  194.08   24.00
   0  10  14  240.68   29.70
   0  10  14  207.48   25.70
  -1 -10 -14   49.50   17.00
  -1 -10 -14   59.69   12.10
   1  10  14   61.99   21.30
   1  10  14   30.90   12.40
  -2 -10 -14  124.89   19.60
   2  10  14  154.28   21.70
   2  10  14  111.79   16.30
  -3 -10 -14   15.30   15.00
   3  10  14   30.10   13.40
  -4 -10 -14   35.80   13.70
   4  10  14   42.30   14.30
   5  10  14   12.10   13.40
   5  10  14   21.40   13.40
   6  10  14   40.40   20.60
   6  10  14   45.30   19.70
   5 -11 -14   41.80   15.80
  -5  11  14   49.40   26.70
   4 -11 -14  114.69   20.00
   4 -11 -14  136.99   18.40
  -4  11  14  110.19   30.00
   3 -11 -14   47.40   13.50
   3 -11 -14   45.70   22.20
  -3  11  14   53.29   22.50
   2 -11 -14   18.60    9.90
  -2  11  14   10.90   10.30
  -2  11  14   -7.70   18.60
   1 -11 -14    9.30    9.50
  -1  11  14   17.10   11.60
  -1  11  14   18.50   16.10
   0 -11 -14   61.89   13.10
   0 -11 -14   30.50   17.30
   0  11  14   36.10   16.00
   0  11  14   35.60   13.60
  -1 -11 -14   10.80   13.80
  -1 -11 -14   17.00    9.90
   1  11  14   19.00   15.10
   1  11  14   14.70   17.60
  -2 -11 -14   51.39   14.40
  -2 -11 -14   39.60   19.60
   2  11  14   43.60   11.00
   2  11  14   37.40   14.60
  -3 -11 -14   90.89   17.90
   3  11  14   62.59   16.50
  -4 -11 -14   10.40   12.70
   4  11  14   58.89   16.30
  -5 -11 -14  173.18   26.10
   5  11  14  102.49   22.50
   6  11  14   18.10   16.30
   6  11  14    5.90   13.60
   4 -12 -14   22.80   12.80
   4 -12 -14   -5.40    9.80
  -4  12  14  -15.80   20.70
   3 -12 -14  321.67   33.20
   3 -12 -14  299.27   31.20
  -3  12  14  227.98   41.30
  -2  12  14  123.89   27.00
  -2  12  14  101.69   17.30
   1 -12 -14   25.60   10.80
  -1  12  14   24.00   12.20
  -1  12  14   18.10   17.20
   0 -12 -14  219.18   26.40
   0  12  14  200.98   28.90
   0  12  14  208.78   28.80
  -1 -12 -14   16.20   14.40
   1  12  14    9.60   11.60
   1  12  14    3.90   11.50
  -2 -12 -14  124.69   19.90
  -2 -12 -14  125.59   19.00
   2  12  14  111.49   19.50
   2  12  14   94.89   15.80
  -3 -12 -14   49.30   14.80
   3  12  14   46.60   15.40
  -4 -12 -14   33.50   14.50
   4  12  14   11.40   14.50
  -5 -12 -14   16.50   15.60
   5  12  14   45.60   17.80
  -6 -12 -14   28.80   17.30
   6  12  14   32.80   17.10
   4 -13 -14  -11.50   11.70
   4 -13 -14    9.00   10.90
  -4  13  14   -4.50   27.50
   3 -13 -14    7.50   11.80
   3 -13 -14   13.80   10.50
  -3  13  14   24.60   21.10
  -2  13  14  184.38   32.70
   1 -13 -14   -6.40    9.30
  -1  13  14   11.40   15.40
  -1  13  14   13.00   11.40
   0 -13 -14  143.49   20.50
   0  13  14  134.09   20.50
   0  13  14   98.19   21.60
  -1 -13 -14   67.09   38.10
  -1 -13 -14   66.29   15.20
   1  13  14   81.49   17.70
   1  13  14   75.69   16.60
  -2 -13 -14  121.59   21.30
  -2 -13 -14  150.48   22.20
   2  13  14  143.39   19.50
   2  13  14  122.29   22.00
  -3 -13 -14   60.29   16.30
   3  13  14   29.00   15.10
  -4 -13 -14    7.30   12.80
   4  13  14   21.20   14.60
  -5 -13 -14   19.40   14.80
   5  13  14   13.70   16.00
   3 -14 -14   20.90   13.90
   3 -14 -14   39.60   14.80
  -3  14  14   32.00   22.70
   2 -14 -14  112.99   20.30
  -2  14  14   93.29   25.30
   1 -14 -14   53.29   14.10
  -1  14  14   33.10   22.20
  -1  14  14   49.99   14.00
   0 -14 -14   25.40   12.70
   0  14  14   70.29   19.10
   0  14  14   34.60   14.30
  -1 -14 -14  175.28   25.30
  -1 -14 -14  183.38   29.10
   1  14  14  173.38   25.80
   1  14  14  183.68   25.90
  -2 -14 -14    3.70   12.20
  -2 -14 -14    3.90   17.00
   2  14  14   -8.30   11.70
   2  14  14   -5.10   11.20
  -3 -14 -14   72.89   17.60
   3  14  14   75.79   18.90
  -4 -14 -14   87.89   21.30
  -5 -14 -14   40.80   18.10
   5  14  14   10.90   15.50
   3 -15 -14   10.00   12.40
   3 -15 -14   28.20   14.80
  -3  15  14   31.70   26.60
   2 -15 -14  177.48   25.50
   2 -15 -14  187.88   26.60
  -2  15  14  163.08   32.10
   1 -15 -14   34.40   12.80
  -1  15  14   30.50   18.50
  -1  15  14    8.10   12.60
   0 -15 -14    6.40   11.10
   0  15  14    9.20   13.00
   0  15  14   19.90   14.80
  -1 -15 -14   48.90   14.80
   1  15  14   55.69   16.00
   1  15  14   33.70   15.60
  -2 -15 -14   68.89   17.60
   2  15  14   40.40   15.60
   2  15  14   90.69   27.10
  -3 -15 -14   23.80   15.20
  -4 -15 -14   74.29   20.70
   4  15  14   63.79   17.50
   2 -16 -14  167.68   26.00
   2 -16 -14  221.38   42.30
  -2  16  14  176.78   33.80
   1 -16 -14  112.29   20.30
  -1  16  14   66.69   23.40
   0 -16 -14   -1.80   10.20
   0  16  14   -8.80   11.40
  -1 -16 -14  157.08   25.70
   1  16  14  152.98   26.70
   1  16  14  182.08   28.00
   2  16  14   23.10   15.20
   2  16  14   21.90   17.40
  -3 -16 -14   13.70   15.50
   3  16  14   16.70   14.70
   1 -17 -14  161.48   34.00
   0 -17 -14   86.49   18.40
   0  17  14   20.80   14.20
   0  17  14   53.79   19.80
  -1 -17 -14   15.20   12.20
   1  17  14    8.40   12.30
   1  17  14   -4.70   16.80
  -2 -17 -14  183.78   28.50
   2  17  14  204.38   30.50
   0  -6  15   20.30   26.70
   0  -6  15    3.30   15.00
   1  -6  15   73.29   40.70
   2  -6  15    6.00   13.90
   3  -6  15   44.90   34.70
   3  -6  15   41.10   17.20
  -1  -5  15  -15.10   12.70
  -1  -5  15    7.80   23.90
   0  -5  15   16.30   14.80
   0  -5  15   27.80   27.20
   1  -5  15   19.70   15.20
   1  -5  15   28.90   25.30
   2  -5  15    5.90   13.60
   2  -5  15  -21.30   22.70
   3  -5  15    3.40   14.00
   3  -5  15   16.80    9.90
   3  -5  15   21.90   25.70
   4  -5  15    7.80   14.70
  -2  -4  15   14.60   26.30
  -2  -4  15   -6.80   13.10
  -1  -4  15   57.69   27.90
  -1  -4  15   38.00   15.90
   0  -4  15  -14.40   22.30
   0  -4  15   -6.00   12.30
   1  -4  15   76.79   18.60
   1  -4  15  111.09   31.70
   2  -4  15    7.20    7.30
   2  -4  15    6.90   12.50
   2  -4  15   -5.60   20.40
   3  -4  15    5.30   21.70
   3  -4  15   25.90   14.90
   3  -4  15    6.90    9.70
   4  -4  15   27.40   15.40
   4  -4  15   37.40   25.60
   4  -4  15   24.20   11.50
  -5   4 -15    9.10   25.80
   5  -4  15    2.00   11.90
   5  -4  15  -14.80   12.70
  -3  -3  15    1.40   26.30
  -3  -3  15  -13.60   12.40
  -2  -3  15  119.89   22.70
  -2  -3  15  149.88   38.70
  -1  -3  15    8.90   12.80
  -1  -3  15   14.50   21.90
   0  -3  15   16.30   20.40
   0  -3  15   31.50   14.20
   1  -3  15   52.89   25.80
   1  -3  15   44.40   14.80
  -2   3 -15   53.69   10.20
   2  -3  15   95.59   18.70
   2  -3  15   51.79   10.20
   2  -3  15  102.39   27.10
  -3   3 -15    8.70   11.50
   3  -3  15    9.80    9.60
   3  -3  15   -0.60   12.30
   3  -3  15   11.70   21.20
   4  -3  15   39.80   15.70
   4  -3  15   92.69   28.00
   4  -3  15   66.89   13.90
  -5   3 -15  -16.60   23.30
   5  -3  15   13.10   12.00
   5  -3  15   19.40   15.20
  -3  -2  15   23.50   26.30
  -3  -2  15   22.20   12.50
  -2  -2  15   61.99   27.70
  -2  -2  15   57.79   14.90
  -1  -2  15  131.29   23.50
  -1  -2  15  154.48   33.30
   0  -2  15   -7.90   10.10
   0  -2  15  -14.20   18.60
   1  -2  15   48.60   15.10
   1  -2  15   75.19   25.00
  -2   2 -15   85.89   11.80
   2  -2  15   84.49   18.00
   2  -2  15   82.19   11.90
   2  -2  15  124.39   33.00
   3  -2  15   25.10   22.40
   3  -2  15   45.40   15.00
   3  -2  15   12.00    9.20
   4  -2  15   35.10   12.40
   4  -2  15   52.09   17.60
   4  -2  15   54.29   24.00
   5  -2  15   30.80   13.70
   5  -2  15   26.90   23.60
   6  -2  15   -7.60   13.10
   6  -2  15   -6.60   14.10
  -4  -1  15   23.30   26.60
  -3  -1  15   32.50   25.20
  -3  -1  15   13.10   11.00
  -2  -1  15   18.80   21.40
  -2  -1  15    4.70   11.20
  -1  -1  15  132.99   20.30
  -1  -1  15  182.78   33.10
   0  -1  15   78.59   18.20
   0  -1  15  129.79   28.00
   1  -1  15   10.60   33.10
   1  -1  15   20.70   13.00
  -2   1 -15   51.09    9.40
   2  -1  15   54.09    9.60
   2  -1  15   92.49   24.20
   2  -1  15   72.39   16.60
  -3   1 -15   -9.20   15.40
   3  -1  15   -0.40   11.70
   3  -1  15   -8.20    7.40
   3  -1  15    3.50   17.30
   4  -1  15    1.10   18.00
   4  -1  15   -8.20   11.50
   4  -1  15   -3.40    9.30
   5  -1  15   13.30   12.30
   5  -1  15    6.70   13.20
   5  -1  15   23.80   20.80
   6  -1  15   -8.50   20.00
   6  -1  15    4.20   13.20
   6  -1  15   -1.10   14.20
  -4   0  15   72.39   28.60
  -3   0  15   32.30   24.20
  -3   0  15    9.10   10.00
  -2   0  15    1.60   10.20
  -2   0  15   -5.50   19.70
  -1   0  15   28.80   22.30
  -1   0  15   12.30   11.20
   0   0  15   53.49   14.60
   1   0  15   10.60   17.10
   1   0  15    4.70   23.20
  -2   0 -15   35.10    8.40
   2   0  15   36.50   18.60
   2   0  15   59.99   15.10
   2   0  15   53.99    9.30
  -3   0 -15  167.58   25.40
   3   0  15  108.09   16.00
   3   0  15  116.79   20.70
   3   0  15   99.39   23.00
   4   0  15  -10.90    9.00
   4   0  15    4.10   16.50
   4   0  15  -10.10   10.60
   5   0  15  244.58   30.80
   5   0  15  139.59   22.70
   5   0  15  136.49   24.50
   6   0  15    8.20   13.10
   6   0  15   16.40   15.40
   6   0  15    6.00   17.60
  -4   1  15   33.60   31.20
   3  -1 -15  192.78   20.60
  -3   1  15  130.39   31.00
  -3   1  15  111.39   18.20
   2  -1 -15    5.90   10.50
  -2   1  15   14.80   18.60
  -2   1  15   18.00   10.40
  -1   1  15  105.29   16.90
  -1   1  15  116.19   27.60
   0   1  15  153.38   20.90
   0   1  15  143.39   28.40
   1   1  15   10.20   16.80
   1   1  15  -13.90   10.10
  -2  -1 -15  114.29   15.20
   2   1  15  153.68   21.90
   2   1  15  173.68   27.80
   2   1  15  148.19   16.20
  -3  -1 -15   63.79   14.30
   3   1  15   82.59   19.70
   3   1  15   69.99   21.30
   3   1  15   60.99   15.90
   3   1  15   65.09   12.80
   4   1  15    7.70    9.70
   4   1  15   -1.90   10.90
   4   1  15    8.60   16.90
   4   1  15    7.70   16.00
   5   1  15   28.20   13.30
   5   1  15   33.90   20.40
   5   1  15   21.20   14.30
   5   1  15   53.89   18.00
   6   1  15   65.29   26.20
   6   1  15   30.50   14.40
  -4   2  15   17.60   25.60
   3  -2 -15   27.30   10.00
  -3   2  15    3.90   20.10
  -3   2  15   15.20   15.80
   2  -2 -15  118.99   18.00
  -2   2  15  130.49   17.50
  -2   2  15  165.18   30.10
  -1   2  15    2.50    9.80
   0   2  15  304.17   40.60
   0   2  15  287.27   31.40
   1   2  15   52.59   14.20
   1   2  15  108.09   22.40
  -2  -2 -15  104.39   14.30
   2   2  15  130.99   24.20
   2   2  15   63.79   21.90
   2   2  15  149.69   15.80
  -3  -2 -15  107.39   16.30
   3   2  15   86.89   15.20
   3   2  15  114.09   19.80
   3   2  15  115.59   21.70
   4   2  15   19.90   10.60
   4   2  15   18.80   13.30
   4   2  15   40.00   16.60
   5   2  15    4.60   13.10
   5   2  15   24.60   14.50
   5   2  15   31.70   12.70
   5   2  15   25.20   14.10
   6   2  15   36.70   16.60
   6   2  15   92.29   15.70
   6   2  15   54.29   17.20
  -5   3  15   55.49   28.70
  -4   3  15   20.80   25.60
   3  -3 -15   48.20   10.70
  -3   3  15    8.20   19.30
   2  -3 -15   24.80   12.40
  -2   3  15   23.20   20.00
  -2   3  15   41.20   10.80
   1  -3 -15   13.60   15.80
  -1   3  15   -1.90   15.00
  -1   3  15   -2.20    9.60
   0   3  15   28.60   12.00
   0   3  15   36.40   18.40
  -1  -3 -15  286.77   25.20
   1   3  15  247.38   30.50
   1   3  15  226.78   37.20
   1   3  15  310.47   37.50
  -2  -3 -15   39.90   10.20
   2   3  15   50.99   15.30
   2   3  15   42.10   32.50
   2   3  15   56.39   17.20
  -3  -3 -15  271.57   29.70
   3   3  15  279.67   32.50
   3   3  15  265.97   28.90
   3   3  15  281.47   33.70
   4   3  15  174.98   22.50
   4   3  15  128.79   20.00
   4   3  15  138.19   20.80
   4   3  15  139.19   23.10
   5   3  15  -11.90   10.00
   5   3  15  -10.10   10.10
   5   3  15   11.30    9.00
   5   3  15   12.90   13.70
   6   3  15   83.89   18.80
   6   3  15   87.49   19.60
   7   3  15   10.10   18.40
   7   3  15    9.20   16.00
  -5   4  15   -3.40   25.60
  -4   4  15  120.09   30.70
   3  -4 -15    5.10    7.80
  -3   4  15   -1.50   19.00
  -3   4  15    9.60    8.10
   2  -4 -15  125.59   23.50
  -2   4  15   88.29   14.60
  -2   4  15  119.89   26.70
   1  -4 -15   14.00   10.60
  -1   4  15   24.90   17.60
  -1   4  15   23.70   10.60
   0   4  15    9.70   15.60
   0   4  15   12.80   10.70
  -1  -4 -15  117.39   16.00
  -1  -4 -15  177.38   16.70
   1   4  15  145.79   20.90
   1   4  15  132.69   25.20
   1   4  15  141.79   25.30
  -2  -4 -15  144.69   17.60
   2   4  15  142.89   23.70
   2   4  15   97.79   21.40
   2   4  15  128.49   19.70
  -3  -4 -15   56.19   13.20
   3   4  15   67.09   15.40
   3   4  15   40.80   14.30
   3   4  15   46.50   11.90
   3   4  15   39.40   13.70
   4   4  15   40.80   13.10
   4   4  15   88.49   13.30
   4   4  15   42.10   15.50
   4   4  15   77.99   14.60
   5   4  15   17.00   12.90
   5   4  15   50.69   15.70
   6   4  15   -4.30   13.10
   6   4  15    9.60   14.00
   7   4  15   70.29   21.10
   7   4  15   96.29   21.90
  -5   5  15    6.50   23.90
  -4   5  15   28.80   25.60
   3  -5 -15   69.29   11.50
  -3   5  15   77.39   25.50
  -3   5  15   63.69   11.30
   2  -5 -15    8.50   19.90
  -2   5  15   17.30    9.60
  -2   5  15    3.00   17.90
   1  -5 -15  252.37   30.10
  -1   5  15  331.37   30.70
  -1   5  15  294.97   39.40
   0  -5 -15   21.50    6.10
   0  -5 -15   14.40    7.10
   0   5  15   22.60   11.30
   0   5  15    6.20   14.40
  -1  -5 -15   88.19   13.20
  -1  -5 -15   82.99   12.20
   1   5  15  123.59   21.40
   1   5  15   54.29   15.30
   1   5  15   71.99   23.30
  -2  -5 -15  130.59   19.00
  -2  -5 -15  132.39   17.40
   2   5  15  116.69   21.40
   2   5  15  119.69   21.40
   2   5  15  113.09   19.30
   3   5  15    8.20    9.30
   3   5  15   10.70   10.30
   3   5  15   -7.90    9.90
   3   5  15   -0.10   10.70
   4   5  15   25.10   12.00
   4   5  15   26.90   13.90
   5   5  15   96.39   19.10
   5   5  15   86.19   17.80
   6   5  15   17.10   14.30
   6   5  15    2.70   13.60
   7   5  15   39.70   16.70
   7   5  15   35.80   17.50
  -5   6  15  -17.40   25.40
   4  -6 -15   54.89   10.70
  -4   6  15   69.39   26.60
   3  -6 -15   44.70   12.50
   3  -6 -15   41.00   10.20
   3  -6 -15   64.59    9.70
  -3   6  15   72.99   25.00
  -3   6  15   66.99   11.20
   2  -6 -15   13.30    9.30
   2  -6 -15   24.90   12.50
   2  -6 -15   12.90    6.50
  -2   6  15   17.30    9.60
  -2   6  15   51.99   26.10
   1  -6 -15   49.80    9.90
   1  -6 -15   25.70   13.40
   1  -6 -15   60.79    9.00
  -1   6  15   39.10   11.70
  -1   6  15   78.19   21.70
   0  -6 -15    6.70    7.50
   0  -6 -15    6.50    6.40
   0   6  15   14.90   16.60
   0   6  15    1.40   10.20
  -1  -6 -15    9.00    8.50
  -1  -6 -15   12.30    8.50
   1   6  15   25.20   12.10
   1   6  15    9.90   14.40
   1   6  15    3.50   15.90
  -2  -6 -15   91.49   16.30
  -2  -6 -15  123.39   17.10
   2   6  15  135.39   19.20
   2   6  15   93.19   18.10
   2   6  15  110.29   19.40
   3   6  15   36.00   10.10
   3   6  15   16.50   10.20
   3   6  15   -1.90   11.30
   3   6  15   15.10    9.60
   4   6  15   39.30   12.80
   4   6  15   41.80   15.20
   5   6  15   87.69   17.80
   5   6  15   71.99   17.20
   6   6  15   14.60   14.60
   6   6  15   -1.20   12.80
   7   6  15    8.00   15.80
   7   6  15   -5.70   13.50
   5  -7 -15   27.40   12.50
  -5   7  15   -0.70   25.50
   4  -7 -15   17.50   10.40
  -4   7  15   52.49   26.20
   3  -7 -15   95.59   14.10
   3  -7 -15  130.29   15.50
   3  -7 -15  114.39   15.40
  -3   7  15  103.59   28.90
  -3   7  15  102.59   19.80
   2  -7 -15    1.30   10.00
   2  -7 -15    0.00    7.70
   2  -7 -15   11.30    7.10
  -2   7  15    3.40   25.20
  -2   7  15    0.40    8.60
   1  -7 -15   64.79   10.30
   1  -7 -15   47.60   11.10
  -1   7  15   52.09   21.20
  -1   7  15   69.39   13.70
   0  -7 -15   74.89   13.20
   0  -7 -15   42.10   20.00
   0   7  15   86.79   15.10
   0   7  15   65.79   19.60
  -1  -7 -15   -0.10    7.60
   1   7  15  -10.80    9.00
   1   7  15    4.90   12.20
   1   7  15   -9.70   14.20
  -2  -7 -15   90.09   15.20
  -2  -7 -15   44.10   13.00
   2   7  15   65.49   19.30
   2   7  15   65.19   14.40
   2   7  15   63.39   15.70
   3   7  15  170.98   25.30
   4   7  15   45.90   15.50
   4   7  15   46.30   17.70
   5   7  15  143.09   23.80
   5   7  15  136.69   21.70
   6   7  15    5.70   13.90
   6   7  15    7.00   14.90
   5  -8 -15   30.70   13.10
  -5   8  15   28.30   28.90
   4  -8 -15    2.40    9.70
  -4   8  15   -1.60   23.10
   3  -8 -15   82.59   14.50
   3  -8 -15  135.89   16.70
  -3   8  15   67.19   26.30
  -3   8  15  136.59   16.60
   2  -8 -15  133.79   18.10
   2  -8 -15   82.49   16.50
   2  -8 -15  144.39   17.30
  -2   8  15  129.59   17.00
  -2   8  15  155.58   36.30
   1  -8 -15    5.60    9.40
   1  -8 -15    4.40    6.70
  -1   8  15   35.20   18.20
  -1   8  15   15.90    9.70
   0  -8 -15  293.27   29.90
   0  -8 -15  335.57   39.70
   0  -8 -15  334.07   36.20
   0   8  15  313.07   37.90
   0   8  15  269.27   32.30
  -1  -8 -15   29.60   10.30
  -1  -8 -15    5.50    9.90
   1   8  15   28.40   11.90
   1   8  15   29.90   14.00
  -2  -8 -15   98.89   15.50
   2   8  15   47.90   12.90
   2   8  15   72.39   22.70
   2   8  15   67.89   15.60
  -3  -8 -15  145.09   21.10
   3   8  15  123.59   21.60
   4   8  15   52.29   14.00
   4   8  15   22.30   13.60
   5   8  15   19.10   13.90
   5   8  15   25.20   13.80
   6   8  15  136.79   22.80
   6   8  15  126.79   24.30
   4  -9 -15    6.20   10.80
  -4   9  15  -11.20   21.50
   3  -9 -15   52.39   20.60
   3  -9 -15   50.79   12.10
  -3   9  15   35.80   24.50
  -3   9  15   69.69   12.30
   2  -9 -15   91.79   13.90
   2  -9 -15   29.70   19.90
   2  -9 -15   49.90   13.50
  -2   9  15   83.19   14.30
  -2   9  15   83.99   25.70
   1  -9 -15    6.90    9.80
   1  -9 -15   11.80    8.20
  -1   9  15    5.80   15.70
  -1   9  15    4.20    9.60
   0  -9 -15  184.08   22.50
   0  -9 -15  189.18   30.00
   0  -9 -15  156.68   22.50
   0   9  15  210.28   28.40
   0   9  15  202.48   24.40
  -1  -9 -15  139.29   23.80
  -1  -9 -15  143.09   19.60
   1   9  15  141.19   20.70
   1   9  15  129.89   21.20
  -2  -9 -15   26.50   11.30
   2   9  15   11.30   12.60
   2   9  15   30.50   10.80
   2   9  15   36.90   13.80
  -3  -9 -15  303.07   32.70
   3   9  15  250.77   32.00
   4   9  15   15.90   13.70
   5   9  15   31.90   14.60
   5   9  15   17.00   13.40
   6   9  15   33.00   16.60
   4 -10 -15   18.80   12.60
   4 -10 -15   42.60   11.10
  -4  10  15  -10.30   21.80
   3 -10 -15   64.29   15.90
   3 -10 -15   79.69   15.20
  -3  10  15   99.29   14.80
  -3  10  15   80.89   27.10
   2 -10 -15  223.28   24.80
  -2  10  15  186.08   23.40
  -2  10  15  181.08   32.40
   1 -10 -15    5.80    8.30
  -1  10  15   19.20   15.90
  -1  10  15   -0.40   10.40
   0 -10 -15  106.29   16.50
   0 -10 -15   90.79   31.00
   0  10  15   87.19   19.60
   0  10  15   95.89   17.20
  -1 -10 -15   38.80   16.30
  -1 -10 -15   38.10   11.80
   1  10  15   39.00   17.90
   1  10  15   13.00   13.20
  -2 -10 -15   10.80   11.10
   2  10  15   23.00    9.90
   2  10  15    6.90   21.10
   2  10  15   26.90   12.80
  -3 -10 -15   75.09   17.70
   3  10  15   50.59   15.00
  -4 -10 -15   68.89   16.80
   4  10  15   68.89   17.60
   5  10  15   -1.30   13.80
   5  10  15   -0.80   12.60
   6  10  15  131.79   24.40
   6  10  15  100.39   22.30
   4 -11 -15   44.60   14.30
  -4  11  15   48.10   40.80
   3 -11 -15   12.50   11.30
  -3  11  15   -1.80   19.30
   2 -11 -15  416.26   41.40
  -2  11  15  433.26   41.70
  -2  11  15  430.26   51.59
   1 -11 -15  124.59   19.00
  -1  11  15  129.09   26.20
  -1  11  15  129.39   20.00
   0 -11 -15  109.29   17.90
   0  11  15  120.19   22.20
  -1 -11 -15  124.99   24.10
  -1 -11 -15  145.69   20.60
   1  11  15  126.89   20.90
   1  11  15  130.59   21.20
   2  11  15    2.10    8.80
   2  11  15   13.10   12.60
  -3 -11 -15   -0.10   11.20
   3  11  15   20.60   13.50
  -4 -11 -15  114.79   20.80
   4  11  15   91.19   20.10
  -5 -11 -15   13.70   13.40
   5  11  15   -7.80   12.90
   6  11  15   50.59   19.10
   4 -12 -15    7.60   11.70
   4 -12 -15   27.40   13.80
  -4  12  15  -19.20   21.00
   3 -12 -15   10.40   10.90
   3 -12 -15    7.90   10.50
  -3  12  15   28.60   21.70
   2 -12 -15    5.60   19.30
  -2  12  15   -1.60   10.10
  -2  12  15   -4.50   16.80
   1 -12 -15  279.17   32.20
  -1  12  15  244.38   36.20
   0 -12 -15  123.49   20.00
   0  12  15  107.19   22.60
   0  12  15  103.89   18.70
  -1 -12 -15  183.38   36.00
  -1 -12 -15  182.08   25.30
   1  12  15  187.68   26.00
   1  12  15  224.58   27.20
  -2 -12 -15  176.18   25.60
  -2 -12 -15  188.48   23.40
   2  12  15  191.08   22.70
   2  12  15  134.29   24.40
  -3 -12 -15   37.60   14.30
   3  12  15   67.19   17.20
  -4 -12 -15  193.28   28.00
   4  12  15  197.48   28.90
  -5 -12 -15    5.90   17.50
   5  12  15    5.80   14.50
   3 -13 -15   24.10   12.50
   3 -13 -15   24.30   11.90
  -3  13  15   37.20   22.90
   2 -13 -15   54.99   14.70
  -2  13  15   78.29   15.90
  -2  13  15   74.59   25.10
   1 -13 -15   30.10   12.20
  -1  13  15   12.50   12.20
   0 -13 -15   26.70   11.80
   0  13  15    2.80   13.40
   0  13  15   25.80   13.20
  -1 -13 -15    6.70   19.20
  -1 -13 -15    8.50   10.10
   1  13  15    7.50   13.40
   1  13  15   -4.30   11.30
  -2 -13 -15   52.49   16.10
  -2 -13 -15   76.19   17.40
   2  13  15   58.39   16.50
   2  13  15   65.89   14.10
  -3 -13 -15   31.50   15.30
   3  13  15   46.80   15.20
  -4 -13 -15   88.79   19.30
   4  13  15   20.00   22.20
  -5 -13 -15   33.00   17.60
   5  13  15   32.90   17.10
   3 -14 -15   41.30   15.30
   3 -14 -15   47.90   14.70
  -3  14  15   28.20   23.90
   2 -14 -15    8.10   11.30
  -2  14  15   12.20   18.50
   1 -14 -15  232.48   29.10
  -1  14  15  215.18   33.30
  -1  14  15  184.98   26.50
   0 -14 -15   86.49   17.40
   0  14  15   68.09   19.40
   0  14  15   57.29   16.00
  -1 -14 -15   87.29   17.20
   1  14  15   54.09   16.70
   1  14  15   58.49   16.20
  -2 -14 -15   50.39   16.40
   2  14  15   65.79   16.90
   2  14  15   64.59   15.30
  -3 -14 -15   34.50   15.20
   3  14  15   39.50   16.80
  -4 -14 -15    0.00   17.80
   4  14  15   20.40   14.70
   2 -15 -15  117.99   20.60
   2 -15 -15   75.29   17.90
  -2  15  15   80.79   26.20
   1 -15 -15   80.79   17.00
  -1  15  15   46.00   20.20
  -1  15  15   32.50   14.70
   0 -15 -15  420.16   42.90
   0  15  15  397.76   42.30
   0  15  15  366.36   45.80
  -1 -15 -15    2.10   11.00
   1  15  15    5.10   14.20
   1  15  15   -8.30   12.30
  -2 -15 -15  134.99   23.20
   2  15  15  131.69   22.00
   2  15  15  128.49   24.00
   3  15  15   17.40   13.90
  -4 -15 -15    6.10   15.70
   4  15  15   20.50   16.20
   1 -16 -15    4.20   12.30
  -1  16  15    4.30   18.90
  -1  16  15   -2.10   12.50
   0 -16 -15   30.80   13.60
   0  16  15   22.50   21.30
   0  16  15   23.80   15.50
  -1 -16 -15  105.89   21.70
   1  16  15   72.89   20.90
  -2 -16 -15   -7.30   12.30
   2  16  15    3.20   14.00
  -3 -16 -15  108.69   22.30
   3  16  15   47.40   18.20
   0  -5  16   -2.50   14.90
   0  -5  16   12.50   25.30
   1  -5  16   26.30   34.00
   2  -5  16   49.20   34.80
   2  -5  16   22.30   16.30
  -1  -4  16   17.80   15.10
  -1  -4  16   48.40   29.00
   0  -4  16   10.60   39.80
   0  -4  16    1.50   14.00
   1  -4  16   -3.20   23.20
   1  -4  16    3.40   15.00
   2  -4  16    2.80   23.10
   2  -4  16  -19.40   13.70
   3  -4  16   19.60   25.00
   3  -4  16   26.40   12.00
   3  -4  16   12.40   15.40
   4  -4  16    5.20   15.20
  -2  -3  16  116.29   35.40
  -2  -3  16  103.09   20.20
  -1  -3  16   -9.50   25.40
  -1  -3  16    7.20   13.50
   0  -3  16  249.38   42.50
   0  -3  16  219.48   29.20
   1  -3  16   20.80   24.50
   1  -3  16   28.70   13.90
   2  -3  16   83.29   19.30
   2  -3  16  164.18   33.00
   3  -3  16   44.10   21.60
   3  -3  16   31.20   10.80
   3  -3  16    8.80   22.80
   4  -3  16   -5.00   13.70
   4  -3  16  -11.80    9.90
   4  -3  16   15.20   23.90
  -2  -2  16   -3.50   20.30
  -2  -2  16   -8.60   46.40
  -1  -2  16  -10.00   12.20
  -1  -2  16   29.20   25.10
   0  -2  16   -1.40   12.30
   0  -2  16   -9.90   19.70
   1  -2  16   97.69   19.50
   1  -2  16  148.79   31.60
   2  -2  16    6.90   21.50
   2  -2  16  -11.30   12.00
   3  -2  16   97.19   21.20
   3  -2  16  188.28   32.20
   3  -2  16  143.49   18.30
   4  -2  16    5.70   11.10
   4  -2  16   26.70   23.10
   5  -2  16   31.70   23.70
   5  -2  16   35.50   17.30
   5  -2  16   10.90   12.70
  -3  -1  16   25.50   12.90
  -3  -1  16   39.10   27.50
  -2  -1  16   68.29   28.00
  -2  -1  16   62.69   14.80
  -1  -1  16   27.20   24.80
   0  -1  16   41.60   24.40
   0  -1  16   13.20   13.80
   1  -1  16   47.20   15.10
   1  -1  16   42.80   21.00
  -2   1 -16   96.49   15.00
   2  -1  16  124.29   33.50
   2  -1  16   78.59   17.50
  -3   1 -16   22.00   19.10
   3  -1  16   31.20   10.40
   3  -1  16   15.20   21.10
   3  -1  16   45.60   15.60
   4  -1  16  109.89   17.50
   4  -1  16  135.69   27.30
   4  -1  16   57.79   18.70
   5  -1  16    6.60   20.20
   5  -1  16   -6.00   13.40
   5  -1  16   -2.20   11.80
  -3   0  16   23.80   10.80
  -3   0  16    9.70   43.50
  -2   0  16   41.00   24.50
  -2   0  16   71.19   15.10
  -1   0  16  126.79   19.30
  -1   0  16  100.99   28.70
   0   0  16   13.40   20.30
   0   0  16   13.20   13.60
   1   0  16   59.09   45.40
   1   0  16    7.80   13.10
  -2   0 -16   23.10    7.60
   2   0  16   32.20   20.00
   2   0  16   12.90   13.00
  -3   0 -16   -6.50   20.20
   3   0  16   -1.60   16.90
   3   0  16   -2.80   11.10
   3   0  16   -5.10    8.10
   4   0  16   23.20   11.40
   4   0  16   28.50   15.40
   4   0  16   42.00   20.30
   5   0  16   14.10   12.70
   5   0  16   42.00   20.50
   6   0  16   27.50   24.40
   6   0  16    5.40   15.00
   6   0  16   13.10   14.20
  -4   1  16   20.00   26.40
  -3   1  16   21.90   10.70
  -3   1  16   23.50   25.10
  -2   1  16   -0.50   20.50
  -2   1  16   -1.40   10.70
  -1   1  16  174.98   23.60
  -1   1  16  206.88   33.70
   0   1  16  102.99   27.30
   0   1  16  104.09   18.90
   1   1  16   67.79   23.20
   1   1  16  115.69   19.50
  -2  -1 -16  148.99   16.80
   2   1  16  167.68   29.60
   2   1  16  148.29   23.20
  -3  -1 -16   -2.50    9.80
   3   1  16  -12.90   11.50
   3   1  16   -6.50   15.30
   3   1  16   -5.90    8.10
   4   1  16  158.58   21.10
   4   1  16  154.38   26.80
   4   1  16  126.39   23.70
   4   1  16  174.68   31.70
   5   1  16   11.80   14.50
   5   1  16   29.00   17.70
   5   1  16   34.10   13.90
   6   1  16   28.80   16.10
   6   1  16    6.60   13.30
  -4   2  16   42.10   27.10
  -3   2  16   41.20   12.00
  -3   2  16   52.19   25.70
   2  -2 -16    1.70   21.80
  -2   2  16   -3.70    9.60
  -2   2  16   -4.20   17.50
  -1   2  16   78.69   24.90
  -1   2  16   67.39   14.50
   0   2  16  193.18   23.90
   0   2  16  156.18   31.80
   1   2  16   -7.00   15.80
   1   2  16   -5.10   15.80
  -2  -2 -16  174.18   20.60
   2   2  16  212.38   27.20
   2   2  16  221.48   31.90
  -3  -2 -16   97.99   17.70
   3   2  16  176.88   26.90
   3   2  16  175.58   25.20
   3   2  16  142.19   26.30
   3   2  16  171.18   19.60
   4   2  16   72.39   33.80
   4   2  16   16.60   16.40
   4   2  16   34.30   14.30
   4   2  16   49.20   13.10
   5   2  16  171.88   25.80
   5   2  16  144.59   24.50
   5   2  16  109.39   20.30
   6   2  16    9.20   14.00
   6   2  16    1.70   13.60
  -4   3  16  -18.90   22.20
  -3   3  16  105.49   29.40
   2  -3 -16   -3.30    9.70
  -2   3  16   10.30   10.00
  -2   3  16  -12.70   18.40
  -1   3  16   62.39   22.60
  -1   3  16   80.09   15.30
   0   3  16  247.18   28.80
   0   3  16  212.78   35.10
  -1  -3 -16   14.60    6.20
  -1  -3 -16   19.30    5.20
   1   3  16   24.30   17.90
   1   3  16   16.30   15.90
  -2  -3 -16   14.50    8.40
   2   3  16   23.40   18.30
   2   3  16   25.60   13.90
   2   3  16   39.50   17.80
  -3  -3 -16  101.39   17.50
   3   3  16  126.29   17.20
   3   3  16  114.89   20.70
   3   3  16  174.48   29.00
   3   3  16  135.19   22.30
   4   3  16   34.40   12.70
   4   3  16   29.70   15.90
   4   3  16   26.30   14.40
   4   3  16   18.10   13.70
   5   3  16  107.09   19.60
   5   3  16  102.69   16.40
   5   3  16  104.19   20.90
   6   3  16   36.60   17.10
   6   3  16   65.29   17.90
  -4   4  16   -9.20   24.60
  -3   4  16   22.50   22.60
   2  -4 -16   35.50   12.00
  -2   4  16   62.09   22.90
  -2   4  16   48.10   12.10
  -1   4  16  -11.50    9.10
   0   4  16  310.97   34.20
   0   4  16  358.86   43.50
  -1  -4 -16   54.59   10.20
  -1  -4 -16   87.89   11.20
   1   4  16  110.59   22.70
   1   4  16   79.49   16.70
  -2  -4 -16   62.19   12.90
  -2  -4 -16   67.59   12.80
   2   4  16  121.69   21.50
   2   4  16   48.30   21.60
   2   4  16   72.79   16.50
  -3  -4 -16  177.38   24.50
   3   4  16  220.68   23.80
   3   4  16  169.58   25.60
   3   4  16  158.78   24.70
   3   4  16  207.98   28.50
   4   4  16    5.90   12.30
   4   4  16   18.60   11.00
   4   4  16   12.70   10.60
   4   4  16   -1.90   12.10
   5   4  16    4.60   11.60
   5   4  16   10.10   14.10
   6   4  16   35.20   16.90
   6   4  16   20.30   15.60
   3  -5 -16   46.90   13.10
  -3   5  16   97.09   27.00
   2  -5 -16    2.00    9.40
  -2   5  16   38.00   21.50
  -2   5  16    1.40    9.70
  -1   5  16    7.00   17.30
  -1   5  16  -10.90    9.30
   0  -5 -16  126.29   13.20
   0   5  16  109.59   18.30
   0   5  16   98.99   23.80
  -1  -5 -16  155.48   19.40
  -1  -5 -16  196.18   19.50
   1   5  16  171.78   23.80
   1   5  16  169.48   27.90
   1   5  16  163.68   28.60
  -2  -5 -16   -0.90    7.90
  -2  -5 -16   22.10   16.20
   2   5  16   -1.60   15.20
   2   5  16    6.40   13.30
   2   5  16   12.80   12.10
   3   5  16  195.28   26.40
   3   5  16  204.78   24.80
   3   5  16  173.08   23.20
   3   5  16  190.78   23.20
   4   5  16   26.70   14.30
   4   5  16   41.40   13.00
   5   5  16   11.90   12.60
   5   5  16   10.50   13.50
   6   5  16   23.60   19.20
   6   5  16   21.00   15.30
   3  -6 -16   30.30   11.60
  -3   6  16   54.19   25.40
  -3   6  16   48.20   20.30
   2  -6 -16  105.19   17.00
  -2   6  16  121.59   16.80
  -2   6  16  150.58   31.00
   1  -6 -16    6.00    5.40
  -1   6  16   12.70   18.40
  -1   6  16   10.20    9.60
   0  -6 -16  193.48   20.00
   0  -6 -16  176.28   21.20
   0   6  16  274.47   34.70
   0   6  16  199.18   24.90
  -1  -6 -16  113.29   16.50
  -1  -6 -16  158.58   22.50
   1   6  16  172.48   25.60
   1   6  16   93.79   18.90
   1   6  16  110.79   23.70
  -2  -6 -16   12.70   10.50
  -2  -6 -16   13.10    9.50
   2   6  16   18.30   18.80
   2   6  16   20.60   15.50
   2   6  16   14.90   11.30
   3   6  16   30.40   23.50
   3   6  16   16.10   12.50
   3   6  16   31.90   11.10
   4   6  16   30.70   14.20
   4   6  16   51.59   14.60
   5   6  16   -0.10   12.60
   5   6  16   11.40   12.70
   6   6  16   78.19   25.30
   6   6  16   80.79   19.50
   4  -7 -16   20.30   10.40
  -4   7  16   10.70   40.90
   3  -7 -16   16.60    8.30
   3  -7 -16   25.50   13.00
   3  -7 -16   18.20   11.80
  -3   7  16   26.30   11.50
  -3   7  16   41.10   23.90
   2  -7 -16   45.30   10.20
   2  -7 -16   42.60   12.80
  -2   7  16   23.30   20.90
  -2   7  16   54.49   12.10
   1  -7 -16   24.50    9.60
   1  -7 -16   34.50    8.20
  -1   7  16   37.20   11.70
  -1   7  16   46.20   21.00
   0  -7 -16    9.80    8.80
   0   7  16    3.50   10.60
   0   7  16   30.50   17.60
  -1  -7 -16   89.29   22.50
  -1  -7 -16  124.29   16.40
   1   7  16  115.19   21.20
   1   7  16  103.99   19.60
   1   7  16   50.59   23.40
  -2  -7 -16   77.99   23.40
  -2  -7 -16   77.19   14.50
   2   7  16   40.90   15.00
   2   7  16   57.29   16.90
   2   7  16   51.59   14.60
  -3  -7 -16   55.29   13.90
   3   7  16   69.49   10.60
   3   7  16   57.39   16.90
   4   7  16  140.79   21.50
   4   7  16  109.99   20.80
   5   7  16    2.40   13.70
   5   7  16   -8.00   11.20
   6   7  16   29.80   15.90
   6   7  16   26.50   15.60
   4  -8 -16   67.09   13.50
   3  -8 -16   -4.20    7.90
  -3   8  16    0.40    9.20
  -3   8  16   26.00   23.10
   2  -8 -16    7.90    9.90
   2  -8 -16    9.50    8.10
  -2   8  16   12.50    9.90
  -2   8  16    6.40   19.90
   1  -8 -16   21.20   10.20
   1  -8 -16   26.30    8.70
  -1   8  16   85.39   22.50
  -1   8  16   29.80   11.40
   0  -8 -16    4.90    7.20
   0  -8 -16   -6.10   11.10
   0   8  16   -3.90   10.40
   0   8  16    3.10   15.70
  -1  -8 -16   69.19   15.30
  -1  -8 -16  103.69   16.00
   1   8  16  103.29   20.00
  -2  -8 -16   94.69   16.50
   2   8  16   88.69   15.70
   2   8  16   92.49   18.70
   2   8  16   39.80   15.90
  -3  -8 -16    0.70   11.60
   3   8  16    9.10   13.10
   4   8  16  304.17   32.90
   4   8  16  223.48   32.60
   5   8  16   20.90   14.50
   5   8  16    2.60   12.90
   6   8  16   13.00   15.00
   6   8  16  -10.50   14.30
   4  -9 -16   67.89   14.70
   3  -9 -16  118.29   17.20
  -3   9  16   86.39   28.20
  -3   9  16   95.89   15.40
   2  -9 -16   13.30    8.70
   2  -9 -16    2.50   10.70
  -2   9  16   11.10   10.60
  -2   9  16   12.50   20.50
   1  -9 -16   67.49   15.40
   1  -9 -16  106.39   15.30
  -1   9  16   90.29   24.40
  -1   9  16   92.59   15.60
   0  -9 -16   50.49   14.10
   0  -9 -16   59.69   12.70
   0   9  16   71.99   19.60
   0   9  16   59.09   14.50
  -1  -9 -16  117.29   18.80
   1   9  16  122.39   19.50
   1   9  16  104.49   20.40
  -2  -9 -16  119.69   18.40
   2   9  16  104.89   19.50
   2   9  16   88.39   17.80
   2   9  16  105.69   16.60
  -3  -9 -16    6.20   11.60
   3   9  16   52.59   14.50
  -4  -9 -16   31.60   15.10
   4   9  16   48.30   15.00
   5   9  16   66.79   18.70
   5   9  16  111.99   21.10
   6   9  16   15.80   15.30
   6   9  16    4.40   19.10
   4 -10 -16    9.10   12.10
  -4  10  16   17.70   26.10
   3 -10 -16   65.39   14.40
  -3  10  16   63.89   24.30
  -3  10  16   61.69   13.30
   2 -10 -16   35.50   11.20
  -2  10  16   51.99   13.40
  -2  10  16   28.70   20.60
   1 -10 -16   33.90   11.20
  -1  10  16   43.50   18.20
  -1  10  16   39.90   12.70
   0 -10 -16  234.78   26.10
   0  10  16  191.08   29.50
  -1 -10 -16   -8.40   20.90
  -1 -10 -16    7.50    9.70
   1  10  16   18.70   12.10
   1  10  16   -6.20   12.00
  -2 -10 -16  197.58   24.80
   2  10  16  161.88   20.60
   2  10  16  151.38   21.80
   2  10  16  159.38   24.00
  -3 -10 -16   32.10   14.30
   3  10  16    2.80   12.00
  -4 -10 -16   35.00   15.90
   4  10  16   -3.20   12.00
   6  10  16    7.50   15.60
   6  10  16   17.70   15.00
   4 -11 -16    0.40   12.40
  -4  11  16  -17.30   21.70
   3 -11 -16  110.59   18.80
  -3  11  16   79.59   26.50
   2 -11 -16   16.50   10.70
  -2  11  16   13.80   11.30
  -2  11  16   27.40   19.40
   1 -11 -16   26.00   11.10
  -1  11  16    7.20   16.60
  -1  11  16   25.80   16.50
   0 -11 -16  125.89   19.80
   0  11  16  123.79   24.10
   0  11  16  146.09   21.20
  -1 -11 -16   62.59   14.60
   1  11  16   47.50   14.70
   1  11  16   69.69   17.50
  -2 -11 -16   89.99   17.90
   2  11  16   62.09   16.30
   2  11  16   62.59   18.90
   2  11  16   75.59   14.40
  -3 -11 -16  126.29   22.00
   3  11  16  141.79   23.30
  -4 -11 -16    7.60   12.50
   4  11  16    3.00   13.60
  -5 -11 -16   91.29   21.10
   5  11  16   89.09   21.00
   3 -12 -16   57.29   16.00
  -3  12  16   70.89   27.30
   2 -12 -16   73.89   17.80
  -2  12  16  132.09   27.80
  -2  12  16   55.19   16.00
  -1  12  16    4.90   11.40
   0  12  16   36.20   14.40
   0  12  16   17.40   16.60
  -1 -12 -16   41.40   30.40
  -1 -12 -16   42.80   13.40
   1  12  16   48.80   15.30
   1  12  16   43.50   15.60
  -2 -12 -16    4.50   12.20
   2  12  16    0.20   10.00
   2  12  16   13.00   13.70
  -3 -12 -16  111.89   20.90
   3  12  16   95.89   19.80
  -4 -12 -16  127.79   23.10
   4  12  16   75.99   23.30
  -5 -12 -16  119.79   27.90
   5  12  16   62.89   19.80
   3 -13 -16    7.40   12.20
   3 -13 -16   21.00   12.50
  -3  13  16   16.90   23.70
   2 -13 -16  233.58   29.20
  -2  13  16  235.28   28.20
  -2  13  16  210.58   37.10
   1 -13 -16   22.60   12.40
  -1  13  16   18.60   13.30
  -1  13  16   35.70   19.40
   0 -13 -16  127.19   21.00
   0  13  16  118.89   23.40
   0  13  16  130.49   21.80
  -1 -13 -16  113.99   20.30
   1  13  16   96.69   19.80
   1  13  16  108.49   20.70
  -2 -13 -16   16.50   13.00
   2  13  16   13.10   13.80
   2  13  16   18.20   11.30
  -3 -13 -16   78.19   20.20
   3  13  16   69.19   19.10
  -4 -13 -16    9.70   14.00
   4  13  16    7.40   13.60
   2 -14 -16   85.79   18.20
  -2  14  16   48.00   23.70
  -2  14  16   71.59   16.80
   1 -14 -16   72.79   16.80
  -1  14  16   43.60   15.80
  -1  14  16   66.09   21.70
   0 -14 -16   -4.60   10.60
   0  14  16   15.80   12.20
   0  14  16    3.50   14.50
  -1 -14 -16  230.48   29.30
   1  14  16  178.88   27.40
   1  14  16  226.38   28.50
  -2 -14 -16   54.79   16.70
   2  14  16   55.39   17.50
   2  14  16   57.49   15.10
  -3 -14 -16  139.19   24.40
   3  14  16  111.99   25.80
  -4 -14 -16  139.79   25.90
   4  14  16  105.49   22.00
   1 -15 -16   98.29   19.90
  -1  15  16   70.59   18.60
  -1  15  16  120.49   26.10
   0 -15 -16    6.20   12.10
   0  15  16    4.60   13.80
   0  15  16  -24.00   15.50
  -1 -15 -16  112.29   20.70
   1  15  16   82.79   20.40
   1  15  16   89.09   19.40
  -2 -15 -16   76.79   19.10
   2  15  16   51.99   18.10
  -3 -15 -16   25.50   16.40
   3  15  16   20.70   16.50
   0 -16 -16   16.30   17.10
   0  16  16   17.30   17.80
   1  16  16   98.09   22.00
   1  16  16  140.69   24.30
  -2 -16 -16   54.29   17.80
   2  16  16   40.10   17.40
   0  -3  17   37.20   16.20
   1  -3  17    5.90   14.90
   1  -3  17   46.10   26.50
   2  -3  17  154.18   38.60
   2  -3  17  271.57   42.50
   3  -3  17    8.70   15.90
   3  -3  17    1.80   23.30
  -1  -2  17  109.19   57.99
  -1  -2  17   32.90   15.30
   0  -2  17   12.80   25.50
   0  -2  17   14.10   14.70
   1  -2  17   13.00   14.60
   1  -2  17   -1.20   22.20
   2  -2  17   31.50   16.00
   2  -2  17   42.20   25.30
   3  -2  17    8.40   22.10
   3  -2  17   13.20   10.00
   3  -2  17   10.50   15.90
   4  -2  17    8.40   11.00
   4  -2  17   14.80   15.50
   4  -2  17   23.30   23.20
  -2  -1  17   43.50   27.50
  -2  -1  17    1.20   15.40
  -1  -1  17   76.19   18.40
  -1  -1  17  141.19   34.20
   0  -1  17   81.19   18.50
   0  -1  17  132.39   32.30
   1  -1  17   -1.20   20.80
   1  -1  17   -8.30   12.00
   2  -1  17  268.87   39.80
   2  -1  17  228.08   31.00
   3  -1  17    7.30   14.30
   3  -1  17   -4.70    8.90
   3  -1  17    0.00   20.90
   4  -1  17   25.00   22.80
   4  -1  17    2.20   10.90
   4  -1  17   -2.30   14.50
  -2   0  17  -16.00   11.00
  -1   0  17    0.60   12.00
  -1   0  17    7.90   22.70
   0   0  17   93.59   27.40
   0   0  17  109.09   19.60
   1   0  17   38.00   15.10
   1   0  17  102.69   27.20
   2   0  17   51.09   17.30
   2   0  17   68.19   24.20
   3   0  17  160.98   19.70
   3   0  17  126.79   24.00
   3   0  17  182.18   32.10
   4   0  17   14.50   19.70
   4   0  17    5.70   11.20
   5   0  17   11.40   16.50
   5   0  17   16.60   12.50
   5   0  17   35.40   22.80
  -3   1  17   28.10   26.90
  -2   1  17   34.30   13.40
  -2   1  17   52.89   26.30
  -1   1  17   43.60   24.60
  -1   1  17   -9.10   14.50
   0   1  17    3.70   12.20
   0   1  17   20.90   20.90
   1   1  17   28.90   13.40
   1   1  17    0.60   19.00
  -2  -1 -17   10.90    8.50
   2   1  17    4.80   12.30
   2   1  17   16.40   19.10
  -3  -1 -17  149.39   28.20
   3   1  17  123.09   17.00
   3   1  17  111.69   21.10
   3   1  17  128.49   26.50
   4   1  17   50.89   14.00
   4   1  17   70.39   22.60
   4   1  17   27.00   15.60
   5   1  17    5.30   11.70
   5   1  17   -0.80   12.70
   5   1  17   33.50   19.40
  -3   2  17    8.30   27.30
  -3   2  17   11.90   13.40
  -2   2  17   95.49   16.50
  -2   2  17   81.49   26.20
  -1   2  17    8.50   22.00
  -1   2  17   30.80   12.70
   0   2  17  119.19   20.50
   0   2  17  105.59   27.10
   1   2  17   58.99   22.90
   1   2  17   47.60   16.00
  -2  -2 -17   -0.40    6.50
  -2  -2 -17    9.80    7.40
   2   2  17    2.90   13.00
   2   2  17    9.00   17.10
  -3  -2 -17   39.40   12.90
   3   2  17   84.39   22.00
   3   2  17   73.19   13.30
   3   2  17   59.59   17.20
   4   2  17   68.39   14.90
   4   2  17   82.29   20.70
   4   2  17   56.29   17.70
   5   2  17    4.70   13.90
   5   2  17    4.80   12.40
  -3   3  17    7.80   11.00
  -2   3  17    0.50   20.30
  -2   3  17    9.70   11.00
  -1   3  17   58.59   22.60
  -1   3  17   57.69   14.40
   0   3  17   14.40   23.70
   0   3  17   44.20   29.30
   1   3  17   33.10   19.20
   1   3  17   43.40   15.10
  -2  -3 -17   29.00    9.40
  -2  -3 -17   58.89   10.70
   2   3  17   64.09   19.30
   2   3  17   29.80   14.80
  -3  -3 -17   80.09   15.10
   3   3  17   95.29   23.00
   3   3  17   72.39   18.50
   3   3  17   93.09   21.70
   3   3  17   87.29   15.10
   4   3  17   42.80   13.40
   4   3  17    8.30   13.90
   4   3  17   48.40   23.10
   5   3  17   47.20   14.50
   5   3  17    9.40   12.90
   6   3  17   -1.40   13.90
   6   3  17   -2.30   13.60
  -3   4  17   72.19   14.50
  -3   4  17   66.39   27.00
  -2   4  17   18.60   10.70
  -2   4  17    4.20   21.10
  -1   4  17   40.90   22.40
  -1   4  17   39.60   12.40
   0   4  17   -2.10   17.30
   0   4  17   -1.20   11.00
  -1  -4 -17   10.40    7.70
  -1  -4 -17   25.60    6.20
   1   4  17   24.30   18.70
   1   4  17    7.40   12.60
  -2  -4 -17   66.39   13.40
  -2  -4 -17  193.58   26.20
   2   4  17   64.49   24.80
   2   4  17   79.69   18.40
   2   4  17  105.89   22.50
   3   4  17    1.40   12.00
   3   4  17    3.40   14.60
   3   4  17    4.00    9.40
   3   4  17   30.90   18.20
   4   4  17  127.09   21.30
   4   4  17  113.49   22.50
   4   4  17  139.29   20.30
   4   4  17  119.69   19.00
   5   4  17   72.59   16.90
   6   4  17    0.10   13.80
   6   4  17   -1.50   14.70
  -4   5  17   19.90   27.40
  -3   5  17  110.19   17.00
  -3   5  17  135.89   32.30
  -2   5  17   24.10   20.40
  -2   5  17    3.50   10.00
  -1   5  17  174.78   33.50
  -1   5  17  193.88   23.90
   0   5  17   42.90   20.10
   0   5  17   24.40   13.00
  -1  -5 -17   41.10    8.40
  -1  -5 -17   27.80    9.20
   1   5  17   24.20   13.50
   1   5  17   40.10   18.90
  -2  -5 -17   95.09   14.80
  -2  -5 -17   51.09   22.30
   2   5  17   95.29   20.30
   2   5  17   68.79   21.50
   2   5  17   66.89   17.40
   3   5  17   12.10   13.10
   3   5  17    7.50   14.10
   3   5  17   -0.80   12.40
   4   5  17   28.90   12.30
   4   5  17    8.40   13.20
   5   5  17   41.20   18.40
   5   5  17   51.09   15.30
   6   5  17   19.10   14.90
   6   5  17    1.00   14.30
  -4   6  17   19.60   26.30
  -3   6  17   82.69   29.80
  -3   6  17   83.79   15.00
  -2   6  17   38.00   21.90
  -2   6  17   14.90   10.30
  -1   6  17   39.50   12.60
  -1   6  17   47.10   22.30
   0  -6 -17  183.38   18.30
   0  -6 -17  150.58   18.80
   0   6  17  193.58   24.10
   0   6  17  213.98   32.80
  -1  -6 -17   -0.30    8.80
   1   6  17   -0.20   11.30
   1   6  17   21.20   17.00
  -2  -6 -17  102.19   15.40
  -2  -6 -17  101.79   17.10
   2   6  17   72.89   17.50
   2   6  17  121.99   20.70
   2   6  17   82.89   22.10
  -3  -6 -17   15.40   11.20
   3   6  17   17.10   11.90
   3   6  17   51.79   15.80
   3   6  17   29.90   13.50
   4   6  17   34.90   13.90
   4   6  17   14.50   14.00
   5   6  17    6.50   11.90
   5   6  17    8.70   14.60
   6   6  17   21.70   16.40
   6   6  17   37.30   16.10
  -4   7  17    4.10   26.50
  -3   7  17  166.68   19.90
  -3   7  17  112.79   33.10
   2  -7 -17   13.30    6.80
  -2   7  17   21.10   10.50
  -2   7  17   30.70   22.00
   1  -7 -17    3.80    6.10
   1  -7 -17   -2.90    7.10
  -1   7  17  -10.30    9.50
  -1   7  17   22.70   22.90
   0  -7 -17  178.88   21.70
   0  -7 -17  221.48   21.50
   0   7  17  170.98   25.00
   0   7  17  203.78   31.60
  -1  -7 -17   40.30   10.40
   1   7  17   25.00   20.20
   1   7  17   36.70   13.70
   1   7  17   60.09   17.80
  -2  -7 -17    5.10    8.90
   2   7  17  -22.60   14.50
   2   7  17   36.10   29.50
   2   7  17  -13.00   11.50
  -3  -7 -17  178.28   25.00
   3   7  17  243.88   24.50
   3   7  17  202.38   22.70
   3   7  17  135.39   25.60
   4   7  17   37.40   15.50
   4   7  17   15.40   11.90
   5   7  17   63.89   17.30
   6   7  17  106.99   22.30
   6   7  17  122.29   23.90
  -4   8  17   62.29   30.80
   3  -8 -17   52.29   12.80
  -3   8  17   46.60   12.70
  -3   8  17   24.60   24.50
   2  -8 -17  368.96   35.70
   2  -8 -17  301.47   39.40
  -2   8  17  314.57   48.20
  -2   8  17  319.37   33.80
   1  -8 -17    5.20    8.60
   1  -8 -17    0.60    9.50
  -1   8  17   -3.30   10.10
  -1   8  17    1.80   38.70
   0  -8 -17   78.39   12.60
   0  -8 -17   43.00   22.00
   0   8  17   72.09   21.50
  -1  -8 -17   42.30   11.10
  -1  -8 -17   20.80   11.90
   1   8  17   27.50   19.40
   1   8  17   32.30   15.70
   1   8  17   41.90   14.10
  -2  -8 -17  -14.30    8.00
   2   8  17  -15.30   11.00
   2   8  17  -12.60   13.70
   2   8  17    6.50   11.70
  -3  -8 -17  118.89   19.60
   3   8  17   94.89   20.80
   4   8  17   -2.30   12.70
   5   8  17    8.80   13.10
   6   8  17   76.69   20.90
   6   8  17   75.39   21.80
   3  -9 -17    0.20    9.70
  -3   9  17   22.80   25.40
  -3   9  17    2.30   10.20
   2  -9 -17   81.69   14.20
  -2   9  17   65.59   25.20
  -2   9  17   67.79   14.40
   1  -9 -17  107.99   15.80
   1  -9 -17  121.19   18.40
  -1   9  17   94.49   17.20
  -1   9  17  136.69   49.60
   0  -9 -17   72.79   18.10
   0  -9 -17  107.29   16.10
   0   9  17  102.49   18.60
   0   9  17  106.99   23.80
  -1  -9 -17  181.88   21.50
   1   9  17  103.39   25.40
   1   9  17  167.88   22.80
   1   9  17  130.79   23.20
  -2  -9 -17   15.20   10.60
   2   9  17   20.30   12.40
   2   9  17  -12.00   13.60
   2   9  17    0.00   12.60
  -3  -9 -17  226.18   34.60
   3   9  17  118.39   22.30
  -4  -9 -17   52.39   16.00
   4   9  17   39.50   16.00
   5   9  17  -12.30   11.60
   5   9  17   15.90   14.40
  -3  10  17    5.40   21.50
  -3  10  17   14.10   11.00
   2 -10 -17   87.29   15.30
  -2  10  17   94.69   26.00
  -2  10  17   61.29   15.10
   1 -10 -17   76.99   14.10
  -1  10  17   80.89   28.20
  -1  10  17   49.50   21.30
   0 -10 -17    3.50    9.20
   0  10  17   -5.50   14.40
   0  10  17   16.20   11.50
  -1 -10 -17  196.98   25.60
   1  10  17  207.08   27.50
   1  10  17  207.68   28.00
  -2 -10 -17   81.19   16.90
   2  10  17   71.39   15.00
   2  10  17   77.99   18.10
   2  10  17   71.09   16.90
  -3 -10 -17    3.60   12.10
   3  10  17   24.50   13.50
  -4 -10 -17  128.39   23.00
   4  10  17   97.99   20.80
  -5 -10 -17   11.50   15.00
   5  10  17   13.40   14.70
   3 -11 -17   35.80   13.30
  -3  11  17   35.50   24.10
   2 -11 -17   91.19   17.00
  -2  11  17  141.39   28.50
  -2  11  17   88.49   16.80
   1 -11 -17  158.58   22.40
  -1  11  17  161.68   29.30
  -1  11  17  171.38   23.10
   0 -11 -17    4.60    9.80
   0  11  17    3.00   12.20
   0  11  17   10.50   16.00
  -1 -11 -17   91.89   24.60
  -1 -11 -17   95.79   17.30
   1  11  17   62.29   17.70
   1  11  17  103.69   20.50
  -2 -11 -17   12.30   12.20
   2  11  17    4.30   13.90
   2  11  17   -4.00   11.90
   2  11  17   27.70   11.60
  -3 -11 -17   18.70   13.80
   3  11  17   17.90   14.60
  -4 -11 -17   20.40   15.00
   5  11  17    8.20   15.90
   3 -12 -17   -7.00   11.60
  -3  12  17  -10.20   23.80
   2 -12 -17   15.30   12.30
  -2  12  17   10.20   12.00
  -2  12  17   16.20   20.60
   1 -12 -17  143.59   32.10
  -1  12  17   76.79   23.60
  -1  12  17   89.59   18.10
   0 -12 -17  110.69   18.80
   0  12  17   99.19   22.50
   0  12  17   83.79   18.80
  -1 -12 -17   33.20   12.70
   1  12  17   17.90   14.20
   1  12  17   37.90   15.50
  -2 -12 -17  183.18   24.90
   2  12  17  114.89   17.00
   2  12  17   96.99   21.30
  -3 -12 -17   19.50   14.50
   3  12  17   -1.50   14.10
  -4 -12 -17   13.40   15.10
   4  12  17    3.40   14.20
   2 -13 -17   -2.70   10.60
  -2  13  17   14.90   20.60
  -2  13  17    1.20   12.10
   1 -13 -17  140.49   21.60
  -1  13  17  115.79   26.90
  -1  13  17   67.99   17.50
   0 -13 -17  123.29   21.30
   0  13  17  162.08   26.60
  -1 -13 -17   -1.50   10.80
   1  13  17    1.20   13.60
   1  13  17    2.80   13.40
  -2 -13 -17  102.89   20.70
   2  13  17  130.99   17.90
   2  13  17   99.29   21.20
  -3 -13 -17   84.99   20.10
   4  13  17   27.50   16.80
  -2  14  17   15.60   13.10
   1 -14 -17  105.59   20.40
  -1  14  17  101.39   25.90
  -1  14  17  110.79   20.60
   0 -14 -17   55.69   15.60
   0  14  17   58.49   16.60
   0  14  17   36.70   18.30
  -1 -14 -17   11.80   12.70
   1  14  17   44.90   17.30
   1  14  17    9.60   14.50
  -2 -14 -17   38.90   15.00
  -3 -14 -17  134.69   23.50
   3  14  17   58.09   19.50
  -1  15  17   -5.70   12.40
   0 -15 -17  123.29   20.90
   0  15  17   64.69   19.10
  -1 -15 -17  125.99   22.10
   1  15  17   87.19   21.30
  -2 -15 -17   25.30   20.30
   2  15  17   28.50   16.60
   1  -2  18   62.19   28.70
   1  -2  18   55.79   27.40
   2  -2  18    5.40   15.80
   2  -2  18  -29.70   21.30
  -1  -1  18   24.90   14.70
  -1  -1  18   29.60   27.00
   0  -1  18   -1.30   23.60
   0  -1  18   -6.30   14.00
   1  -1  18   40.10   17.90
   1  -1  18   53.09   26.70
   2  -1  18   39.60   24.40
   2  -1  18   28.80   24.80
   3  -1  18   -8.20   14.90
   3  -1  18   20.20   22.60
  -1   0  18   44.40   16.40
  -1   0  18   43.90   41.10
   0   0  18   -6.60   13.10
   0   0  18    4.10   21.70
   1   0  18   20.30   14.90
   1   0  18   47.80   26.00
   2   0  18   26.60   22.20
   2   0  18    9.30   15.60
   3   0  18   11.00   21.50
   3   0  18   28.70   21.80
   3   0  18   -2.30    9.20
   4   0  18    9.30   15.10
   4   0  18   -9.00   10.50
  -2   1  18    5.10   24.30
  -2   1  18    5.60   12.60
  -1   1  18   35.70   15.00
  -1   1  18   65.29   26.80
   0   1  18  171.18   25.80
   0   1  18  219.58   35.80
   1   1  18    7.60   14.00
   1   1  18   25.30   21.30
   2   1  18   83.09   20.60
   2   1  18  157.38   30.80
   3   1  18  -11.80   12.80
   3   1  18   34.30   22.10
   3   1  18   10.40    9.90
   4   1  18    9.20   15.00
   4   1  18   16.70   20.50
   4   1  18   -7.10   10.90
  -2   2  18    1.30   11.70
  -2   2  18   27.90   40.60
  -1   2  18   10.00   12.20
  -1   2  18    0.10   20.70
   0   2  18   58.19   25.20
   0   2  18   54.99   16.70
   1   2  18  107.59   25.70
   1   2  18   19.10   14.50
   2   2  18   70.59   18.60
   2   2  18   47.40   23.10
   3   2  18   96.99   24.60
   3   2  18   97.79   20.90
   4   2  18    7.80   17.00
   4   2  18   18.20   12.20
   4   2  18    6.40   17.70
   5   2  18   83.59   21.70
   5   2  18   53.19   17.00
  -2   3  18   79.49   15.70
  -2   3  18   60.39   27.90
  -1   3  18   25.30   17.70
  -1   3  18   27.20   22.40
   0   3  18   86.59   25.80
   0   3  18   92.99   18.40
   1   3  18   11.10   13.40
   1   3  18   14.10   31.10
  -2  -3 -18   39.20   10.10
  -2  -3 -18   56.09   10.10
   2   3  18   41.70   16.30
   2   3  18   42.70   20.70
   3   3  18   31.10   16.50
   3   3  18   52.39   19.60
   4   3  18   12.20   16.00
   4   3  18   -1.80   10.80
   5   3  18   27.20   15.20
   5   3  18   25.90   13.70
  -3   4  18   -5.50   23.50
  -2   4  18   15.70   21.30
  -2   4  18   36.10   13.10
  -1   4  18   89.39   26.40
  -1   4  18   68.99   16.00
   0   4  18   85.49   25.50
   0   4  18   49.20   14.70
   1   4  18  179.48   29.70
   1   4  18  121.39   22.10
  -2  -4 -18   13.60    8.90
  -2  -4 -18  -10.60   11.80
   2   4  18    3.60   16.50
   2   4  18   -0.20   12.40
   3   4  18  119.39   23.60
   3   4  18  136.89   23.80
   4   4  18   54.89   16.30
   4   4  18   20.20   12.30
   4   4  18   35.00   16.50
   5   4  18   -4.50   12.10
   5   4  18   -6.40   12.60
  -3   5  18    9.30   25.70
  -2   5  18   71.09   15.00
  -2   5  18  100.19   31.40
  -1   5  18   20.70   19.90
  -1   5  18    5.60   10.80
   0   5  18   -7.80   10.70
   0   5  18   -9.90   20.80
  -1  -5 -18  160.48   16.30
   1   5  18  109.59   21.40
   1   5  18  135.59   27.10
  -2  -5 -18   50.49   18.60
  -2  -5 -18   27.30   10.40
   2   5  18   42.00   18.60
   2   5  18   40.10   15.80
  -3  -5 -18   83.69   15.70
   3   5  18   71.69   17.50
   3   5  18   77.39   19.00
   4   5  18  122.89   17.70
   4   5  18  145.89   24.30
   4   5  18  112.09   22.20
   5   5  18   10.10   13.80
   5   5  18   22.30   13.40
  -2   6  18   58.89   26.60
  -2   6  18   62.19   14.00
  -1   6  18   71.49   14.80
  -1   6  18   38.00   23.00
   0   6  18    5.10   11.50
   0   6  18    3.40   21.20
  -1  -6 -18   32.80    9.00
  -1  -6 -18   28.20   10.90
   1   6  18   69.09   22.40
   1   6  18   26.00   14.40
  -2  -6 -18   29.10   13.10
  -2  -6 -18   51.29   12.00
   2   6  18   15.60   13.70
   2   6  18   12.30   19.30
   2   6  18   38.60   17.70
  -3  -6 -18    2.50   10.90
   3   6  18   25.60   22.10
   3   6  18    8.20   13.00
   3   6  18    3.20   13.40
   4   6  18   34.30   15.80
   4   6  18   63.79   15.70
   5   6  18   13.40   13.80
   5   6  18    4.90   13.00
  -2   7  18   -3.90   22.50
  -2   7  18    6.90   10.50
  -1   7  18   87.99   16.70
  -1   7  18  158.08   30.70
   0  -7 -18   16.50    7.50
   0  -7 -18    7.60    8.60
   0   7  18   18.60   19.00
   0   7  18   13.30   11.70
  -1  -7 -18   36.40   10.40
   1   7  18   42.30   14.50
   1   7  18   78.89   21.40
  -2  -7 -18   77.59   14.70
   2   7  18   47.00   23.70
   2   7  18   52.79   16.60
   2   7  18   58.89   17.50
  -3  -7 -18   16.30   12.20
   3   7  18    7.90   10.40
   3   7  18   22.60   13.90
   4   7  18   12.40   14.90
   5   7  18   39.90   16.20
   5   7  18   70.29   18.80
   2  -8 -18    6.40    7.70
  -2   8  18   19.50   12.20
  -2   8  18   10.60   23.70
   1  -8 -18   31.10    8.90
  -1   8  18    9.40   21.40
  -1   8  18   -3.50   17.20
   0  -8 -18  257.97   24.10
   0  -8 -18  176.78   27.60
   0   8  18  255.37   35.90
   0   8  18  184.68   26.30
  -1  -8 -18   12.10    9.00
  -1  -8 -18   -6.00   11.70
   1   8  18    7.30   11.80
   1   8  18    1.20   15.10
  -2  -8 -18  156.98   21.10
   2   8  18  119.69   23.90
   2   8  18  115.49   29.50
   2   8  18  155.58   24.00
  -3  -8 -18   27.20   13.20
   3   8  18   17.40   14.30
  -4  -8 -18   54.69   16.40
   4   8  18   25.60   16.20
   5   8  18   76.59   20.50
   5   8  18   81.99   19.80
   2  -9 -18    2.80    9.30
  -2   9  18   -2.30   21.80
  -2   9  18   -4.70   11.00
   1  -9 -18   49.99   11.50
  -1   9  18   57.59   15.50
  -1   9  18   55.09   23.00
   0  -9 -18   38.40   11.20
   0  -9 -18   24.00   13.30
   0   9  18   30.80   13.40
   0   9  18   33.50   18.90
  -1  -9 -18   30.50   11.90
   1   9  18   39.20   14.50
   1   9  18   41.80   16.60
  -2  -9 -18   13.70   11.30
   2   9  18    6.50   18.60
   2   9  18   27.80   14.70
   2   9  18   11.40   12.90
  -3  -9 -18  178.18   24.20
   3   9  18  116.39   22.90
  -4  -9 -18   -3.40   12.40
  -5  -9 -18   93.99   21.70
   5   9  18  130.19   23.40
   2 -10 -18   80.09   15.50
  -2  10  18   77.79   25.70
  -2  10  18   59.39   15.90
   1 -10 -18   32.10   10.90
  -1  10  18    6.80   12.20
  -1  10  18    5.30   17.80
   0 -10 -18  218.68   25.40
   0  10  18  230.28   32.30
   0  10  18  182.98   25.70
  -1 -10 -18   -8.20    8.90
   1  10  18   -5.20   13.70
   1  10  18   -3.60   13.70
   1  10  18  -20.70   22.90
  -2 -10 -18   20.00   17.60
   2  10  18   16.80   12.50
   2  10  18   23.30   14.40
  -3 -10 -18  115.39   20.80
   3  10  18  101.89   21.70
  -4 -10 -18    5.50   13.70
   4  10  18   11.90   14.60
  -5 -10 -18   -6.90   14.50
   5  10  18   13.50   19.10
   2 -11 -18   45.70   13.70
  -2  11  18   65.29   16.60
  -2  11  18   70.49   25.40
   1 -11 -18   28.20   11.30
  -1  11  18    4.40   18.20
  -1  11  18   27.60   13.70
   0 -11 -18  216.18   25.00
   0  11  18  140.69   23.60
   0  11  18  202.48   30.50
  -1 -11 -18  133.99   27.90
   1  11  18  236.58   29.20
   1  11  18  194.48   26.20
  -2 -11 -18   29.90   13.80
   2  11  18   15.20   11.90
   2  11  18   10.10   14.20
  -3 -11 -18  193.68   26.60
   3  11  18  127.49   25.20
  -4 -11 -18   25.70   17.20
   4  11  18   23.30   16.60
   2 -12 -18  102.69   18.40
  -2  12  18   54.09   25.70
  -2  12  18   80.19   17.90
   1 -12 -18    9.30   11.30
  -1  12  18    7.10   18.40
  -1  12  18  -11.20   12.60
   0 -12 -18   11.80   11.70
   0  12  18   50.89   15.90
   0  12  18   31.90   18.80
  -1 -12 -18   70.09   16.50
   1  12  18   83.79   20.00
   1  12  18   88.29   18.80
  -2 -12 -18   45.90   15.90
   2  12  18   45.60   14.10
   2  12  18   19.90   15.20
  -3 -12 -18    9.90   13.70
   3  12  18   16.20   18.20
  -4 -12 -18  189.38   29.20
   4  12  18  160.78   26.80
   1 -13 -18  232.58   28.00
  -1  13  18  189.68   32.80
  -1  13  18  149.79   24.90
   0 -13 -18   43.70   14.60
   0  13  18    7.40   18.10
   0  13  18   29.30   15.20
  -1 -13 -18  330.57   36.30
   1  13  18  295.57   37.30
   1  13  18  313.67   38.60
  -2 -13 -18   51.09   16.20
  -3 -13 -18   29.40   16.20
   3  13  18   28.50   17.10
   0 -14 -18   74.39   18.10
   0  14  18   31.10   15.90
  -1 -14 -18  148.29   24.40
   1  14  18  150.58   25.90
  -2 -14 -18   67.19   18.30
   2  14  18   56.69   19.30
   1   0  19   37.70   25.90
   1   0  19   17.00   17.40
   2   0  19    6.60   23.10
   2   0  19  -12.80   15.00
   0   1  19   -7.80   13.20
   0   1  19   23.40   25.20
   1   1  19   16.00   15.80
   1   1  19   77.09   27.00
   2   1  19   75.49   26.60
   3   1  19   44.70   24.20
   3   1  19   24.00   17.10
  -1   2  19   96.89   30.60
  -1   2  19   62.79   16.40
   0   2  19    5.00   13.50
   0   2  19   15.20   22.20
   1   2  19   41.50   17.40
   1   2  19   36.40   22.00
   2   2  19   15.20   15.70
   2   2  19   36.90   21.90
   3   2  19   -1.20   19.30
   3   2  19  -19.30   14.30
   4   2  19   18.00   12.50
   4   2  19    3.20   15.70
   4   2  19   53.79   21.90
  -1   3  19  105.89   31.10
  -1   3  19   71.49   17.50
   0   3  19   98.99   19.20
   0   3  19   80.89   25.30
   1   3  19   20.80   14.90
   1   3  19   12.80   20.20
   2   3  19  136.89   30.40
   2   3  19   82.39   19.90
  -3  -3 -19    8.80   10.10
   3   3  19   25.50   19.20
   4   3  19   33.90   16.50
   4   3  19   56.99   20.40
   4   3  19   44.20   13.90
  -2   4  19   10.00   12.00
  -2   4  19  -15.20   48.60
  -1   4  19    7.90   11.90
  -1   4  19   15.40   22.70
   0   4  19   45.80   22.70
   0   4  19   37.10   14.90
   1   4  19   -5.00   13.00
   1   4  19   18.80   20.40
  -2  -4 -19   17.10    8.10
   2   4  19   26.70   19.10
   2   4  19   14.20   14.40
  -3  -4 -19   68.19   14.70
   3   4  19   93.39   21.80
   3   4  19   46.60   19.20
   4   4  19  -18.50   15.00
   4   4  19    2.50   14.50
  -2   5  19   30.70   13.10
  -2   5  19   14.70   31.20
  -1   5  19   -4.30   19.10
  -1   5  19   16.00   12.50
   0   5  19  119.69   29.10
   0   5  19   79.79   18.60
   1   5  19   -8.80   13.10
   1   5  19   -1.10   18.70
  -2  -5 -19   14.00   10.50
   2   5  19   17.50   17.40
   2   5  19    2.40   14.00
  -3  -5 -19   27.90   12.80
   3   5  19   53.69   17.30
   3   5  19   47.90   17.30
   4   5  19   19.50   15.10
  -2   6  19  117.19   31.80
  -2   6  19   75.99   16.00
  -1   6  19    0.50   11.00
  -1   6  19   19.40   22.90
   0   6  19  148.69   31.20
   0   6  19  105.59   19.70
  -1  -6 -19   19.50    7.50
   1   6  19   12.30   14.30
   1   6  19   36.30   21.40
  -2  -6 -19   12.50    9.70
   2   6  19   12.80   17.50
   2   6  19   16.10   14.40
  -3  -6 -19  108.19   18.80
   3   6  19   77.19   20.00
   4   6  19    9.70   14.40
  -2   7  19   11.20   25.50
  -2   7  19   26.10   12.60
  -1   7  19    7.90   11.70
  -1   7  19   21.00   22.60
   0  -7 -19   20.20    7.40
   0   7  19   14.90   20.10
   0   7  19   15.70   13.00
  -1  -7 -19  100.19   15.60
   1   7  19  102.19   24.60
   1   7  19   98.59   19.60
  -2  -7 -19    8.90   10.00
   2   7  19   26.70   16.10
   2   7  19    8.30   16.00
  -3  -7 -19   32.90   13.50
   3   7  19   65.99   15.30
   3   7  19   40.90   16.40
  -4  -7 -19   27.20   14.60
   4   7  19   22.70   15.30
  -2   8  19   84.59   30.70
  -2   8  19   64.49   15.60
   1  -8 -19    0.00    8.70
  -1   8  19   -9.80   11.00
  -1   8  19   -3.10   21.30
   0  -8 -19   45.80   14.00
   0   8  19   59.09   30.40
   0   8  19   27.30   15.20
  -1  -8 -19   21.50   10.20
   1   8  19   13.30   13.20
   1   8  19   14.30   16.80
  -2  -8 -19    1.80   10.70
   2   8  19    9.60   14.10
   2   8  19   15.50   15.10
  -3  -8 -19    9.80   24.20
   3   8  19    6.90   14.90
  -4  -8 -19   54.39   17.30
   4   8  19   43.00   16.70
  -2   9  19   62.69   28.10
  -2   9  19   34.70   18.30
   1  -9 -19  283.47   26.50
  -1   9  19  234.18   38.80
  -1   9  19  197.28   26.90
   0  -9 -19    9.70    9.50
   0   9  19   -3.00   41.80
   0   9  19   -2.40   12.20
  -1  -9 -19  322.17   33.20
   1   9  19  336.07   39.60
   1   9  19  291.97   36.30
  -2  -9 -19    4.50   11.20
   2   9  19    0.10   16.70
   2   9  19    2.80   13.50
  -3  -9 -19    9.90   13.40
   3   9  19    8.20   17.90
  -4  -9 -19   76.69   19.00
   4   9  19   33.50   17.30
  -2  10  19   18.60   23.70
  -2  10  19   -0.40   13.40
   1 -10 -19   21.40   10.70
  -1  10  19   21.10   12.90
  -1  10  19    6.40   19.30
   0 -10 -19   65.79   14.50
   0  10  19   61.79   15.80
   0  10  19   96.19   32.20
  -1 -10 -19   10.70   11.10
   1  10  19   11.10   16.10
   1  10  19   18.40   13.80
  -2 -10 -19  197.78   27.30
   2  10  19  168.18   27.30
   2  10  19  126.99   23.80
  -3 -10 -19   -7.20   11.90
   3  10  19    0.00   15.30
  -4 -10 -19   84.69   20.50
   4  10  19   32.90   16.90
   1 -11 -19   37.60   12.70
  -1  11  19   45.40   22.30
  -1  11  19   19.60   14.60
   0 -11 -19   -3.20    9.90
   0  11  19    8.80   13.00
   0  11  19  -21.10   22.20
  -1 -11 -19    2.10   12.50
   1  11  19  -20.30   11.70
   1  11  19   15.30   16.80
  -2 -11 -19   39.30   14.70
   2  11  19   19.50   19.30
   2  11  19   56.79   17.60
  -3 -11 -19   16.80   14.30
   3  11  19   24.20   16.10
   1 -12 -19  165.28   24.90
  -1  12  19  204.58   34.40
  -1  12  19  188.28   26.20
   0 -12 -19   85.09   17.90
   0  12  19  103.09   19.80
  -1 -12 -19   10.60   12.10
   1  12  19   16.00   14.30
   1  12  19    3.20   16.10
  -2 -12 -19   70.59   18.00
  -3 -12 -19   18.00   14.30
   3  12  19    2.30   15.40
   0 -13 -19  143.09   22.60
   0  13  19  157.58   38.80
   0  13  19  100.09   21.80
  -1 -13 -19  126.89   21.80
   1  13  19   60.49   19.80
  -2 -13 -19   23.20   14.40
   2  13  19   28.80   17.20
   1   3  20   81.79   26.50
   1   3  20   34.80   17.30
   2   3  20   46.20   24.30
   2   3  20   25.20   22.00
   0   4  20    1.60   22.30
   0   4  20    2.70   13.20
   1   4  20   -0.20   14.50
   1   4  20   -1.80   20.80
  -3  -4 -20    3.80   14.30
   3   4  20   -3.80   15.40
   3   4  20    2.10   18.70
   0   5  20   10.10   13.00
   0   5  20   16.50   21.80
   1   5  20   67.29   22.80
   1   5  20   20.70   15.60
   2   5  20   82.69   23.00
   2   5  20   16.70   17.50
  -3  -5 -20   42.10   13.40
   3   5  20   14.00   16.20
   3   5  20   47.40   20.10
  -1   6  20   31.50   25.60
  -1   6  20   35.30   14.70
   0   6  20   -7.30   12.20
   0   6  20   19.40   23.10
   1   6  20   14.60   13.60
   1   6  20   -1.70   30.70
  -2  -6 -20   50.79   12.00
   2   6  20   70.19   21.20
   2   6  20   53.39   18.60
  -3  -6 -20   -2.70   11.70
   3   6  20   26.10   26.70
   3   6  20   13.70   16.40
  -1   7  20  138.39   21.70
  -1   7  20  170.58   35.40
   0   7  20   35.20   14.10
   0   7  20   24.30   23.00
   1   7  20   19.10   20.90
   1   7  20   29.30   14.60
  -2  -7 -20   30.00   11.50
   2   7  20   29.60   19.20
   2   7  20   12.80   16.60
  -3  -7 -20   18.50   12.80
   3   7  20   39.20   18.00
  -1   8  20   20.20   14.00
  -1   8  20   72.09   28.50
   0   8  20  209.58   34.00
   0   8  20  146.49   23.90
  -1  -8 -20    8.40    9.10
   1   8  20   -1.20   13.40
   1   8  20   10.40   18.50
  -2  -8 -20  106.79   17.10
   2   8  20   57.69   20.00
   2   8  20   70.29   21.00
  -3  -8 -20   78.89   18.10
   3   8  20   19.80   15.40
   0  -9 -20   73.09   14.50
   0   9  20  117.29   28.10
   0   9  20   62.19   17.30
  -1  -9 -20  127.79   18.20
   1   9  20  125.79   25.50
   1   9  20   90.29   19.80
  -2  -9 -20   13.80   12.00
   2   9  20    3.60   15.60
  -3  -9 -20  248.78   28.00
   3   9  20  123.19   25.70
   0 -10 -20   82.99   15.90
   0  10  20   53.19   15.60
   0  10  20   56.69   22.30
  -1 -10 -20   16.30   12.10
   1  10  20    4.90   14.00
   1  10  20   16.50   17.90
  -2 -10 -20   -2.50   11.10
   2  10  20   -4.00   19.20
  -3 -10 -20  -15.10   11.70
   3  10  20    6.10   15.50
   0  11  20    5.70   13.40
  -1 -11 -20  232.88   28.00
   1  11  20  216.98   30.30
   1  11  20  129.59   26.60
  -2 -11 -20   -5.10   11.20
   2  11  20  -11.60   13.80
   0   0   0    0.00    0.00

_computing_structure_solution     'SHELXT 2018/2 (Sheldrick, 2018)'
;
_shelx_hkl_checksum   70440

