 
data_pvl729b_autored_a
 
_audit_creation_method            'SHELXL-2018/3'
_shelx_SHELXL_version_number      '2018/3'
_chemical_name_systematic         ?
_chemical_name_common             ?
_chemical_melting_point           ?
_chemical_formula_moiety          ?
_chemical_formula_sum
 'C H Cd N O S' 
_chemical_formula_weight          187.49

loop_
 _atom_type_symbol
 _atom_type_description
 _atom_type_scat_dispersion_real
 _atom_type_scat_dispersion_imag
 _atom_type_scat_source
 'C'  'C'   0.0033   0.0016
 'International Tables Vol C Tables 4.2.6.8 and 6.1.1.4'
 'H'  'H'   0.0000   0.0000
 'International Tables Vol C Tables 4.2.6.8 and 6.1.1.4'
 'N'  'N'   0.0061   0.0033
 'International Tables Vol C Tables 4.2.6.8 and 6.1.1.4'
 'O'  'O'   0.0106   0.0060
 'International Tables Vol C Tables 4.2.6.8 and 6.1.1.4'
 'S'  'S'   0.1246   0.1234
 'International Tables Vol C Tables 4.2.6.8 and 6.1.1.4'
 'Cd'  'Cd'  -0.8075   1.2024
 'International Tables Vol C Tables 4.2.6.8 and 6.1.1.4'
 
_space_group_crystal_system       monoclinic
_space_group_IT_number            15
_space_group_name_H-M_alt         'C 2/c'
_space_group_name_Hall            '-C 2yc'
 
_shelx_space_group_comment
;
The symmetry employed for this shelxl refinement is uniquely defined
by the following loop, which should always be used as a source of
symmetry information in preference to the above space-group names.
They are only intended as comments.
;
 
loop_
 _space_group_symop_operation_xyz
 'x, y, z'
 '-x, y, -z+1/2'
 'x+1/2, y+1/2, z'
 '-x+1/2, y+1/2, -z+1/2'
 '-x, -y, -z'
 'x, -y, z-1/2'
 '-x+1/2, -y+1/2, -z'
 'x+1/2, -y+1/2, z-1/2'
 
_cell_length_a                    15.5878(5)
_cell_length_b                    13.8951(4)
_cell_length_c                    20.1860(6)
_cell_angle_alpha                 90
_cell_angle_beta                  98.240(3)
_cell_angle_gamma                 90
_cell_volume                      4327.0(2)
_cell_formula_units_Z             49
_cell_measurement_temperature     130(2)
_cell_measurement_reflns_used     ?
_cell_measurement_theta_min       ?
_cell_measurement_theta_max       ?
 
_exptl_crystal_description        ?
_exptl_crystal_colour             ?
_exptl_crystal_density_meas       ?
_exptl_crystal_density_method     ?
_exptl_crystal_density_diffrn     3.526          
_exptl_crystal_F_000              4214
_exptl_transmission_factor_min    ?
_exptl_transmission_factor_max    ?
_exptl_crystal_size_max           ?
_exptl_crystal_size_mid           ?
_exptl_crystal_size_min           ?
_exptl_absorpt_coefficient_mu     6.541
_shelx_estimated_absorpt_T_min    ?
_shelx_estimated_absorpt_T_max    ?
_exptl_absorpt_correction_type    ?
_exptl_absorpt_correction_T_min   ?
_exptl_absorpt_correction_T_max   ?
_exptl_absorpt_process_details    ?
_exptl_absorpt_special_details    ?
_diffrn_ambient_temperature       130(2)
_diffrn_radiation_wavelength      0.71073
_diffrn_radiation_type            MoK\a
_diffrn_source                    ?
_diffrn_measurement_device_type   ?
_diffrn_measurement_method        ?
_diffrn_detector_area_resol_mean  ?
_diffrn_reflns_number             13123
_diffrn_reflns_av_unetI/netI      0.0238
_diffrn_reflns_av_R_equivalents   0.0193
_diffrn_reflns_limit_h_min        -19
_diffrn_reflns_limit_h_max        20
_diffrn_reflns_limit_k_min        -17
_diffrn_reflns_limit_k_max        18
_diffrn_reflns_limit_l_min        -25
_diffrn_reflns_limit_l_max        27
_diffrn_reflns_theta_min          1.972
_diffrn_reflns_theta_max          28.992
_diffrn_reflns_theta_full         25.242
_diffrn_measured_fraction_theta_max   0.855
_diffrn_measured_fraction_theta_full  1.000
_diffrn_reflns_Laue_measured_fraction_max    0.855
_diffrn_reflns_Laue_measured_fraction_full   1.000
_diffrn_reflns_point_group_measured_fraction_max   0.855
_diffrn_reflns_point_group_measured_fraction_full  1.000
_reflns_number_total              4917
_reflns_number_gt                 4442
_reflns_threshold_expression      'I > 2\s(I)'
_reflns_Friedel_coverage          0.000
_reflns_Friedel_fraction_max      .
_reflns_Friedel_fraction_full     .
 
_reflns_special_details
;
 Reflections were merged by SHELXL according to the crystal
 class for the calculation of statistics and refinement.
 
 _reflns_Friedel_fraction is defined as the number of unique
 Friedel pairs measured divided by the number that would be
 possible theoretically, ignoring centric projections and
 systematic absences.
;
 
_computing_data_collection        ?
_computing_cell_refinement        ?
_computing_data_reduction         ?
_computing_structure_solution     'SHELXT 2018/2 (Sheldrick, 2018)'
_computing_structure_refinement 'SHELXL-2018/3 (Sheldrick, 2018)'
_computing_molecular_graphics     ?
_computing_publication_material   ?
_refine_special_details           ?
_refine_ls_structure_factor_coef  Fsqd
_refine_ls_matrix_type            full
_refine_ls_weighting_scheme       calc
_refine_ls_weighting_details
'w=1/[\s^2^(Fo^2^)+(0.0266P)^2^+3.8368P] where P=(Fo^2^+2Fc^2^)/3'
_atom_sites_solution_primary      ?
_atom_sites_solution_secondary    ?
_atom_sites_solution_hydrogens    geom
_refine_ls_hydrogen_treatment     constr
_refine_ls_extinction_method      none
_refine_ls_extinction_coef        .
_refine_ls_number_reflns          4917
_refine_ls_number_parameters      346
_refine_ls_number_restraints      0
_refine_ls_R_factor_all           0.0267
_refine_ls_R_factor_gt            0.0220
_refine_ls_wR_factor_ref          0.0545
_refine_ls_wR_factor_gt           0.0523
_refine_ls_goodness_of_fit_ref    1.073
_refine_ls_restrained_S_all       1.073
_refine_ls_shift/su_max           0.002
_refine_ls_shift/su_mean          0.000
 
loop_
 _atom_site_label
 _atom_site_type_symbol
 _atom_site_fract_x
 _atom_site_fract_y
 _atom_site_fract_z
 _atom_site_U_iso_or_equiv
 _atom_site_adp_type
 _atom_site_occupancy
 _atom_site_site_symmetry_order  
 _atom_site_calc_flag
 _atom_site_refinement_flags_posn
 _atom_site_refinement_flags_adp
 _atom_site_refinement_flags_occupancy
 _atom_site_disorder_assembly
 _atom_site_disorder_group
O101 O 0.5122(10) 0.4765(2) 0.2525(16) 0.029(3) Uani 0.5 1 d . . P A -1
N101 N 0.4836(5) 0.6357(3) 0.2429(5) 0.0330(17) Uani 0.5 1 d . . P A -1
C101 C 0.3926(5) 0.6212(5) 0.2138(4) 0.0409(17) Uani 0.5 1 d . . P A -1
H10A H 0.383555 0.645163 0.167645 0.061 Uiso 0.5 1 calc R U P A -1
H10B H 0.354923 0.656456 0.240279 0.061 Uiso 0.5 1 calc R U P A -1
H10C H 0.378657 0.552485 0.214022 0.061 Uiso 0.5 1 calc R U P A -1
C102 C 0.501(3) 0.7366(3) 0.254(3) 0.060(4) Uani 0.5 1 d . . P A -1
H10D H 0.498685 0.769877 0.211436 0.090 Uiso 0.5 1 calc R U P A -1
H10E H 0.558923 0.744526 0.280242 0.090 Uiso 0.5 1 calc R U P A -1
H10F H 0.457623 0.764037 0.279584 0.090 Uiso 0.5 1 calc R U P A -1
C103 C 0.6281(5) 0.5799(5) 0.2897(4) 0.0345(15) Uani 0.5 1 d . . P A -1
H10G H 0.661257 0.519705 0.292668 0.052 Uiso 0.5 1 calc R U P A -1
H10H H 0.629493 0.607340 0.334506 0.052 Uiso 0.5 1 calc R U P A -1
H10I H 0.653714 0.625556 0.261125 0.052 Uiso 0.5 1 calc R U P A -1
C104 C 0.5356(3) 0.5598(3) 0.2599(2) 0.0281(10) Uani 0.5 1 d . . P A -1
Cd1 Cd 0.58687(2) 0.01366(2) 0.43833(2) 0.01113(5) Uani 1 1 d . . . . .
S1 S 0.35707(3) 0.58020(3) 0.37806(2) 0.01650(10) Uani 1 1 d . . . . .
O2 O 0.66934(8) 0.09462(9) 0.52677(6) 0.0164(3) Uani 1 1 d . . . . .
O3 O 0.55781(8) 0.03328(10) 0.56866(7) 0.0206(3) Uani 1 1 d . . . . .
O4 O 0.57492(9) 0.03216(12) 0.82483(7) 0.0280(4) Uani 1 1 d . . . . .
O5 O 0.70798(8) 0.03904(11) 0.87837(7) 0.0225(3) Uani 1 1 d . . . . .
N1 N 0.60783(9) 0.70637(11) 0.48344(8) 0.0129(3) Uani 1 1 d . . . . .
N2 N 0.61212(10) 0.86463(11) 0.48492(8) 0.0155(3) Uani 1 1 d . . . . .
N3 N 0.54472(10) 0.16301(11) 0.40105(8) 0.0147(3) Uani 1 1 d . . . . .
N4 N 0.53454(9) 0.32113(11) 0.39816(8) 0.0131(3) Uani 1 1 d . . . . .
N5 N 0.43698(10) 0.64671(11) 0.41164(8) 0.0155(3) Uani 1 1 d . . . . .
N6 N 0.40385(10) 0.47637(11) 0.37795(8) 0.0153(3) Uani 1 1 d . . . . .
C1 C 0.65893(11) 0.73209(14) 0.54232(9) 0.0163(4) Uani 1 1 d . . . . .
H1 H 0.687408 0.690175 0.575618 0.020 Uiso 1 1 calc R U . . .
C2 C 0.66003(12) 0.82946(14) 0.54273(9) 0.0166(4) Uani 1 1 d . . . . .
H2 H 0.689464 0.868019 0.577680 0.020 Uiso 1 1 calc R U . . .
C3 C 0.58144(11) 0.78882(13) 0.45088(10) 0.0156(4) Uani 1 1 d . . . . .
H3 H 0.545345 0.791321 0.408789 0.019 Uiso 1 1 calc R U . . .
C4 C 0.58920(11) 0.61107(13) 0.46086(9) 0.0128(4) Uani 1 1 d . . . . .
C5 C 0.50543(11) 0.58737(13) 0.42594(9) 0.0128(4) Uani 1 1 d . . . . .
C6 C 0.48633(12) 0.48994(13) 0.40573(9) 0.0125(4) Uani 1 1 d . . . . .
C7 C 0.55190(11) 0.41798(13) 0.41797(9) 0.0126(3) Uani 1 1 d . . . . .
C8 C 0.63080(11) 0.44365(13) 0.45187(9) 0.0143(4) Uani 1 1 d . . . . .
H8 H 0.674675 0.396077 0.460997 0.017 Uiso 1 1 calc R U . . .
C9 C 0.64892(11) 0.53940(13) 0.47377(9) 0.0141(4) Uani 1 1 d . . . . .
H9 H 0.704162 0.553991 0.498087 0.017 Uiso 1 1 calc R U . . .
C10 C 0.56589(12) 0.24296(13) 0.43429(9) 0.0145(4) Uani 1 1 d . . . . .
H10 H 0.598682 0.245716 0.477713 0.017 Uiso 1 1 calc R U . . .
C11 C 0.49061(11) 0.28783(14) 0.33817(9) 0.0156(4) Uani 1 1 d . . . . .
H11 H 0.461505 0.325383 0.302512 0.019 Uiso 1 1 calc R U . . .
C12 C 0.49758(12) 0.19068(13) 0.34067(9) 0.0161(4) Uani 1 1 d . . . . .
H12 H 0.473694 0.147932 0.306156 0.019 Uiso 1 1 calc R U . . .
C13 C 0.62833(11) 0.07745(13) 0.57532(9) 0.0132(4) Uani 1 1 d . . . . .
C14 C 0.66925(11) 0.10874(13) 0.64409(9) 0.0134(4) Uani 1 1 d . . . . .
C15 C 0.64032(11) 0.07126(13) 0.70124(9) 0.0144(4) Uani 1 1 d . . . . .
H15 H 0.590611 0.030939 0.696792 0.017 Uiso 1 1 calc R U . . .
C16 C 0.68398(11) 0.09268(14) 0.76474(9) 0.0151(4) Uani 1 1 d . . . . .
C17 C 0.75530(12) 0.15432(15) 0.77088(10) 0.0186(4) Uani 1 1 d . . . . .
H17 H 0.786575 0.167335 0.813880 0.022 Uiso 1 1 calc R U . . .
C18 C 0.78098(12) 0.19689(15) 0.71451(10) 0.0203(4) Uani 1 1 d . . . . .
H18 H 0.827434 0.241761 0.719218 0.024 Uiso 1 1 calc R U . . .
C19 C 0.73854(11) 0.17359(14) 0.65145(9) 0.0156(4) Uani 1 1 d . . . . .
H19 H 0.756685 0.201917 0.612932 0.019 Uiso 1 1 calc R U . . .
C20 C 0.65418(12) 0.05151(14) 0.82682(9) 0.0161(4) Uani 1 1 d . . . . .
 
loop_
 _atom_site_aniso_label
 _atom_site_aniso_U_11
 _atom_site_aniso_U_22
 _atom_site_aniso_U_33
 _atom_site_aniso_U_23
 _atom_site_aniso_U_13
 _atom_site_aniso_U_12
O101 0.037(8) 0.0226(13) 0.030(4) -0.002(3) 0.015(7) -0.007(2)
N101 0.045(6) 0.0308(19) 0.023(4) -0.003(2) 0.005(4) 0.009(2)
C101 0.047(5) 0.054(5) 0.024(3) 0.004(4) 0.013(3) 0.012(4)
C102 0.120(5) 0.024(2) 0.033(12) 0.012(9) 0.005(4) -0.003(11)
C103 0.043(4) 0.035(4) 0.027(3) 0.001(3) 0.008(3) 0.002(3)
C104 0.046(3) 0.026(2) 0.016(2) -0.0008(18) 0.017(2) 0.0004(19)
Cd1 0.01014(7) 0.01051(8) 0.01244(7) -0.00068(5) 0.00063(5) -0.00042(5)
S1 0.0124(2) 0.0160(2) 0.0199(2) 0.00047(18) -0.00156(17) 0.00224(17)
O2 0.0148(6) 0.0211(7) 0.0129(6) -0.0017(5) 0.0008(5) -0.0006(5)
O3 0.0116(6) 0.0251(8) 0.0245(8) -0.0073(6) 0.0011(5) -0.0047(5)
O4 0.0132(7) 0.0483(10) 0.0223(8) 0.0140(7) 0.0016(6) -0.0079(6)
O5 0.0163(7) 0.0358(8) 0.0151(7) 0.0050(6) 0.0012(5) 0.0037(6)
N1 0.0121(7) 0.0117(7) 0.0147(8) 0.0000(6) 0.0011(6) -0.0009(6)
N2 0.0163(8) 0.0138(8) 0.0165(8) -0.0002(6) 0.0025(6) -0.0007(6)
N3 0.0145(8) 0.0142(8) 0.0154(8) 0.0004(6) 0.0021(6) 0.0003(6)
N4 0.0120(7) 0.0124(7) 0.0149(8) 0.0001(6) 0.0014(6) 0.0001(6)
N5 0.0141(7) 0.0159(8) 0.0160(8) 0.0011(6) 0.0000(6) 0.0012(6)
N6 0.0134(8) 0.0159(8) 0.0163(8) 0.0009(6) 0.0015(6) 0.0009(6)
C1 0.0160(9) 0.0171(10) 0.0152(9) 0.0002(7) 0.0004(7) -0.0008(7)
C2 0.0169(9) 0.0172(9) 0.0160(9) -0.0020(7) 0.0026(7) -0.0030(7)
C3 0.0152(9) 0.0136(9) 0.0173(9) 0.0015(7) -0.0004(7) 0.0002(7)
C4 0.0134(8) 0.0123(9) 0.0132(8) 0.0004(7) 0.0030(7) -0.0021(7)
C5 0.0133(8) 0.0130(9) 0.0127(9) 0.0023(7) 0.0037(7) 0.0015(7)
C6 0.0120(9) 0.0144(9) 0.0114(9) 0.0012(7) 0.0028(7) -0.0015(7)
C7 0.0157(9) 0.0103(8) 0.0125(8) 0.0007(7) 0.0046(7) 0.0006(7)
C8 0.0109(8) 0.0141(9) 0.0182(9) 0.0012(7) 0.0034(7) 0.0023(7)
C9 0.0112(8) 0.0148(9) 0.0161(9) 0.0004(7) 0.0016(7) -0.0009(7)
C10 0.0136(8) 0.0134(9) 0.0162(9) 0.0014(7) 0.0011(7) 0.0010(7)
C11 0.0144(9) 0.0174(9) 0.0145(9) 0.0008(7) 0.0007(7) -0.0003(7)
C12 0.0173(9) 0.0158(9) 0.0146(9) -0.0007(7) 0.0001(7) -0.0012(7)
C13 0.0119(8) 0.0103(8) 0.0166(9) -0.0018(7) -0.0004(7) 0.0026(7)
C14 0.0115(8) 0.0138(9) 0.0147(9) -0.0016(7) 0.0006(7) 0.0017(7)
C15 0.0105(8) 0.0144(9) 0.0182(9) 0.0007(7) 0.0019(7) -0.0008(7)
C16 0.0111(8) 0.0195(10) 0.0146(9) 0.0022(7) 0.0016(7) 0.0021(7)
C17 0.0145(9) 0.0268(11) 0.0136(9) -0.0017(8) -0.0007(7) -0.0027(8)
C18 0.0163(9) 0.0265(11) 0.0180(10) -0.0023(8) 0.0026(7) -0.0089(8)
C19 0.0143(9) 0.0187(9) 0.0143(9) 0.0001(7) 0.0033(7) -0.0031(7)
C20 0.0171(9) 0.0173(9) 0.0143(9) 0.0017(8) 0.0033(7) 0.0016(7)
 
_geom_special_details
;
 All esds (except the esd in the dihedral angle between two l.s. planes)
 are estimated using the full covariance matrix.  The cell esds are taken
 into account individually in the estimation of esds in distances, angles
 and torsion angles; correlations between esds in cell parameters are only
 used when they are defined by crystal symmetry.  An approximate (isotropic)
 treatment of cell esds is used for estimating esds involving l.s. planes.
;
 
loop_
 _geom_bond_atom_site_label_1
 _geom_bond_atom_site_label_2
 _geom_bond_distance
 _geom_bond_site_symmetry_2
 _geom_bond_publ_flag
O101 C104 1.217(7) . ?
N101 C104 1.344(6) . ?
N101 C102 1.441(11) . ?
N101 C101 1.470(10) . ?
C103 C104 1.506(9) . ?
Cd1 N3 2.2721(15) . ?
Cd1 N2 2.2852(16) 1_545 ?
Cd1 O3 2.3325(13) 5_656 ?
Cd1 O2 2.3340(13) . ?
Cd1 O4 2.3594(15) 6 ?
Cd1 O5 2.4939(14) 6 ?
S1 N6 1.6167(16) . ?
S1 N5 1.6197(16) . ?
O2 C13 1.267(2) . ?
O3 C13 1.249(2) . ?
O4 C20 1.259(2) . ?
O5 C20 1.251(2) . ?
N1 C3 1.355(2) . ?
N1 C1 1.380(2) . ?
N1 C4 1.417(2) . ?
N2 C3 1.310(2) . ?
N2 C2 1.382(2) . ?
N3 C10 1.315(2) . ?
N3 C12 1.385(2) . ?
N4 C10 1.360(2) . ?
N4 C11 1.383(2) . ?
N4 C7 1.419(2) . ?
N5 C5 1.347(2) . ?
N6 C6 1.340(2) . ?
C1 C2 1.353(3) . ?
C4 C9 1.363(3) . ?
C4 C5 1.431(2) . ?
C5 C6 1.433(2) . ?
C6 C7 1.426(3) . ?
C7 C8 1.366(3) . ?
C8 C9 1.418(3) . ?
C11 C12 1.355(3) . ?
C13 C14 1.506(2) . ?
C14 C15 1.398(3) . ?
C14 C19 1.398(3) . ?
C15 C16 1.394(3) . ?
C16 C17 1.395(3) . ?
C16 C20 1.510(3) . ?
C17 C18 1.391(3) . ?
C18 C19 1.386(3) . ?
 
loop_
 _geom_angle_atom_site_label_1
 _geom_angle_atom_site_label_2
 _geom_angle_atom_site_label_3
 _geom_angle
 _geom_angle_site_symmetry_1
 _geom_angle_site_symmetry_3
 _geom_angle_publ_flag
C104 N101 C102 129.0(17) . . ?
C104 N101 C101 120.5(5) . . ?
C102 N101 C101 110.3(17) . . ?
O101 C104 N101 123.8(9) . . ?
O101 C104 C103 118.5(9) . . ?
N101 C104 C103 117.7(4) . . ?
N3 Cd1 N2 171.33(5) . 1_545 ?
N3 Cd1 O3 90.24(5) . 5_656 ?
N2 Cd1 O3 83.08(5) 1_545 5_656 ?
N3 Cd1 O2 85.10(5) . . ?
N2 Cd1 O2 94.50(5) 1_545 . ?
O3 Cd1 O2 127.07(5) 5_656 . ?
N3 Cd1 O4 86.91(6) . 6 ?
N2 Cd1 O4 98.05(6) 1_545 6 ?
O3 Cd1 O4 85.68(5) 5_656 6 ?
O2 Cd1 O4 146.20(5) . 6 ?
N3 Cd1 O5 108.09(5) . 6 ?
N2 Cd1 O5 80.56(5) 1_545 6 ?
O3 Cd1 O5 132.94(5) 5_656 6 ?
O2 Cd1 O5 98.07(4) . 6 ?
O4 Cd1 O5 53.80(5) 6 6 ?
N6 S1 N5 100.94(8) . . ?
C13 O2 Cd1 102.55(11) . . ?
C13 O3 Cd1 166.44(13) . 5_656 ?
C20 O4 Cd1 94.94(12) . 6_556 ?
C20 O5 Cd1 88.89(11) . 6_556 ?
C3 N1 C1 107.26(15) . . ?
C3 N1 C4 126.87(15) . . ?
C1 N1 C4 125.84(16) . . ?
C3 N2 C2 105.74(15) . . ?
C3 N2 Cd1 118.97(12) . 1_565 ?
C2 N2 Cd1 135.12(12) . 1_565 ?
C10 N3 C12 106.10(15) . . ?
C10 N3 Cd1 124.27(12) . . ?
C12 N3 Cd1 129.57(12) . . ?
C10 N4 C11 107.30(15) . . ?
C10 N4 C7 124.56(15) . . ?
C11 N4 C7 127.93(15) . . ?
C5 N5 S1 106.17(13) . . ?
C6 N6 S1 106.24(12) . . ?
C2 C1 N1 105.64(16) . . ?
C1 C2 N2 110.10(17) . . ?
N2 C3 N1 111.26(16) . . ?
C9 C4 N1 121.24(16) . . ?
C9 C4 C5 118.44(16) . . ?
N1 C4 C5 120.28(16) . . ?
N5 C5 C4 127.15(17) . . ?
N5 C5 C6 113.06(16) . . ?
C4 C5 C6 119.70(16) . . ?
N6 C6 C7 126.49(16) . . ?
N6 C6 C5 113.56(16) . . ?
C7 C6 C5 119.92(16) . . ?
C8 C7 N4 120.68(16) . . ?
C8 C7 C6 118.37(16) . . ?
N4 C7 C6 120.89(16) . . ?
C7 C8 C9 121.73(16) . . ?
C4 C9 C8 121.75(17) . . ?
N3 C10 N4 110.89(16) . . ?
C12 C11 N4 105.89(16) . . ?
C11 C12 N3 109.83(16) . . ?
O3 C13 O2 122.88(17) . . ?
O3 C13 C14 119.40(17) . . ?
O2 C13 C14 117.68(15) . . ?
C15 C14 C19 119.21(17) . . ?
C15 C14 C13 120.59(16) . . ?
C19 C14 C13 120.17(17) . . ?
C16 C15 C14 120.42(16) . . ?
C15 C16 C17 119.38(17) . . ?
C15 C16 C20 120.95(16) . . ?
C17 C16 C20 119.67(17) . . ?
C18 C17 C16 120.49(17) . . ?
C19 C18 C17 119.77(18) . . ?
C18 C19 C14 120.52(18) . . ?
O5 C20 O4 122.30(18) . . ?
O5 C20 C16 119.57(16) . . ?
O4 C20 C16 118.13(16) . . ?
 
_refine_diff_density_max    0.548
_refine_diff_density_min   -0.727
_refine_diff_density_rms    0.074

_shelx_res_file
;
TITL pvl729b_autored_a.res in C2/c
    pvl729b_autored_a.res
    created by SHELXL-2018/3 at 11:46:19 on 31-Mar-2022
REM Old TITL pvl729b_autored in C2/c
REM SHELXT solution in C2/c: R1 0.066, Rweak 0.004, Alpha 0.035
REM <I/s>   0.615 for  189 systematic absences,  Orientation as input
REM Formula found by SHELXT:  C49 N12 O4 S2 Cd2
CELL  0.71073  15.5878  13.8951  20.1860   90.000   98.240   90.000
ZERR   49.000   0.0005   0.0004   0.0006    0.000    0.003    0.000
LATT  7
SYMM -X, Y, 1/2-Z
SFAC C H N O S CD
UNIT 49.00 49.00 49.00 49.00 49.00 49.00
ACTA
TEMP -143
L.S. 10
BOND
LIST 6
FMAP 2
PLAN 20
WGHT    0.026600    3.836800
FVAR       0.12937
PART -1
O101  4    0.512239    0.476469    0.252533    10.50000    0.03748    0.02261 =
         0.03039   -0.00224    0.01483   -0.00665
N101  3    0.483630    0.635679    0.242926    10.50000    0.04472    0.03080 =
         0.02340   -0.00328    0.00454    0.00850
C101  1    0.392610    0.621243    0.213791    10.50000    0.04660    0.05394 =
         0.02447    0.00435    0.01296    0.01169
AFIX 137
H10A  2    0.383555    0.645163    0.167645    10.50000   -1.50000
H10B  2    0.354923    0.656456    0.240279    10.50000   -1.50000
H10C  2    0.378657    0.552485    0.214022    10.50000   -1.50000
AFIX   0
C102  1    0.501114    0.736604    0.254470    10.50000    0.12012    0.02438 =
         0.03279    0.01214    0.00510   -0.00256
AFIX 137
H10D  2    0.498685    0.769877    0.211436    10.50000   -1.50000
H10E  2    0.558923    0.744526    0.280242    10.50000   -1.50000
H10F  2    0.457623    0.764037    0.279584    10.50000   -1.50000
AFIX   0
C103  1    0.628092    0.579851    0.289655    10.50000    0.04286    0.03456 =
         0.02714    0.00124    0.00819    0.00195
AFIX 137
H10G  2    0.661257    0.519705    0.292668    10.50000   -1.50000
H10H  2    0.629493    0.607340    0.334506    10.50000   -1.50000
H10I  2    0.653714    0.625556    0.261125    10.50000   -1.50000
AFIX   0
C104  1    0.535611    0.559804    0.259944    10.50000    0.04564    0.02604 =
         0.01625   -0.00080    0.01706    0.00041
PART 0
CD1   6    0.586868    0.013663    0.438325    11.00000    0.01014    0.01051 =
         0.01244   -0.00068    0.00063   -0.00042
S1    5    0.357065    0.580200    0.378057    11.00000    0.01242    0.01602 =
         0.01993    0.00047   -0.00156    0.00224
O2    4    0.669340    0.094618    0.526773    11.00000    0.01477    0.02112 =
         0.01287   -0.00170    0.00081   -0.00056
O3    4    0.557813    0.033275    0.568662    11.00000    0.01158    0.02510 =
         0.02455   -0.00726    0.00112   -0.00472
O4    4    0.574924    0.032164    0.824831    11.00000    0.01315    0.04828 =
         0.02225    0.01404    0.00156   -0.00786
O5    4    0.707978    0.039035    0.878375    11.00000    0.01627    0.03582 =
         0.01506    0.00502    0.00117    0.00366
N1    3    0.607828    0.706373    0.483443    11.00000    0.01209    0.01173 =
         0.01468    0.00001    0.00110   -0.00089
N2    3    0.612118    0.864625    0.484916    11.00000    0.01632    0.01375 =
         0.01653   -0.00016    0.00254   -0.00075
N3    3    0.544724    0.163009    0.401055    11.00000    0.01452    0.01418 =
         0.01537    0.00042    0.00210    0.00034
N4    3    0.534544    0.321131    0.398162    11.00000    0.01196    0.01237 =
         0.01487    0.00010    0.00140    0.00007
N5    3    0.436975    0.646711    0.411645    11.00000    0.01408    0.01595 =
         0.01597    0.00114   -0.00002    0.00122
N6    3    0.403850    0.476368    0.377951    11.00000    0.01345    0.01591 =
         0.01626    0.00086    0.00150    0.00085
C1    1    0.658933    0.732085    0.542317    11.00000    0.01596    0.01713 =
         0.01521    0.00017    0.00036   -0.00078
AFIX  43
H1    2    0.687408    0.690175    0.575618    11.00000   -1.20000
AFIX   0
C2    1    0.660033    0.829458    0.542730    11.00000    0.01690    0.01715 =
         0.01596   -0.00203    0.00265   -0.00299
AFIX  43
H2    2    0.689464    0.868019    0.577680    11.00000   -1.20000
AFIX   0
C3    1    0.581438    0.788817    0.450876    11.00000    0.01517    0.01356 =
         0.01730    0.00148   -0.00044    0.00018
AFIX  43
H3    2    0.545345    0.791321    0.408789    11.00000   -1.20000
AFIX   0
C4    1    0.589197    0.611072    0.460861    11.00000    0.01339    0.01228 =
         0.01317    0.00044    0.00295   -0.00213
C5    1    0.505425    0.587370    0.425937    11.00000    0.01328    0.01301 =
         0.01271    0.00231    0.00366    0.00151
C6    1    0.486326    0.489937    0.405733    11.00000    0.01201    0.01436 =
         0.01142    0.00119    0.00283   -0.00149
C7    1    0.551897    0.417977    0.417968    11.00000    0.01567    0.01025 =
         0.01252    0.00067    0.00458    0.00056
C8    1    0.630801    0.443648    0.451866    11.00000    0.01091    0.01406 =
         0.01821    0.00122    0.00344    0.00233
AFIX  43
H8    2    0.674675    0.396077    0.460997    11.00000   -1.20000
AFIX   0
C9    1    0.648917    0.539403    0.473766    11.00000    0.01117    0.01485 =
         0.01607    0.00040    0.00157   -0.00088
AFIX  43
H9    2    0.704162    0.553991    0.498087    11.00000   -1.20000
AFIX   0
C10   1    0.565893    0.242959    0.434293    11.00000    0.01355    0.01340 =
         0.01621    0.00139    0.00108    0.00105
AFIX  43
H10   2    0.598682    0.245716    0.477713    11.00000   -1.20000
AFIX   0
C11   1    0.490608    0.287833    0.338169    11.00000    0.01439    0.01741 =
         0.01447    0.00081    0.00068   -0.00035
AFIX  43
H11   2    0.461505    0.325383    0.302512    11.00000   -1.20000
AFIX   0
C12   1    0.497580    0.190680    0.340670    11.00000    0.01726    0.01580 =
         0.01456   -0.00074    0.00014   -0.00125
AFIX  43
H12   2    0.473694    0.147932    0.306156    11.00000   -1.20000
AFIX   0
C13   1    0.628332    0.077445    0.575324    11.00000    0.01194    0.01027 =
         0.01655   -0.00176   -0.00037    0.00262
C14   1    0.669251    0.108741    0.644093    11.00000    0.01145    0.01380 =
         0.01470   -0.00165    0.00056    0.00170
C15   1    0.640324    0.071259    0.701244    11.00000    0.01048    0.01442 =
         0.01823    0.00074    0.00195   -0.00076
AFIX  43
H15   2    0.590611    0.030939    0.696792    11.00000   -1.20000
AFIX   0
C16   1    0.683978    0.092681    0.764738    11.00000    0.01106    0.01949 =
         0.01460    0.00223    0.00160    0.00207
C17   1    0.755298    0.154321    0.770881    11.00000    0.01454    0.02679 =
         0.01356   -0.00171   -0.00069   -0.00275
AFIX  43
H17   2    0.786575    0.167335    0.813880    11.00000   -1.20000
AFIX   0
C18   1    0.780977    0.196886    0.714509    11.00000    0.01635    0.02648 =
         0.01803   -0.00228    0.00255   -0.00890
AFIX  43
H18   2    0.827434    0.241761    0.719218    11.00000   -1.20000
AFIX   0
C19   1    0.738544    0.173594    0.651453    11.00000    0.01432    0.01865 =
         0.01427    0.00013    0.00333   -0.00308
AFIX  43
H19   2    0.756685    0.201917    0.612932    11.00000   -1.20000
AFIX   0
C20   1    0.654181    0.051505    0.826817    11.00000    0.01713    0.01728 =
         0.01433    0.00166    0.00329    0.00161
HKLF 4




REM  pvl729b_autored_a.res in C2/c
REM wR2 = 0.0545, GooF = S = 1.073, Restrained GooF = 1.073 for all data
REM R1 = 0.0220 for 4442 Fo > 4sig(Fo) and 0.0267 for all 4917 data
REM 346 parameters refined using 0 restraints

END

WGHT      0.0266      3.8369

REM Highest difference peak  0.548,  deepest hole -0.727,  1-sigma level  0.074
Q1    1   0.5872 -0.0568  0.4397  11.00000  0.05    0.55
Q2    1   0.5856  0.0826  0.4200  11.00000  0.05    0.48
Q3    1   0.5927  0.0604  0.4796  11.00000  0.05    0.47
Q4    1   0.5830 -0.0221  0.3941  11.00000  0.05    0.44
Q5    1   0.3843  0.5200  0.3737  11.00000  0.05    0.43
Q6    1   0.5942 -0.0311  0.4765  11.00000  0.05    0.43
Q7    1   0.6672  0.0747  0.7943  11.00000  0.05    0.37
Q8    1   0.5815  0.4250  0.4487  11.00000  0.05    0.37
Q9    1   0.6489  0.0966  0.6135  11.00000  0.05    0.36
Q10   1   0.6378  0.4981  0.4530  11.00000  0.05    0.36
Q11   1   0.5049  0.5393  0.4035  11.00000  0.05    0.35
Q12   1   0.5295  0.1740  0.3696  11.00000  0.05    0.35
Q13   1   0.5988  0.6623  0.4758  11.00000  0.05    0.34
Q14   1   0.5452  0.6011  0.4402  11.00000  0.05    0.33
Q15   1   0.7004  0.1427  0.6486  11.00000  0.05    0.33
Q16   1   0.6110  0.9243  0.4872  11.00000  0.05    0.33
Q17   1   0.6388  0.9050  0.4754  11.00000  0.05    0.33
Q18   1   0.6410  0.1161  0.6728  11.00000  0.05    0.32
Q19   1   0.5587  0.1972  0.4196  11.00000  0.05    0.32
Q20   1   0.5646  0.2852  0.4153  11.00000  0.05    0.31
;
_shelx_res_checksum   63651

_shelx_hkl_file
;
   0   0  -3    1.47    0.51
   0   0  -4   40.45    1.34
   0   0  -5    1.01    0.77
   0   0  -6 2424.86   35.33
   0   0  -7    0.79    0.84
   0   0   7    0.81    1.60
   0   0  -8 1124.91   17.72
   0   0   8 1162.69   18.98
   0   0  -9    0.85    0.86
   0   0   9    0.07    1.38
   0   0 -10  926.17   15.32
   0   0  10  952.61   16.68
   0   0 -11    1.06    0.89
   0   0  11   -0.05    1.38
   0   0 -12   13.55    1.32
   0   0  12   15.70    1.98
   0   0 -13    0.81    0.83
   0   0  13    0.39    1.40
   0   0 -14   78.94    3.11
   0   0  14   82.81    3.99
   0   0 -15    1.11    0.98
   0   0  15   -0.10    1.49
   0   0 -16  453.41    9.63
   0   0  16  460.47   11.32
   0   0 -17    1.08    0.96
   0   0  17   -3.39    1.90
   0   0 -18  274.21    7.21
   0   0  18  282.88    8.81
   0   0 -19    2.56    1.19
   0   0  19    4.31    1.94
   0   0 -20   32.77    2.47
   0   0  20   30.26    3.22
   0   0 -21    1.32    1.06
   0   0  21    1.93    1.87
   0   0 -22  242.25    7.10
   0   0  22  251.43    9.22
   0   0  23    0.34    1.85
   0   0  24   93.29    5.81
   0   0  25    1.33    1.97
   0  -2   0 4217.55   59.82
   0   2   0 4216.65   59.80
   0   2   1  174.84    3.23
   0  -2  -1  179.96    3.29
   0   2   2  732.88   11.28
   0  -2  -2  738.01   11.34
   0   2  -3  140.89    3.37
   0   2  -4  258.05    5.38
   0  -2   4  275.10    5.51
   0  -2   5   44.22    2.21
   0   2  -5   35.96    1.96
   0   2   6 1082.91   16.02
   0   2  -6 1102.08   17.88
   0  -2   6 1157.31   17.99
   0   2   7  102.77    2.21
   0   2  -7  109.43    3.60
   0  -2   7  109.48    3.70
   0   2  -7  111.23    3.31
   0   2  -8  935.51   16.27
   0  -2   8  941.49   16.24
   0   2  -8  922.76   15.55
   0   2  -9   14.10    1.57
   0   2  -9   12.95    1.69
   0  -2   9   14.68    1.86
   0  -2 -10  323.56    6.01
   0   2 -10  337.97    7.34
   0  -2  10  351.85    8.06
   0   2 -11    1.23    1.05
   0  -2 -11   -0.09    0.61
   0  -2  11    1.03    1.52
   0   2 -12   32.64    2.21
   0  -2 -12   30.67    1.52
   0  -2  12   32.22    2.58
   0  -2 -13   28.84    1.54
   0   2 -13   29.82    2.16
   0  -2  13   36.53    2.77
   0  -2 -14  169.88    4.34
   0   2 -14  179.17    5.39
   0  -2  14  183.00    6.20
   0   2 -15   67.87    3.33
   0  -2  15   76.35    4.11
   0   2 -16 1315.47   23.24
   0  -2  16 1346.82   24.77
   0   2  16 1381.56   24.81
   0   2 -17    1.87    1.22
   0   2  17   -0.15    1.60
   0  -2  17    1.74    2.05
   0   2 -18  123.04    4.89
   0   2  18  130.29    5.75
   0  -2  18  129.70    5.79
   0   2 -19    2.23    1.18
   0  -2  19    2.04    1.80
   0   2  19    6.24    2.02
   0   2 -20   92.41    4.36
   0   2  20   98.21    5.35
   0  -2  20   94.84    5.31
   0   2 -21    2.29    1.29
   0  -2  21    3.08    2.03
   0   2  21    0.13    1.91
   0   2 -22  151.46    6.03
   0  -2  22  158.24    7.28
   0   2  22  155.68    7.18
   0   2 -23   20.27    2.57
   0  -2  23   17.17    2.89
   0   2  23   20.48    3.17
   0   2  24  117.69    6.56
   0  -2  24  120.85    6.68
   0   2  25   12.00    2.73
   0  -4   0  975.10   15.06
   0   4   0  958.97   15.03
   0   4  -1   11.71    1.06
   0   4   1   12.02    1.04
   0  -4  -1   13.87    1.22
   0   4  -2  654.84   11.02
   0   4   2  669.53   10.92
   0  -4  -2  672.95   10.99
   0   4   3    0.07    0.77
   0  -4  -3    0.02    1.10
   0  -4  -4   15.59    1.44
   0   4  -5   12.77    1.48
   0  -4  -5   15.41    1.65
   0   4  -6  413.94    8.56
   0  -4  -6  411.48    8.15
   0   4  -7   20.99    1.83
   0  -4  -7   19.99    1.83
   0   4   8 1625.74   23.67
   0   4  -8 1724.58   26.81
   0   4  -9    6.99    1.47
   0   4   9    7.19    0.54
   0   4  -9    9.08    1.57
   0  -4   9    6.14    1.48
   0  -4  10  714.09   13.97
   0   4 -10  713.74   14.02
   0   4 -10  709.76   13.57
   0   4  10  713.86   10.70
   0   4 -11    1.57    1.35
   0  -4  11    0.01    1.42
   0   4 -11    3.87    1.46
   0   4 -12    1.03    1.20
   0   4 -12    2.51    1.39
   0  -4  12    0.27    1.42
   0   4 -13  314.59    8.15
   0   4 -13  337.83    9.04
   0  -4  13  317.11    8.70
   0   4 -14  149.54    5.37
   0  -4  14  154.99    5.89
   0   4 -15   23.94    2.42
   0  -4  15   20.01    2.49
   0   4 -16  794.31   16.27
   0  -4  16  828.71   17.38
   0   4 -17    5.30    1.67
   0  -4  17    6.66    2.00
   0   4 -18  413.57   10.72
   0  -4  18  430.88   11.74
   0   4 -19   61.56    3.88
   0  -4  19   70.04    4.64
   0   4 -20    6.08    1.75
   0   4  20    7.98    2.41
   0  -4  20    8.65    2.27
   0   4 -21   40.25    3.34
   0  -4  21   50.56    4.24
   0   4  21   49.99    4.21
   0   4 -22  135.73    6.15
   0  -4  22  142.71    7.02
   0   4  22  136.36    6.76
   0   4 -23    1.37    1.69
   0  -4  23    1.44    2.13
   0   4  23    7.09    2.47
   0   4 -24  156.55    6.90
   0   4  24  158.62    7.70
   0  -6   0  436.96    8.23
   0   6   0  435.02    8.17
   0   6   1  318.99    5.06
   0  -6  -1  315.56    6.50
   0   6  -1  316.39    6.52
   0   6   1  303.77    6.37
   0  -6  -2  232.56    5.26
   0   6  -2  230.70    5.30
   0   6   2  228.08    5.19
   0   6  -3    1.72    0.87
   0   6   3    0.89    0.82
   0  -6  -3    3.31    1.14
   0  -6  -4   35.06    2.05
   0   6   4   35.03    1.88
   0  -6  -5  211.70    5.32
   0   6  -6  340.23    7.99
   0  -6  -6  339.72    7.45
   0   6  -7   89.75    3.75
   0  -6  -7   86.21    3.39
   0   6  -8  543.08   11.62
   0  -6  -8  560.19   11.04
   0   6  -9   94.98    4.07
   0  -6  -9   85.35    3.60
   0   6  10  106.94    2.19
   0   6 -10  118.65    4.71
   0   6 -10  113.52    4.48
   0  -6 -10  115.68    4.37
   0   6 -11   38.18    2.86
   0   6 -11   36.18    2.72
   0  -6 -11   40.33    2.80
   0   6 -12   72.00    3.87
   0   6 -12   65.06    3.61
   0  -6 -12   71.87    3.67
   0   6 -13   37.40    2.90
   0  -6 -13   41.62    2.97
   0   6 -14   77.64    4.14
   0  -6 -14   79.11    4.15
   0   6 -15   34.68    2.98
   0  -6 -15   43.24    3.29
   0   6 -16   71.75    4.21
   0  -6 -16   79.16    4.42
   0   6 -17  117.31    5.37
   0  -6 -17  104.64    5.27
   0   6 -18  267.48    8.69
   0  -6 -18  270.13    8.95
   0   6 -19   85.01    4.82
   0  -6 -19   76.43    4.83
   0   6 -20  123.79    5.98
   0  -6 -20  117.06    6.12
   0   6 -21  122.56    6.13
   0  -6 -21  128.00    6.55
   0   6 -22    8.49    2.29
   0  -6 -22   11.31    2.64
   0   6 -23   56.76    4.42
   0   6  23   69.00    5.21
   0  -6 -23   61.54    4.83
   0   6 -24  316.86   10.85
   0   6  24  349.47   11.86
   0   6 -25   51.60    4.44
   0  -8   0   59.20    2.68
   0   8   0   57.58    2.58
   0   8   1    1.55    0.53
   0  -8  -1    3.28    1.10
   0   8  -1    2.69    1.00
   0   8   1    2.59    0.95
   0  -8  -2  358.47    7.69
   0   8  -2  353.54    7.73
   0   8   2  346.04    7.55
   0   8  -3  233.59    5.94
   0  -8  -3  234.42    5.85
   0   8   3  228.74    5.73
   0   8  -4  117.67    4.07
   0   8   4  127.01    4.00
   0  -8  -4  128.67    4.11
   0   8  -5  843.24   15.43
   0   8   5  841.75   15.08
   0  -8  -5  848.82   15.19
   0  -8  -6  351.20    8.09
   0   8  -7  252.29    7.25
   0  -8  -7  245.29    6.48
   0  -8  -8  359.67    5.83
   0   8  -8  397.67    9.61
   0  -8  -8  392.79    8.81
   0  -8  -9   63.89    1.85
   0   8  -9   68.46    3.73
   0  -8  -9   65.91    3.37
   0  -8 -10  280.71    7.68
   0   8 -11  264.58    8.06
   0  -8 -11  276.07    7.72
   0   8 -12    4.28    1.73
   0  -8 -12    4.53    1.54
   0   8 -13   82.81    4.48
   0  -8 -13   85.63    4.38
   0   8 -14  132.11    5.74
   0  -8 -14  125.94    5.45
   0   8 -15    5.76    2.08
   0  -8 -15    5.39    1.66
   0   8 -16  224.34    8.05
   0  -8 -16  226.30    7.89
   0   8 -17    7.25    2.09
   0  -8 -17   11.38    2.32
   0   8 -18   39.17    3.58
   0  -8 -18   44.88    3.77
   0   8 -19    9.24    2.49
   0  -8 -19    8.13    2.15
   0   8 -20   10.14    2.50
   0  -8 -20   10.46    2.51
   0   8 -21   75.09    5.15
   0  -8 -21   67.24    4.89
   0   8 -22   10.70    2.65
   0  -8 -22    8.63    2.43
   0   8 -23   45.27    4.36
   0  -8 -23   50.42    4.67
   0   8 -24  194.66    8.82
   0  10   0  365.37    6.48
   0  10   0  367.80    8.40
   0  10   1    1.34    0.42
   0 -10  -1    0.52    1.04
   0  10   1    1.06    0.92
   0  10  -1    0.77    0.95
   0 -10  -2  191.38    5.52
   0  10  -2  188.68    5.57
   0  10   2  187.10    5.46
   0  10  -3   79.69    3.47
   0 -10  -3   77.54    3.38
   0  10   3   75.01    3.24
   0 -10  -4    5.07    1.39
   0  10  -4    4.21    1.20
   0  10   4    1.66    0.86
   0 -10  -5  721.70   13.95
   0  10  -5  734.71   14.32
   0  10   5  697.89   13.71
   0  10  -6   60.64    3.26
   0 -10  -6   57.96    3.11
   0  10  -7  129.15    4.88
   0 -10  -7  134.77    4.88
   0  10  -8  146.99    5.36
   0 -10  -8  144.86    5.21
   0 -10  -9  178.31    5.97
   0 -10 -10  137.51    5.31
   0  10 -10  138.64    5.88
   0 -10 -11  349.00    9.31
   0  10 -11  351.44   10.14
   0 -10 -12   12.58    0.76
   0  10  12   13.48    0.82
   0  10 -12   10.77    2.12
   0 -10 -12   14.88    2.16
   0  10 -13  125.51    5.90
   0 -10 -13  127.66    5.55
   0  10 -14  124.35    6.00
   0 -10 -14  118.70    5.47
   0  10 -15    6.75    2.17
   0 -10 -15   10.43    2.09
   0  10 -16   52.94    4.20
   0 -10 -16   61.69    4.28
   0  10 -17   17.07    2.75
   0 -10 -17   11.98    2.41
   0  10 -18   40.74    3.90
   0 -10 -18   42.98    3.94
   0  10 -19   26.00    3.56
   0 -10 -19   18.87    3.01
   0  10 -20    0.12    1.96
   0 -10 -20    1.25    1.88
   0  10 -21  145.40    7.56
   0 -10 -21  157.38    7.61
   0 -10 -22   61.47    5.04
   0  12   0  334.46    5.89
   0  12   0  334.59    8.43
   0  12  -1    0.91    0.74
   0  12  -1   -0.70    1.19
   0  12   1   -0.16    1.06
   0 -12  -2   67.26    3.46
   0  12  -2   68.91    3.50
   0  12   2   69.65    3.46
   0 -12  -3  254.13    7.20
   0  12   3  252.66    7.07
   0  12  -3  251.21    7.20
   0 -12  -4   75.46    3.72
   0  12   4   79.72    3.70
   0  12  -4   76.14    3.82
   0  12  -5  411.49   10.15
   0 -12  -5  421.07   10.03
   0  12   5  410.44    9.77
   0 -12  -6  440.62   10.39
   0  12  -6  416.84   10.41
   0 -12  -7  467.88   11.03
   0 -12  -8   77.63    4.09
   0  12  -9   39.13    3.48
   0 -12  -9   37.82    2.91
   0  12  10   13.54    1.38
   0  12 -10   16.39    2.63
   0 -12 -10    9.21    1.79
   0  12  11  258.80    5.66
   0 -12 -11  253.90    8.04
   0  12 -11  238.24    8.77
   0  12 -12    9.90    2.22
   0 -12 -12    6.82    1.95
   0  12 -13  294.17   10.04
   0 -12 -13  293.59    9.19
   0  12 -14   44.28    3.98
   0 -12 -14   46.58    3.72
   0  12 -15   46.08    4.11
   0 -12 -15   47.63    4.31
   0  12 -16   90.89    5.76
   0 -12 -16   83.56    5.11
   0  12 -17   -0.16    2.19
   0 -12 -17   -0.25    1.83
   0 -12 -18    9.18    2.30
   0 -12 -19  128.67    6.81
   0 -12 -20   -0.71    1.79
   0 -12 -21  123.71    7.07
   0  14   0   65.17    3.64
   0  14   1   49.66    3.21
   0  14  -1   49.17    3.21
   0  14  -2   20.75    1.42
   0  14   2   15.15    1.93
   0  14  -3  460.56    9.16
   0  14   3  474.58   11.15
   0 -14  -4    1.43    1.42
   0  14   4   -0.66    1.17
   0 -14  -5  172.78    6.21
   0  14  -5  180.29    7.22
   0 -14  -6   50.40    3.36
   0  14  -6   56.82    4.14
   0  14  -7   38.79    3.73
   0 -14  -7   41.83    3.23
   0  14   7   41.63    2.76
   0  14   8   29.31    2.26
   0  14  -8   28.44    3.31
   0 -14  -8   29.30    2.77
   0 -14  -9   81.35    4.48
   0  14  -9   80.25    5.14
   0  14 -10    3.72    2.02
   0 -14 -10    0.40    1.38
   0  14 -11  145.35    7.18
   0 -14 -11  163.19    6.58
   0  14 -12   -1.05    1.87
   0 -14 -12    0.89    1.60
   0  14 -13  365.13   12.13
   0 -14 -13  361.87   10.69
   0 -14 -14   42.54    3.73
   0 -14 -15  108.90    5.77
   0 -14 -16   55.04    4.35
   0 -14 -17   16.70    2.89
   0  16   0    5.52    1.77
   0  16   1   67.90    4.33
   0  16  -1   65.14    4.34
   0  16   2    0.39    1.69
   0  16  -2    1.01    1.34
   0  16  -3  309.45   10.34
   0  16   3  312.51    9.47
   0  16   4   -0.25    1.45
   0  16  -4    0.16    1.77
   0  16  -5   45.00    4.03
   0  16   5   42.51    3.16
   0  16   6   -0.25    1.26
   0  16  -6    1.01    1.78
   0 -16  -6    0.17    1.38
   0  16  -7   15.96    2.86
   0 -16  -7   16.06    2.36
   0  16  -8   29.68    3.61
   0 -16  -8   22.50    2.55
   0  16  -9    5.57    2.32
   0  18   0   34.76    3.49
   0  18   1   51.63    4.07
   0  18  -1   50.38    4.09
   0  18  -2    1.15    1.55
   0  18   2    2.43    1.73
   0  18  -3   96.56    5.93
  -1  -1  25   13.34    2.81
  -1   1  25   14.09    2.97
  -1   1  24  477.76   13.94
  -1  -1  24  482.47   14.01
   1   1 -23    1.53    1.20
  -1   1  23    3.60    2.18
  -1  -1  23    2.90    2.20
   1   1 -22  193.69    6.34
  -1  -1  22  177.62    7.61
  -1   1  22  181.45    7.63
   1   1 -21    1.19    1.14
   1  -1 -21    0.91    1.00
  -1   1  21    4.39    2.08
  -1  -1  21    2.56    1.86
   1  -1 -20  115.67    4.06
   1   1 -20  112.79    4.55
  -1  -1  20  108.76    5.60
  -1   1  20  114.70    5.66
   1   1 -19    1.37    1.17
   1  -1 -19    1.08    0.84
  -1  -1  19    2.13    1.87
  -1   1  19   -2.23    1.96
   1  -1 -18    8.01    1.25
   1   1 -18    6.41    1.43
  -1  -1  18    6.76    1.96
  -1   1  18    3.50    1.73
   1   1 -17  178.51    5.53
   1  -1 -17  181.74    4.98
  -1  -1  17  185.59    6.72
  -1   1  17  183.73    6.58
   1   1 -16 1035.38   18.31
   1  -1 -16 1029.77   17.40
  -1   1  16 1055.61   19.95
  -1  -1  16 1040.70   20.10
   1  -1 -15   30.29    1.82
   1   1 -15   26.33    1.99
  -1  -1  15   28.08    2.63
  -1   1  15   26.82    2.60
   1   1 -14 1200.13   20.21
   1  -1 -14 1190.05   19.31
  -1   1  14 1217.29   21.61
  -1  -1  14 1221.86   21.75
   1  -1 -13    0.70    0.72
   1   1 -13    1.46    0.93
  -1  -1  13    1.02    1.35
  -1   1  13    1.82    1.40
   1   1 -12  239.81    5.74
   1  -1 -12  228.29    5.06
  -1  -1  12  242.50    6.66
  -1   1  12  237.88    6.54
   1  -1 -11   23.87    1.39
   1   1 -11   25.91    1.72
  -1   1  11   28.19    2.27
  -1  -1  11   27.91    2.29
   1  -1 -10  288.61    5.53
  -1  -1  10  285.13    7.02
   1   1 -10  291.36    6.22
   1  -1  -9   91.87    2.41
  -1  -1   9   99.35    3.61
   1  -1  -8 1586.08   23.60
  -1  -1   8 1637.45   25.34
   1  -1  -7    0.84    0.58
  -1  -1   7    2.02    1.46
   1   1  -7    2.59    1.25
   1   1  -6  271.82    5.64
  -1  -1   6  260.92    5.64
   1  -1  -6  254.89    4.36
   1   1  -5  881.39   14.39
  -1  -1   5  917.26   14.48
  -1  -1   4   17.42    1.36
   1   1  -4   16.36    1.21
  -1  -1   3   33.48    1.43
   1   1  -3   33.09    1.38
  -1   1   2    1.16    0.56
   1  -1  -2    1.32    0.70
   1  -1  -1    7.56    0.55
   1  -1  -1    5.98    0.68
   1  -1   0  452.59    7.02
   1  -1   0  470.15    7.01
   1  -1   0  446.15    7.12
   1  -1   1   13.42    0.81
  -1   1  -1   13.56    0.77
  -1   1  -1   11.91    0.63
   1  -1   1   14.93    0.75
  -1   1  -2 2295.81   33.01
   1  -1   2 2233.34   33.00
   1  -1   2 2312.92   32.97
  -1   1  -2 2273.95   32.96
  -1   1  -3  907.97   13.92
   1  -1   3  881.73   13.85
   1  -1   3  911.61   14.07
  -1   1  -3  903.77   14.04
   1   1   4  169.95    3.38
  -1   1  -4  175.81    3.88
   1  -1   4  173.64    3.76
   1  -1   4  181.96    4.10
   1  -1   5   19.78    1.39
  -1   1  -5   20.66    1.45
   1   1   5   22.44    1.17
   1  -1   5   23.26    1.86
  -1  -1  -6  224.01    4.39
  -1   1  -6  228.47    4.95
   1   1   6  221.04    4.37
   1  -1   6  222.31    5.38
   1  -1   6  219.94    4.75
   1   1   7    0.15    0.72
  -1   1  -7   -0.04    1.05
  -1  -1  -7   -0.28    0.82
   1  -1   7    0.95    1.57
  -1   1  -8 3247.54   47.59
  -1  -1  -8 3191.24   46.88
   1   1   8 3198.63   46.73
   1  -1   8 3273.70   48.45
  -1   1  -9  137.54    3.98
  -1  -1  -9  137.84    3.54
   1  -1   9  132.58    4.50
   1   1   9  135.74    3.36
  -1  -1 -10  812.16   13.72
  -1   1 -10  830.23   14.40
   1  -1  10  849.03   15.37
   1   1  10  827.22   13.53
  -1   1 -11   97.14    3.51
  -1  -1 -11  101.95    3.15
   1  -1  11   96.90    4.14
  -1   1 -12   67.13    2.92
  -1  -1 -12   67.17    2.61
   1  -1  12   70.17    3.59
  -1  -1 -13   18.77    1.53
  -1   1 -13   14.90    1.63
   1  -1  13   17.08    2.21
  -1   1 -14    8.54    1.40
  -1  -1 -14    7.40    1.15
   1  -1  14    7.28    1.71
   1   1  14    6.92    1.84
  -1   1 -15   66.36    3.23
  -1  -1 -15   66.53    2.96
   1   1  15   74.44    4.07
   1  -1  15   70.75    4.02
  -1  -1 -16   87.41    3.46
  -1   1 -16   84.88    3.76
   1   1  16   91.22    4.65
   1  -1  16   87.73    4.55
  -1   1 -17   33.79    2.53
  -1  -1 -17   31.42    2.19
   1  -1  17   36.10    3.23
   1   1  17   34.55    3.12
  -1  -1 -18 1266.97   21.63
  -1   1 -18 1229.96   22.37
   1  -1  18 1258.15   24.31
   1   1  18 1290.55   24.48
  -1   1 -19   10.78    1.86
   1   1  19    5.45    2.03
   1  -1  19   11.89    2.50
  -1   1 -20  180.02    6.21
   1   1  20  183.08    7.42
   1  -1  20  183.89    7.47
  -1   1 -21   48.63    3.22
   1   1  21   54.09    4.25
   1  -1  21   53.61    4.35
  -1   1 -22   39.05    3.01
   1   1  22   48.88    4.28
   1  -1  22   41.33    3.99
  -1   1 -23   15.60    2.26
   1  -1  23   15.57    2.82
   1   1  23   26.37    3.39
   1   1  24  270.47   10.22
   1  -1  24  271.19   10.34
  -1   3  25   10.11    2.42
   1   3 -24  167.34    6.84
  -1  -3  24  207.36    8.65
  -1   3  24  168.32    7.81
   1   3 -23   46.39    3.46
  -1  -3  23   44.27    4.19
  -1   3  23   49.98    4.31
   1   3 -22  184.10    6.79
  -1  -3  22  167.89    7.58
  -1   3  22  175.89    7.53
   1   3 -21   12.19    2.00
  -1  -3  21   21.52    3.08
  -1   3  21   16.32    2.67
   1   3 -20  187.90    6.64
  -1  -3  20  201.15    7.82
  -1   3  20  191.60    7.48
   1   3 -19    5.00    1.56
  -1  -3  19    9.14    2.25
  -1   3  19    3.64    1.81
   1   3 -18   76.62    3.90
  -1   3  18   77.52    4.46
  -1  -3  18   74.75    4.46
   1   3 -17    3.07    1.38
  -1   3  17    2.09    1.77
  -1  -3  17    2.13    1.77
   1   3 -16  501.57   11.26
  -1  -3  16  512.16   12.28
   1   3 -15   19.81    1.96
  -1  -3  15   23.51    2.57
   1   3 -14  878.80   16.59
  -1  -3  14  922.07   17.75
  -1  -3  13   99.26    4.38
   1   3 -13   94.18    3.80
  -1  -3  12  296.80    7.88
   1   3 -12  312.17    8.11
   1   3 -12  288.96    7.20
   1   3 -11  115.62    4.39
  -1  -3  11  108.19    4.35
   1   3 -10  102.94    4.02
  -1  -3  10  110.04    4.16
  -1  -3   9  177.51    5.27
   1   3  -9  179.47    5.28
  -1  -3   8 2418.90   37.00
   1   3  -8 2388.22   37.01
   1   3  -7   34.22    2.19
   1   3  -6  570.51   10.42
   1  -3  -6  547.64   10.30
   1   3  -5   33.12    1.94
   1  -3  -5   33.45    1.99
   1  -3  -4   89.98    2.95
   1  -3  -3   24.93    1.06
   1  -3  -3   25.33    1.68
  -1   3   3   26.95    1.56
  -1   3   2  147.11    2.68
   1  -3  -2  141.92    2.64
  -1   3   2  142.86    3.42
   1  -3  -2  144.28    3.49
   1  -3  -1   44.67    1.25
  -1   3   1   45.30    1.24
   1   3  -1   46.06    1.39
   1  -3  -1   47.69    1.89
  -1   3   1   44.55    1.74
   1  -3   0 1318.62   19.72
  -1  -3   0 1295.32   18.98
  -1   3   0 1296.97   19.69
   1   3   0 1296.13   18.99
  -1   3  -1 2325.47   34.19
  -1  -3  -1 2346.59   33.44
   1   3   1 2310.39   33.44
  -1  -3  -2 2233.63   32.41
  -1   3  -2 2248.88   33.16
  -1   3  -3  276.18    5.70
  -1   3  -3  292.78    5.87
  -1  -3  -3  287.57    5.25
  -1   3  -4  100.96    3.08
  -1   3  -4  101.31    3.17
   1  -3   5  434.75    8.50
  -1   3  -5  435.16    8.47
  -1   3  -5  444.37    8.42
  -1   3  -6  318.06    6.87
   1  -3   6  329.62    7.13
  -1   3  -6  321.53    7.00
   1   3   7   15.14    1.00
  -1   3  -7   16.91    1.73
  -1   3  -7   16.69    1.66
   1  -3   7   18.75    1.93
  -1   3  -8  979.57   16.85
   1   3   8  964.63   15.09
   1  -3   8 1035.48   17.38
  -1   3  -8  998.61   17.24
  -1   3  -9   25.89    2.04
   1   3   9   24.50    1.23
   1  -3   9   25.67    2.21
  -1   3  -9   27.88    2.16
  -1   3 -10  501.41   10.20
   1   3  10  487.41    8.33
   1  -3  10  499.94   10.66
  -1   3 -10  489.86   10.73
   1   3  11    1.46    0.65
  -1   3 -11   -0.22    1.19
   1  -3  11   -0.69    1.41
  -1   3 -12   88.17    3.71
   1  -3  12   94.52    4.24
   1   3  12   90.80    2.58
  -1   3 -13    0.14    1.17
   1  -3  13    2.80    1.57
  -1   3 -14    6.33    1.55
   1  -3  14    5.96    1.73
  -1   3 -15  113.67    4.63
   1  -3  15  118.11    5.25
  -1   3 -16  352.11    9.09
   1  -3  16  353.17    9.91
  -1   3 -17    0.28    1.30
   1  -3  17   -0.45    1.66
  -1   3 -18  368.30    9.78
   1  -3  18  369.92   10.75
  -1   3 -19    8.67    1.77
   1   3  19   12.04    2.64
   1  -3  19    8.85    2.37
  -1   3 -20   89.54    4.61
   1   3  20   88.71    5.23
   1  -3  20   86.85    5.30
  -1   3 -21   30.93    2.96
   1  -3  21   31.90    3.51
   1   3  21   33.90    3.61
  -1   3 -22   30.59    3.02
   1   3  22   28.85    3.49
   1  -3  22   31.76    3.61
  -1   3 -23  102.60    5.29
   1   3  23  102.15    6.12
   1  -3  23  102.87    6.13
  -1   3 -24  119.32    5.90
   1   3  24  127.46    6.88
   1   5 -25    0.74    1.70
  -1   5  25    0.19    2.03
   1   5 -24   49.42    4.05
  -1   5  24   51.13    4.47
   1  -5 -24   51.78    4.63
   1   5 -23   -0.57    1.77
  -1   5  23   -3.57    2.16
   1  -5 -23    2.86    2.10
   1   5 -22  134.58    6.28
  -1   5  22  152.33    7.09
   1   5 -21   16.16    2.45
  -1   5  21   20.42    3.00
   1   5 -20   33.95    3.21
   1   5 -19   15.99    2.36
   1   5 -18  160.35    6.24
   1   5 -17   71.70    4.07
   1   5 -16  436.06   10.86
   1   5 -15   93.40    4.39
   1  -5 -14  589.29   13.22
   1   5 -14  606.08   12.99
   1   5 -13   59.45    3.56
   1   5 -13   48.03    3.04
   1  -5 -13   50.25    3.25
   1   5 -12   56.96    3.42
   1  -5 -12   59.63    3.39
   1   5 -11  383.67    9.30
   1  -5 -11  353.20    8.85
   1   5 -10   66.96    3.39
   1  -5 -10   57.92    3.17
   1   5  -9   12.64    1.73
   1  -5  -9   12.60    1.82
   1   5  -8 1875.57   30.27
   1  -5  -8 1861.49   29.77
   1   5  -7  185.10    5.45
   1  -5  -7  191.45    5.22
   1   5  -6 1955.41   31.03
   1  -5  -6 1975.91   30.66
   1  -5  -5  312.24    5.44
   1  -5  -5  334.24    7.00
  -1   5   5  321.06    6.86
   1  -5  -4  900.78   13.52
  -1   5   4  908.65   15.28
   1  -5  -4  935.83   15.34
   1  -5  -3  518.65    7.99
  -1   5   3  526.72    9.59
   1  -5  -3  538.98    9.70
  -1   5   2   49.72    1.29
   1   5  -2   51.06    1.94
   1  -5  -2   56.01    2.37
  -1   5   2   56.63    2.24
  -1   5   1    4.92    0.71
  -1   5   1    0.09    0.81
   1  -5  -1    2.01    1.27
   1   5  -1    2.30    0.81
   1  -5   0 1056.84   17.05
  -1  -5   0 1059.31   16.35
   1   5   0 1037.29   16.30
  -1   5   0 1081.05   17.04
  -1  -5  -1  219.03    4.43
  -1   5  -1  216.15    4.93
   1   5   1  207.34    4.33
  -1   5  -2 1512.91   23.80
   1   5   2 1517.21   22.99
  -1  -5  -2 1540.79   23.04
  -1   5  -3    4.25    0.99
   1   5   3    2.34    0.70
  -1  -5  -3    5.10    1.05
  -1   5  -4  254.11    6.00
  -1  -5  -4  254.26    5.39
  -1   5  -5  344.85    7.59
  -1  -5  -5  339.36    6.87
  -1   5  -6   34.54    2.25
  -1  -5  -6   32.11    1.98
  -1   5  -6   39.38    2.46
  -1   5  -7  484.51   10.14
  -1  -5  -7  481.40    9.42
  -1   5  -7  484.44   10.04
  -1   5  -8 1000.14   17.76
  -1  -5  -8  980.64   16.95
  -1   5  -8  977.70   17.52
   1   5   9   37.24    1.47
  -1   5  -9   39.92    2.60
  -1   5  -9   41.32    2.69
   1   5  10 1461.71   22.05
  -1   5 -10 1474.46   25.07
  -1   5 -10 1526.69   25.57
   1   5  11   33.77    1.36
  -1   5 -11   33.59    2.56
  -1   5 -11   42.02    2.95
   1   5  12  321.82    5.74
  -1   5 -12  303.24    8.21
   1  -5  12  316.26    8.64
  -1   5 -12  337.08    8.93
  -1   5 -13  157.24    5.72
   1  -5  13  157.31    5.97
   1   5  13  171.29    3.50
  -1   5 -14   18.53    2.20
   1  -5  14   21.41    2.50
  -1   5 -15   75.55    4.09
   1  -5  15   74.90    4.28
  -1   5 -16  498.78   12.12
   1  -5  16  504.51   12.78
  -1   5 -17   15.45    2.34
   1  -5  17   19.15    2.74
  -1   5 -18  262.79    8.51
   1  -5  18  292.50    9.49
  -1   5 -19    2.13    1.60
   1  -5  19    5.59    1.98
  -1   5 -20   11.35    2.21
   1  -5  20   11.66    2.45
  -1   5 -21   56.08    4.09
   1  -5  21   59.17    4.67
  -1   5 -22    3.52    1.76
   1   5  22    3.59    2.18
   1  -5  22   -0.03    1.92
  -1   5 -23   62.11    4.56
   1  -5  23   71.17    5.31
   1   5  23   64.83    5.16
  -1   5 -24   28.26    3.36
   1   5  24   40.22    4.15
  -1   5 -25    2.92    1.91
   1   7 -25   25.56    3.45
   1   7 -24  135.88    6.99
  -1   7  24  135.97    7.22
   1   7 -23    1.69    1.85
  -1   7  23    3.98    2.32
   1  -7 -23    6.28    2.30
   1   7 -22  265.20    9.64
   1  -7 -22  275.35   10.22
   1   7 -21  182.69    7.64
   1  -7 -21  183.28    8.06
   1   7 -20  104.42    5.68
   1  -7 -20  104.92    5.90
   1   7 -19  126.13    6.16
   1  -7 -19  122.64    6.25
   1   7 -18   66.99    4.35
   1  -7 -18   64.19    4.39
   1   7 -17    1.62    1.63
   1  -7 -17    0.83    1.66
   1   7 -16  104.90    5.18
   1  -7 -16  108.64    5.37
   1   7 -15   -0.10    1.52
   1  -7 -15    0.38    1.58
   1   7 -14  115.06    5.18
   1  -7 -14  118.42    5.24
   1  -7 -13   -0.61    1.54
   1  -7 -12   21.06    2.32
   1  -7 -11   57.86    3.33
   1   7 -10   22.74    2.28
   1  -7 -10   17.91    2.03
  -1   7   9   48.46    1.33
   1  -7  -9   44.61    1.80
   1   7  -9   48.54    3.05
   1  -7  -9   48.66    2.96
   1  -7  -8  120.94    2.96
   1   7  -8  123.12    4.75
   1  -7  -8  127.24    4.49
  -1   7   8  126.14    2.75
   1  -7  -7  507.22    8.31
   1   7  -7  528.42   11.26
   1  -7  -7  517.28   10.64
   1  -7  -6  888.79   13.30
   1  -7  -6  919.80   16.07
  -1   7   6  878.04   15.80
   1  -7  -5  151.05    4.68
  -1   7   5  154.77    4.60
   1   7  -4  214.79    5.38
  -1   7   4  223.91    5.66
   1  -7  -4  224.66    5.75
   1   7  -3  574.22   10.70
  -1   7   3  600.84   11.19
   1  -7  -3  598.49   11.23
  -1   7   2  207.21    3.65
   1  -7  -2  209.92    5.40
   1   7  -2  200.99    4.90
  -1   7   2  202.83    5.22
  -1   7   1  222.52    4.13
   1  -7  -1  213.65    5.47
   1   7  -1  216.06    5.01
  -1   7   1  220.62    5.50
  -1   7   0  863.37   13.39
  -1  -7   0  848.52   14.14
   1  -7   0  859.06   14.84
   1   7   0  822.68   14.07
  -1   7   0  845.90   14.75
  -1   7  -1  325.66    7.08
  -1  -7  -1  312.99    6.45
   1   7   1  310.70    6.42
  -1  -7  -2 1032.92   16.83
  -1   7  -2 1046.77   17.62
   1   7   2 1027.12   16.80
  -1   7  -3  146.63    4.39
  -1  -7  -3  136.62    3.84
   1   7   3  139.28    3.82
  -1   7  -4  221.26    5.71
  -1  -7  -4  213.62    5.15
   1   7   4  206.53    5.00
  -1   7  -5  267.14    6.64
  -1  -7  -5  260.91    6.08
  -1   7  -6  174.04    5.40
  -1  -7  -6  165.32    4.67
  -1  -7  -7  153.95    2.91
  -1   7  -7  156.09    5.26
  -1   7  -7  146.97    5.14
  -1  -7  -7  155.88    4.68
  -1   7  -8  372.42    9.06
  -1  -7  -8  350.61    8.09
  -1   7  -8  351.46    8.84
  -1   7  -9  162.91    5.69
  -1   7  -9  147.61    5.36
  -1  -7  -9  155.03    4.98
  -1   7 -10  441.81   10.58
  -1   7 -10  456.46   10.82
  -1  -7 -10  442.46    9.94
  -1   7 -11    4.27    1.69
   1   7  11    5.91    0.75
  -1  -7 -11    7.28    1.62
  -1   7 -12  125.10    5.28
   1   7  12  127.59    2.84
  -1  -7 -12  123.91    4.96
   1   7  13  288.17    4.94
  -1   7 -13  275.29    8.37
  -1  -7 -13  276.78    8.09
  -1   7 -14  130.71    5.61
  -1  -7 -14  127.23    5.35
  -1   7 -15  108.22    5.25
  -1  -7 -15  104.72    4.95
  -1   7 -16  558.29   13.60
  -1  -7 -16  536.20   13.21
  -1   7 -17   19.62    2.67
  -1  -7 -17   16.03    2.52
  -1   7 -18  226.76    8.22
  -1  -7 -18  218.16    8.12
  -1   7 -19   28.12    3.14
  -1  -7 -19   27.63    3.14
  -1   7 -20   33.74    3.52
  -1  -7 -20   25.60    3.20
  -1   7 -21   29.04    3.86
  -1  -7 -21   26.44    3.30
  -1   7 -22    0.30    1.94
  -1  -7 -22    1.49    1.93
  -1   7 -23   43.93    4.22
  -1  -7 -23   53.12    4.68
  -1   7 -24   44.87    4.32
  -1   7 -25    4.36    2.38
   1   9 -22  123.57    6.82
   1  -9 -22  144.80    7.49
   1   9 -21  178.30    8.04
   1  -9 -21  182.73    8.16
   1   9 -20   17.85    2.85
   1  -9 -20   13.63    2.76
   1   9 -19  290.13   10.03
   1  -9 -19  282.27    9.91
   1   9 -18   52.04    4.17
   1  -9 -18   52.74    4.12
   1   9 -17  149.55    6.78
   1  -9 -17  161.75    6.94
   1   9 -16  246.64    8.71
   1  -9 -16  256.85    8.69
   1   9 -15   33.26    3.23
   1  -9 -15   30.87    3.11
   1  -9 -14  349.61    7.49
   1  -9 -14  342.28    9.86
   1   9 -14  345.84   10.24
   1  -9 -13  104.43    3.29
   1  -9 -13  106.55    5.00
   1   9 -13  106.29    5.26
   1  -9 -12   55.88    2.16
   1  -9 -12   56.59    3.61
   1  -9 -11   35.72    1.54
  -1   9  11   29.71    0.95
   1  -9 -11   36.71    2.86
   1  -9 -10   10.68    0.79
  -1   9  10   11.70    0.85
   1  -9 -10   11.96    1.92
   1  -9  -9  264.14    4.60
   1  -9  -9  287.95    7.75
  -1   9   9  293.82    5.47
   1  -9  -8  245.85    7.08
  -1   9   8  252.64    5.30
   1  -9  -7  167.31    5.48
   1   9  -6  670.81   13.28
   1  -9  -6  683.74   13.55
  -1   9   6  695.85   13.51
   1   9  -5  255.02    6.53
  -1   9   5  241.07    6.55
   1  -9  -5  248.80    6.71
   1  -9  -4  185.46    5.60
   1   9  -4  184.06    5.28
  -1   9   4  186.71    5.47
   1   9  -3  943.84   16.54
   1  -9  -3  957.09   17.05
  -1   9   3  937.44   16.96
  -1   9   2   61.80    1.51
   1  -9  -2   62.47    3.08
   1   9  -2   62.74    2.76
  -1   9   2   63.76    2.97
  -1   9   1   16.85    0.98
   1  -9  -1   14.35    1.70
   1   9  -1   18.18    1.55
  -1   9   1   15.70    1.54
  -1   9   0  133.79    3.25
  -1   9   0  136.81    4.51
   1   9   0  132.70    4.06
  -1  -9  -1   90.78    3.30
   1   9   1   96.77    3.37
  -1   9  -1  102.70    3.84
  -1  -9  -2  383.81    8.15
  -1   9  -2  399.80    8.94
   1   9   2  386.98    8.15
  -1   9  -3   57.20    2.92
  -1  -9  -3   53.66    2.56
   1   9   3   55.80    2.58
  -1  -9  -4  284.68    6.72
  -1   9  -4  292.47    7.38
   1   9   4  272.63    6.53
  -1   9  -5  416.79    9.59
  -1  -9  -5  411.67    8.83
  -1   9  -6    2.29    1.37
  -1   9  -6    1.04    0.95
  -1   9  -6   -1.13    1.19
  -1  -9  -6    0.45    0.99
  -1   9  -7  271.25    7.79
  -1   9  -7  261.12    7.32
  -1  -9  -7  263.85    6.83
  -1   9  -7  254.36    7.61
  -1   9  -8  138.71    5.45
  -1  -9  -8  130.08    4.61
  -1   9  -9  238.17    7.52
  -1  -9  -9  236.07    6.69
  -1  -9 -10  375.01    6.19
  -1   9 -10  382.09   10.19
  -1  -9 -10  381.27    6.20
  -1  -9 -10  398.46    9.42
  -1  -9 -11   45.39    1.62
  -1   9 -11   43.56    3.34
  -1  -9 -11   45.26    3.08
  -1   9 -12  215.00    7.58
  -1  -9 -12  223.70    7.07
  -1   9 -13  810.25   17.76
   1   9  13  823.21   12.66
  -1  -9 -13  814.48   16.92
  -1   9 -14    5.99    1.97
  -1  -9 -14    4.41    1.78
  -1   9 -15  239.33    8.56
  -1  -9 -15  237.67    7.98
  -1   9 -16  148.41    6.73
  -1  -9 -16  150.53    6.38
  -1   9 -17    6.48    2.25
  -1  -9 -17   13.72    2.41
  -1   9 -18   57.70    4.45
  -1  -9 -18   56.94    4.22
  -1   9 -19   29.42    3.44
  -1  -9 -19   23.36    3.11
  -1   9 -20   28.48    3.44
  -1  -9 -20   33.52    3.74
  -1   9 -21    8.29    2.53
  -1  -9 -21   12.62    2.77
  -1   9 -22    3.67    2.23
  -1  -9 -22    6.29    2.59
   1 -11 -21   95.32    6.10
   1 -11 -20   -0.63    1.95
   1  11 -19  214.89    9.04
   1 -11 -19  214.98    8.85
   1  11 -18    4.65    2.31
   1 -11 -18    8.32    2.51
   1  11 -17   90.98    5.78
   1 -11 -17  100.12    5.70
   1  11 -16   36.26    3.71
   1 -11 -16   36.45    3.55
   1  11 -15    4.77    2.09
   1 -11 -15    3.65    1.81
   1 -11 -14  123.41    5.84
   1  11 -14  120.25    6.13
   1  11 -13   23.85    2.88
   1 -11 -13   25.11    2.86
  -1  11  12   33.08    1.06
   1 -11 -12   40.08    3.18
  -1  11  11  336.69    6.26
   1 -11 -11  326.74    9.46
  -1  11  10  161.35    4.01
   1 -11 -10  151.16    5.90
  -1  11   9  244.26    5.57
   1  11  -9  234.38    7.23
   1 -11  -9  228.94    7.36
   1  11  -8   43.24    2.90
   1 -11  -8   35.39    2.83
  -1  11   8   41.39    2.13
   1  11  -7  179.81    5.94
   1 -11  -7  171.85    6.02
  -1  11   7  179.00    4.95
  -1  11   6   31.79    2.10
  -1  11   6   32.03    2.49
   1  11  -6   28.33    2.37
   1 -11  -6   27.15    2.42
   1 -11  -5   72.67    3.75
   1  11  -5   77.47    3.60
  -1  11   5   75.91    3.62
   1 -11  -4    4.16    1.43
  -1  11   4    1.20    0.91
   1  11  -4    2.90    1.06
   1 -11  -3  209.05    6.45
   1  11  -3  222.75    6.23
  -1  11   3  225.16    6.54
   1 -11  -2   15.22    1.92
   1  11  -2   16.75    1.73
  -1  11   2   19.61    1.93
  -1  11   1  145.08    3.08
   1 -11  -1  143.93    5.13
  -1  11   1  138.58    5.00
   1  11  -1  146.21    4.76
  -1  11   0   64.25    2.15
   1  11   0   63.88    1.77
   1  11   0   63.97    3.03
  -1  11   0   61.94    3.24
  -1  11  -1   75.83    2.60
  -1  11  -1   74.47    3.59
   1  11   1   73.26    3.21
  -1  11  -2   34.15    1.86
  -1 -11  -2   35.55    2.29
   1  11   2   36.70    2.29
  -1  11  -2   38.07    2.61
  -1 -11  -3   19.04    1.79
  -1  11  -3   22.75    2.14
   1  11   3   24.37    2.02
  -1 -11  -4  221.82    6.22
  -1  11  -4  236.53    6.94
   1  11   4  213.14    6.04
  -1  11  -5   30.53    2.87
  -1 -11  -5   34.58    2.37
  -1  11  -5   30.30    2.41
  -1  11  -6   19.08    2.40
  -1  11  -6   17.98    1.94
  -1 -11  -6   15.23    1.76
  -1  11  -7   77.07    3.94
  -1  11  -7   80.22    4.41
  -1 -11  -7   74.54    3.58
  -1  11  -8  193.79    7.11
  -1 -11  -8  189.14    6.05
  -1  11  -9   26.62    2.84
  -1 -11  -9   28.85    2.49
  -1  11 -10  271.85    8.94
  -1 -11 -10  281.66    7.99
  -1  11 -11   77.40    4.72
  -1 -11 -11   76.49    4.02
  -1  11 -12   50.31    3.91
  -1 -11 -12   49.42    3.43
  -1  11 -13  367.62   11.25
  -1 -11 -13  377.97   10.24
  -1  11 -14   10.07    2.51
  -1 -11 -14   13.53    2.04
  -1  11 -15   96.49    5.73
  -1 -11 -15   96.38    5.13
  -1  11 -16    2.40    2.14
  -1 -11 -16    1.87    2.12
  -1  11 -17    0.66    1.92
  -1 -11 -17   -0.07    1.80
  -1  11 -18  100.90    6.11
  -1 -11 -18  103.49    5.80
  -1  11 -19   43.84    4.30
  -1 -11 -19   43.47    4.06
  -1 -11 -20   74.90    5.29
  -1 -11 -21   75.10    5.36
   1 -13 -19  118.18    6.57
   1 -13 -18    1.18    1.88
   1 -13 -17   73.14    5.02
   1 -13 -16   39.20    3.92
   1  13 -15    2.15    2.06
   1 -13 -15    0.82    1.72
   1  13 -14   33.71    3.78
   1 -13 -14   28.69    3.11
   1  13 -13   14.29    2.83
   1 -13 -13    8.94    2.68
   1  13 -12    1.87    1.98
   1 -13 -12    1.05    1.73
   1  13 -11  126.46    6.37
   1 -13 -11  124.30    5.69
   1 -13 -10   65.11    4.05
  -1  13   9  209.15    5.55
   1 -13  -9  195.23    7.09
  -1  13   8   88.50    3.58
   1 -13  -8   87.64    4.62
  -1  13   7    1.52    1.22
   1 -13  -7   -0.20    1.43
   1 -13  -6   47.89    3.32
   1  13  -6   49.31    3.20
  -1  13   6   48.32    2.87
   1 -13  -5  246.77    7.65
  -1  13   5  247.06    7.02
   1  13  -5  246.24    7.36
  -1  13   4    1.50    1.23
   1 -13  -4   -0.71    1.48
  -1  13   4    0.76    1.05
   1  13  -4    0.35    1.11
   1 -13  -3  538.70   12.36
   1  13  -3  522.02   11.67
  -1  13   3  554.26   12.13
  -1  13   3  521.62   12.07
  -1  13   2    4.71    1.63
   1  13  -2    2.25    1.16
  -1  13   2    0.21    1.02
   1  13  -1  552.79    9.34
  -1  13   1  586.74   12.84
   1  13  -1  573.38   12.10
  -1  13   1  574.98   12.91
  -1  13   0    5.40    0.81
  -1  13   0    9.02    1.79
   1  13   0    5.45    1.30
  -1  13   0    5.63    1.39
  -1  13  -1   21.06    1.40
  -1  13  -1   17.33    2.09
   1  13   1   14.84    1.79
  -1  13  -1   17.28    2.03
  -1  13  -2  238.41    5.64
   1  13   2  243.94    6.88
  -1  13  -2  242.96    7.87
  -1  13  -2  246.76    7.51
  -1  13  -3  196.17    5.26
  -1  13  -3  199.93    7.22
   1  13   3  197.81    6.10
  -1 -13  -4  212.71    6.45
  -1  13  -4  214.45    7.66
   1  13   4  208.03    6.29
  -1 -13  -5  477.94   10.91
  -1  13  -5  481.90   12.45
  -1  13  -6    0.75    1.79
  -1 -13  -6    3.23    1.35
  -1  13  -7   31.94    3.15
  -1 -13  -7   29.46    2.50
  -1  13  -8   48.79    4.05
  -1 -13  -8   46.68    3.15
  -1  13  -9    9.35    2.38
  -1 -13  -9    8.19    1.73
  -1  13 -10    3.99    2.19
  -1 -13 -10    1.82    1.25
  -1  13 -11   71.20    4.95
  -1 -13 -11   66.90    3.94
  -1  13 -12   78.99    5.23
  -1 -13 -12   67.24    4.09
  -1  13 -13  159.88    7.51
  -1 -13 -13  169.53    6.63
  -1  13 -14    3.56    2.16
  -1 -13 -14    0.92    1.60
  -1  13 -15  157.64    7.72
  -1 -13 -15  149.69    6.60
  -1 -13 -16   -0.12    1.80
  -1 -13 -17    3.03    1.86
  -1 -13 -18   37.87    3.74
   1 -15 -15    9.15    2.30
   1 -15 -14    6.42    2.24
   1 -15 -13  102.31    5.63
   1 -15 -12    1.05    1.75
   1 -15 -11  209.06    8.02
   1  15 -11  207.55    8.87
   1  15 -10    7.45    2.48
   1 -15 -10    6.51    2.08
   1 -15  -9  105.23    5.42
   1  15  -9  106.38    6.07
   1 -15  -8   97.60    5.08
   1  15  -8   91.13    5.63
  -1  15   7    2.53    1.40
   1 -15  -7   -1.98    1.48
  -1  15   6    0.06    1.26
   1 -15  -6    3.41    1.75
  -1  15   5   30.41    2.69
   1 -15  -5   28.78    2.93
  -1  15   4    5.61    1.64
  -1  15   3  127.69    5.52
  -1  15   2    2.29    1.40
  -1  15   1  244.26    8.13
  -1  15   0    2.89    1.49
  -1  15  -1   53.71    3.84
  -1  15  -2   23.36    2.71
  -1  15  -3   47.83    3.79
  -1  15  -4   58.84    4.39
  -1  15  -5  351.45   11.01
  -1 -15  -5  343.75    9.27
  -1  15  -6    1.81    1.99
  -1  15  -6    0.37    0.96
  -1 -15  -6    3.51    1.48
  -1  15  -7  196.93    8.22
  -1 -15  -7  190.58    6.64
  -1  15  -8    3.62    2.34
  -1 -15  -8    0.59    1.27
  -1  15  -9    7.77    2.34
  -1 -15  -9    6.80    1.64
  -1  15 -10   21.20    3.17
  -1 -15 -10   18.13    2.32
  -1  15 -11  145.14    7.37
   1  17  -6   20.57    3.10
   1  17  -5  109.96    6.38
   1  17  -4   32.24    3.45
  -1  17   4   33.26    3.07
  -1  17   3  245.21    8.46
   1  17  -3  227.34    8.96
   1  17  -2   17.31    2.70
  -1  17   2   15.84    2.38
  -1  17   1  282.80    9.57
   1  17  -1  284.72    9.86
   1  17   0   16.98    2.64
  -1  17   0   15.54    2.36
   1  17   1   28.90    3.08
  -1  17  -1   33.24    3.48
   1  17   2    7.82    1.84
  -1  17  -2    7.93    2.01
  -1  17  -3  149.74    7.12
   1  17   3  149.01    6.51
   1  17   4    6.05    1.87
  -1  17  -4    9.02    2.52
  -1  17  -5  301.95   10.77
  -1  17  -6   20.72    3.31
  -2   0  25   -1.76    1.83
  -2   0  24  215.24    8.66
  -2   0  23    2.80    2.08
   2   0 -22  638.18   13.00
  -2   0  22  635.16   15.68
   2   0 -21    0.61    1.06
  -2   0  21    3.15    1.89
   2   0 -20  198.29    5.77
  -2   0  20  199.13    7.47
   2   0 -19    0.13    0.97
  -2   0  19    2.78    1.76
   2   0 -18   36.72    2.30
  -2   0  18   40.98    3.29
   2   0 -17    0.22    0.91
  -2   0  17    1.53    1.62
   2   0 -16  317.25    7.16
  -2   0  16  309.65    8.58
   2   0 -15    0.11    0.81
  -2   0  15   -0.01    1.36
   2   0 -14   65.01    2.65
  -2   0  14   60.36    3.31
   2   0 -13    0.84    0.81
  -2   0  13    2.73    1.54
  -2   0  12 2175.94   33.97
   2   0 -12 2103.75   32.21
  -2   0  11    3.18    1.47
  -2   0  10  210.26    5.56
  -2   0   9    0.31    1.25
  -2   0   8 1616.37   25.23
  -2   0   7    1.88    1.30
  -2   0   6 8865.84  126.04
   2   0  -5    1.85    0.96
  -2   0   5    0.77    0.98
  -2   0   4 2238.11   32.19
   2   0  -4 2192.97   32.23
  -2   0   3    1.39    0.63
   2   0  -3    1.70    0.62
   2   0  -2   42.48    1.56
   2   0  -2   49.11    1.49
  -2   0   2   40.58    1.38
  -2   0   1    5.53    0.79
   2   0  -1    4.77    0.78
   2   0  -1    3.13    0.62
  -2   0   1    4.28    0.58
  -2   0   0 3193.66   45.59
   2   0   0 3191.97   45.61
   2   0   0 3177.83   45.87
  -2   0   0 3272.30   45.88
   2   0   1    0.53    0.74
  -2   0  -1   -0.29    0.72
   2   0   2 2216.59   32.35
   2   0   3   -0.96    0.92
  -2   0  -3   -0.77    0.95
  -2   0  -4  361.58    6.57
   2   0   4  351.95    6.53
  -2   0  -5   -1.04    1.07
   2   0   5    0.97    0.98
   2   0   6  258.83    5.38
  -2   0  -6  253.73    5.39
  -2   0  -7    1.44    1.08
   2   0   7    0.26    0.89
  -2   0  -8  589.98   10.52
   2   0   8  576.50   10.36
  -2   0  -9   -0.37    1.00
   2   0   9   -0.35    0.84
  -2   0 -10  787.27   13.78
   2   0  10  786.65   13.54
   2   0  11    0.06    0.83
  -2   0 -11   -0.23    0.95
   2   0  11    1.53    1.56
  -2   0 -12    7.91    1.31
   2   0  12    7.78    1.80
  -2   0 -13    0.84    1.03
   2   0  13    1.40    1.54
  -2   0 -14    0.63    0.97
   2   0  14    1.75    1.57
  -2   0 -15    0.31    1.04
   2   0  15    0.25    1.72
  -2   0 -16   13.98    1.75
   2   0  16    9.28    2.08
  -2   0 -17    0.45    1.17
   2   0  17    0.43    1.72
  -2   0 -18  266.83    7.49
   2   0  18  282.80    9.07
  -2   0 -19    2.23    1.37
   2   0  19    2.20    1.84
  -2   0 -20  624.82   13.54
   2   0  20  641.77   15.73
   2   0  21    0.94    1.78
   2   0  22  112.78    6.25
   2   0  23    1.43    2.01
   2   0  24   15.59    3.08
  -2  -2  25   76.92    5.37
  -2   2  25   76.43    5.32
  -2   2  24  110.44    6.22
  -2  -2  24  121.14    6.59
   2   2 -23   50.55    3.36
  -2  -2  23   51.60    4.37
  -2   2  23   41.05    4.55
   2   2 -22  133.22    5.42
  -2  -2  22  131.33    6.53
  -2   2  22  149.39    6.76
   2   2 -21   -1.07    1.27
  -2  -2  21   -0.49    1.70
  -2   2  21    0.31    1.76
   2   2 -20   93.86    4.34
  -2   2  20  101.22    5.27
  -2  -2  20  100.15    5.41
   2   2 -19    1.38    1.12
   2  -2 -19    1.84    0.80
  -2  -2  19    2.40    1.77
  -2   2  19    1.93    1.79
   2   2 -18    0.01    1.04
   2  -2 -18    3.37    0.87
  -2  -2  18    3.90    2.11
  -2   2  18    5.71    1.81
   2   2 -17   76.60    3.58
   2  -2 -17   74.97    2.61
  -2  -2  17   74.39    4.19
  -2   2  17   82.44    4.33
   2  -2 -16  423.21    8.01
   2   2 -16  422.74    9.60
  -2   2  16  447.79   10.62
  -2  -2  16  435.99   10.78
   2  -2 -15   74.90    2.44
   2   2 -15   72.47    3.31
  -2  -2  15   86.11    4.20
  -2   2  15   86.76    4.07
   2  -2 -14  606.91   10.35
  -2   2  14  651.55   13.00
  -2  -2  14  627.98   13.17
   2   2 -14  605.19   12.03
   2  -2 -13   18.76    1.10
  -2  -2  13   18.58    2.18
  -2   2  13   21.23    2.20
   2  -2 -12  732.32   11.69
  -2  -2  12  763.89   14.46
   2  -2 -11   65.07    1.84
   2   2 -11   76.61    3.50
  -2  -2  11   72.54    3.38
   2  -2 -10  203.86    3.81
   2   2 -10  212.01    5.82
  -2  -2  10  225.16    5.89
   2  -2  -9    7.81    0.60
   2   2  -9    9.48    1.43
  -2  -2   9    7.26    1.49
   2  -2  -8 1359.15   19.87
  -2  -2   8 1424.59   22.26
   2   2  -8 1418.12   22.32
   2   2  -7  146.72    4.14
  -2  -2   7  151.86    4.22
   2   2  -6 3431.44   50.98
   2  -2  -6 3514.02   51.19
   2   2  -5  513.02    9.05
   2  -2  -5  496.62    9.28
  -2   2   4  285.71    5.74
   2  -2  -4  286.72    5.90
   2  -2  -3   17.71    1.19
   2  -2  -3   16.50    0.82
   2  -2  -3   19.24    1.56
  -2   2   3   14.79    1.36
  -2   2   2   55.34    1.71
   2  -2  -2   51.16    1.71
   2  -2  -2   53.62    1.53
  -2   2   2   54.69    1.51
  -2   2   2   54.85    1.92
   2  -2  -2   50.14    2.04
  -2   2   1  851.50   12.95
   2  -2  -1  831.45   12.95
   2   2  -1  833.42   12.93
  -2   2   1  870.79   12.93
   2  -2  -1  846.50   12.91
  -2   2   1  832.75   13.31
   2  -2  -1  857.86   13.33
  -2   2   0  308.78    5.43
   2  -2   0  305.78    5.43
   2  -2   0  302.46    5.38
  -2   2   0  298.37    5.58
   2  -2   0  316.11    5.70
  -2  -2   0  288.43    5.13
   2   2   0  291.96    5.10
  -2   2   0  307.99    5.38
  -2   2  -1  531.75    8.44
   2  -2   1  503.94    8.47
  -2   2  -1  515.45    8.52
  -2   2  -1  487.03    8.51
  -2   2  -1  502.65    8.08
  -2  -2  -1  513.75    7.96
   2   2   1  483.35    7.92
  -2  -2  -2  725.10   11.01
  -2   2  -2  721.78   11.69
   2  -2   2  708.10   11.65
   2  -2   2  718.36   11.38
  -2   2  -2  692.70   11.32
   2  -2   3  132.18    3.36
  -2   2  -3  131.30    3.46
   2  -2   3  125.02    3.31
  -2   2  -3  124.30    3.21
   2  -2   4 1102.97   17.46
  -2   2  -4 1102.53   17.59
  -2   2  -4 1082.91   17.45
   2  -2   4 1114.73   17.56
  -2   2  -5   10.38    1.54
   2  -2   5    6.60    1.25
  -2   2  -5    7.24    1.33
   2  -2   5    6.98    1.51
   2   2   6  153.23    3.65
  -2   2  -6  158.70    4.31
   2  -2   6  167.15    4.57
   2  -2   6  150.98    4.16
   2   2   7   53.84    2.04
  -2   2  -7   54.67    2.58
   2  -2   7   55.21    2.87
   2  -2   7   55.50    2.47
  -2   2  -8  135.16    4.13
   2   2   8  125.72    3.33
   2  -2   8  134.25    4.40
  -2   2  -9  221.22    5.76
   2   2   9  219.90    4.86
   2  -2   9  221.65    6.10
  -2   2 -10 1357.07   22.37
   2   2  10 1339.55   21.06
   2  -2  10 1343.60   23.04
  -2   2 -11    4.31    1.39
   2   2  11    3.40    0.87
   2  -2  11    3.26    1.59
   2   2  12  562.05   10.15
  -2   2 -12  555.95   11.40
   2  -2  12  542.50   12.07
  -2   2 -13   37.24    2.56
   2  -2  13   39.33    3.01
   2   2  13   37.40    1.93
  -2   2 -14    2.05    1.21
   2  -2  14    2.57    1.74
  -2   2 -15   -1.98    1.27
   2  -2  15    0.82    1.63
  -2   2 -16    0.32    1.21
   2  -2  16    1.07    1.60
  -2   2 -17   54.02    3.33
   2   2  17   55.55    3.95
   2  -2  17   53.25    3.91
  -2   2 -18  103.29    4.72
   2   2  18  119.79    5.86
   2  -2  18  117.10    5.81
  -2   2 -19    3.27    1.60
   2  -2  19    2.78    1.89
   2   2  19    3.24    1.85
  -2   2 -20  121.59    5.38
   2  -2  20  122.80    6.19
   2   2  20  121.93    6.15
  -2   2 -21    2.56    1.58
   2  -2  21   -0.08    1.79
   2   2  21    2.01    2.03
  -2   2 -22   76.04    4.43
   2  -2  22   84.69    5.49
   2   2  22   83.62    5.44
  -2   2 -23   85.81    4.70
   2  -2  23   84.90    5.60
   2   2  23   83.75    5.62
   2   2  24    9.71    2.65
  -2   4  25   47.10    4.27
   2   4 -24  111.39    5.65
  -2   4  24  126.82    6.62
   2   4 -23   38.17    3.35
  -2   4  23   49.56    4.21
   2   4 -22  224.66    7.86
  -2   4  22  231.36    8.55
   2   4 -21    6.46    1.66
  -2   4  21    8.93    2.17
   2   4 -20  224.76    7.55
  -2   4  20  225.56    8.09
  -2  -4  20  234.18    8.47
   2   4 -19   43.69    3.22
  -2   4  19   46.24    3.62
  -2  -4  19   47.38    3.72
   2   4 -18   33.31    2.75
  -2   4  18   38.24    3.31
  -2  -4  18   31.69    3.03
   2   4 -17   18.63    2.23
  -2  -4  17   18.59    2.40
   2   4 -16  118.72    4.81
   2   4 -15   -0.73    1.19
   2   4 -14  690.60   14.78
   2   4 -13    3.51    1.52
   2   4 -12  645.19   13.41
   2  -4 -12  639.53   13.30
   2   4 -11   27.60    2.35
   2  -4 -11   25.28    2.37
   2   4 -10    2.16    1.23
   2  -4 -10   -0.51    1.32
   2   4  -9   91.77    3.80
   2  -4  -9   94.38    3.77
   2   4  -8  429.56    9.21
   2  -4  -8  442.13    9.30
   2   4  -7  373.71    8.13
   2  -4  -7  371.54    8.06
   2   4  -6  812.66   14.29
   2  -4  -6  809.66   14.29
   2  -4  -5   99.39    2.68
  -2   4   5  104.94    2.15
   2  -4  -5  102.43    3.53
  -2   4   5  105.44    3.43
   2  -4  -4  694.84   11.38
  -2   4   4  725.19   11.07
   2  -4  -4  737.55   12.65
  -2   4   4  736.21   12.56
   2  -4  -3  602.98    9.99
  -2   4   3  642.77   10.05
  -2   4   3  643.94   10.06
  -2   4   3  638.89   11.17
   2  -4  -3  629.10   11.24
  -2   4   2  825.82   12.78
   2  -4  -2  802.36   12.80
  -2   4   2  854.48   13.08
   2  -4  -2  832.11   13.86
  -2   4   2  845.39   13.87
  -2   4   1   40.03    1.72
  -2   4   1   36.98    1.48
   2   4  -1   33.00    1.19
  -2   4   1   34.37    1.84
   2  -4  -1   30.82    2.00
  -2   4   0 1050.54   16.33
  -2   4   0 1045.89   15.91
   2   4   0 1018.92   15.43
   2  -4   0 1039.39   16.68
  -2   4   0 1065.23   16.71
   2   4   0 1014.21   15.24
  -2   4  -1  488.97    8.51
   2   4   1  450.72    7.22
  -2   4  -1  471.83    8.63
  -2  -4  -1  458.37    7.29
   2  -4   1  463.59    8.63
   2   4   1  460.31    7.27
   2   4   2 1378.00   20.12
  -2   4  -2 1418.87   21.78
  -2  -4  -2 1375.63   20.14
  -2   4  -2 1391.46   21.82
  -2  -4  -2 1391.59   20.45
  -2   4  -3  117.81    3.61
  -2  -4  -3  112.83    2.38
  -2   4  -3  119.04    3.40
  -2  -4  -3  113.11    2.74
  -2  -4  -4 1176.98   17.53
  -2   4  -4 1197.34   19.27
  -2   4  -4 1166.04   19.01
  -2  -4  -4 1163.46   18.07
  -2   4  -5   17.26    1.77
  -2   4  -5   16.15    1.54
  -2   4  -6  111.15    3.88
   2  -4   6  112.09    3.85
  -2   4  -6  113.08    3.83
  -2   4  -7  768.61   14.12
   2  -4   7  775.27   14.17
  -2   4  -7  768.33   14.17
  -2   4  -8   50.50    2.84
  -2   4  -8   49.70    2.81
   2  -4   8   53.59    2.98
   2   4   9  186.48    4.27
  -2   4  -9  190.28    5.61
   2  -4   9  191.52    5.86
  -2   4  -9  189.27    5.74
   2   4  10 1359.60   21.24
  -2   4 -10 1351.97   23.34
   2  -4  10 1365.99   23.79
  -2   4 -10 1447.89   24.07
  -2   4 -11   23.88    2.25
   2   4  11   19.13    1.27
   2  -4  11   21.93    2.33
  -2   4 -12  367.83    9.03
   2   4  12  362.64    7.04
   2  -4  12  366.10    9.43
   2   4  13   93.92    2.87
  -2   4 -13   91.39    4.23
   2  -4  13   91.66    4.52
   2   4  14   93.47    2.90
  -2   4 -14   86.64    4.20
   2  -4  14   92.10    4.68
  -2   4 -15  213.02    6.90
   2  -4  15  207.21    7.35
  -2   4 -16  118.61    5.15
   2  -4  16  120.71    5.67
  -2   4 -17   42.90    3.26
   2  -4  17   43.56    3.65
  -2   4 -18  493.61   12.34
   2  -4  18  506.22   13.29
  -2   4 -19    5.18    1.78
   2  -4  19    4.83    2.01
  -2   4 -20  248.87    8.53
   2  -4  20  278.75    9.73
  -2   4 -21    3.21    1.70
   2   4  21    5.05    2.36
   2  -4  21    5.25    2.33
  -2   4 -22   10.44    2.15
   2  -4  22   22.14    3.29
   2   4  22   18.15    3.16
  -2   4 -23   63.61    4.49
   2  -4  23   77.69    5.58
   2   4  23   80.13    5.53
  -2   4 -24   63.27    4.59
   2   6 -25   30.88    4.36
  -2   6  25   31.09    3.77
   2   6 -24   37.24    3.86
  -2   6  24   28.41    3.54
   2   6 -23  138.73    6.66
  -2   6  23  146.33    7.02
   2  -6 -23  137.91    7.20
   2   6 -22  122.13    6.13
  -2   6  22  118.79    6.24
   2  -6 -22  111.23    6.46
   2   6 -21    0.15    1.59
  -2   6  21    1.27    1.85
   2  -6 -21   -0.99    1.88
   2   6 -20  147.30    6.44
   2  -6 -20  152.50    7.02
   2   6 -19   34.12    3.10
   2  -6 -19   35.55    3.57
   2   6 -18   52.22    3.72
   2  -6 -18   53.44    4.15
   2  -6 -17   58.87    4.12
   2   6 -17   54.53    3.74
   2   6 -16   30.64    2.82
   2  -6 -16   26.27    2.82
   2  -6 -15  121.75    5.41
   2  -6 -14  205.78    7.01
   2  -6 -13    0.90    1.52
   2   6 -12  116.05    4.94
   2  -6 -12  107.45    4.69
   2   6 -11    2.05    1.19
   2  -6 -11    1.52    1.38
   2   6 -10   29.60    2.51
   2  -6 -10   26.98    2.41
   2   6  -9   17.22    1.96
   2  -6  -9   20.35    2.12
   2  -6  -8   57.49    2.14
   2   6  -8   61.02    3.17
   2  -6  -8   54.19    3.07
   2  -6  -7   80.42    2.45
  -2   6   7   83.88    1.98
   2  -6  -7   88.10    3.62
   2  -6  -6  318.13    6.00
  -2   6   6  333.16    5.82
   2  -6  -6  341.49    7.75
  -2   6   6  340.57    7.70
   2  -6  -5   19.93    1.09
  -2   6   5   23.42    1.25
  -2   6   5   22.52    1.78
   2  -6  -5   18.18    1.91
  -2   6   4  983.16   15.08
   2  -6  -4  909.67   14.48
  -2   6   4  975.31   16.41
   2  -6  -4  959.35   16.48
  -2   6   3  445.10    7.94
   2  -6  -3  418.81    7.22
  -2   6   3  442.85    7.26
   2   6  -3  419.51    7.89
  -2   6   3  434.45    8.85
   2  -6  -3  445.41    8.93
  -2   6   2  207.62    4.73
  -2   6   2  211.25    4.08
   2   6  -2  197.05    4.38
   2  -6  -2  208.59    5.36
  -2   6   2  200.23    5.26
  -2   6   1  196.14    4.06
   2   6  -1  196.15    4.19
   2  -6  -1  198.61    5.17
  -2   6   1  204.59    4.78
  -2   6   1  196.55    5.07
  -2   6   0  552.80    9.38
   2   6   0  552.97    8.81
   2  -6   0  543.14   10.45
  -2   6   0  558.56   10.50
   2   6   0  538.03    9.19
  -2   6   0  562.47   10.21
   2   6   1  513.31    8.04
  -2   6  -1  530.75   10.14
  -2  -6  -1  527.20    8.82
   2   6   1  516.82    8.77
  -2   6  -1  541.26   10.02
  -2  -6  -2 1477.67   22.52
  -2   6  -2 1530.38   24.09
  -2   6  -2 1523.89   23.95
   2   6   2 1463.36   22.47
  -2   6  -3  337.20    7.46
  -2   6  -3  325.35    7.38
  -2  -6  -3  329.27    6.31
  -2   6  -4  237.03    6.15
  -2   6  -4  247.64    6.17
  -2   6  -4  233.17    5.96
  -2  -6  -4  239.33    5.15
  -2   6  -5   11.47    1.66
  -2  -6  -5   13.03    0.69
  -2   6  -5   16.22    1.70
  -2  -6  -5   12.34    1.21
  -2   6  -6    3.56    1.36
  -2  -6  -6    4.29    0.62
  -2   6  -6    3.27    1.26
  -2  -6  -6    3.78    1.07
  -2   6  -7  223.33    6.33
  -2  -6  -7  221.99    4.41
  -2   6  -7  220.60    6.25
  -2  -6  -7  222.93    5.49
  -2   6  -8    5.13    1.52
  -2   6  -8    7.51    1.50
  -2  -6  -8    7.39    1.33
  -2   6  -9   10.61    1.76
  -2   6  -9   11.54    1.74
  -2  -6  -9   11.61    1.57
  -2   6 -10   27.52    2.48
  -2   6 -10   26.29    2.40
  -2  -6 -10   21.11    1.96
   2   6  11    2.89    0.76
  -2   6 -11    4.52    1.60
  -2   6 -11    3.11    1.40
   2   6  12  154.49    3.75
  -2   6 -12  150.81    5.70
  -2   6 -13  320.65    9.06
   2   6  13  335.79    6.45
   2   6  14  431.92    7.75
  -2   6 -14  413.57   10.88
   2   6  15  226.56    4.70
  -2   6 -15  209.16    7.42
  -2   6 -16   47.29    3.63
  -2   6 -17   13.57    2.37
  -2   6 -18  358.15   10.63
  -2   6 -19   38.63    3.67
  -2   6 -20  382.03   11.49
  -2   6 -21   85.41    5.37
  -2   6 -22   27.75    3.34
  -2   6 -23  131.02    6.80
  -2   6 -24   49.23    4.46
  -2   6 -25   30.84    3.77
   2   8 -24    0.00    2.02
  -2   8  24    1.91    2.16
   2   8 -23   28.68    3.62
   2   8 -22   89.01    5.67
   2  -8 -22   94.21    6.08
   2   8 -21    0.80    1.91
   2  -8 -21   -0.90    2.11
   2   8 -20  182.67    7.71
   2  -8 -20  192.22    8.14
   2   8 -19   66.23    4.57
   2  -8 -19   70.41    4.90
   2   8 -18   63.50    4.35
   2  -8 -18   60.37    4.45
   2   8 -17  211.21    7.78
   2  -8 -17  208.45    7.93
   2  -8 -16   65.73    4.27
   2   8 -16   61.69    4.14
   2  -8 -15  138.38    6.02
   2  -8 -14  452.75   11.65
   2  -8 -13   17.14    1.50
   2  -8 -13   17.06    2.44
   2  -8 -12  165.10    4.49
   2  -8 -12  171.42    6.27
   2  -8 -11  251.16    5.67
   2  -8 -11  254.08    7.59
   2  -8 -10   10.00    1.02
   2  -8 -10    9.17    2.41
  -2   8   9   98.40    2.29
   2  -8  -9   95.61    2.73
   2   8  -9   99.60    4.49
   2  -8  -9   97.42    4.30
   2  -8  -8   54.17    1.81
  -2   8   8   56.66    1.85
   2  -8  -8   47.87    3.01
   2  -8  -7  302.88    5.56
  -2   8   7  315.79    6.02
   2  -8  -7  317.14    8.01
  -2   8   7  322.22    7.90
  -2   8   6  596.89   10.11
   2  -8  -6  560.69    9.12
  -2   8   6  594.61   11.96
   2  -8  -6  569.08   11.83
  -2   8   5  481.38    8.71
   2   8  -5  434.19    9.14
   2  -8  -5  463.76   10.06
  -2   8   5  462.84    9.97
  -2   8   4  272.96    5.98
   2   8  -4  259.79    6.12
  -2   8   4  276.62    6.93
   2  -8  -4  274.16    7.01
  -2   8   3   75.56    1.99
   2  -8  -3   74.56    3.38
   2   8  -3   69.30    2.69
  -2   8   3   76.35    2.87
  -2   8   3   76.27    3.28
  -2   8   2   79.07    2.19
   2  -8  -2   81.01    3.46
   2   8  -2   83.99    2.86
  -2   8   2   84.09    3.14
  -2   8   2   81.03    3.36
  -2   8   1  189.87    4.12
   2  -8  -1  185.08    5.52
   2   8  -1  194.15    4.61
  -2   8   1  197.62    5.52
  -2   8   1  203.01    5.29
  -2   8   0  269.70    5.53
   2   8   0  270.36    4.96
   2  -8   0  268.71    6.87
   2   8   0  264.70    5.75
  -2   8   0  285.87    6.71
  -2   8   0  287.42    6.95
  -2   8  -1   57.44    2.23
   2   8   1   59.47    1.42
  -2  -8  -1   59.82    2.30
   2   8   1   58.83    2.29
  -2   8  -1   62.93    2.94
  -2   8  -1   65.64    3.03
  -2  -8  -2  401.05    7.77
  -2   8  -2  411.40    9.04
  -2   8  -2  417.93    9.07
   2   8   2  393.00    7.69
  -2   8  -3   82.67    3.44
  -2  -8  -3   76.96    2.74
   2   8   3   77.10    2.68
  -2   8  -3   80.35    3.52
  -2   8  -4  564.48   11.70
  -2  -8  -4  568.35   10.43
  -2   8  -4  574.17   11.87
  -2   8  -5  281.15    7.55
  -2   8  -5  284.66    7.42
  -2   8  -5  290.86    7.53
  -2  -8  -5  283.25    6.39
  -2   8  -6   31.63    2.53
  -2   8  -6   31.27    2.46
  -2   8  -6   30.75    2.36
  -2  -8  -6   27.05    1.83
  -2   8  -7  150.94    5.49
  -2   8  -7  155.88    5.48
  -2   8  -7  156.86    5.34
  -2  -8  -7  148.31    4.54
  -2   8  -8   67.66    3.77
  -2  -8  -8   68.76    1.68
  -2   8  -8   69.71    3.67
  -2  -8  -8   70.89    3.14
  -2   8  -9    1.40    1.38
  -2  -8  -9    3.21    0.58
  -2   8  -9    8.58    1.80
  -2  -8  -9    5.85    1.34
  -2   8 -10  207.60    6.99
  -2  -8 -10  215.55    4.59
  -2  -8 -10  219.53    6.36
  -2   8 -11   21.43    2.64
  -2  -8 -11   22.77    2.21
   2   8  12  425.66    7.88
  -2   8 -12  410.23   10.96
  -2  -8 -12  409.51   10.04
   2   8  13   87.39    2.62
  -2   8 -13   85.71    4.75
  -2  -8 -13   92.78    4.40
  -2   8 -14  124.94    5.86
   2   8  14  142.66    3.34
  -2  -8 -14  127.05    5.44
   2   8  15  285.38    5.16
  -2   8 -15  254.97    8.77
  -2  -8 -15  262.71    8.46
  -2   8 -16  117.20    5.88
  -2  -8 -16  120.18    5.55
  -2   8 -17  318.43   10.26
  -2  -8 -17  315.17    9.74
  -2   8 -18  245.45    9.00
  -2  -8 -18  239.24    8.57
  -2   8 -19   -1.43    1.84
  -2  -8 -19   -0.35    1.70
  -2   8 -20  166.78    7.64
  -2  -8 -20  165.35    7.42
  -2   8 -21   68.09    5.16
  -2  -8 -21   56.78    4.61
  -2   8 -22   10.75    2.59
  -2  -8 -22   11.89    2.77
  -2   8 -23  122.04    6.93
  -2  -8 -23  119.11    6.89
   2  10 -21    5.86    2.43
   2 -10 -21    5.44    2.22
   2  10 -20   35.29    3.78
   2 -10 -20   33.76    3.74
   2  10 -19   57.41    4.63
   2 -10 -19   54.40    4.61
   2  10 -18   11.15    2.51
   2 -10 -18   11.96    2.57
   2 -10 -17  310.57   10.19
   2  10 -17  307.04   10.30
   2  10 -16   19.38    2.81
   2 -10 -16   14.06    2.44
   2  10 -15   15.03    2.40
   2 -10 -15   20.62    2.88
   2 -10 -14  111.26    5.49
   2 -10 -13  119.32    3.38
   2 -10 -13  125.97    5.70
   2 -10 -12  213.42    4.63
   2 -10 -12  212.71    7.39
   2 -10 -11  264.86    4.80
   2 -10 -11  270.01    8.10
  -2  10  10   19.90    1.12
   2 -10 -10   17.96    0.86
   2 -10 -10   18.00    2.36
  -2  10   9  185.64    4.29
   2 -10  -9  180.52    6.29
  -2  10   8   15.57    1.29
   2 -10  -8   14.15    1.98
  -2  10   7  116.66    3.55
   2  10  -7  109.24    4.24
  -2  10   7  115.28    4.72
   2 -10  -7  111.30    4.68
  -2  10   6  292.92    6.63
   2  10  -6  284.61    7.30
   2 -10  -6  294.66    8.04
  -2  10   6  312.19    8.13
  -2  10   5   34.30    2.07
   2  10  -5   32.08    2.15
  -2  10   5   27.61    2.17
   2 -10  -5   26.11    2.34
  -2  10   4  417.95    8.80
   2 -10  -4  409.36    9.77
   2  10  -4  400.49    8.82
  -2  10   4  420.18    9.72
   2  10  -3  268.64    6.56
   2 -10  -3  263.11    7.34
  -2  10   3  270.78    7.34
  -2  10   3  271.10    6.77
  -2  10   2    6.32    1.37
  -2  10   2    4.24    0.56
   2 -10  -2    3.39    1.33
  -2  10   2    2.59    0.86
   2  10  -2    4.88    1.08
  -2  10   1  572.81    9.86
   2 -10  -1  574.25   12.23
  -2  10   1  608.08   12.02
  -2  10   1  600.26   12.29
   2  10  -1  571.16   11.00
  -2  10   0   83.57    2.66
   2  10   0   78.34    2.07
  -2  10   0   82.55    3.69
  -2  10   0   79.04    3.64
   2  10   0   74.89    2.95
  -2  10  -1  717.19   12.56
  -2  10  -1  740.48   14.45
  -2  10  -1  737.46   14.41
   2  10   1  715.62   12.98
  -2  10  -2  168.99    4.59
  -2 -10  -2  169.61    4.73
   2  10   2  177.91    4.76
  -2  10  -2  174.92    5.74
  -2  10  -2  174.46    5.68
  -2  10  -3   18.29    2.13
  -2 -10  -3   15.12    1.44
  -2  10  -3   17.44    1.81
   2  10   3   16.24    1.44
  -2  10  -4  162.98    5.82
  -2 -10  -4  173.83    4.85
  -2  10  -4  170.91    5.76
  -2  10  -5  535.73   12.34
  -2  10  -5  556.98   12.24
  -2 -10  -5  545.34   10.82
  -2  10  -6  188.67    6.59
  -2  10  -6  195.44    6.35
  -2 -10  -6  189.40    5.40
  -2  10  -7  119.85    5.25
  -2  10  -7  121.67    5.01
  -2 -10  -7  125.61    4.35
  -2  10  -8  168.41    6.41
  -2 -10  -8  163.26    5.26
  -2  10  -9   96.13    4.99
  -2 -10  -9   92.46    3.95
  -2  10 -10  277.35    8.74
  -2 -10 -10  271.80    7.52
  -2  10 -11  197.75    7.47
  -2 -10 -11  217.04    6.69
  -2 -10 -12  191.68    3.70
  -2 -10 -12  198.98    3.73
  -2  10 -12  202.76    7.64
  -2 -10 -12  216.23    6.78
  -2 -10 -13   55.78    1.92
  -2  10 -13   53.86    4.09
  -2 -10 -13   50.66    3.44
  -2  10 -14   33.69    3.46
  -2 -10 -14   33.76    3.00
  -2  10 -15  302.24   10.08
  -2 -10 -15  301.81    9.21
  -2  10 -16   13.92    2.77
  -2 -10 -16   12.67    2.21
  -2  10 -17  164.85    7.50
  -2 -10 -17  142.54    6.70
  -2  10 -18   77.18    5.31
  -2 -10 -18   69.86    4.71
  -2  10 -19    0.31    1.88
  -2 -10 -19   -2.88    2.12
  -2  10 -20   36.65    3.96
  -2 -10 -20   37.25    3.81
  -2 -10 -21   55.82    4.74
  -2 -10 -22   34.21    3.84
   2 -12 -20   19.37    3.18
   2 -12 -19  107.64    6.36
   2 -12 -18    0.93    1.87
   2  12 -17  152.44    7.45
   2 -12 -17  146.13    7.17
   2  12 -16   10.38    2.45
   2 -12 -16   11.11    2.62
   2  12 -15  151.50    7.24
   2 -12 -15  153.30    6.92
   2  12 -14   39.89    3.79
   2 -12 -14   39.68    3.59
   2 -12 -13   55.47    4.02
   2 -12 -12  250.38    8.45
   2 -12 -11  214.29    7.62
  -2  12  10  391.60    7.71
   2 -12 -10  388.48   10.63
  -2  12   9  198.59    5.05
   2  12  -9  187.06    6.40
   2 -12  -9  189.73    6.93
  -2  12   8    3.17    1.06
   2  12  -8    1.20    1.10
   2 -12  -8    2.15    1.47
  -2  12   7    1.32    0.98
   2  12  -7   -0.83    1.13
   2 -12  -7    3.41    1.73
  -2  12   6  230.61    6.18
   2  12  -6  220.43    6.61
   2 -12  -6  213.50    7.17
  -2  12   5   35.01    2.41
   2  12  -5   29.17    2.31
  -2  12   5   25.65    2.41
   2 -12  -5   25.81    2.55
  -2  12   4  149.79    5.06
   2 -12  -4  141.47    5.58
  -2  12   4  146.09    5.47
   2  12  -4  138.58    4.82
  -2  12   3  270.60    7.36
   2 -12  -3  263.87    7.85
  -2  12   3  266.55    7.78
   2  12  -3  261.70    6.94
  -2  12   2   76.56    3.77
  -2  12   2   71.49    1.84
   2 -12  -2   74.57    3.99
   2  12  -2   71.87    3.30
  -2  12   2   75.30    3.82
   2  12  -1  548.40    9.38
  -2  12   1  556.90    9.45
  -2  12   1  572.32   12.42
  -2  12   1  583.98   12.70
   2  12  -1  548.67   11.27
  -2  12   0   19.47    1.22
  -2  12   0   23.15    2.30
  -2  12   0   14.95    1.78
   2  12   0   18.43    1.71
  -2  12  -1  512.35    9.60
  -2  12  -1  512.63   11.89
  -2  12  -1  512.82   11.84
   2  12   1  497.00   10.43
  -2  12  -2   28.27    2.61
  -2  12  -2   24.14    1.73
  -2  12  -2   26.58    2.39
   2  12   2   30.50    2.18
  -2  12  -3    0.43    1.34
  -2  12  -3   -0.31    0.84
  -2 -12  -3    0.23    0.93
   2  12   3   -0.51    1.01
  -2  12  -4   13.32    2.21
  -2 -12  -4    9.66    1.38
  -2  12  -5  129.58    5.71
  -2 -12  -5  127.93    4.53
  -2  12  -6   23.87    2.76
  -2 -12  -6   26.72    2.14
  -2  12  -7  389.68   10.97
  -2 -12  -7  385.59    9.19
  -2  12  -8  175.05    7.04
  -2 -12  -8  167.87    5.63
  -2  12  -9  236.54    8.47
  -2 -12  -9  243.68    7.07
  -2  12 -10  132.05    6.28
  -2 -12 -10  129.93    5.08
  -2  12 -11   -0.20    1.85
  -2 -12 -11    0.74    1.29
  -2  12 -12  182.05    7.74
  -2 -12 -12  181.69    6.56
  -2  12 -13  199.77    8.23
  -2 -12 -13  183.44    6.77
  -2  12 -14    2.90    2.05
  -2 -12 -14    2.48    1.65
  -2  12 -15  119.29    6.51
  -2 -12 -15  118.33    5.66
  -2  12 -16   14.08    2.88
  -2 -12 -16   16.39    2.56
  -2 -12 -17   88.35    5.15
  -2 -12 -18    1.46    1.74
  -2 -12 -19   10.53    2.40
   2 -14 -18    7.20    2.28
   2 -14 -17  147.73    7.36
   2 -14 -16    4.61    2.25
   2 -14 -15   67.25    4.81
   2 -14 -14   17.28    2.76
   2  14 -13    4.66    2.19
   2 -14 -13    5.39    1.98
   2 -14 -12   86.49    5.14
   2 -14 -11  159.26    7.07
   2 -14 -10    0.38    1.65
   2 -14  -9  431.98   11.78
  -2  14   8   49.51    2.82
   2 -14  -8   48.39    3.70
  -2  14   7  163.64    5.40
   2 -14  -7  157.43    6.52
  -2  14   6   61.07    3.39
   2 -14  -6   60.64    3.99
  -2  14   5   43.06    2.97
   2 -14  -5   44.68    3.46
   2  14  -5   43.19    2.95
  -2  14   4   56.11    3.46
   2 -14  -4   50.64    3.66
   2  14  -4   54.84    3.19
  -2  14   3  307.25    8.64
   2 -14  -3  296.64    8.96
   2  14  -3  294.48    7.90
  -2  14   2   16.73    2.24
   2  14  -2   16.95    1.90
  -2  14   1  389.08   10.38
   2  14  -1  377.96    9.12
  -2  14   0   28.12    2.70
   2  14   0   25.70    2.14
  -2  14  -1  240.07    5.50
  -2  14  -1  245.06    8.09
   2  14   1  239.40    6.71
  -2  14  -2    9.42    1.96
  -2  14  -2    7.31    1.06
  -2  14  -3    0.74    1.41
  -2  14  -3   -0.13    0.83
  -2  14  -4   47.09    2.60
  -2  14  -4   49.18    3.83
  -2  14  -5  229.52    8.42
  -2  14  -5  225.50    6.50
  -2 -14  -5  236.84    6.91
  -2  14  -6   58.04    4.32
  -2  14  -6   58.37    3.21
  -2 -14  -6   61.69    3.39
  -2  14  -7  432.95   12.52
  -2 -14  -7  445.72   10.54
  -2  14  -8   13.46    2.57
  -2 -14  -8    8.81    1.64
  -2  14  -9  249.07    9.34
  -2 -14  -9  246.19    7.50
  -2  14 -10   59.37    4.64
  -2 -14 -10   62.00    3.67
  -2  14 -11    8.67    2.42
  -2 -14 -11    5.97    1.53
  -2  14 -12   40.31    4.25
  -2 -14 -12   39.25    3.17
  -2  14 -13  121.12    6.79
   2 -16 -13   -2.52    1.96
   2 -16 -12    3.94    1.94
   2 -16 -11   42.66    3.84
   2 -16 -10    1.65    1.77
   2 -16  -9  402.66   11.79
   2 -16  -8    1.34    1.69
   2 -16  -7  142.84    6.49
   2 -16  -6    7.69    2.08
  -2  16   5   54.27    3.60
   2 -16  -5   52.04    3.99
  -2  16   4   10.97    2.06
  -2  16   3   96.88    5.03
  -2  16   2   21.61    2.60
  -2  16   1   78.71    4.64
  -2  16   0    1.79    2.01
  -2  16  -1   86.64    4.97
  -2  16  -2   21.26    2.74
  -2  16  -3    5.40    1.87
  -2  16  -4   64.89    4.70
  -2  16  -5  115.45    6.32
  -2  16  -6    2.68    2.03
  -2  16  -7  387.03   12.49
  -2  16  -8   18.89    3.07
  -2  18   2   35.63    3.47
  -2  18   1  160.76    7.24
  -2  18   0   11.40    2.29
  -2  18  -1   94.05    5.61
  -2  18  -2   14.11    2.44
  -2  18  -3    1.83    1.56
  -3   1  26   81.34    5.51
  -3   1  25    1.51    1.88
  -3  -1  25    5.82    2.32
  -3  -1  24   12.39    2.67
  -3   1  24   14.75    2.75
  -3   1  23   15.20    2.75
  -3  -1  23    9.17    2.35
   3   1 -22  161.80    5.59
  -3   1  22  167.83    7.04
  -3  -1  22  164.93    7.10
   3   1 -21   15.94    1.86
   3  -1 -21   20.83    1.69
  -3   1  21   17.60    2.59
  -3  -1  21   19.27    2.71
   3  -1 -20  573.49   10.97
   3   1 -20  556.50   11.98
  -3   1  20  577.80   13.93
  -3  -1  20  568.12   13.92
   3  -1 -19    5.70    1.03
   3   1 -19    4.54    1.27
  -3   1  19    6.24    1.90
  -3  -1  19    2.67    1.70
   3   1 -18   62.01    3.10
   3  -1 -18   65.18    2.68
  -3  -1  18   64.56    3.93
  -3   1  18   69.82    3.98
   3  -1 -17   35.11    1.94
   3   1 -17   33.37    2.25
  -3  -1  17   39.10    3.04
  -3   1  17   38.16    3.04
   3  -1 -16   47.00    2.14
   3   1 -16   46.50    2.55
  -3   1  16   51.23    3.22
  -3  -1  16   54.35    3.38
   3  -1 -15   76.83    2.66
  -3   1  15   79.50    3.83
  -3  -1  15   77.41    3.92
   3   1 -15   71.15    3.04
   3  -1 -14  378.72    7.40
  -3   1  14  390.54    9.17
  -3  -1  14  396.07    9.34
  -3  -1  13  118.52    4.46
  -3   1  13  121.04    4.40
   3  -1 -13  117.09    3.19
  -3   1  12   31.29    2.27
  -3  -1  12   32.17    2.35
  -3   1  11  150.91    4.58
  -3  -1  11  146.18    4.65
  -3  -1  10  664.36   12.37
  -3   1  10  665.41   12.10
   3   1  -9   51.10    2.59
  -3   1   9   53.05    2.41
  -3  -1   9   55.17    2.58
  -3  -1   8   33.88    2.08
   3   1  -8   34.77    2.05
  -3   1   8   37.40    1.94
   3   1  -7  366.25    7.32
  -3  -1   7  376.61    7.30
  -3   1   7  372.25    6.99
  -3   1   6   17.36    1.31
   3   1  -6   14.70    1.31
   3  -1  -6   18.02    1.86
   3   1  -5 2934.88   43.49
  -3   1   5 2995.50   42.97
   3  -1  -5 3028.56   44.07
   3  -1  -4 1146.25   18.68
  -3   1   4 1211.29   17.65
   3  -1  -4 1237.07   18.81
   3  -1  -3   33.62    1.73
   3  -1  -3   35.81    1.83
  -3   1   3   30.85    1.61
   3  -1  -2  852.32   13.68
  -3   1   2  887.21   13.70
   3   1  -2  863.69   13.72
  -3   1   2  864.23   13.61
   3  -1  -2  871.08   13.64
   3   1  -2  852.52   13.04
  -3   1   1  436.83    7.45
   3  -1  -1  412.20    7.40
   3   1  -1  424.88    7.42
  -3  -1   1  427.39    7.42
  -3   1   1  416.50    7.32
   3   1  -1  430.30    6.70
  -3  -1   1  418.57    6.67
   3  -1  -1  438.56    7.39
   3  -1   0  659.31   10.86
   3  -1   0  679.55   10.90
  -3  -1   0  676.02   10.80
  -3   1   0  682.25   10.92
   3   1   0  655.61   10.74
   3   1   0  679.61   10.04
   3  -1   0  660.02   10.78
  -3   1   0  655.47   10.75
  -3  -1   0  662.13   10.02
   3  -1   1  271.71    5.44
   3  -1   1  281.05    5.45
  -3   1  -1  284.75    5.50
  -3   1  -1  267.11    5.25
   3   1   1  278.23    5.25
  -3  -1  -1  279.73    5.30
  -3   1  -2 1537.12   23.21
   3  -1   2 1493.70   23.13
   3   1   2 1503.20   22.89
  -3   1  -2 1546.97   23.20
  -3  -1  -2 1529.95   22.96
  -3  -1  -3  280.94    5.47
  -3   1  -3  265.09    5.64
   3  -1   3  263.53    5.60
  -3   1  -4  517.49    9.38
   3  -1   4  509.22    9.27
  -3   1  -5   31.07    1.98
   3  -1   5   31.33    1.91
   3   1   5   33.22    1.80
  -3   1  -6  393.60    7.90
   3  -1   6  391.16    7.82
   3   1   6  378.17    7.47
   3  -1   6  390.83    8.15
   3   1   7  226.20    5.22
   3  -1   7  221.46    5.42
  -3   1  -7  223.86    5.52
   3  -1   7  226.38    5.95
  -3   1  -8  126.81    4.10
   3   1   8  129.00    3.76
   3  -1   8  130.56    3.96
   3  -1   8  130.06    4.51
   3   1   9    2.17    0.89
  -3   1  -9    2.10    1.27
   3  -1   9    4.22    1.16
   3  -1   9    1.25    1.45
   3  -1  10  352.03    7.76
  -3   1 -10  355.70    7.93
   3   1  10  349.21    7.43
   3  -1  10  346.91    8.51
  -3   1 -11    0.58    1.19
   3  -1  11    0.41    0.87
   3   1  11    0.12    0.80
   3  -1  11   -0.51    1.43
   3   1  12 1119.15   18.94
  -3   1 -12 1123.52   19.72
   3  -1  12 1157.71   20.82
   3  -1  12 1136.20   19.45
  -3   1 -13   13.69    1.71
   3   1  13   11.51    1.35
   3  -1  13   13.38    2.06
  -3   1 -14  397.91    9.38
   3  -1  14  411.71   10.48
   3   1  14  407.23    8.76
  -3   1 -15    4.58    1.38
   3  -1  15    4.53    1.79
  -3   1 -16    4.07    1.46
   3   1  16    4.01    1.93
   3  -1  16    2.25    1.64
  -3   1 -17   12.57    1.95
   3  -1  17   11.24    2.33
   3   1  17   16.94    2.68
  -3   1 -18  396.10   10.18
   3   1  18  423.32   11.68
   3  -1  18  407.23   11.53
  -3   1 -19   55.31    3.61
   3   1  19   59.27    4.36
   3  -1  19   55.97    4.25
  -3   1 -20  316.55    9.09
   3   1  20  328.10   10.63
   3  -1  20  330.43   10.63
  -3   1 -21   14.46    2.15
   3   1  21   11.01    2.60
   3  -1  21    8.56    2.25
   3  -1  22  157.38    7.53
   3   1  22  150.49    7.44
   3  -1  23    0.11    2.09
   3   1  23   -0.54    1.97
  -3   3  26  142.83    7.23
  -3   3  25   -0.88    1.92
   3   3 -24    7.62    1.85
  -3   3  24   11.16    2.53
   3   3 -23   50.22    3.52
  -3  -3  23   54.02    4.42
  -3   3  23   52.05    4.22
   3   3 -22  100.96    4.85
  -3   3  22  110.74    5.69
  -3  -3  22  106.05    5.83
   3   3 -21   46.81    3.26
  -3  -3  21   48.60    3.96
  -3   3  21   43.79    3.65
   3   3 -20  300.46    8.56
  -3  -3  20  288.00    9.34
  -3   3  20  294.28    9.16
   3   3 -19    1.38    1.17
  -3  -3  19    3.48    1.97
  -3   3  19    1.59    1.48
   3   3 -18  387.52    9.62
  -3   3  18  385.59   10.24
  -3  -3  18  394.08   10.67
  -3  -3  17   97.68    4.78
  -3   3  17   96.99    4.56
   3   3 -17   93.49    4.14
  -3   3  16   46.90    3.16
  -3  -3  16   43.07    3.19
  -3   3  15   51.47    3.12
  -3  -3  15   50.19    3.27
  -3  -3  14  330.85    8.44
   3   3 -14  359.81    9.01
  -3   3  14  339.46    8.19
   3   3 -13    6.25    1.60
   3   3 -12  438.45   10.10
   3   3 -11  184.62    5.61
   3  -3 -11  169.57    5.59
   3   3 -10  147.59    4.82
   3  -3 -10  153.45    5.08
   3   3  -9  100.94    3.74
   3  -3  -9   99.70    3.94
   3   3  -8    5.67    1.30
   3  -3  -8    5.66    1.53
   3   3  -7  332.82    7.34
   3  -3  -7  343.86    7.59
   3  -3  -6  414.51    7.69
   3   3  -6  431.80    8.17
   3  -3  -6  443.96    8.55
   3  -3  -5  212.42    4.65
   3  -3  -5  196.01    3.69
  -3   3   5  218.00    5.22
   3  -3  -5  214.24    5.34
   3  -3  -4  366.72    6.89
   3  -3  -4  364.14    6.22
   3  -3  -4  378.06    7.59
  -3   3   4  379.44    7.51
   3  -3  -3   18.82    1.36
  -3   3   3   23.48    1.50
  -3   3   3   17.29    1.03
   3  -3  -3   19.96    1.17
  -3   3   3   15.71    1.52
   3  -3  -3   22.88    1.91
   3  -3  -2   49.68    1.93
  -3   3   2   54.10    2.04
   3  -3  -2   50.90    1.86
  -3   3   2   58.36    1.95
   3  -3  -2   53.40    2.44
  -3   3   2   50.79    2.23
   3  -3  -1 2205.72   32.90
   3  -3  -1 2223.85   32.88
  -3   3   1 2267.81   32.92
  -3   3   1 2249.09   32.86
   3   3  -1 2179.80   32.72
   3  -3  -1 2221.05   33.46
  -3   3   1 2251.63   33.39
  -3   3   0    2.48    1.07
   3  -3   0    1.70    0.98
  -3   3   0    1.82    1.08
   3  -3   0    0.27    1.00
   3   3   0    1.53    0.87
  -3  -3   0    0.97    0.89
  -3   3   0    0.25    0.67
   3  -3   0    1.69    1.43
  -3   3   0    1.25    1.03
  -3   3  -1   15.47    1.46
   3  -3   1   16.94    1.51
  -3   3  -1   20.40    1.69
  -3  -3  -1   16.10    1.16
   3   3   1   13.69    1.07
  -3   3  -1   22.45    1.28
   3  -3   1   16.26    1.86
  -3   3  -1   18.62    1.59
   3  -3   2  952.50   15.52
   3   3   2  937.72   14.57
  -3   3  -2  954.02   15.57
  -3   3  -2  924.90   14.91
  -3   3  -2  942.72   15.58
  -3  -3  -2  962.47   14.62
  -3   3  -3    0.53    1.26
   3  -3   3    1.22    1.11
  -3   3  -3   -0.52    0.98
   3  -3   3   -0.34    1.18
  -3  -3  -3    1.36    0.90
  -3  -3  -4  803.56   12.90
   3  -3   4  805.55   13.86
  -3   3  -4  814.13   13.97
   3  -3   4  802.70   13.67
  -3   3  -4  792.88   13.58
   3  -3   5  259.90    6.05
  -3   3  -5  263.44    6.20
  -3   3  -5  249.97    5.92
   3  -3   5  267.91    6.09
  -3   3  -6  858.67   15.10
   3  -3   6  844.36   14.93
   3  -3   6  866.06   15.08
  -3   3  -6  862.85   15.09
  -3   3  -7   94.69    3.63
   3  -3   7   97.16    3.72
   3  -3   7   97.77    3.53
  -3   3  -8   24.45    2.03
   3   3   8   25.62    1.60
   3  -3   8   25.41    2.17
   3  -3   8   24.97    1.92
   3   3   9  211.90    5.07
  -3   3  -9  219.70    6.08
   3  -3   9  221.62    6.30
   3   3  10  387.29    7.77
  -3   3 -10  400.46    9.06
   3  -3  10  384.32    9.28
  -3   3 -11  513.31   11.13
   3   3  11  516.72    9.75
   3  -3  11  525.85   11.65
   3   3  12  609.08   11.28
  -3   3 -12  625.10   12.91
   3  -3  12  629.46   13.50
  -3   3 -13   12.37    1.90
   3   3  13   15.71    1.41
   3  -3  13   16.70    2.42
  -3   3 -14  380.81    9.64
   3   3  14  382.15    8.02
   3  -3  14  387.63   10.24
  -3   3 -15  146.56    5.58
   3   3  15  149.62    4.39
   3  -3  15  149.18    6.06
  -3   3 -16   79.18    4.20
   3  -3  16   86.21    4.77
   3   3  16   82.54    3.21
  -3   3 -17    4.44    1.52
   3  -3  17    2.45    1.80
  -3   3 -18  185.22    6.81
   3  -3  18  192.10    7.59
  -3   3 -19    3.64    1.68
   3  -3  19   -0.83    2.00
  -3   3 -20  236.73    8.27
   3  -3  20  247.44    9.18
   3   3  20  270.02    9.65
  -3   3 -21    7.36    1.98
   3   3  21   14.00    2.87
   3  -3  21   13.74    2.83
  -3   3 -22  112.68    5.82
   3   3  22  131.78    6.90
   3  -3  22  127.29    6.83
  -3   3 -23    5.43    2.04
   3  -3  23    7.57    2.59
   3   3  23    8.31    2.57
  -3   3 -24   -0.96    1.66
   3   5 -25    2.20    1.74
  -3   5  25    3.55    2.76
   3   5 -24   30.81    3.32
  -3   5  24   34.40    3.63
   3   5 -23  229.02    8.37
  -3   5  23  242.46    8.89
   3  -5 -23  216.76    9.15
   3   5 -22  106.71    5.46
  -3   5  22  124.00    6.16
   3  -5 -22  117.32    6.51
   3   5 -21   95.32    5.06
  -3   5  21  104.92    5.45
   3  -5 -21  104.06    5.91
   3   5 -20  251.07    8.34
  -3   5  20  276.43    8.88
   3  -5 -20  258.49    9.31
   3   5 -19   48.61    3.45
  -3   5  19   51.63    3.75
   3  -5 -19   51.70    4.00
   3  -5 -18  166.10    6.88
   3   5 -18  161.53    6.19
   3   5 -17  160.78    6.00
   3  -5 -17  156.78    6.57
   3  -5 -16    0.61    1.64
   3  -5 -15  323.39    9.33
   3  -5 -14  633.80   14.06
   3   5 -13   28.89    2.55
   3  -5 -13   25.39    2.60
   3   5 -12 1414.37   24.73
   3  -5 -12 1383.85   24.65
   3   5 -11   38.03    2.69
   3  -5 -11   39.11    2.79
   3   5 -10  425.01    9.85
   3  -5 -10  433.49    9.90
   3   5  -9  220.66    6.36
   3  -5  -9  224.05    6.35
   3  -5  -8   22.27    1.57
   3   5  -8   22.53    2.02
   3  -5  -8   23.01    2.15
   3  -5  -7  199.63    4.71
   3  -5  -7  212.07    5.84
   3  -5  -6  727.04   12.46
  -3   5   6  745.61   11.61
  -3   5   6  772.94   13.87
   3  -5  -6  788.39   14.02
   3  -5  -5   94.66    2.77
  -3   5   5   95.33    2.46
   3  -5  -5   93.76    3.72
  -3   5   5  107.18    3.71
  -3   5   4  219.80    4.64
   3  -5  -4  211.40    4.58
  -3   5   4  221.96    4.51
   3  -5  -4  207.99    5.68
  -3   5   4  227.29    5.62
  -3   5   3  189.33    4.16
   3  -5  -3  179.83    4.08
  -3   5   3  192.97    4.21
  -3   5   3  181.42    4.98
   3  -5  -3  190.85    5.11
   3  -5  -2  821.60   13.39
  -3   5   2  848.37   13.67
  -3   5   2  835.79   13.36
   3  -5  -2  875.95   14.66
   3   5  -2  814.45   12.75
  -3   5   2  823.36   14.47
  -3   5   1  942.62   15.19
  -3   5   1  934.45   14.77
   3   5  -1  927.90   14.57
   3   5  -1  908.60   13.80
   3  -5  -1  940.30   15.89
  -3   5   1  914.83   15.81
  -3   5   0   89.19    2.98
   3   5   0   88.83    2.41
  -3   5   0   93.55    2.84
   3  -5   0   92.75    3.44
   3   5   0   88.62    1.93
  -3   5   0   99.62    3.38
  -3   5  -1  172.37    4.47
  -3   5  -1  174.57    4.21
   3   5   1  158.64    3.33
  -3   5  -1  168.97    4.63
  -3  -5  -1  158.49    3.03
   3  -5   1  166.64    4.72
  -3   5  -2 1478.99   23.15
   3   5   2 1428.46   21.32
  -3  -5  -2 1420.31   21.34
  -3   5  -2 1472.18   23.36
  -3   5  -2 1463.89   22.65
  -3  -5  -2 1444.17   21.21
  -3   5  -3  210.22    5.39
  -3  -5  -3  201.06    3.89
  -3   5  -3  199.41    4.99
  -3   5  -3  207.66    5.43
  -3  -5  -3  199.63    4.00
  -3   5  -4 1971.24   30.41
  -3  -5  -4 1904.98   28.23
  -3   5  -4 1947.56   30.42
  -3   5  -4 1911.13   29.95
  -3  -5  -4 1917.54   28.56
  -3   5  -5    4.24    1.48
  -3  -5  -5    0.69    0.66
  -3   5  -5    0.94    1.00
  -3  -5  -5    0.94    0.86
  -3   5  -6 1236.24   20.88
  -3  -5  -6 1212.17   18.82
  -3   5  -6 1212.80   20.56
  -3   5  -7   89.83    3.80
  -3  -5  -7   82.66    2.64
  -3   5  -7   82.91    3.55
  -3   5  -8   58.87    3.24
   3  -5   8   54.37    3.11
  -3   5  -8   55.00    3.02
  -3   5  -9  345.11    8.61
  -3   5  -9  353.35    8.63
   3  -5   9  336.33    8.55
   3   5  10  557.45   10.39
  -3   5 -10  570.99   12.35
   3  -5  10  583.03   12.50
  -3   5 -10  599.80   12.63
   3   5  11  259.08    5.83
  -3   5 -11  260.53    7.50
   3  -5  11  260.30    7.65
   3   5  12  506.30    9.49
  -3   5 -12  497.84   11.63
   3  -5  12  500.12   11.90
  -3   5 -13    6.76    1.73
   3   5  13    9.47    1.15
   3  -5  13    6.23    1.86
   3   5  14  134.97    3.86
  -3   5 -14  120.04    5.34
   3  -5  14  123.28    5.60
   3   5  15  446.27    8.65
  -3   5 -15  428.94   11.19
   3  -5  15  428.60   11.61
   3   5  16  107.28    3.45
  -3   5 -16  109.49    5.25
   3  -5  16  112.01    5.60
  -3   5 -17   21.48    2.62
   3  -5  17   22.08    2.92
  -3   5 -18    4.05    1.75
   3  -5  18    3.64    2.01
  -3   5 -19    3.17    1.72
   3  -5  19    0.22    2.02
  -3   5 -20  109.52    5.75
   3  -5  20  110.34    6.22
  -3   5 -21    3.59    1.84
   3  -5  21    1.90    1.95
  -3   5 -22   55.13    4.44
   3  -5  22   65.82    5.10
  -3   5 -23    3.95    1.86
  -3   5 -24    0.49    2.10
  -3   5 -25   14.40    2.84
   3   7 -25   37.54    3.93
  -3   7  25   34.85    3.84
   3   7 -24   11.21    2.55
  -3   7  24   12.21    2.68
   3   7 -23   56.64    4.50
  -3   7  23   61.50    4.57
   3  -7 -23   51.28    4.65
   3   7 -22  207.87    8.31
  -3   7  22  206.72    8.27
   3  -7 -22  207.94    8.87
   3   7 -21    6.62    2.04
   3  -7 -21    5.38    2.23
   3   7 -20  188.34    7.59
   3  -7 -20  205.67    8.35
   3   7 -19   20.42    2.87
   3  -7 -19   25.34    3.17
   3   7 -18  180.08    7.06
   3  -7 -18  189.32    7.62
   3  -7 -17   28.73    3.10
   3  -7 -16   82.24    4.70
   3  -7 -15   90.36    4.86
   3  -7 -14   76.86    4.35
   3  -7 -13  124.53    4.24
   3  -7 -13  127.55    5.44
   3  -7 -12  497.73   10.11
   3  -7 -12  526.82   12.12
   3  -7 -11   52.69    2.45
   3  -7 -11   54.82    3.39
   3  -7 -10  366.87    7.68
   3   7 -10  404.88    9.93
   3  -7 -10  387.87    9.62
   3  -7  -9  207.99    4.99
   3   7  -9  217.80    6.70
   3  -7  -9  219.30    6.59
   3  -7  -8   51.42    2.08
  -3   7   8   55.94    1.63
   3  -7  -8   54.30    3.22
   3  -7  -7  636.96   11.06
  -3   7   7  656.76   10.63
   3  -7  -7  645.67   13.15
  -3   7   7  678.73   13.20
   3  -7  -6  289.04    5.82
  -3   7   6  303.77    5.85
   3  -7  -6  307.39    7.68
  -3   7   6  305.01    7.62
   3  -7  -5  253.35    5.23
  -3   7   5  262.94    5.48
  -3   7   5  281.46    6.97
   3  -7  -5  258.86    6.86
  -3   7   4  948.93   14.94
   3  -7  -4  916.94   14.90
  -3   7   4  947.69   15.47
   3  -7  -4  945.83   16.96
  -3   7   4  975.88   17.06
  -3   7   3  176.74    4.45
  -3   7   3  175.94    3.94
   3   7  -3  166.92    4.04
   3  -7  -3  166.97    5.19
  -3   7   3  182.46    5.27
  -3   7   2 1050.92   17.11
  -3   7   2 1032.79   16.26
   3  -7  -2 1025.16   18.07
   3   7  -2 1002.03   16.08
  -3   7   2 1032.77   18.00
  -3   7   1  417.41    8.34
   3   7  -1  395.87    7.27
  -3   7   1  401.52    7.52
   3  -7  -1  415.14    8.95
  -3   7   1  415.90    8.93
   3   7  -1  390.96    7.09
  -3   7   0   66.01    2.81
   3   7   0   60.34    1.94
  -3   7   0   60.08    2.31
   3  -7   0   61.61    3.02
   3   7   0   64.36    2.01
  -3   7   0   64.23    2.98
  -3   7  -1  291.26    6.19
  -3   7  -1  290.41    6.80
   3   7   1  276.52    4.96
  -3  -7  -1  276.37    5.28
  -3   7  -1  285.30    7.01
   3   7   1  274.26    5.25
  -3   7  -2  258.61    5.90
  -3   7  -2  249.24    6.39
   3   7   2  236.93    4.20
  -3   7  -2  254.39    6.51
  -3  -7  -2  242.81    4.86
  -3   7  -3  258.09    6.69
  -3   7  -3  248.84    6.29
  -3   7  -3  266.63    6.79
  -3  -7  -3  247.00    5.09
  -3   7  -4 1231.96   21.38
  -3   7  -4 1255.54   21.48
  -3   7  -4 1245.03   21.10
  -3  -7  -4 1235.12   19.42
  -3   7  -5   33.82    2.52
  -3  -7  -5   30.11    1.06
  -3   7  -5   34.18    2.35
  -3   7  -5   30.14    2.29
  -3  -7  -5   32.22    1.72
  -3   7  -6  369.96    8.94
  -3  -7  -6  356.86    6.21
  -3   7  -6  376.37    8.92
  -3   7  -6  379.73    8.85
  -3  -7  -6  373.79    7.51
  -3   7  -7  271.72    7.46
  -3  -7  -7  257.68    4.98
  -3   7  -7  276.87    7.41
  -3  -7  -7  263.46    6.13
  -3  -7  -8   88.95    2.57
  -3   7  -8   88.29    4.13
  -3   7  -8   92.39    4.09
  -3  -7  -8   87.07    3.30
  -3   7  -9   72.72    3.85
  -3  -7  -9   73.83    2.46
  -3   7  -9   74.58    3.81
  -3  -7  -9   67.43    3.06
  -3   7 -10  282.64    8.20
  -3  -7 -10  279.82    6.09
  -3   7 -10  290.64    8.22
  -3  -7 -10  284.85    7.25
  -3   7 -11   41.87    3.14
  -3  -7 -11   43.36    2.81
  -3   7 -12   24.14    2.66
   3   7  12   19.95    1.50
  -3  -7 -12   19.57    2.08
   3   7  13   46.34    2.15
  -3   7 -13   44.96    3.49
  -3  -7 -13   46.61    3.10
  -3   7 -14   24.89    2.84
   3   7  14   25.95    1.61
  -3  -7 -14   24.91    2.46
   3   7  15   88.23    2.86
  -3   7 -15   80.64    4.70
  -3  -7 -15   76.69    4.20
  -3   7 -16    3.22    1.76
  -3   7 -17  129.78    6.27
  -3   7 -18   46.59    3.98
  -3   7 -19   66.24    4.98
  -3   7 -20  125.60    6.54
  -3   7 -21    3.79    2.11
  -3  -7 -21    2.75    2.02
  -3   7 -22  123.55    6.75
  -3  -7 -22  102.51    6.17
  -3   7 -23   37.48    4.05
  -3  -7 -23   41.00    4.11
  -3   9  24    5.44    2.43
   3   9 -23   32.45    3.92
   3   9 -22   48.12    4.37
   3  -9 -22   55.11    4.77
   3   9 -21    5.34    2.06
   3  -9 -21    5.34    2.41
   3   9 -20  134.79    6.83
   3  -9 -20  148.93    7.30
   3   9 -19   31.48    3.32
   3  -9 -19   42.04    3.97
   3   9 -18   78.12    4.95
   3  -9 -18   76.74    5.13
   3  -9 -17   96.16    5.48
   3  -9 -16   16.19    2.64
   3  -9 -15  232.42    6.24
   3  -9 -15  240.37    8.36
   3  -9 -14  184.31    5.16
   3  -9 -14  184.34    7.10
   3  -9 -13  130.49    4.02
   3  -9 -13  122.57    5.61
   3  -9 -12  231.18    5.55
   3  -9 -12  230.61    7.65
   3  -9 -11  116.77    3.46
   3  -9 -11  122.08    5.25
   3  -9 -10  181.67    4.38
   3  -9 -10  191.91    6.61
   3  -9  -9  517.73    9.22
  -3   9   9  528.42    8.93
   3  -9  -9  557.08   12.42
   3  -9  -8    1.98    0.66
  -3   9   8    1.83    0.73
   3  -9  -8    1.05    1.38
  -3   9   8    1.08    1.06
   3  -9  -7  421.01    7.50
  -3   9   7  426.19    8.12
   3  -9  -7  431.12   10.31
  -3   9   7  445.24   10.32
  -3   9   6  251.33    5.69
   3   9  -6  234.14    6.08
   3  -9  -6  249.79    7.19
  -3   9   6  262.15    7.23
  -3   9   5   10.87    1.25
   3   9  -5   10.16    1.27
  -3   9   5    9.54    1.62
   3  -9  -5   10.48    1.86
  -3   9   4  475.54    9.41
   3  -9  -4  473.11   10.68
   3   9  -4  454.12    9.14
  -3   9   4  491.79   10.77
  -3   9   3   35.27    2.18
  -3   9   3   37.50    1.65
   3   9  -3   31.94    1.81
   3  -9  -3   30.41    2.37
  -3   9   3   29.98    2.31
  -3   9   2  297.84    7.05
  -3   9   2  283.51    5.79
   3  -9  -2  289.22    7.64
   3   9  -2  275.91    6.06
  -3   9   2  301.08    7.69
  -3   9   1   51.75    2.72
  -3   9   1   53.57    2.11
   3   9  -1   50.73    1.92
   3  -9  -1   45.10    2.86
  -3   9   1   53.67    3.01
   3   9  -1   50.68    2.11
  -3   9   0   23.41    1.90
  -3   9   0   24.03    1.50
   3   9   0   24.79    1.23
   3  -9   0   24.16    2.15
   3   9   0   25.47    1.49
  -3   9   0   28.76    2.24
   3   9   1  855.53   13.08
  -3   9  -1  891.22   16.27
  -3   9  -1  882.03   14.94
  -3   9  -1  895.75   16.59
   3   9   1  870.84   14.33
  -3   9  -2  199.28    5.26
  -3   9  -2  211.91    6.22
  -3   9  -2  207.95    6.24
  -3  -9  -2  200.40    4.71
   3   9   2  199.88    4.64
  -3   9  -3  345.56    7.90
  -3   9  -3  359.57    8.85
  -3  -9  -3  358.69    7.19
  -3   9  -3  374.71    9.06
  -3   9  -4  593.39   12.72
  -3  -9  -4  591.90   10.83
  -3   9  -4  594.16   12.50
  -3   9  -4  623.69   12.96
  -3   9  -5   62.78    3.56
  -3   9  -5   62.17    3.37
  -3   9  -5   64.00    3.47
  -3  -9  -5   61.86    2.54
  -3   9  -6  322.08    8.77
  -3   9  -6  326.93    8.66
  -3   9  -6  326.31    8.60
  -3  -9  -6  315.17    7.05
  -3   9  -7  642.49   14.16
  -3   9  -7  670.84   14.05
  -3   9  -7  668.39   14.07
  -3  -9  -7  630.99   12.16
  -3   9  -8   30.20    2.87
  -3  -9  -8   26.77    1.98
  -3  -9  -9  234.75    4.16
  -3   9  -9  238.42    7.79
  -3  -9  -9  241.40    6.44
  -3  -9 -10   54.08    1.73
  -3   9 -10   50.66    3.67
  -3  -9 -10   48.88    2.90
  -3  -9 -11   72.79    2.32
  -3   9 -11   70.76    4.31
  -3  -9 -11   72.54    3.65
  -3   9 -12  426.13   11.70
  -3  -9 -12  454.09    8.40
  -3  -9 -12  427.46   10.41
  -3  -9 -13   68.52    2.64
   3   9  13   65.66    2.63
  -3   9 -13   71.45    4.49
  -3  -9 -13   66.23    3.77
  -3   9 -14  281.43    9.48
  -3  -9 -14  282.65    6.59
  -3  -9 -14  296.98    8.57
  -3   9 -15   99.58    5.58
  -3  -9 -15  103.28    3.75
  -3  -9 -15  101.38    4.97
  -3   9 -16    8.09    2.37
  -3  -9 -16    2.75    1.03
  -3  -9 -16    6.76    1.88
  -3   9 -17  105.81    5.98
  -3  -9 -17  101.55    5.34
  -3   9 -18  115.29    6.33
  -3  -9 -18  109.90    5.92
  -3   9 -19  112.11    6.40
  -3  -9 -19  101.73    5.70
  -3   9 -20  151.97    7.54
  -3  -9 -20  131.70    6.69
  -3   9 -21    3.25    2.21
  -3  -9 -21    2.95    1.82
  -3  -9 -22  103.04    6.19
   3 -11 -20  126.26    7.06
   3  11 -19    0.26    2.12
   3 -11 -19    2.69    2.00
   3  11 -18    8.81    2.52
   3 -11 -18    5.39    2.15
   3  11 -17   73.07    5.03
   3 -11 -17   73.41    5.12
   3 -11 -16   48.65    3.99
   3 -11 -15  289.35    9.68
   3 -11 -14  134.92    6.27
   3 -11 -13  175.58    7.09
   3 -11 -12  196.11    7.40
   3 -11 -11   99.45    2.41
   3 -11 -11   95.06    4.95
  -3  11  10   26.90    1.45
   3 -11 -10   23.92    2.77
  -3  11   9  131.23    3.67
   3  11  -9  127.17    4.88
   3 -11  -9  126.44    5.53
  -3  11   8   53.34    2.41
   3  11  -8   47.49    2.92
   3 -11  -8   54.09    3.67
  -3  11   7   77.02    3.06
   3 -11  -7   77.63    4.19
   3  11  -7   70.83    3.39
  -3  11   6    1.28    1.02
   3  11  -6    0.99    1.01
   3 -11  -6    1.60    1.55
  -3  11   5   11.00    1.46
  -3  11   5   13.51    1.97
   3 -11  -5   12.12    1.87
   3  11  -5   12.00    1.52
  -3  11   4  325.87    7.89
   3  11  -4  319.72    7.53
   3 -11  -4  324.21    8.94
  -3  11   4  350.47    9.06
  -3  11   3   21.49    2.02
  -3  11   3   19.16    1.15
   3 -11  -3   21.09    2.26
   3  11  -3   16.50    1.50
  -3  11   3   17.66    1.98
  -3  11   2  409.87    9.56
   3  11  -2  408.70    7.93
  -3  11   2  412.04    7.67
   3 -11  -2  405.94   10.21
  -3  11   2  428.56   10.31
   3  11  -2  407.73    8.55
  -3  11   1   20.61    2.07
   3  11  -1   18.79    1.22
  -3  11   1   20.58    1.38
   3 -11  -1   18.94    2.23
  -3  11   1   21.58    2.10
   3  11  -1   16.42    1.41
   3  11   0   21.88    1.03
  -3  11   0   24.11    1.57
  -3  11   0   25.63    2.21
   3  11   0   22.25    1.62
  -3  11   0   21.23    2.20
  -3  11  -1   39.35    2.08
  -3  11  -1   42.43    2.83
   3  11   1   37.17    2.03
  -3  11  -1   38.63    2.91
  -3  11  -2    0.93    0.85
  -3  11  -2    4.55    1.44
  -3  11  -2    0.38    0.98
   3  11   2    0.79    0.81
  -3  11  -3  132.61    4.47
  -3  11  -3  137.91    5.46
  -3 -11  -3  149.07    4.32
  -3  11  -3  148.32    5.58
  -3  11  -4   15.59    2.19
  -3  11  -4   14.15    1.65
  -3 -11  -4   12.92    1.39
  -3  11  -5   64.78    3.89
  -3 -11  -5   65.18    2.85
  -3  11  -6  140.00    5.93
  -3 -11  -6  149.70    4.60
  -3  11  -7  311.43    9.42
  -3 -11  -7  325.96    7.71
  -3  11  -8   95.42    5.11
  -3 -11  -8  101.57    3.94
  -3  11  -9  737.69   16.78
  -3 -11  -9  746.49   14.47
  -3  11 -10   -1.76    1.67
  -3 -11 -10    0.98    1.22
  -3  11 -11    8.00    2.08
  -3 -11 -11    7.27    1.62
  -3  11 -12  188.65    7.68
  -3 -11 -12  181.38    6.26
  -3  11 -13   11.81    2.61
  -3 -11 -13    7.83    1.66
  -3  11 -14  177.52    7.67
  -3 -11 -14  165.07    6.33
  -3  11 -15  132.89    6.81
  -3 -11 -15  127.04    5.69
  -3  11 -16   12.43    2.72
  -3 -11 -16    3.91    1.66
  -3  11 -17  223.73    9.23
  -3 -11 -17  220.51    8.14
  -3  11 -18  101.94    6.41
  -3 -11 -18  110.41    5.91
  -3 -11 -19  113.42    6.11
  -3 -11 -20   58.78    4.66
   3 -13 -18   -0.85    1.86
   3 -13 -17  191.34    8.45
   3 -13 -16   38.85    3.92
   3 -13 -15  148.47    7.07
   3 -13 -14   16.66    2.82
   3 -13 -13   80.94    4.97
   3 -13 -12   10.17    2.30
   3 -13 -11    9.72    2.08
   3 -13 -10    4.85    1.76
  -3  13   9  128.16    4.10
   3 -13  -9  120.85    5.75
  -3  13   8   40.30    2.37
   3  13  -8   34.88    2.68
   3 -13  -8   35.13    3.22
  -3  13   7  701.50   13.39
   3 -13  -7  678.32   15.49
   3  13  -7  648.03   13.80
  -3  13   6    3.74    1.29
   3  13  -6    3.85    1.28
   3 -13  -6    2.12    1.65
  -3  13   5   15.94    1.87
   3 -13  -5   15.08    2.38
   3  13  -5   15.96    1.81
  -3  13   4  558.33   12.17
   3 -13  -4  523.82   13.00
   3  13  -4  554.92   11.46
  -3  13   3  144.10    5.39
   3  13  -3  139.11    4.01
   3 -13  -3  137.99    5.87
   3  13  -3  131.56    4.53
  -3  13   2  148.06    5.61
   3  13  -2  145.17    3.75
  -3  13   2  145.05    3.40
   3 -13  -2  147.46    6.03
   3  13  -2  146.85    4.71
   3  13  -1  585.55    9.74
  -3  13   1  614.92   10.60
  -3  13   1  633.63   13.71
   3  13  -1  604.54   11.84
  -3  13   0    1.14    0.67
  -3  13   0    3.66    1.43
   3  13   0    0.19    0.95
  -3  13  -1  334.73    7.33
  -3  13  -1  325.90    9.38
   3  13   1  332.87    7.65
  -3  13  -2   72.04    3.05
  -3  13  -2   74.96    4.27
   3  13   2   72.10    3.07
  -3  13  -3  114.06    4.11
  -3  13  -3  113.63    5.33
  -3  13  -4   65.92    4.21
  -3  13  -4   61.06    3.11
  -3  13  -5   47.28    3.69
  -3  13  -5   51.55    3.05
  -3 -13  -5   53.79    2.80
  -3  13  -6   25.31    3.07
  -3  13  -6   27.43    2.45
  -3 -13  -6   26.57    2.08
  -3  13  -7  102.39    5.55
  -3 -13  -7  105.27    4.14
  -3  13  -8  112.95    5.95
  -3 -13  -8  111.86    4.42
  -3  13  -9  265.72    9.46
  -3 -13  -9  277.17    7.58
  -3  13 -10    6.79    2.26
  -3 -13 -10    6.09    1.53
  -3  13 -11   59.62    4.62
  -3 -13 -11   59.39    3.45
  -3  13 -12  151.35    7.33
  -3 -13 -12  154.44    5.85
  -3  13 -13   30.04    3.67
  -3 -13 -13   21.51    2.35
  -3  13 -14  135.34    7.10
   3 -15 -16    2.78    2.03
   3 -15 -15   69.22    5.08
   3 -15 -14   11.31    2.57
   3 -15 -13   53.00    4.38
   3 -15 -12    2.60    2.11
   3 -15 -11    7.44    2.40
   3 -15 -10    3.89    1.67
   3 -15  -9  121.25    6.14
   3 -15  -8   17.66    2.76
   3 -15  -7  410.69   11.80
  -3  15   6   19.36    2.27
   3 -15  -6   13.92    2.20
  -3  15   5   46.11    3.24
   3 -15  -5   41.70    3.56
  -3  15   4   51.73    3.50
   3 -15  -4   45.35    3.70
  -3  15   3   18.86    2.34
  -3  15   2   21.83    2.64
  -3  15   1  387.03   10.74
  -3  15   0    6.41    1.84
  -3  15  -1  199.67    7.53
  -3  15  -2   -0.08    1.60
  -3  15  -3   14.16    2.35
  -3  15  -4   37.56    3.65
  -3  15  -5   61.87    3.32
  -3  15  -5   72.47    4.92
  -3  15  -6   39.63    3.81
  -3  15  -6   35.54    2.65
  -3  15  -7  146.40    5.69
  -3  15  -7  162.99    7.45
  -3  15  -8   13.85    2.72
  -3  15  -8   11.68    1.94
  -3  15  -9  252.65    9.74
  -3  15  -9  240.03    8.03
  -3  15 -10   19.98    3.24
   3 -17 -11   24.35    3.24
   3 -17 -10   -0.26    1.81
   3 -17  -9  369.24   11.72
   3 -17  -8   16.60    2.84
   3 -17  -7  282.41    9.93
   3 -17  -6   14.59    2.61
  -3  17   3   82.27    4.81
  -3  17   2    8.63    2.01
  -3  17   1  321.23   10.33
  -3  17   0    2.08    1.56
  -3  17  -1  214.63    8.44
  -3  17  -2    2.78    1.46
  -3  17  -3   12.49    2.36
  -3  17  -4   20.42    2.94
  -3  17  -5   34.33    3.80
  -4   0  26  230.33    9.36
  -4   0  25    1.87    1.92
  -4   0  24    4.48    2.08
  -4   0  23    3.20    1.98
  -4   0  22   52.41    3.99
   4   0 -21    0.37    0.86
  -4   0  21   -0.62    1.63
   4   0 -20   33.33    2.21
  -4   0  20   35.51    3.17
   4   0 -19    2.18    1.04
  -4   0  19    0.39    1.53
   4   0 -18  224.82    5.89
  -4   0  18  231.78    7.40
   4   0 -17    1.04    0.87
  -4   0  17   -2.15    1.64
  -4   0  16  319.49    8.45
   4   0 -16  306.35    6.99
  -4   0  15    0.04    1.33
  -4   0  14   87.02    3.81
  -4   0  13   -0.50    1.21
  -4   0  12 2042.80   32.30
  -4   0  11    0.28    1.06
  -4   0  10  718.92   12.83
  -4   0   9   -0.09    1.01
  -4   0   8   44.66    2.05
  -4   0   7    0.47    0.90
   4   0  -7    0.42    0.90
   4   0  -6 1867.65   28.03
   4   0  -6 1902.38   28.86
   4   0  -5    0.35    0.75
   4   0  -5    0.51    1.27
   4   0  -4 4348.43   62.84
   4   0  -4 4287.68   61.49
   4   0  -4 4351.79   62.42
  -4   0   3    1.65    1.37
   4   0  -3    0.89    1.15
   4   0  -3    1.79    1.09
  -4   0   3    1.92    0.92
  -4   0   2 9999.00  141.20
   4   0  -2 9934.96  141.18
  -4   0   2 9878.10  140.65
   4   0  -2 9946.52  140.62
   4   0  -1    6.21    1.50
  -4   0   1    0.46    1.27
   4   0  -1    0.47    0.93
  -4   0   1   -0.22    0.79
   4   0   0 2227.74   32.34
  -4   0   0 2177.70   32.30
   4   0   0 2212.41   32.89
  -4   0   0 2217.62   32.95
  -4   0  -1    1.09    0.85
  -4   0  -1    1.09    1.24
   4   0   1    0.88    1.19
  -4   0  -2  137.46    3.82
   4   0   2  133.04    3.69
   4   0   3   -1.08    1.18
  -4   0  -3    0.76    1.25
  -4   0  -4 1281.32   20.41
   4   0   4 1269.00   20.35
   4   0   5    0.05    1.10
   4   0   6  674.36   12.14
   4   0   7    0.00    0.96
   4   0   8 1359.08   22.21
   4   0   9   -0.37    0.93
   4   0  10   10.96    1.45
  -4   0 -11   -0.23    1.16
   4   0  11   -0.96    0.93
   4   0  12   46.52    2.59
   4   0  13   -0.42    0.96
   4   0  13   -0.72    1.67
   4   0  14  412.03   10.77
   4   0  14  416.79    9.39
   4   0  15   -0.98    1.11
   4   0  15    0.39    1.62
   4   0  16  589.89   14.12
   4   0  17   -0.70    1.67
   4   0  18    4.69    2.16
   4   0  19   -1.52    2.06
   4   0  20  370.08   11.66
   4   0  21    1.42    2.14
   4   0  22  391.09   12.51
   4   0  23   -1.32    2.04
  -4   2  26  136.10    6.91
  -4   2  25    3.27    1.79
  -4  -2  24   24.79    3.26
  -4   2  24   22.92    3.11
   4   2 -23    1.27    1.25
  -4   2  23    0.82    1.74
  -4  -2  23   -0.87    3.00
   4   2 -22    3.86    1.25
  -4  -2  22    6.93    2.10
  -4   2  22    8.08    2.16
   4   2 -21    0.15    1.05
  -4   2  21    1.82    1.72
  -4  -2  21   -0.30    1.68
   4  -2 -20  127.56    3.51
   4   2 -20  129.67    4.98
  -4  -2  20  127.41    5.88
  -4   2  20  128.35    5.68
   4  -2 -19    6.94    0.92
   4   2 -19    8.54    1.68
  -4   2  19    4.83    1.75
  -4  -2  19    6.69    1.94
   4  -2 -18  552.07    9.71
  -4   2  18  554.74   12.69
  -4  -2  18  545.00   12.96
   4   2 -18  537.91   11.69
   4  -2 -17  291.28    5.90
  -4  -2  17  306.05    8.67
  -4   2  17  297.82    8.28
   4  -2 -16  165.35    3.89
  -4  -2  16  172.39    6.08
  -4   2  16  169.74    5.79
   4  -2 -15   59.11    2.06
  -4   2  15   64.14    3.37
  -4  -2  15   67.72    3.65
   4  -2 -14    5.53    0.71
  -4   2  14    7.03    1.44
  -4  -2  14    8.21    1.61
  -4  -2  13   21.32    2.07
  -4   2  13   18.16    1.85
   4   2 -13   23.22    2.22
  -4  -2  12  726.91   14.01
   4   2 -12  759.10   14.39
  -4   2  12  727.12   13.55
   4   2 -11  391.87    8.75
  -4   2  11  381.55    8.08
   4  -2 -11  362.99    8.87
  -4   2  10 1193.49   19.54
   4   2 -10 1215.21   20.37
   4  -2 -10 1195.64   20.81
  -4   2   9   18.11    1.51
   4   2  -9   21.63    1.81
   4  -2  -9   21.07    2.07
  -4   2   8  412.23    7.64
   4   2  -8  408.99    8.35
   4  -2  -8  410.87    8.84
  -4   2   7    0.13    0.85
   4   2  -7    0.99    1.03
   4  -2  -7    1.37    1.42
   4  -2  -6  261.99    6.01
  -4   2   6  276.96    5.06
   4   2  -6  271.35    5.82
   4  -2  -6  276.46    6.40
   4  -2  -5    1.55    1.11
  -4   2   5    0.65    0.66
   4  -2  -5    0.46    1.44
  -4   2   5    0.28    1.08
   4  -2  -4   46.32    2.23
  -4   2   4   51.27    2.34
   4  -2  -4   49.91    2.49
  -4   2   4   47.80    2.23
   4  -2  -3   14.61    1.51
   4   2  -3   19.65    1.67
  -4   2   3   19.38    1.68
   4   2  -3   17.73    1.12
  -4   2   3   16.84    1.47
   4  -2  -3   19.10    1.79
   4  -2  -2   37.52    1.96
   4   2  -2   38.13    1.94
  -4   2   2   36.26    1.97
   4  -2  -2   35.83    1.73
   4  -2  -2   36.26    2.07
   4   2  -2   39.32    1.32
  -4   2   2   35.16    1.87
   4  -2  -1   57.14    2.15
   4   2  -1   48.52    2.13
   4  -2  -1   55.06    2.26
  -4  -2   1   55.25    2.28
  -4   2   1   53.35    2.32
   4  -2  -1   46.96    2.28
  -4   2   1   52.75    2.19
  -4  -2   1   51.45    1.33
   4   2  -1   52.41    1.36
   4  -2   0 2433.92   36.22
   4  -2   0 2437.09   36.12
  -4  -2   0 2456.89   35.97
   4   2   0 2379.87   35.89
  -4   2   0 2504.06   36.25
  -4   2   0 2408.54   36.20
   4  -2   0 2428.28   34.93
   4  -2   0 2413.66   36.24
  -4  -2   0 2426.30   34.64
   4  -2   1  131.54    3.59
  -4   2  -1  129.65    3.65
   4  -2   1  127.29    3.60
   4  -2   1  129.52    2.93
  -4   2  -1  134.58    3.57
   4  -2   1  123.70    3.60
  -4  -2  -1  118.07    2.46
   4   2   1  124.01    3.30
  -4   2  -1  131.38    3.67
  -4  -2  -1  131.71    3.41
  -4   2  -2   53.99    2.46
   4  -2   2   52.06    2.37
   4   2   2   52.18    2.15
  -4   2  -2   52.45    2.45
   4  -2   2   52.85    2.05
  -4   2  -2   51.85    2.31
  -4  -2  -2   53.90    2.21
  -4   2  -3    0.63    1.38
   4  -2   3    1.47    1.29
   4  -2   3   -0.04    1.17
  -4   2  -3   -0.06    1.40
  -4  -2  -3   -0.24    1.11
   4  -2   4  434.13    8.67
  -4  -2  -4  438.75    8.22
  -4   2  -4  437.61    8.75
   4  -2   4  427.53    8.34
  -4   2  -5   63.70    2.89
   4  -2   5   61.84    2.80
  -4  -2  -5   65.50    2.61
   4  -2   5   70.97    2.92
  -4   2  -6  529.56   10.49
   4  -2   6  537.05   10.45
   4  -2   6  535.56   10.43
   4  -2   7  262.52    6.48
  -4   2  -7  275.15    6.66
   4   2   7  262.70    6.05
   4  -2   7  261.35    6.62
   4  -2   8  385.70    8.40
   4   2   8  358.38    7.75
  -4   2  -8  375.54    8.47
   4  -2   8  382.89    8.65
   4   2   9   36.58    2.11
  -4   2  -9   38.99    2.55
   4  -2   9   37.50    2.38
   4  -2   9   36.64    2.62
   4  -2  10   32.05    2.23
   4   2  10   33.94    2.07
  -4   2 -10   32.87    2.50
   4  -2  10   32.32    2.60
  -4   2 -11    7.63    1.57
   4  -2  11   10.55    1.49
   4   2  11   10.23    1.30
   4  -2  11   11.32    1.95
  -4   2 -12  245.06    6.94
   4   2  12  239.65    6.11
   4  -2  12  235.76    7.28
   4  -2  12  241.50    6.71
   4   2  13  116.22    3.98
  -4   2 -13  111.67    4.63
   4  -2  13  116.30    5.10
   4   2  14  388.38    8.67
  -4   2 -14  392.49    9.73
   4  -2  14  376.39   10.22
  -4   2 -15    1.32    1.28
   4   2  15   -0.86    0.98
   4  -2  15   -1.18    1.64
  -4   2 -16  106.00    4.88
   4  -2  16  119.91    5.65
   4   2  16  112.10    4.19
  -4   2 -17   64.92    3.89
   4  -2  17   65.09    4.46
  -4   2 -18   10.97    2.20
   4  -2  18   12.48    2.46
   4   2  18   12.47    2.71
  -4   2 -19   44.42    3.41
   4  -2  19   48.37    4.06
   4   2  19   47.63    4.12
  -4   2 -20  222.64    7.86
   4   2  20  231.59    8.92
   4  -2  20  228.32    8.94
  -4   2 -21   11.21    2.27
   4  -2  21   19.10    3.03
   4   2  21   13.69    2.96
  -4   2 -22  298.25    9.62
   4   2  22  308.28   10.98
   4  -2  22  318.87   11.08
   4   2  23    4.67    2.58
  -4   4  26   90.82    5.70
  -4   4  25    3.68    2.17
   4   4 -24   54.99    3.95
  -4   4  24   53.74    4.27
   4   4 -23    3.31    1.44
  -4   4  23    3.64    1.87
   4  -4 -23    9.23    2.60
   4   4 -22   84.42    4.57
  -4   4  22   86.65    5.00
   4  -4 -22   82.91    5.42
   4   4 -21    4.11    1.70
  -4   4  21    6.14    1.93
   4  -4 -21    8.48    2.48
   4   4 -20  173.67    6.44
  -4   4  20  174.64    6.70
   4  -4 -20  171.61    7.39
   4   4 -19    3.41    1.58
  -4   4  19    9.40    2.17
   4  -4 -19    3.52    2.01
  -4   4  18  427.79   10.73
   4  -4 -18  415.16   11.64
  -4   4  17  133.92    5.28
   4  -4 -17  134.61    6.05
  -4   4  16   64.82    3.54
   4  -4 -16   56.97    3.94
  -4   4  15  311.29    8.13
   4  -4 -15  297.15    8.88
   4   4 -14   27.61    2.50
   4  -4 -14   26.35    2.76
   4   4 -13   44.79    2.99
   4  -4 -13   47.54    3.26
   4   4 -12  622.71   12.80
   4  -4 -12  575.23   12.84
   4   4 -11  127.19    4.71
   4  -4 -11  122.69    4.86
   4   4 -10 1623.13   26.66
   4  -4 -10 1573.70   26.89
   4  -4  -9  102.65    3.61
   4   4  -9  106.20    4.00
   4  -4  -9  100.72    4.15
   4  -4  -8  579.81    9.01
   4  -4  -8  601.58   11.05
   4   4  -8  610.37   11.65
   4  -4  -8  626.23   12.06
   4  -4  -7    0.83    0.97
   4  -4  -7    0.16    0.45
  -4   4   7    1.62    1.21
   4  -4  -7    0.05    1.32
   4  -4  -6  157.93    4.23
   4  -4  -6  160.41    3.37
   4  -4  -6  174.17    5.05
  -4   4   6  172.45    4.94
   4  -4  -5  375.67    7.48
   4  -4  -5  374.80    6.71
  -4   4   5  405.09    8.30
   4  -4  -5  379.40    8.27
   4  -4  -4  646.63   11.43
  -4   4   4  653.21   11.44
   4  -4  -4  651.39   10.90
  -4   4   4  696.34   12.35
   4  -4  -4  699.44   12.46
   4  -4  -3  134.38    3.67
  -4   4   3  134.23    3.66
   4  -4  -3  132.42    3.38
  -4   4   3  134.01    3.40
  -4   4   3  140.82    4.17
   4  -4  -3  143.59    4.32
   4  -4  -2  477.42    8.68
  -4   4   2  501.56    8.77
   4  -4  -2  469.35    8.77
  -4   4   2  481.45    8.79
   4   4  -2  483.79    8.79
   4  -4  -2  486.31    9.47
  -4   4   2  470.83    9.44
  -4   4   1  469.38    8.68
   4  -4  -1  463.53    8.60
   4  -4  -1  458.10    8.60
  -4   4   1  466.72    8.59
   4   4  -1  449.84    8.32
   4  -4  -1  472.53    9.21
  -4   4   1  475.74    9.15
  -4   4   0  149.89    4.04
   4  -4   0  149.91    3.97
   4  -4   0  143.83    3.90
  -4   4   0  146.88    3.95
   4   4   0  137.52    3.47
  -4  -4   0  143.62    3.56
   4  -4   0  142.07    4.31
  -4   4   0  139.77    3.29
  -4   4   0  140.33    4.18
  -4   4  -1   80.89    3.00
   4  -4   1   80.04    2.92
  -4   4  -1   81.94    2.96
   4   4   1   76.89    2.40
  -4  -4  -1   73.48    2.39
  -4   4  -1   78.60    2.46
  -4   4  -1   74.45    2.97
   4  -4   1   77.10    3.20
   4  -4   2   55.84    2.57
  -4   4  -2   58.97    2.60
   4   4   2   51.25    1.94
  -4   4  -2   54.01    2.58
  -4  -4  -2   57.77    2.07
  -4   4  -2   55.98    2.60
  -4   4  -2   53.37    2.05
  -4  -4  -2   52.26    1.30
   4  -4   3   37.27    2.18
  -4   4  -3   38.89    2.25
   4   4   3   37.85    1.67
  -4   4  -3   34.56    2.31
  -4   4  -3   35.99    1.87
  -4   4  -3   34.50    2.18
  -4  -4  -3   36.70    1.71
   4  -4   4  484.70    9.63
  -4   4  -4  482.20    9.70
  -4   4  -4  466.18    9.57
   4  -4   4  482.98    9.15
  -4   4  -4  454.67    9.03
  -4  -4  -4  460.49    8.44
  -4  -4  -5  395.61    7.62
   4  -4   5  406.94    8.79
  -4   4  -5  415.76    8.90
  -4   4  -5  395.67    8.34
   4  -4   5  409.08    8.48
  -4  -4  -6 1565.54   24.45
  -4   4  -6 1582.69   25.93
   4  -4   6 1566.48   25.75
  -4   4  -6 1578.20   25.58
   4  -4   6 1595.95   25.62
  -4   4  -7  359.08    8.39
  -4  -4  -7  343.13    7.16
   4  -4   7  344.49    8.12
  -4   4  -7  358.99    8.21
   4  -4   7  340.31    8.10
  -4   4  -8  487.54   10.68
   4  -4   8  493.17   10.63
   4  -4   8  499.12   10.62
  -4   4  -9    1.84    1.35
   4   4   9    0.71    0.83
   4  -4   9    0.21    1.40
   4   4  10  112.78    3.70
  -4   4 -10  115.51    4.66
   4  -4  10  109.78    4.64
   4   4  11   48.29    2.44
  -4   4 -11   53.59    3.24
   4  -4  11   51.65    3.35
   4   4  12  527.66   10.43
  -4   4 -12  551.16   12.23
   4  -4  12  530.37   12.35
  -4   4 -13   37.21    2.94
   4   4  13   41.09    2.29
   4  -4  13   39.16    3.18
  -4   4 -14  467.74   11.45
   4   4  14  462.92    9.54
   4  -4  14  448.62   11.66
  -4   4 -15    0.34    1.50
   4   4  15    0.32    1.01
   4  -4  15    0.49    1.66
  -4   4 -16  292.20    8.83
   4   4  16  285.08    6.91
   4  -4  16  272.24    9.04
  -4   4 -17  293.76    9.13
   4   4  17  296.75    7.11
   4  -4  17  284.12    9.50
  -4   4 -18   -0.16    1.57
   4  -4  18   -1.62    2.12
  -4   4 -19   40.69    3.58
   4  -4  19   45.68    3.98
  -4   4 -20  138.91    6.47
   4  -4  20  145.20    7.10
  -4   4 -21    2.79    2.02
   4  -4  21    1.53    1.90
  -4   4 -22  231.93    8.97
   4   4  22  244.60    9.99
   4  -4  22  243.88    9.77
  -4   4 -23   26.76    3.23
  -4   4 -24  190.70    8.11
  -4   6  26  176.08    8.01
   4   6 -25   18.50    2.89
  -4   6  25   17.69    2.86
   4   6 -24   15.03    2.62
  -4   6  24   16.94    2.98
   4   6 -23   86.67    5.16
  -4   6  23   74.94    4.82
   4  -6 -23   79.75    5.59
   4   6 -22  115.51    5.85
  -4   6  22  120.48    6.00
   4  -6 -22  131.78    6.96
   4   6 -21  216.49    8.04
  -4   6  21  233.62    8.22
   4  -6 -21  231.28    9.09
  -4   6  20  148.50    6.30
   4  -6 -20  138.68    6.89
   4   6 -20  138.98    6.18
   4   6 -19   33.67    3.10
  -4   6  19   37.75    3.25
   4  -6 -19   38.21    3.65
   4  -6 -18  121.24    6.03
   4  -6 -17   -3.12    1.95
   4  -6 -16   19.09    2.64
   4  -6 -15   99.19    5.02
   4  -6 -14   -0.18    1.55
   4  -6 -13   47.76    3.39
   4  -6 -12  110.27    4.02
   4   6 -12  116.94    4.97
   4  -6 -12  108.90    4.83
   4  -6 -11   15.54    1.53
   4   6 -11   13.13    1.83
   4  -6 -11   13.65    2.00
   4  -6 -10  708.02   13.22
   4   6 -10  743.13   14.88
   4  -6 -10  743.83   14.91
   4  -6  -9   71.09    2.84
   4   6  -9   70.98    3.52
   4  -6  -9   72.87    3.66
   4  -6  -8  408.33    8.26
   4  -6  -8  414.67    9.69
  -4   6   8  426.98    9.64
   4  -6  -7   56.93    2.37
   4  -6  -7   63.14    3.29
  -4   6   7   59.67    3.17
   4  -6  -6   53.63    2.25
  -4   6   6   56.34    1.99
   4  -6  -6   59.29    3.13
  -4   6   6   56.78    3.00
   4  -6  -5  416.41    8.08
  -4   6   5  431.92    7.86
  -4   6   5  433.51    9.45
   4  -6  -5  433.40    9.51
  -4   6   4  550.79    9.80
   4  -6  -4  518.81    9.70
  -4   6   4  544.66    9.72
  -4   6   4  566.68   11.16
   4  -6  -4  555.73   11.13
   4  -6  -3  114.55    3.33
  -4   6   3  119.25    3.45
  -4   6   3  111.01    3.30
   4  -6  -3  114.05    4.18
  -4   6   3  119.29    4.15
  -4   6   2  544.35    9.84
   4  -6  -2  511.58    9.49
   4   6  -2  513.62    9.44
  -4   6   2  514.91    9.44
   4  -6  -2  529.44   10.70
   4   6  -2  514.30    8.31
  -4   6   2  541.48   10.67
  -4   6   1  205.72    5.09
   4   6  -1  199.28    4.52
  -4   6   1  198.32    4.78
   4  -6  -1  202.11    5.66
  -4   6   1  203.90    5.59
   4   6  -1  194.50    3.46
  -4   6   0  142.49    4.22
   4   6   0  130.71    3.33
  -4   6   0  134.78    3.85
   4  -6   0  131.27    4.44
  -4   6   0  130.94    4.37
  -4   6  -1  619.38   11.12
  -4   6  -1  604.46   11.51
  -4   6  -1  631.53   12.01
   4  -6   1  613.34   11.90
   4   6   1  576.98    9.97
   4   6   2   99.80    2.70
  -4   6  -2  108.35    3.65
  -4   6  -2  109.46    3.88
  -4   6  -2  112.44    4.05
  -4  -6  -2  105.43    2.27
  -4   6  -2  109.09    3.48
  -4   6  -3  145.79    4.67
  -4   6  -3  145.14    4.43
  -4  -6  -3  141.85    3.27
  -4   6  -3  133.84    4.11
  -4   6  -3  147.66    4.77
  -4  -6  -3  138.20    3.00
  -4   6  -4   17.67    1.95
  -4  -6  -4   13.36    1.03
  -4   6  -4   15.54    1.58
  -4   6  -4   15.46    1.76
  -4  -6  -4   16.23    1.07
  -4   6  -5    4.51    1.50
  -4  -6  -5    3.83    0.81
  -4   6  -5    3.34    1.17
  -4   6  -5    2.89    1.18
  -4  -6  -5    2.60    0.77
  -4   6  -6  487.62   10.72
  -4  -6  -6  478.19    8.64
  -4   6  -6  488.84   10.69
  -4   6  -6  504.51   10.43
  -4  -6  -6  488.59    8.96
  -4   6  -7   85.38    3.94
  -4  -6  -7   78.70    2.63
  -4   6  -7   83.24    3.65
  -4  -6  -7   84.63    2.93
  -4  -6  -8  372.28    7.50
  -4   6  -8  382.70    9.42
  -4   6  -8  392.56    9.29
  -4   6  -9    4.65    1.48
  -4   6  -9    7.36    1.71
  -4  -6  -9    4.49    0.99
  -4   6 -10    7.38    1.73
  -4   6 -10    8.67    1.72
  -4  -6 -10    8.27    1.21
   4   6  11   26.61    1.85
  -4   6 -11   30.23    2.78
   4  -6  11   23.74    2.52
   4   6  12  470.29    9.44
  -4   6 -12  456.93   11.44
   4  -6  12  450.50   11.48
   4   6  13   34.64    2.10
  -4   6 -13   41.44    3.30
   4  -6  13   34.61    3.14
  -4   6 -14  298.58    9.12
   4   6  14  306.32    6.99
   4  -6  14  293.79    9.28
   4   6  15  320.08    7.14
  -4   6 -15  304.70    9.49
   4  -6  15  299.40    9.65
   4   6  16  407.25    8.43
  -4   6 -16  393.24   11.21
   4  -6  16  372.30   11.27
  -4   6 -17  213.09    8.02
   4  -6  17  216.30    8.33
  -4   6 -18   -2.35    1.85
   4  -6  18    1.86    1.93
  -4   6 -19   60.76    4.59
   4  -6  19   61.65    4.72
  -4   6 -20  123.00    6.49
   4  -6  20  139.30    7.16
  -4   6 -21    4.64    2.22
   4  -6  21    1.88    2.18
  -4   6 -22  325.57   11.23
  -4   6 -23   16.90    3.07
  -4   6 -24  125.79    7.02
   4   8 -24   58.80    4.67
  -4   8  24   53.43    4.39
   4   8 -23   96.38    5.92
  -4   8  23  101.14    5.74
   4   8 -22    4.11    2.06
  -4   8  22    3.94    2.06
   4  -8 -22    1.48    1.92
   4   8 -21   38.59    3.74
   4  -8 -21   39.37    4.12
   4   8 -20  205.49    8.23
   4  -8 -20  231.18    9.08
   4  -8 -19   35.56    3.69
   4  -8 -18  262.57    9.43
   4  -8 -17   25.61    2.32
   4  -8 -17   25.98    3.10
   4  -8 -16    4.31    1.32
   4  -8 -16    5.33    1.95
   4  -8 -15  130.40    4.71
   4  -8 -15  134.31    6.09
   4  -8 -14    4.28    1.14
   4  -8 -14    3.74    1.81
   4  -8 -13   67.58    3.07
   4  -8 -13   68.72    4.17
   4  -8 -12  254.96    6.36
   4  -8 -12  247.61    7.96
   4  -8 -11   47.83    2.36
   4  -8 -11   45.88    3.35
   4  -8 -10  385.36    8.04
   4  -8 -10  403.40   10.17
   4  -8  -9  128.59    3.80
   4  -8  -9  139.63    5.37
   4  -8  -8   13.02    1.20
  -4   8   8   15.39    1.10
  -4   8   8   17.77    2.05
   4  -8  -8   16.65    2.21
   4  -8  -7  403.26    7.99
  -4   8   7  422.89    7.81
   4  -8  -7  410.48    9.98
  -4   8   7  444.58   10.22
  -4   8   6  277.38    5.96
   4  -8  -6  267.10    5.83
   4  -8  -6  279.66    7.70
  -4   8   6  297.17    7.77
  -4   8   5 1107.15   18.03
   4  -8  -5 1068.18   17.61
  -4   8   5 1135.24   20.05
   4  -8  -5 1119.57   20.03
  -4   8   4  188.08    4.92
  -4   8   4  192.18    4.55
   4   8  -4  180.17    4.37
   4  -8  -4  195.18    6.07
  -4   8   4  196.35    5.98
  -4   8   3    0.42    0.89
  -4   8   3    1.15    0.96
   4   8  -3    2.04    0.72
   4  -8  -3   -0.42    1.36
  -4   8   3   -0.04    1.18
  -4   8   2  366.05    7.90
   4   8  -2  349.96    7.14
  -4   8   2  357.00    7.19
   4  -8  -2  368.16    8.83
  -4   8   2  361.56    8.73
   4   8  -2  347.36    6.47
  -4   8   1  316.83    7.27
   4   8  -1  294.81    6.12
  -4   8   1  298.34    6.51
   4  -8  -1  315.00    7.92
  -4   8   1  318.34    8.00
   4   8  -1  302.23    5.62
  -4   8   0  121.29    4.23
  -4   8   0  130.69    3.87
   4   8   0  119.04    3.12
   4  -8   0  118.05    4.60
  -4   8   0  131.04    4.67
   4   8   0  119.88    2.80
   4   8   1  608.09   10.18
  -4   8  -1  625.37   12.40
  -4   8  -1  638.64   11.68
  -4   8  -1  657.13   13.01
  -4   8  -2    1.21    1.34
   4   8   2    0.10    0.52
  -4   8  -2    0.92    1.06
  -4  -8  -2    1.76    0.60
  -4   8  -2    0.33    1.17
  -4   8  -3  338.08    7.74
  -4   8  -3  328.31    8.25
  -4   8  -3  331.02    7.87
  -4   8  -3  350.99    8.62
  -4  -8  -3  324.10    6.15
  -4   8  -4  280.04    7.57
  -4   8  -4  275.66    7.18
  -4   8  -4  284.62    7.72
  -4  -8  -4  270.97    5.55
  -4   8  -5   89.54    4.14
  -4   8  -5   94.22    4.16
  -4   8  -5   89.48    3.84
  -4  -8  -5   87.64    2.82
  -4   8  -6  505.08   11.54
  -4  -8  -6  497.16    8.27
  -4   8  -6  515.61   11.58
  -4   8  -6  528.00   11.33
  -4  -8  -6  497.16    9.42
  -4   8  -7   75.36    3.99
  -4  -8  -7   75.07    2.19
  -4   8  -7   78.98    3.86
  -4   8  -7   79.04    3.95
  -4  -8  -7   73.32    2.87
  -4   8  -8  328.12    9.09
  -4  -8  -8  331.98    6.28
  -4   8  -8  339.98    8.92
  -4  -8  -8  325.69    7.40
  -4  -8  -9  399.87    7.50
  -4   8  -9  384.10   10.28
  -4  -8  -9  401.84    8.76
  -4  -8 -10    1.33    0.70
  -4   8 -10   -0.38    1.55
  -4  -8 -10    1.86    1.17
  -4  -8 -11  509.69    9.65
  -4   8 -11  500.38   12.53
  -4  -8 -11  503.65   11.00
  -4   8 -12  432.52   11.54
  -4  -8 -12  442.27    8.85
  -4  -8 -12  404.32    9.95
  -4  -8 -13   45.31    2.48
   4   8  13   43.03    2.28
  -4   8 -13   45.62    3.74
  -4  -8 -13   44.04    2.99
  -4  -8 -14  410.78    9.00
   4   8  14  407.42    8.48
  -4   8 -14  387.53   11.33
  -4  -8 -14  393.45   10.20
  -4   8 -15  148.78    6.72
  -4  -8 -15  163.91    5.21
  -4  -8 -15  149.65    6.01
  -4  -8 -16   10.63    1.59
  -4   8 -16    7.39    2.34
  -4  -8 -16   10.74    2.15
  -4  -8 -17   74.23    3.69
  -4   8 -17   75.37    5.04
  -4  -8 -17   65.69    4.32
  -4   8 -18    0.05    1.88
  -4  -8 -18    0.57    1.71
  -4   8 -19   18.78    2.97
  -4  -8 -19   16.75    2.57
  -4   8 -20   76.48    5.39
  -4  -8 -20   66.48    4.77
  -4   8 -21   12.00    2.92
  -4  -8 -21   11.50    2.57
  -4  -8 -22  125.28    6.86
  -4  -8 -23    2.35    2.05
   4  10 -21  161.26    7.69
   4 -10 -21  166.50    8.06
   4  10 -20   38.93    3.93
   4 -10 -20   32.17    3.76
   4  10 -19    0.35    1.93
   4 -10 -19   -0.97    1.97
   4 -10 -18   82.84    5.33
   4 -10 -17   30.58    3.45
   4 -10 -16  172.30    7.43
   4 -10 -15  114.74    5.90
   4 -10 -14   19.40    2.84
   4 -10 -13  150.38    4.38
   4 -10 -13  144.79    6.34
   4 -10 -12  148.48    4.20
   4 -10 -12  156.44    6.44
   4 -10 -11  142.90    3.97
   4 -10 -11  152.37    6.28
   4 -10 -10  158.03    4.08
   4 -10 -10  153.99    6.15
   4 -10  -9    4.86    0.82
  -4  10   9    5.77    0.92
   4 -10  -9    2.40    1.58
   4 -10  -8   23.26    1.35
  -4  10   8   23.84    1.55
   4 -10  -8   22.32    2.47
  -4  10   7  693.74   12.32
   4  10  -7  661.13   12.94
   4 -10  -7  699.53   14.85
  -4  10   6    2.17    1.07
   4  10  -6    1.83    0.91
  -4  10   6    0.88    1.25
   4 -10  -6    1.75    1.53
  -4  10   5  658.02   12.47
   4  10  -5  640.80   12.14
   4 -10  -5  677.59   14.37
  -4  10   5  701.47   14.36
  -4  10   4  441.46    9.53
  -4  10   4  452.59    8.42
   4  10  -4  441.86    8.83
   4 -10  -4  454.44   10.95
  -4  10   4  493.23   11.15
  -4  10   3    0.83    1.03
  -4  10   3    1.96    0.89
   4  10  -3    1.38    0.88
   4 -10  -3    1.09    1.54
   4  10  -3   -0.02    0.69
  -4  10   3    0.82    1.11
  -4  10   2  434.29    9.72
  -4  10   2  439.18    8.55
   4  10  -2  432.16    8.50
   4 -10  -2  447.21   10.69
   4  10  -2  437.01    8.27
  -4  10   2  463.56   10.77
  -4  10   1  194.10    5.92
   4  10  -1  198.36    4.60
  -4  10   1  206.39    5.11
   4 -10  -1  197.46    6.55
   4  10  -1  199.10    4.59
  -4  10   1  212.87    6.66
   4  10   0   73.60    2.25
  -4  10   0   73.11    2.93
  -4  10   0   71.70    3.47
  -4  10   0   80.20    3.92
   4  10   0   73.76    2.42
  -4  10  -1  289.01    6.82
   4  10   1  288.89    5.18
  -4  10  -1  286.48    7.82
  -4  10  -1  306.01    8.32
   4  10   1  295.57    5.86
  -4  10  -2   92.97    3.63
  -4  10  -2   89.00    4.15
  -4  10  -2   96.20    4.42
  -4  10  -3  196.64    6.47
  -4  10  -3  202.65    5.79
  -4  10  -3  191.63    6.13
  -4 -10  -3  197.34    4.64
  -4  10  -3  209.09    6.76
  -4  10  -4  283.48    8.26
  -4  10  -4  291.39    7.53
  -4  10  -4  304.87    8.17
  -4 -10  -4  295.65    6.24
  -4  10  -5   53.03    3.53
  -4  10  -5   51.18    2.98
  -4  10  -5   53.00    3.40
  -4 -10  -5   54.68    2.36
  -4  10  -6  309.74    8.99
  -4 -10  -6  316.83    6.92
  -4  10  -7   54.17    3.72
  -4 -10  -7   55.20    2.56
  -4  10  -8   36.62    3.20
  -4 -10  -8   42.53    2.42
  -4  10  -9  539.98   13.43
  -4 -10  -9  557.86   11.27
  -4 -10 -10    1.21    0.32
  -4  10 -10    4.09    1.92
  -4 -10 -10    0.24    1.01
  -4 -10 -11  291.23    5.30
  -4  10 -11  287.44    9.42
  -4 -10 -11  288.42    7.70
  -4 -10 -12    8.45    0.89
  -4  10 -12    8.33    2.27
  -4 -10 -12    7.04    1.53
  -4  10 -13    7.29    2.09
  -4 -10 -13    5.37    1.56
  -4  10 -14  161.07    7.24
  -4 -10 -14  166.28    6.21
  -4  10 -15  234.50    9.13
  -4 -10 -15  236.42    7.78
  -4  10 -16   68.07    4.99
  -4 -10 -16   69.37    4.29
  -4  10 -17  102.95    6.22
  -4 -10 -17  105.54    5.48
  -4  10 -18    0.86    2.05
  -4 -10 -18    2.30    2.08
  -4  10 -19   51.52    4.67
  -4 -10 -19   49.14    4.06
  -4 -10 -20   49.93    4.22
  -4 -10 -21    1.80    1.84
   4 -12 -19   11.79    2.88
   4 -12 -18  110.49    6.47
   4 -12 -17   61.67    4.89
   4 -12 -16  109.61    6.22
   4 -12 -15  256.71    9.54
   4 -12 -14   17.58    2.82
   4 -12 -13   86.07    5.12
   4 -12 -12  176.79    7.26
   4 -12 -11   -0.41    1.70
  -4  12  10   99.68    3.10
   4  12 -10   95.93    4.35
   4 -12 -10   93.85    5.11
  -4  12   9   69.95    2.78
   4 -12  -9   62.78    4.13
   4  12  -9   65.33    3.46
  -4  12   8   34.13    2.11
   4  12  -8   31.10    2.38
   4 -12  -8   31.12    3.01
  -4  12   7  585.13   11.60
   4  12  -7  586.88   12.03
   4 -12  -7  577.37   13.85
  -4  12   6    4.38    1.25
   4 -12  -6    3.23    1.59
   4  12  -6    3.69    1.17
  -4  12   5  580.56   11.92
   4 -12  -5  566.13   13.52
   4  12  -5  565.94   11.29
  -4  12   4   80.80    3.76
   4 -12  -4   80.34    4.47
   4  12  -4   77.68    3.12
  -4  12   3    4.62    1.46
  -4  12   3    4.10    0.89
   4  12  -3    2.59    0.89
   4 -12  -3    1.46    1.50
   4  12  -3    3.36    0.95
  -4  12   2  251.23    7.34
  -4  12   2  258.33    5.78
   4  12  -2  250.30    5.65
   4 -12  -2  253.10    8.13
   4  12  -2  254.12    5.97
  -4  12   1   99.12    3.40
   4  12  -1  100.22    2.81
  -4  12   1  101.92    4.51
   4  12  -1   95.29    3.25
  -4  12   0   39.63    2.17
   4  12   0   44.50    1.43
  -4  12   0   45.68    3.06
   4  12   0   42.83    2.06
  -4  12  -1  517.49   10.58
  -4  12  -1  505.12   12.15
   4  12   1  546.58    9.91
  -4  12  -2  248.35    7.81
  -4  12  -2  250.46    6.59
  -4  12  -3  374.84   10.14
  -4  12  -3  360.69    8.66
  -4  12  -4  391.01   10.83
  -4  12  -4  400.83    9.59
  -4 -12  -4  424.95    8.45
  -4  12  -5  125.20    4.89
  -4  12  -5  120.01    5.65
  -4 -12  -5  128.96    4.00
  -4  12  -6   89.98    4.96
  -4  12  -6   85.29    4.15
  -4 -12  -6   89.34    3.42
  -4  12  -7  143.94    6.34
  -4 -12  -7  141.89    4.54
  -4  12  -8    3.83    1.90
  -4 -12  -8    3.69    1.21
  -4  12  -9  267.17    9.23
  -4 -12  -9  266.20    7.02
  -4  12 -10   -1.59    1.84
  -4 -12 -10    1.51    1.14
  -4  12 -11  208.29    8.37
  -4 -12 -11  212.10    6.47
  -4  12 -12    5.30    2.54
  -4 -12 -12    0.55    1.17
  -4  12 -13    9.18    2.68
  -4 -12 -13    5.15    1.51
  -4  12 -14  122.00    6.68
  -4 -12 -14  125.91    5.36
  -4  12 -15   36.27    3.91
  -4 -12 -15   34.55    3.00
   4 -14 -17  153.81    7.71
   4 -14 -16   53.04    4.47
   4 -14 -15  334.84   11.38
   4 -14 -14    6.99    2.45
   4 -14 -13  139.81    7.01
   4 -14 -12   58.93    4.62
   4 -14 -11    6.72    2.09
   4 -14 -10    1.65    1.90
   4 -14  -9   89.97    5.37
  -4  14   8    4.78    1.27
   4 -14  -8    2.11    1.73
  -4  14   7  216.29    6.38
   4 -14  -7  205.79    7.91
  -4  14   6    4.52    1.43
   4 -14  -6    4.68    1.97
  -4  14   5  259.16    7.57
   4 -14  -5  263.87    8.87
  -4  14   4    5.66    1.54
   4 -14  -4    6.19    1.90
  -4  14   3   22.47    2.44
   4 -14  -3   22.90    2.77
  -4  14   2   53.89    3.55
  -4  14   1   48.57    3.40
  -4  14   0   83.44    3.16
  -4  14   0   82.68    4.45
  -4  14  -1  474.74    9.81
  -4  14  -1  473.04   12.26
  -4  14  -2    2.72    1.00
  -4  14  -2    1.76    1.46
  -4  14  -3  178.60    5.59
  -4  14  -3  188.43    7.32
  -4  14  -4   79.85    4.90
  -4  14  -4   77.31    3.77
  -4  14  -5   11.30    1.91
  -4  14  -5   13.70    2.53
  -4  14  -6   50.61    4.12
  -4  14  -6   48.36    3.23
  -4  14  -7   86.20    4.41
  -4  14  -7   88.71    5.39
  -4  14  -8   -2.20    1.60
  -4  14  -8    1.35    1.93
  -4  14  -9  102.57    6.05
  -4  14  -9   98.51    5.06
  -4  14 -10   -2.32    1.97
  -4  14 -11  244.49    9.71
  -4  14 -12    6.11    2.47
   4 -16 -14    5.46    2.34
   4 -16 -13  106.23    6.33
   4 -16 -12    8.68    2.36
   4 -16 -11   -0.45    1.84
   4 -16 -10    6.35    2.07
   4 -16  -9   45.41    4.19
   4 -16  -8   47.06    4.12
   4 -16  -7   32.53    3.50
   4 -16  -6    0.10    1.83
  -4  16   5  106.32    5.04
   4 -16  -5   99.23    5.72
  -4  16   4   22.44    2.54
  -4  16   3   38.39    3.26
  -4  16   2    9.01    1.89
  -4  16   1   29.84    3.03
  -4  16   0    3.18    1.62
  -4  16  -1  303.74   10.01
  -4  16  -2    4.74    1.79
  -4  16  -3  119.38    6.30
  -4  16  -4    2.43    1.94
  -4  16  -5   -2.40    1.82
  -4  16  -6   15.23    2.86
  -4  16  -7   34.01    3.81
  -4  18   1   95.66    5.57
  -4  18   0    3.39    1.79
  -4  18  -1  212.81    8.76
  -4  18  -2    3.07    1.84
  -5   1  26  372.12   11.97
  -5  -1  25    1.85    1.84
  -5   1  25    2.05    1.97
  -5  -1  24  162.50    7.31
  -5   1  24  168.15    7.32
  -5  -1  23    1.41    1.80
  -5   1  23    1.16    1.76
   5   1 -22    6.75    1.45
  -5   1  22    4.35    2.03
  -5  -1  22    5.58    1.93
   5   1 -21   12.27    1.65
  -5  -1  21   11.70    2.26
  -5   1  21    9.19    2.02
   5   1 -20   68.50    3.35
   5  -1 -20   69.35    2.83
  -5   1  20   68.24    4.06
  -5  -1  20   78.46    4.41
   5  -1 -19   22.19    1.60
  -5  -1  19   23.20    2.59
  -5   1  19   22.65    2.48
   5   1 -19   24.33    2.06
   5  -1 -18   81.63    2.99
  -5   1  18   86.07    4.27
  -5  -1  18   79.42    4.21
  -5   1  17  136.46    5.24
  -5  -1  17  133.55    5.30
   5  -1 -17  134.85    3.90
  -5  -1  16  555.93   12.32
  -5   1  16  563.27   12.16
  -5   1  15    5.60    1.51
  -5  -1  15    2.00    1.21
  -5  -1  14  209.81    6.15
  -5   1  14  198.80    5.83
  -5  -1  13   82.01    3.57
  -5   1  13   89.30    3.56
  -5  -1  12  124.15    4.23
  -5   1  12  120.29    4.02
   5   1 -11  298.25    7.11
  -5   1  11  284.04    6.55
   5  -1 -11  290.29    7.58
   5   1 -10  595.86   11.33
  -5   1  10  594.02   10.79
   5  -1 -10  594.15   12.07
   5   1  -9    8.01    1.23
  -5   1   9    8.52    1.11
   5  -1  -9    9.95    1.71
   5   1  -8 1499.96   23.98
  -5   1   8 1562.24   23.38
   5  -1  -8 1526.36   24.97
   5  -1  -7    7.84    1.44
   5   1  -7    6.53    1.08
  -5   1   7    7.39    0.93
   5  -1  -7    6.34    1.44
   5  -1  -6    6.43    1.38
   5   1  -6    6.91    1.02
   5   1  -6    7.50    1.32
   5  -1  -6    4.39    1.37
   5  -1  -5  126.23    3.87
   5   1  -5  122.77    3.96
   5   1  -5  124.94    3.47
   5  -1  -5  130.74    3.90
  -5   1   5  123.28    3.73
   5   1  -4  738.58   13.00
   5  -1  -4  722.15   12.90
  -5   1   4  750.83   13.03
   5  -1  -4  740.79   10.93
   5  -1  -4  749.40   12.75
   5   1  -4  740.96   12.21
  -5   1   4  715.95   12.65
  -5   1   3  160.05    4.39
   5   1  -3  154.70    4.30
   5  -1  -3  159.55    4.28
  -5  -1   3  152.30    4.32
   5   1  -3  158.37    3.67
   5  -1  -3  154.29    4.16
  -5  -1   3  149.46    3.56
  -5   1   3  153.98    4.02
  -5  -1   2 1267.74   20.05
   5  -1  -2 1256.98   19.99
  -5   1   2 1247.95   20.01
   5   1  -2 1256.66   19.96
   5   1  -2 1250.75   18.94
   5  -1  -2 1246.86   19.63
  -5  -1   2 1213.82   18.93
  -5   1   2 1247.58   19.60
  -5   1   1  696.40   12.04
   5   1  -1  674.55   11.95
   5  -1  -1  689.30   11.99
  -5  -1   1  698.18   12.03
   5   1  -1  698.84   11.00
   5  -1  -1  703.29   11.73
  -5   1   1  673.89   11.57
  -5  -1   1  668.38   10.95
  -5   1   0 1081.81   17.34
   5  -1   0 1052.15   17.28
  -5  -1   0 1057.01   17.19
   5   1   0 1040.91   17.12
   5  -1   0 1081.11   16.95
   5   1   0 1085.69   16.20
  -5   1   0 1037.54   16.85
  -5  -1   0 1026.14   16.10
   5  -1   1   29.39    1.93
  -5   1  -1   23.79    1.59
  -5  -1  -1   26.14    1.35
   5   1   1   25.47    1.84
  -5   1  -1   25.56    2.00
   5  -1   1   22.83    1.84
  -5  -1  -1   24.25    1.85
   5   1   2  126.32    3.76
   5  -1   2  131.65    3.92
   5  -1   2  131.27    3.94
  -5   1  -2  122.72    3.54
  -5  -1  -2  123.04    3.12
  -5  -1  -2  131.79    3.84
  -5   1  -2  129.34    3.97
   5  -1   3    3.22    1.23
  -5   1  -3    3.09    1.49
  -5  -1  -3    3.48    1.30
   5  -1   4   26.42    1.91
  -5  -1  -4   26.47    2.00
  -5   1  -4   25.63    2.10
   5   1   5   47.24    2.45
   5  -1   5   46.93    2.44
  -5  -1  -5   47.39    2.52
  -5   1  -5   49.16    2.68
   5   1   6 2855.04   43.21
  -5  -1  -6 2807.77   43.14
   5  -1   6 2867.52   43.36
  -5   1  -7  433.74    9.24
   5   1   7  421.27    8.91
   5  -1   7  432.57    9.18
  -5   1  -8 2294.01   36.38
   5   1   8 2324.20   36.06
   5  -1   8 2335.65   36.32
   5  -1   9    9.74    1.55
  -5   1  -9    8.60    1.72
   5   1   9    8.18    1.38
  -5   1 -10   89.19    3.86
   5  -1  10   91.42    3.79
   5   1  10   96.56    3.71
   5  -1  10   94.05    4.22
   5   1  11    1.50    1.15
  -5   1 -11    0.89    1.35
   5  -1  11    0.51    1.08
   5  -1  11    1.85    1.57
  -5   1 -12  364.59    9.02
   5  -1  12  358.75    8.76
   5   1  12  366.26    8.57
   5  -1  12  359.41    9.50
  -5   1 -13    4.47    1.49
   5  -1  13    3.06    1.24
   5   1  13    0.87    0.98
   5  -1  13    1.88    1.61
  -5   1 -14  381.38    9.61
   5  -1  14  384.22    9.35
   5   1  14  380.80    9.04
   5  -1  14  375.06   10.27
  -5   1 -15   59.56    3.63
   5   1  15   56.54    3.12
   5  -1  15   51.45    3.76
   5  -1  15   58.83    3.31
   5   1  16  329.42    8.43
   5  -1  16  332.69    9.98
   5   1  17    2.80    1.14
   5  -1  17    2.88    1.89
   5   1  17    2.67    2.01
   5   1  18  245.86    8.88
   5  -1  18  236.73    8.74
   5  -1  19   14.03    2.69
   5   1  19   16.96    2.88
   5  -1  20    0.42    2.01
   5   1  20    0.98    2.07
   5   1  21    7.53    2.55
   5  -1  21    8.41    2.81
   5  -1  22  303.96   10.90
   5   1  22  303.55   11.00
  -5   3  27    0.83    1.93
  -5   3  26  197.51    8.29
  -5   3  25    8.32    2.22
  -5   3  24  236.43    8.66
   5  -3 -24  235.06    9.63
   5   3 -23    7.35    1.74
  -5   3  23    6.00    1.99
   5  -3 -23    6.53    2.26
   5   3 -22    3.25    1.48
  -5   3  22    5.71    1.87
   5  -3 -22    5.07    2.24
   5   3 -21    4.27    1.37
  -5   3  21    4.64    1.81
   5  -3 -21    3.82    2.06
  -5   3  20  184.32    6.67
   5   3 -20  172.15    6.14
   5  -3 -20  182.64    7.61
  -5   3  19   12.40    2.11
   5  -3 -19    9.17    2.27
   5  -3 -18  149.91    2.95
  -5   3  18  170.88    5.99
   5  -3 -18  171.92    6.91
   5  -3 -17    3.89    0.50
  -5   3  17    1.09    1.36
   5  -3 -17   -0.96    1.73
   5  -3 -16  219.81    4.04
  -5   3  16  221.71    6.69
   5  -3 -16  219.33    7.62
   5  -3 -15    0.25    0.40
  -5   3  15   -1.77    1.26
   5   3 -15   -1.19    1.29
   5  -3 -15   -0.95    1.63
   5   3 -14   25.79    2.40
  -5   3  14   25.96    2.11
   5  -3 -14   24.66    1.05
   5  -3 -14   27.01    2.84
  -5   3  13  333.83    7.75
   5   3 -13  347.58    8.69
   5  -3 -13  336.61    9.10
   5   3 -12    4.06    1.33
  -5   3  12    4.12    1.11
   5  -3 -12    2.24    1.44
  -5   3  11  327.66    7.05
   5   3 -11  321.11    7.91
   5  -3 -11  330.12    8.46
  -5   3  10  676.87   11.76
   5   3 -10  661.10   12.87
   5  -3 -10  655.12   13.36
   5  -3  -9  210.68    5.74
  -5   3   9  212.56    4.81
   5   3  -9  212.26    5.70
   5  -3  -9  211.31    6.16
   5  -3  -8  904.16   15.99
   5   3  -8  916.85   15.94
   5  -3  -8  910.63   16.51
   5  -3  -7  168.72    4.75
   5  -3  -7  166.90    5.11
   5  -3  -6  149.08    4.38
   5  -3  -6  149.19    3.62
   5  -3  -6  156.66    4.77
  -5   3   6  154.61    4.66
   5  -3  -5   21.96    1.73
   5  -3  -5   22.42    1.40
  -5   3   5   21.87    1.87
   5  -3  -5   23.17    2.01
   5  -3  -4   74.26    2.91
  -5   3   4   78.10    3.03
   5   3  -4   83.49    3.11
   5  -3  -4   78.07    2.63
  -5   3   4   75.81    3.16
   5  -3  -4   80.21    3.25
  -5   3   3   36.22    2.17
   5   3  -3   38.24    2.10
   5  -3  -3   35.38    2.01
   5  -3  -3   34.28    1.84
  -5   3   3   33.66    2.10
   5  -3  -3   36.83    2.33
   5   3  -3   36.96    1.40
   5  -3  -2  969.00   15.95
  -5   3   2  979.58   16.18
   5   3  -2  984.64   16.11
   5  -3  -2  983.22   16.20
   5  -3  -2  991.12   16.50
  -5   3   2  965.32   16.37
   5   3  -2  957.66   14.44
   5  -3  -1  569.63   10.41
   5  -3  -1  582.68   10.55
  -5   3   1  576.21   10.55
   5   3  -1  568.49   10.25
  -5  -3   1  580.30   10.34
   5  -3  -1  565.28   10.75
  -5   3   1  570.64    8.86
   5   3  -1  570.07    8.59
  -5   3   1  573.44   10.66
  -5   3   0 1377.01   21.72
   5  -3   0 1348.60   21.71
   5  -3   0 1331.08   21.65
  -5  -3   0 1366.32   21.38
  -5   3   0 1387.58   21.76
   5   3   0 1333.52   21.26
   5  -3   0 1359.15   21.89
  -5   3   0 1354.66   21.82
  -5   3  -1   19.81    1.82
   5  -3   1   20.85    1.72
   5  -3   1   20.22    1.75
   5   3   1   18.55    1.50
  -5  -3  -1   18.36    1.60
  -5   3  -1   16.91    1.73
  -5  -3  -1   18.79    0.76
   5  -3   1   17.99    1.80
   5  -3   1   19.07    1.26
  -5   3  -1   18.71    1.66
   5   3   2  279.73    6.02
  -5   3  -2  292.32    6.67
  -5   3  -2  293.82    6.65
   5  -3   2  284.41    6.56
  -5   3  -2  279.84    6.52
   5  -3   2  278.43    5.75
  -5  -3  -2  293.62    6.14
  -5   3  -3  347.32    7.61
  -5   3  -3  339.03    7.59
   5  -3   3  329.86    7.49
   5   3   3  336.16    6.87
   5  -3   3  336.96    6.90
  -5   3  -3  339.89    7.49
  -5  -3  -3  341.30    6.97
   5  -3   4    1.81    1.12
  -5   3  -4    3.57    1.48
   5  -3   4    5.70    1.34
  -5   3  -4    4.97    1.27
  -5  -3  -4    3.85    1.19
  -5   3  -4    6.67    1.61
  -5  -3  -5   72.46    2.88
  -5   3  -5   77.02    3.40
   5  -3   5   78.27    3.26
   5  -3   5   74.88    3.08
  -5   3  -6  629.78   12.41
   5  -3   6  626.25   12.25
  -5  -3  -6  621.23   11.52
   5  -3   6  628.87   12.01
  -5  -3  -7   33.92    2.16
  -5   3  -7   34.78    2.57
   5  -3   7   34.69    2.34
   5  -3   7   39.01    2.62
   5   3   8 1633.35   26.41
   5  -3   8 1694.94   27.34
  -5  -3  -8 1628.68   26.35
  -5   3  -8 1628.42   27.32
   5  -3   8 1610.12   27.12
  -5   3  -9    4.35    1.63
   5  -3   9    4.95    1.36
   5   3   9    3.51    1.02
   5  -3   9    3.11    1.48
   5  -3  10  273.25    7.42
  -5   3 -10  266.69    7.46
   5   3  10  270.04    6.72
   5  -3  10  263.21    7.53
  -5   3 -11    8.75    1.81
   5  -3  11    7.08    1.52
   5   3  11    7.33    1.31
   5  -3  11    7.04    1.80
  -5   3 -12  182.37    6.20
   5   3  12  166.90    5.14
   5  -3  12  165.16    6.11
   5  -3  12  173.48    5.84
  -5   3 -13   34.83    2.95
   5   3  13   35.98    2.36
   5  -3  13   33.48    3.01
   5  -3  13   34.65    2.67
  -5   3 -14  462.85   11.35
   5   3  14  456.24    9.97
   5  -3  14  445.87   11.56
   5   3  15   12.08    1.61
  -5   3 -15   15.27    2.26
   5  -3  15   13.51    2.32
   5   3  16  184.90    5.74
  -5   3 -16  187.99    6.91
   5  -3  16  187.58    7.38
   5   3  17    3.45    1.32
  -5   3 -17    9.00    2.03
   5  -3  17    6.28    2.27
  -5   3 -18   42.21    3.45
   5  -3  18   41.18    3.80
   5   3  18   35.72    2.53
  -5   3 -19   41.51    3.70
   5  -3  19   51.38    4.24
  -5   3 -20   24.43    2.95
   5  -3  20   31.23    3.59
  -5   3 -21   37.10    3.53
   5   3  21   41.81    4.26
   5  -3  21   42.78    4.07
  -5   3 -22  140.11    6.89
   5   3  22  158.46    7.83
   5  -3  22  168.92    8.01
  -5   5  26   58.37    4.58
  -5   5  25   14.56    2.74
   5   5 -24   90.98    5.24
  -5   5  24   95.72    5.44
   5   5 -23   37.25    3.38
  -5   5  23   45.88    3.79
   5  -5 -23   45.03    4.36
   5   5 -22    9.03    2.11
  -5   5  22    5.91    1.77
   5  -5 -22    4.88    2.27
  -5   5  21   87.56    4.80
   5  -5 -21   88.55    5.68
   5   5 -21   77.62    4.54
  -5   5  20  109.79    5.16
   5  -5 -20  114.43    6.14
  -5   5  19  130.56    5.47
   5  -5 -19  129.01    6.36
  -5   5  18  648.19   14.04
   5  -5 -18  638.51   15.62
  -5   5  17    2.42    1.40
   5  -5 -17    1.68    1.66
  -5   5  16   44.80    3.00
   5  -5 -16   37.89    3.29
   5  -5 -15   86.65    4.68
   5  -5 -14    4.29    1.71
   5  -5 -13  320.79    8.24
   5   5 -13  346.81    9.08
   5  -5 -13  327.88    9.22
   5  -5 -12  136.17    4.76
   5   5 -12  140.79    5.27
   5  -5 -12  134.55    5.40
   5  -5 -11    4.64    1.22
   5   5 -11    3.30    1.33
   5  -5 -11    5.57    1.74
   5  -5 -10  597.58   11.95
   5   5 -10  636.39   12.90
   5  -5 -10  613.62   13.08
   5  -5  -9  151.44    4.57
   5   5  -9  157.34    5.16
   5  -5  -9  154.92    5.42
   5  -5  -9  147.24    2.96
   5  -5  -8  939.12   16.27
   5  -5  -8  909.21   14.38
  -5   5   8  983.29   17.49
   5  -5  -8  977.64   17.51
   5  -5  -7  126.74    3.97
   5  -5  -7  126.30    3.08
  -5   5   7  138.65    4.73
   5  -5  -7  130.38    4.67
   5  -5  -6  483.79    9.54
   5  -5  -6  484.45    8.64
   5  -5  -6  515.18   10.65
  -5   5   6  515.28   10.62
  -5   5   5   38.17    2.14
   5  -5  -5   37.19    2.07
   5  -5  -5   39.11    1.75
  -5   5   5   40.83    2.49
   5  -5  -5   38.06    2.59
   5   5  -4  418.24    8.62
   5  -5  -4  411.92    8.37
  -5   5   4  412.01    8.35
  -5   5   4  424.35    8.04
   5  -5  -4  422.76    8.02
  -5   5   4  444.49    9.32
   5  -5  -4  437.60    9.34
   5  -5  -3  105.20    3.42
  -5   5   3  108.50    3.51
   5   5  -3  106.40    3.49
   5  -5  -3  109.44    3.33
  -5   5   3  111.67    3.33
   5  -5  -3  110.89    4.12
  -5   5   3  105.62    3.93
   5  -5  -2  703.98   12.59
   5  -5  -2  704.76   12.51
  -5   5   2  723.50   12.60
  -5   5   2  703.34   12.51
   5   5  -2  714.55   12.45
   5  -5  -2  711.52   13.48
  -5   5   2  718.78   13.39
   5  -5  -1  165.41    4.49
   5  -5  -1  162.85    4.51
  -5   5   1  162.74    4.47
   5   5  -1  158.62    4.15
  -5   5   1  157.84    4.39
  -5   5   1  156.31    3.65
   5  -5  -1  169.83    5.07
  -5   5   1  173.59    4.99
  -5   5   0 1687.98   26.49
   5  -5   0 1665.78   26.52
  -5   5   0 1690.53   26.32
   5   5   0 1639.89   25.60
   5  -5   0 1672.45   27.00
  -5   5   0 1648.30   25.24
  -5   5   0 1679.36   26.98
   5  -5   1   21.47    1.77
  -5   5  -1   23.59    1.97
  -5  -5  -1   23.33    1.53
  -5   5  -1   22.67    1.88
   5   5   1   20.42    1.43
  -5   5  -1   23.51    1.52
   5  -5   1   23.92    2.17
  -5   5  -1   23.40    1.96
   5  -5   2    2.27    1.15
  -5   5  -2   -0.32    1.29
  -5   5  -2   -0.93    1.19
   5   5   2    0.21    0.78
  -5  -5  -2   -0.01    0.87
  -5   5  -2   -1.89    0.98
  -5   5  -2   -0.16    1.08
  -5   5  -3 1040.21   18.20
   5  -5   3 1067.97   18.27
  -5   5  -3 1050.58   18.01
   5   5   3 1033.96   16.66
  -5  -5  -3 1036.67   16.74
  -5   5  -3 1073.77   18.46
  -5   5  -3 1028.26   17.26
  -5  -5  -3 1026.56   15.47
  -5   5  -4  119.19    4.38
   5  -5   4  118.05    4.28
  -5   5  -4  124.78    4.33
  -5   5  -4  127.07    4.48
  -5   5  -4  117.20    3.83
  -5  -5  -4  123.91    3.47
  -5   5  -5  571.07   11.76
   5  -5   5  587.40   11.77
  -5  -5  -5  551.46   10.21
  -5   5  -5  563.31   11.07
  -5   5  -5  570.13   11.77
  -5   5  -6  608.57   12.56
  -5  -5  -6  596.41   11.00
  -5   5  -6  621.74   12.07
   5  -5   6  608.94   12.01
   5  -5   6  609.73   12.41
  -5  -5  -7   77.08    2.95
  -5   5  -7   79.99    3.85
   5  -5   7   82.15    3.65
  -5   5  -7   77.50    3.50
   5  -5   7   80.46    3.70
  -5   5  -8  715.94   14.64
  -5  -5  -8  715.10   13.04
   5  -5   8  725.32   14.41
   5  -5   8  746.21   14.63
  -5   5  -9  186.34    6.27
  -5  -5  -9  184.56    5.12
   5  -5   9  187.78    6.12
  -5  -5 -10  272.00    6.75
  -5   5 -10  271.96    7.97
   5   5  10  280.95    6.85
   5  -5  10  273.13    7.87
  -5   5 -11   65.83    3.84
   5   5  11   64.30    3.00
  -5  -5 -11   64.46    3.10
   5  -5  11   66.48    3.84
   5   5  12    1.84    0.93
  -5   5 -12    3.25    1.70
   5  -5  12    1.95    1.76
  -5   5 -13    0.77    1.50
   5   5  13    1.39    1.09
   5  -5  13    0.00    1.64
  -5   5 -14  276.82    8.71
   5   5  14  282.34    7.09
   5  -5  14  283.40    8.95
   5   5  15    0.14    0.92
  -5   5 -15    0.14    1.67
   5  -5  15    0.93    1.74
  -5   5 -16  357.80   10.57
   5   5  16  374.45    8.59
   5  -5  16  366.12   11.02
  -5   5 -17   48.93    3.85
   5  -5  17   48.34    4.21
  -5   5 -18   -0.34    1.83
   5  -5  18    4.07    2.23
  -5   5 -19   33.36    3.44
   5  -5  19   34.52    3.65
  -5   5 -20    0.38    1.83
   5  -5  20    5.17    2.37
  -5   5 -21    7.68    2.42
   5  -5  21    7.90    2.55
  -5   5 -22   17.96    3.00
  -5   5 -23    1.50    1.99
  -5   5 -24  140.59    7.34
   5   7 -25   19.05    3.10
  -5   7  25   20.07    2.88
   5   7 -24  123.38    6.53
  -5   7  24  137.78    6.64
   5   7 -23   38.72    3.81
  -5   7  23   48.06    3.99
  -5   7  22   61.76    4.21
   5   7 -22   55.61    4.28
   5  -7 -22   51.90    4.71
  -5   7  21   76.28    4.51
   5  -7 -21   66.50    5.09
   5   7 -21   70.47    4.68
  -5   7  20   10.73    2.27
   5  -7 -20   13.96    2.84
   5  -7 -19   50.18    4.13
   5  -7 -18  284.85    9.81
   5  -7 -17   13.40    1.90
   5  -7 -17    9.30    2.39
   5  -7 -16   90.14    4.19
   5  -7 -16   86.98    5.04
   5  -7 -15  130.48    4.95
   5  -7 -15  136.75    6.13
   5  -7 -14    2.63    1.17
   5  -7 -14    3.62    1.77
   5  -7 -13  286.58    7.45
   5  -7 -13  303.49    9.04
   5  -7 -12   39.63    2.42
   5  -7 -12   36.30    3.07
   5  -7 -11    0.68    0.90
   5  -7 -11   -0.61    1.63
   5  -7 -10  162.75    4.88
   5   7 -10  171.16    6.01
   5  -7 -10  180.65    6.29
   5  -7  -9    5.00    1.00
   5  -7  -9    2.19    1.40
   5  -7  -8  407.39    8.58
  -5   7   8  438.53   10.24
   5  -7  -8  415.80   10.18
   5  -7  -7   26.67    1.81
   5  -7  -7   27.19    2.53
  -5   7   7   32.47    2.44
   5  -7  -6  216.27    5.46
  -5   7   6  241.07    5.31
   5  -7  -6  229.47    6.84
  -5   7   6  247.13    6.89
  -5   7   5  265.86    6.10
   5  -7  -5  255.27    6.05
  -5   7   5  276.17    6.06
  -5   7   5  278.52    7.42
   5  -7  -5  277.49    7.47
   5  -7  -4  337.35    7.31
  -5   7   4  360.00    7.42
  -5   7   4  342.51    7.28
   5  -7  -4  348.14    8.68
  -5   7   4  363.36    8.67
   5  -7  -3  265.49    6.17
  -5   7   3  275.71    6.35
   5   7  -3  266.47    6.24
  -5   7   3  274.11    6.21
   5   7  -3  267.61    4.92
   5  -7  -3  271.48    7.34
  -5   7   3  280.27    7.33
  -5   7   2 1367.44   21.89
   5   7  -2 1328.45   21.29
  -5   7   2 1345.60   21.50
   5  -7  -2 1330.25   22.98
  -5   7   2 1422.17   23.16
   5   7  -2 1296.35   19.38
  -5   7   1  475.65    9.70
  -5   7   1  475.31    9.36
   5   7  -1  457.09    8.86
   5  -7  -1  464.63   10.45
  -5   7   1  498.17   10.53
  -5   7   0  671.38   12.62
  -5   7   0  665.26   12.14
   5   7   0  636.04   11.23
   5  -7   0  631.01   13.07
  -5   7   0  665.60   13.22
  -5   7  -1  371.40    8.47
   5   7   1  349.78    6.93
  -5   7  -1  375.29    8.07
  -5   7  -1  364.07    7.72
  -5   7  -1  380.39    8.94
  -5   7  -2    1.04    1.22
  -5   7  -2    0.67    1.16
   5   7   2    0.86    0.75
  -5   7  -2   -0.96    0.93
  -5   7  -2    1.39    1.21
  -5   7  -3  398.53    8.90
   5   7   3  390.29    7.30
  -5   7  -3  400.94    9.31
  -5  -7  -3  391.32    7.34
  -5   7  -3  417.04    9.63
  -5  -7  -3  403.52    6.56
  -5   7  -3  395.36    8.60
  -5   7  -4   14.89    1.93
  -5   7  -4   11.10    1.64
  -5  -7  -4   10.89    1.03
  -5   7  -4   10.94    1.42
  -5  -7  -4   12.65    0.90
  -5   7  -4   13.06    1.80
  -5   7  -5    1.55    1.39
  -5   7  -5    4.05    1.48
  -5  -7  -5    3.61    0.83
  -5   7  -5    7.04    1.43
  -5   7  -5    4.14    1.41
  -5  -7  -5    3.12    0.70
  -5   7  -6   29.13    2.51
  -5  -7  -6   29.41    1.56
  -5   7  -6   32.33    2.52
  -5   7  -6   32.22    2.32
  -5  -7  -6   30.46    1.62
  -5   7  -7    5.39    1.68
  -5  -7  -7    6.67    0.99
  -5   7  -7    9.48    1.73
  -5   7  -7    7.23    1.52
  -5  -7  -7    7.69    1.08
  -5   7  -8    7.12    1.76
  -5  -7  -8    8.05    1.15
  -5   7  -8   10.21    1.73
  -5   7  -8    9.51    1.75
  -5  -7  -8    9.26    1.23
  -5   7  -9   23.96    2.58
  -5  -7  -9   25.04    1.69
  -5   7  -9   20.95    2.27
  -5  -7  -9   22.69    1.78
  -5  -7 -10  102.28    3.56
  -5   7 -10  104.23    4.94
  -5  -7 -10  102.60    3.84
  -5  -7 -11   45.98    2.45
  -5   7 -11   43.56    3.39
  -5   7 -12   36.78    3.27
  -5  -7 -12   39.13    2.37
   5   7  12   36.35    2.35
  -5  -7 -13  298.50    7.48
   5   7  13  298.47    7.34
  -5   7 -13  295.20    9.29
  -5  -7 -14  144.57    4.98
   5   7  14  141.85    4.65
  -5   7 -14  141.53    6.35
  -5   7 -15   53.39    4.14
  -5  -7 -15   55.27    3.15
   5   7  15   53.34    2.78
  -5   7 -16  427.00   12.27
  -5  -7 -16  430.00   10.35
  -5  -7 -17    5.63    1.45
  -5   7 -17    3.14    2.17
  -5  -7 -18    6.52    1.64
  -5   7 -18    3.19    2.19
  -5   7 -19  103.26    6.08
  -5   7 -20   -1.85    2.16
  -5   7 -21    8.30    2.70
  -5   7 -22   40.00    4.26
   5   9 -22    0.61    1.83
  -5   9  22    2.20    1.91
   5  -9 -21  343.64   11.93
   5   9 -21  319.50   10.95
   5  -9 -20  119.79    6.76
   5  -9 -19  181.75    8.07
   5  -9 -18  304.45   10.46
   5  -9 -17   20.41    2.94
   5  -9 -16  218.65    8.42
   5  -9 -15  317.89    8.11
   5  -9 -15  348.90   10.52
   5  -9 -14   23.24    1.98
   5  -9 -14   22.57    2.80
   5  -9 -13  233.21    6.27
   5  -9 -13  233.64    8.14
   5  -9 -12   57.58    2.78
   5  -9 -12   59.40    3.93
   5  -9 -11   15.35    1.49
   5  -9 -11   16.42    2.42
   5  -9 -10  433.57    8.96
   5  -9 -10  437.66   11.32
   5  -9  -9   25.90    1.75
   5  -9  -9   33.51    2.98
   5  -9  -8  223.22    5.57
  -5   9   8  238.46    5.35
   5  -9  -8  246.80    7.64
   5  -9  -7   87.12    3.12
  -5   9   7  103.25    3.31
   5  -9  -7   94.37    4.51
  -5   9   6  259.82    6.05
   5  -9  -6  242.75    5.78
   5   9  -6  249.41    5.80
   5  -9  -6  238.80    7.57
  -5   9   6  267.21    7.78
  -5   9   5  318.48    7.18
  -5   9   5  311.42    6.77
   5   9  -5  299.13    6.41
   5  -9  -5  309.66    8.64
  -5   9   5  335.67    8.81
   5   9  -4    1.57    0.96
  -5   9   4    1.77    0.96
  -5   9   4    3.30    1.17
   5  -9  -4    0.09    1.44
  -5   9   4    3.32    1.39
   5   9  -4    1.38    0.68
  -5   9   3  174.99    5.13
   5   9  -3  165.66    4.67
  -5   9   3  167.50    4.58
   5  -9  -3  170.32    5.97
  -5   9   3  176.85    5.97
   5   9  -3  163.70    3.74
  -5   9   2  437.11    9.37
  -5   9   2  407.46    8.52
   5   9  -2  413.66    8.39
   5  -9  -2  427.68   10.32
  -5   9   2  436.64   10.28
   5   9  -2  411.79    7.18
  -5   9   1   98.63    3.89
   5   9  -1   95.97    3.11
  -5   9   1   94.26    3.46
   5  -9  -1   92.99    4.29
   5   9  -1   96.89    2.29
  -5   9   1  106.58    4.52
  -5   9   0  388.10    9.15
  -5   9   0  391.36    8.44
   5   9   0  385.13    7.43
   5  -9   0  390.10    9.82
  -5   9   0  407.98    9.93
   5   9   1  907.41   14.74
  -5   9  -1  920.95   16.40
  -5   9  -1  916.24   17.27
  -5   9  -1  958.60   18.01
  -5   9  -2   26.33    2.48
   5   9   2   28.03    1.34
  -5   9  -2   26.34    2.23
  -5   9  -2   27.59    2.08
  -5   9  -2   29.32    2.61
  -5   9  -3  601.43   12.37
  -5   9  -3  602.12   13.14
  -5   9  -3  624.97   12.67
  -5   9  -3  644.52   13.67
  -5  -9  -3  618.67   10.05
  -5   9  -4   49.17    2.96
  -5   9  -4   53.63    3.37
  -5   9  -4   56.29    3.47
  -5   9  -4   47.69    2.79
  -5  -9  -4   50.09    1.81
  -5   9  -5    0.76    1.34
  -5   9  -5    1.91    1.35
  -5   9  -5    0.11    1.04
  -5  -9  -5    1.02    0.68
  -5   9  -6  115.21    5.12
  -5   9  -6  129.65    5.04
  -5  -9  -6  120.63    3.46
  -5   9  -7    2.14    1.69
  -5  -9  -7    1.03    0.60
  -5   9  -7    0.57    1.30
  -5  -9  -7    0.47    0.84
  -5  -9  -8  455.26    7.98
  -5   9  -8  434.01   11.37
  -5  -9  -8  439.65    9.07
  -5  -9  -9   76.69    2.49
  -5   9  -9   76.16    4.44
  -5  -9  -9   78.32    3.24
  -5  -9 -10   39.35    1.87
  -5   9 -10   40.59    3.42
  -5  -9 -10   33.98    2.28
  -5  -9 -11  205.04    5.02
  -5   9 -11  197.59    7.54
  -5  -9 -11  211.40    6.16
  -5  -9 -12   62.51    2.63
  -5   9 -12   62.20    4.49
  -5  -9 -12   59.11    3.25
  -5  -9 -13  428.75    8.91
   5   9  13  419.89    9.39
  -5   9 -13  421.14   12.10
  -5  -9 -13  423.15   10.31
  -5  -9 -14  107.40    3.84
  -5   9 -14  109.94    5.86
  -5  -9 -14   98.51    4.62
  -5  -9 -15    2.70    1.03
  -5   9 -15    2.73    2.03
  -5  -9 -15    0.68    1.38
  -5   9 -16  104.23    5.97
  -5  -9 -16   97.54    5.01
  -5   9 -17   63.08    4.92
  -5  -9 -17   69.65    4.42
  -5   9 -18   29.39    3.78
  -5  -9 -18   24.83    2.95
  -5   9 -19  121.46    6.84
  -5  -9 -19  112.17    5.99
  -5  -9 -20   16.09    2.95
  -5  -9 -21   17.57    2.88
   5 -11 -19  126.15    6.98
   5 -11 -18   39.85    4.08
   5 -11 -17    2.15    2.05
   5 -11 -16   97.74    5.78
   5 -11 -15  296.40   10.13
   5 -11 -14   37.22    3.57
   5 -11 -13  299.99    9.83
   5 -11 -12   41.40    3.67
   5 -11 -11    9.15    2.21
   5 -11 -10   64.29    2.53
   5 -11 -10   61.92    4.25
   5 -11  -9   44.20    2.02
  -5  11   9   48.09    2.25
   5  11  -9   45.28    2.72
   5 -11  -9   43.88    3.53
  -5  11   8  113.33    3.68
   5  11  -8   97.01    3.81
   5 -11  -8   97.67    5.05
  -5  11   7   54.27    2.67
   5  11  -7   52.41    2.66
   5 -11  -7   54.02    3.78
  -5  11   6    8.03    1.36
   5  11  -6    5.31    1.10
   5 -11  -6    7.31    1.98
  -5  11   5  102.48    3.99
   5  11  -5  104.63    3.44
   5 -11  -5  107.64    5.12
  -5  11   4    4.76    1.39
  -5  11   4    1.13    0.87
   5  11  -4    1.24    0.97
   5 -11  -4   -0.18    1.52
   5  11  -4    0.87    0.69
  -5  11   3  216.26    6.37
   5  11  -3  213.34    5.63
  -5  11   3  225.01    5.52
   5 -11  -3  210.71    7.27
   5  11  -3  214.37    4.90
  -5  11   2   59.91    3.25
  -5  11   2   59.95    2.73
   5  11  -2   58.15    2.50
   5 -11  -2   57.92    3.76
   5  11  -2   60.19    2.14
  -5  11   1   -0.66    1.20
  -5  11   1    1.92    1.10
   5  11  -1    0.83    0.75
   5 -11  -1    0.29    1.51
   5  11  -1    1.07    0.62
  -5  11   0   71.28    3.70
  -5  11   0   74.60    3.21
   5  11   0   75.59    2.38
   5  11   1   73.06    2.06
  -5  11  -1   71.22    3.80
  -5  11  -1   72.99    3.27
  -5  11  -2  173.50    6.28
  -5  11  -2  176.37    5.89
  -5  11  -2  173.40    5.43
  -5  11  -3  344.80    8.49
  -5  11  -3  332.53    9.42
  -5  11  -3  340.97    8.97
  -5  11  -4   96.29    4.18
  -5  11  -4   94.77    4.70
  -5  11  -5   87.63    4.19
  -5  11  -5   93.15    4.81
  -5 -11  -5   93.38    2.97
  -5  11  -6  635.19   13.97
  -5  11  -6  625.24   14.88
  -5 -11  -6  671.22   11.75
  -5  11  -7   59.58    4.08
  -5  11  -7   57.30    3.63
  -5 -11  -7   59.93    2.59
  -5  11  -8  340.35   10.38
  -5 -11  -8  357.30    7.84
  -5  11  -9   31.47    3.26
  -5 -11  -9   39.82    2.34
  -5  11 -10   16.97    2.85
  -5 -11 -10   17.19    1.72
  -5  11 -11  229.43    8.74
  -5 -11 -11  257.65    6.95
  -5  11 -12    6.24    2.29
  -5 -11 -12    4.38    1.28
  -5  11 -13  250.52    9.36
  -5 -11 -13  246.40    7.37
  -5  11 -14  102.99    6.10
  -5 -11 -14  117.01    5.01
  -5  11 -15    9.59    2.58
  -5 -11 -15    8.13    1.71
  -5  11 -16   78.06    5.60
   5 -13 -17    5.90    2.59
   5 -13 -16   40.51    4.12
   5 -13 -15   31.68    3.67
   5 -13 -14   42.09    3.95
   5 -13 -13  281.98   10.02
   5 -13 -12   19.78    3.04
   5 -13 -11   49.88    4.15
   5 -13 -10  287.12    9.67
  -5  13   9   50.73    2.58
   5 -13  -9   55.84    4.29
  -5  13   8  209.55    5.84
   5 -13  -8  201.47    7.84
  -5  13   7  480.65   10.41
   5 -13  -7  464.53   12.68
   5  13  -6   14.73    1.78
  -5  13   6   16.64    1.94
   5 -13  -6   14.57    2.46
  -5  13   5  439.17   10.26
   5 -13  -5  433.81   11.93
   5  13  -5  429.36    9.57
  -5  13   4   12.33    2.00
   5 -13  -4    6.04    1.92
  -5  13   3  187.95    6.44
   5 -13  -3  181.98    7.22
  -5  13   3  200.60    5.02
  -5  13   2   87.69    4.35
   5 -13  -2   84.45    4.84
  -5  13   2   93.43    3.38
  -5  13   1    1.01    1.01
  -5  13   1    0.61    1.13
  -5  13   0  181.73    5.33
  -5  13   0  170.25    6.43
  -5  13  -1  293.97    7.39
  -5  13  -1  276.54    8.67
  -5  13  -2   62.12    3.25
  -5  13  -2   62.08    4.12
  -5  13  -3  418.52    9.87
  -5  13  -3  413.45   11.40
  -5  13  -4   25.60    2.43
  -5  13  -4   23.17    2.95
  -5  13  -5  115.86    4.95
  -5  13  -5  117.08    5.79
  -5  13  -6  192.69    7.66
  -5  13  -6  190.11    6.66
  -5  13  -7    1.02    1.50
  -5  13  -7    5.49    2.16
  -5  13  -8    3.88    1.77
  -5  13  -8    6.23    2.41
  -5  13  -9  120.10    6.33
  -5  13  -9  121.46    5.69
  -5  13 -10    2.98    1.96
  -5  13 -10    2.35    1.89
  -5  13 -11  302.22   10.70
  -5  13 -12   24.17    3.47
  -5  13 -13  100.42    6.21
   5 -15 -14    2.01    2.16
   5 -15 -13  347.75   11.79
   5 -15 -12   44.26    4.13
   5 -15 -11  137.02    7.04
   5 -15 -10   64.69    4.87
   5 -15  -9    7.70    2.21
   5 -15  -8   10.32    2.55
   5 -15  -7  198.44    8.12
  -5  15   6    0.85    1.20
   5 -15  -6   -1.22    1.74
  -5  15   5  238.89    7.53
   5 -15  -5  233.52    8.82
  -5  15   4    6.41    1.85
   5 -15  -4    2.84    2.05
  -5  15   3   40.44    3.25
  -5  15   2   15.47    2.33
  -5  15   1    3.25    1.38
  -5  15   0   66.78    4.27
  -5  15  -1   37.50    3.34
  -5  15  -2   14.70    2.47
  -5  15  -3  364.23   11.23
  -5  15  -4    9.86    2.37
  -5  15  -5  172.34    7.63
  -5  15  -5  176.55    6.23
  -5  15  -6   38.84    3.10
  -5  15  -6   37.19    3.90
  -5  15  -7    5.28    2.35
  -5  15  -7    5.63    1.70
  -5  15  -8    0.96    2.00
  -5  15  -8   -0.55    1.46
  -5  15  -9  145.43    6.41
  -5  15  -9  153.05    7.62
  -5  15 -10    7.80    2.29
  -5  15 -11  135.92    6.54
  -5  15 -12    1.08    1.99
  -5  15 -13   46.78    4.17
  -5  15 -14   15.37    2.99
   5 -17 -10   14.25    2.90
   5 -17  -9   11.18    2.56
   5 -17  -8   -2.41    2.15
   5 -17  -7  171.82    8.00
   5 -17  -6    7.07    2.21
  -5  17   3   65.78    4.39
  -5  17   2    7.65    2.13
  -5  17   1    1.51    1.42
  -5  17   0   -0.51    1.51
  -5  17  -1   29.89    3.20
  -5  17  -2    4.00    1.73
  -5  17  -3  300.69   10.68
  -5  17  -4   12.78    2.96
  -6   0  25   -2.35    1.81
  -6   0  24  589.52   15.01
  -6   0  23    0.11    1.59
  -6   0  22  163.19    6.80
   6   0 -21    0.54    0.91
  -6   0  21    1.91    1.65
   6   0 -20    6.75    1.19
  -6   0  20    6.78    1.89
  -6   0  19    0.27    1.39
  -6   0  18  564.59   12.76
  -6   0  17   -0.27    1.28
  -6   0  16  354.31    8.87
  -6   0  15    0.80    1.22
  -6   0  14  310.91    7.66
  -6   0  13   -0.58    1.06
  -6   0  12    8.53    1.36
   6   0 -11    1.33    1.42
   6   0 -10   19.04    2.11
   6   0  -9    0.97    0.90
   6   0  -9   -0.84    1.27
   6   0  -8 4489.78   66.38
   6   0  -8 4396.33   64.55
   6   0  -8 4492.55   65.89
   6   0  -7   -1.37    1.13
   6   0  -7    0.14    0.70
   6   0  -7   -0.31    1.18
   6   0  -6 2688.22   41.03
   6   0  -6 2649.93   38.95
   6   0  -6 2694.28   40.34
   6   0  -5    0.60    1.22
   6   0  -5    0.27    0.61
   6   0  -5   -0.24    1.16
   6   0  -4   21.67    1.86
  -6   0   4   24.51    2.08
   6   0  -4   21.40    1.67
  -6   0   4   20.79    1.56
   6   0  -3   -1.28    1.28
  -6   0   3   -2.65    1.56
   6   0  -3    0.42    1.11
  -6   0   3   -1.40    0.95
  -6   0   2 2583.77   39.06
   6   0  -2 2578.85   39.01
  -6   0   2 2539.77   38.13
   6   0  -2 2579.81   38.15
   6   0  -1    0.73    1.16
  -6   0   1   -0.24    1.39
  -6   0   1    0.00    0.87
   6   0  -1   -1.39    1.14
  -6   0   0  556.52   10.56
   6   0   0  548.19   10.45
   6   0   0  559.17    9.75
  -6   0   0  542.29    9.65
  -6   0  -1   -0.10    1.39
   6   0   1    0.72    1.16
  -6   0  -1   -0.25    0.87
   6   0   2  275.26    6.50
  -6   0  -2  277.71    5.87
  -6   0  -2  278.42    6.54
  -6   0  -3    1.01    0.96
  -6   0  -3    0.60    1.32
   6   0   4   37.20    2.32
  -6   0  -4   32.89    2.29
   6   0   5    0.42    1.10
  -6   0  -5    1.07    1.39
   6   0   6    1.18    1.08
  -6   0  -6   -0.12    1.28
  -6   0  -7    1.43    1.34
   6   0   7   -1.61    1.09
   6   0   8  371.31    8.63
   6   0   9   -0.24    1.05
   6   0  10  588.96   12.19
   6   0  11    1.35    1.19
   6   0  12   14.12    1.79
   6   0  13    1.30    1.16
   6   0  14  924.73   17.70
   6   0  14  896.32   18.93
   6   0  15    0.56    1.23
   6   0  15    2.98    2.02
   6   0  16  766.81   17.35
   6   0  17    0.46    1.77
   6   0  18  239.34    8.88
   6   0  19    3.46    2.10
   6   0  20   18.92    3.05
   6   0  21   -2.95    2.26
   6   0  22    1.33    2.07
  -6   2  27   30.42    3.58
  -6   2  26    4.63    1.87
  -6   2  25    3.47    1.99
  -6   2  24  234.76    8.62
   6  -2 -24  243.81    9.87
  -6   2  23   23.71    2.89
   6  -2 -23   18.97    3.08
   6   2 -22  182.99    6.27
  -6   2  22  185.53    7.09
   6  -2 -22  196.53    8.36
   6   2 -21    1.62    1.12
  -6   2  21    1.15    1.47
   6  -2 -21    2.57    2.16
  -6   2  20    0.87    1.50
   6  -2 -20   -0.44    1.81
   6  -2 -19   17.64    1.27
  -6   2  19   19.15    2.26
   6  -2 -19   19.06    2.84
   6  -2 -18  653.52   11.46
  -6   2  18  688.35   14.23
   6  -2 -18  678.79   15.82
  -6   2  17   59.61    3.37
   6  -2 -17   56.44    3.94
  -6   2  16  626.84   12.82
   6  -2 -16  606.33   14.26
  -6   2  15    4.45    1.33
   6  -2 -15    3.47    1.68
   6   2 -14  220.44    6.71
  -6   2  14  215.28    5.93
   6  -2 -14  218.40    7.20
  -6   2  13   18.93    1.73
   6   2 -13   17.50    1.88
   6  -2 -13   18.40    2.27
   6   2 -12   22.86    2.04
  -6   2  12   26.18    1.82
   6  -2 -12   23.19    2.45
  -6   2  11   13.89    1.36
   6   2 -11   12.12    1.52
   6  -2 -11   12.55    1.97
   6  -2 -10  252.35    6.85
  -6   2  10  261.41    5.55
   6   2 -10  252.58    6.29
   6  -2 -10  241.64    6.88
   6  -2  -9   -0.76    1.16
   6   2  -9    0.05    0.86
  -6   2   9   -0.53    0.75
   6  -2  -9   -0.05    1.27
   6  -2  -8 1320.00   22.42
  -6   2   8 1354.52   20.23
   6   2  -8 1317.91   21.50
   6  -2  -8 1314.06   22.49
   6  -2  -7   25.51    2.03
   6   2  -7   25.15    1.66
  -6   2   7   24.67    1.11
   6  -2  -7   22.55    2.05
   6   2  -7   24.87    1.80
   6   2  -6 1099.87   18.86
   6  -2  -6 1079.64   18.60
   6  -2  -6 1090.04   18.66
   6   2  -6 1103.73   17.74
  -6   2   6 1083.94   18.61
   6   2  -5  128.33    4.19
   6  -2  -5  126.15    4.13
  -6   2   5  121.70    4.12
   6   2  -5  129.15    3.48
   6  -2  -5  124.84    4.12
  -6   2   5  123.47    4.04
  -6   2   4  538.88   10.27
   6  -2  -4  529.41   10.16
   6   2  -4  513.04   10.20
   6   2  -4  513.92    9.06
  -6   2   4  505.88   10.04
   6  -2  -4  524.44   10.16
   6  -2  -3    0.54    1.10
  -6  -2   3    1.99    1.44
   6   2  -3   -1.16    1.20
  -6   2   3    0.64    1.33
   6   2  -3    0.99    0.79
   6  -2  -3    0.71    1.35
  -6   2   3    1.65    1.12
   6  -2  -2  461.02    9.05
   6   2  -2  447.70    9.14
   6  -2  -2  460.56    9.26
  -6   2   2  491.00    9.42
  -6  -2   2  470.31    9.28
   6  -2  -2  472.01    9.20
  -6  -2   2  461.48    7.91
   6   2  -2  468.91    7.91
  -6   2   2  467.67    9.08
   6  -2  -1   10.51    1.44
  -6  -2   1   10.87    1.63
   6   2  -1    8.70    1.40
  -6   2   1   10.41    1.61
   6  -2  -1   15.37    1.66
   6  -2  -1    9.30    0.71
  -6   2   1   11.74    1.42
  -6  -2   1    9.03    0.86
   6   2  -1   11.85    0.99
   6  -2  -1    9.60    1.49
   6  -2   0  755.94   13.61
   6  -2   0  763.85   13.57
   6   2   0  765.14   13.35
  -6  -2   0  765.80   13.45
  -6   2   0  763.29   13.58
   6  -2   0  770.03   13.42
   6  -2   0  761.67   11.93
  -6   2   0  756.29   13.34
  -6  -2   0  751.11   11.92
   6  -2   1    5.36    1.26
   6   2   1    6.21    1.27
   6  -2   1    7.12    1.44
  -6   2  -1    9.10    1.70
  -6  -2  -1    5.03    1.38
   6  -2   1    6.97    1.42
   6  -2   1    7.06    1.02
  -6  -2  -1    7.14    0.80
  -6   2  -1    7.57    1.30
   6   2   2  353.18    7.53
   6  -2   2  356.14    7.87
   6  -2   2  368.09    7.96
  -6  -2  -2  357.49    6.49
   6  -2   2  348.34    6.92
  -6   2  -2  360.16    7.67
  -6  -2  -2  370.29    7.70
  -6   2  -2  360.79    7.97
   6  -2   3   55.17    2.77
  -6   2  -3   50.80    2.78
   6   2   3   50.83    2.44
  -6   2  -3   49.81    2.49
   6  -2   3   48.12    2.30
  -6  -2  -3   56.22    2.63
   6  -2   4   68.25    3.12
  -6   2  -4   71.88    3.32
   6  -2   4   66.30    2.87
  -6   2  -4   70.03    3.01
  -6  -2  -4   70.63    3.03
  -6  -2  -5   51.71    2.68
  -6   2  -5   48.61    2.91
   6  -2   5   52.88    2.81
   6  -2   5   45.42    2.58
   6  -2   6    1.89    1.13
  -6   2  -6   -0.55    1.38
  -6   2  -6   -0.06    1.41
   6  -2   6    0.22    1.29
  -6  -2  -6   -0.79    1.27
  -6   2  -7  402.88    9.28
  -6  -2  -7  398.79    8.84
   6  -2   7  402.77    9.17
   6   2   7  400.09    8.86
   6  -2   7  391.27    8.98
  -6  -2  -8 1399.68   23.77
   6   2   8 1415.03   23.78
   6  -2   8 1460.06   24.38
  -6   2  -8 1433.83   24.39
   6  -2   8 1398.95   24.13
   6  -2   9   13.89    1.76
   6   2   9   14.47    1.67
  -6   2  -9   13.40    1.94
  -6  -2  -9   16.10    1.89
   6  -2   9   15.25    2.07
   6   2  10 1110.09   19.86
   6  -2  10 1156.19   20.58
  -6   2 -10 1143.24   20.71
   6  -2  10 1125.34   20.81
   6  -2  11   28.27    2.37
  -6   2 -11   30.35    2.64
   6   2  11   27.59    2.40
   6  -2  11   26.93    2.63
   6  -2  12   29.58    2.46
   6   2  12   24.86    2.15
  -6   2 -12   29.70    2.71
   6  -2  12   26.89    2.70
   6   2  13    7.51    1.46
  -6   2 -13    6.83    1.80
   6  -2  13    6.00    1.39
   6  -2  13    7.06    2.03
  -6   2 -14  165.56    6.18
   6   2  14  160.94    5.49
   6  -2  14  148.59    6.22
  -6   2 -15    8.29    1.91
   6   2  15    4.82    1.32
   6  -2  15    3.71    1.80
  -6   2 -16  341.22    9.79
   6   2  16  348.93    8.93
   6  -2  16  335.36   10.32
   6   2  17   23.18    2.27
   6  -2  17   26.36    3.22
   6  -2  18  125.55    6.31
   6  -2  19   11.88    2.64
   6   2  19   10.25    2.64
   6  -2  20   22.21    3.10
   6   2  20   24.03    3.47
   6  -2  21    7.39    2.59
   6   2  21    3.72    2.07
  -6   4  26   78.80    5.12
  -6   4  25    2.18    2.03
  -6   4  24  207.43    7.91
   6   4 -23    9.41    1.92
  -6   4  23   15.08    2.49
   6  -4 -23   12.81    2.69
  -6   4  22  242.48    8.24
   6  -4 -22  230.91    9.36
   6   4 -22  224.51    7.77
  -6   4  21   59.89    3.89
   6  -4 -21   58.63    4.61
  -6   4  20   20.93    2.48
   6  -4 -20   16.75    2.86
  -6   4  19   12.38    1.94
   6  -4 -19    7.98    2.25
  -6   4  18  165.42    5.82
   6  -4 -18  166.64    7.07
  -6   4  17   89.06    4.06
   6  -4 -17   85.17    4.90
  -6   4  16 1013.24   18.38
   6  -4 -16  978.34   20.36
  -6   4  15    2.29    1.20
   6  -4 -15    0.25    1.77
   6   4 -14  359.55    9.36
  -6   4  14  341.13    8.00
   6  -4 -14  348.32    9.71
   6  -4 -13   24.59    0.98
   6  -4 -13   26.91    2.42
  -6   4  13   25.57    1.96
   6   4 -13   23.70    2.30
   6  -4 -13   26.74    2.76
   6  -4 -12    9.31    0.75
   6  -4 -12    9.06    1.61
   6   4 -12   11.70    1.79
  -6   4  12    8.68    1.23
   6  -4 -12   11.66    2.07
   6  -4 -11   86.91    2.37
   6  -4 -11   98.64    4.00
  -6   4  11   95.58    3.15
   6   4 -11   97.34    4.07
   6  -4 -11   95.16    4.34
   6  -4 -10  270.84    5.43
   6  -4 -10  290.00    7.32
  -6   4  10  301.22    6.08
   6   4 -10  288.76    7.38
   6  -4 -10  283.56    7.86
   6  -4  -9    1.90    0.64
   6  -4  -9    0.21    1.05
   6   4  -9    1.32    1.08
   6  -4  -9    1.80    1.44
   6  -4  -8  674.68   12.82
   6  -4  -8  648.86   11.26
   6  -4  -8  686.98   13.54
  -6   4   8  700.85   13.56
   6  -4  -7   89.52    3.51
   6  -4  -7   85.70    2.74
  -6   4   7   93.51    3.83
   6  -4  -7   87.93    3.85
   6  -4  -6  375.80    8.20
   6  -4  -6  368.62    7.33
   6  -4  -6  382.22    8.75
  -6   4   6  391.32    8.77
   6   4  -5  388.90    8.43
   6  -4  -5  375.42    8.23
  -6   4   5  381.99    8.20
   6  -4  -5  376.20    7.55
  -6   4   5  379.29    8.65
   6  -4  -5  391.17    8.73
   6   4  -4  233.88    5.93
  -6   4   4  237.66    5.86
   6  -4  -4  226.30    5.79
   6  -4  -4  229.39    5.41
   6   4  -4  233.39    4.55
  -6   4   4  237.98    6.22
   6  -4  -4  221.66    6.13
   6  -4  -3   46.08    2.25
  -6   4   3   46.80    2.53
   6   4  -3   49.86    2.52
   6  -4  -3   47.71    2.43
  -6   4   3   50.31    1.24
   6  -4  -3   47.30    2.74
   6   4  -3   47.97    1.49
  -6   4   3   51.52    2.66
   6  -4  -2  421.21    8.52
  -6   4   2  422.48    8.65
   6  -4  -2  414.66    8.67
   6   4  -2  430.31    8.58
  -6   4   2  406.59    6.71
   6  -4  -2  421.78    9.09
   6   4  -2  417.27    6.49
  -6   4   2  429.88    9.02
   6  -4  -1   36.15    2.19
   6  -4  -1   33.66    2.09
  -6   4   1   33.77    2.21
   6   4  -1   32.84    1.93
  -6  -4   1   31.73    2.04
  -6   4   1   31.42    1.29
   6  -4  -1   33.21    2.33
  -6   4   1   33.34    2.19
   6  -4   0 1615.36   25.74
   6  -4   0 1588.76   25.65
  -6   4   0 1618.87   25.70
  -6  -4   0 1618.70   25.24
  -6   4   0 1633.95   25.74
   6   4   0 1591.23   25.07
   6  -4   0 1589.44   25.95
  -6   4   0 1563.69   23.94
  -6   4   0 1590.00   25.95
   6  -4   1  103.90    3.74
  -6   4  -1  100.24    3.74
  -6   4  -1  106.62    3.86
   6  -4   1   94.52    3.84
  -6  -4  -1   99.67    3.39
   6   4   1   99.62    3.31
  -6   4  -1  105.82    3.83
   6   4   2  900.25   15.33
  -6   4  -2  933.09   16.34
   6  -4   2  926.28   16.27
  -6   4  -2  920.84   16.30
  -6  -4  -2  888.80   13.48
   6  -4   2  901.59   14.91
  -6  -4  -2  920.33   15.43
  -6   4  -2  927.82   16.25
   6  -4   3    2.48    1.33
  -6   4  -3   -0.03    1.38
  -6   4  -3    1.22    1.11
   6  -4   3    1.57    0.96
  -6   4  -3    0.20    1.36
  -6  -4  -3    1.51    1.05
   6   4   3    0.23    0.87
   6  -4   4   17.03    1.81
  -6   4  -4   16.75    2.01
  -6   4  -4   18.83    1.92
   6  -4   4   16.85    1.79
  -6   4  -4   14.31    1.81
  -6  -4  -4   13.75    1.47
  -6   4  -5  174.96    5.49
  -6   4  -5  178.84    5.66
   6  -4   5  182.79    5.62
  -6   4  -5  183.80    5.63
   6  -4   5  182.16    5.16
  -6  -4  -5  181.44    4.89
  -6   4  -6  314.99    8.11
   6  -4   6  323.74    8.07
  -6   4  -6  315.85    8.03
   6  -4   6  320.06    7.62
  -6  -4  -6  306.85    7.13
  -6  -4  -7  254.00    6.41
   6  -4   7  262.95    7.23
  -6   4  -7  256.05    7.25
   6  -4   7  260.80    6.97
  -6  -4  -8  909.97   16.45
   6  -4   8  952.48   17.62
  -6   4  -8  925.21   17.71
   6  -4   8  913.13   17.26
   6  -4   9   44.60    3.00
  -6   4  -9   44.24    3.12
  -6  -4  -9   35.83    2.41
   6   4   9   41.14    2.54
   6  -4   9   41.33    2.97
  -6  -4 -10  618.37   12.49
  -6   4 -10  625.30   13.66
   6  -4  10  640.55   13.49
   6   4  10  629.99   12.50
   6  -4  10  591.11   13.26
  -6   4 -11  204.42    6.85
   6   4  11  191.65    5.77
  -6  -4 -11  191.06    5.89
   6  -4  11  186.79    6.54
   6   4  12   64.61    3.26
  -6   4 -12   69.07    4.06
  -6  -4 -12   65.91    3.47
   6  -4  12   63.22    3.92
   6   4  13  120.69    4.54
  -6   4 -13  126.27    5.52
   6  -4  13  127.73    5.62
  -6   4 -14  245.33    8.19
   6   4  14  257.57    7.10
   6  -4  14  266.11    8.61
   6   4  15    7.03    1.39
  -6   4 -15    7.44    2.16
   6  -4  15    4.60    1.93
   6   4  16  680.44   13.82
  -6   4 -16  678.34   15.89
   6  -4  16  668.24   16.11
  -6   4 -17    3.61    1.93
   6   4  17    1.29    1.13
   6  -4  17    3.16    2.11
  -6   4 -18  229.32    8.53
   6  -4  18  243.84    9.14
  -6   4 -19    3.75    2.01
   6  -4  19   -0.90    1.91
  -6   4 -20    1.31    1.82
   6  -4  20   -0.88    1.87
  -6   4 -21   28.22    3.41
   6  -4  21   42.52    4.18
  -6   4 -22  103.48    6.12
   6   6 -24   59.68    4.42
  -6   6  24   55.72    4.16
   6   6 -23    1.08    1.65
  -6   6  23   13.20    2.36
  -6   6  22   77.00    4.54
   6   6 -22   61.42    4.38
   6  -6 -22   66.95    5.16
  -6   6  21   39.88    3.26
   6  -6 -21   42.08    4.07
  -6   6  20   37.14    3.01
   6  -6 -20   44.37    4.20
  -6   6  19   83.67    4.33
   6  -6 -19   82.56    5.34
  -6   6  18    2.62    1.33
   6  -6 -18    3.21    2.16
  -6   6  17   13.97    2.00
   6  -6 -17   17.11    2.54
   6  -6 -16  217.30    7.09
  -6   6  16  229.81    6.72
   6  -6 -16  218.54    8.05
   6  -6 -15    6.58    1.49
   6  -6 -15    2.17    1.75
   6  -6 -14  276.57    7.80
   6  -6 -14  292.16    8.95
   6  -6 -13   92.57    4.05
   6  -6 -13   99.68    4.96
   6  -6 -12    2.66    1.17
   6   6 -12    4.39    1.55
   6  -6 -12    2.46    1.63
   6  -6 -11  167.91    5.29
   6   6 -11  159.40    5.78
   6  -6 -11  165.66    6.14
   6  -6 -10  159.23    5.06
   6   6 -10  165.64    5.71
   6  -6 -10  172.76    6.11
   6  -6  -9    3.97    1.24
   6  -6  -9    3.87    0.62
   6  -6  -9    4.01    1.62
  -6   6   9    4.05    1.38
   6  -6  -8  212.57    5.74
   6  -6  -8  207.75    4.58
  -6   6   8  232.21    6.81
   6  -6  -8  215.79    6.70
   6  -6  -7   64.20    2.89
   6  -6  -7   67.12    2.37
  -6   6   7   68.58    3.54
   6  -6  -7   69.55    3.65
   6  -6  -6  284.19    6.82
   6  -6  -6  284.17    6.13
   6  -6  -6  295.42    7.83
  -6   6   6  300.08    7.81
   6   6  -5  344.33    7.96
  -6   6   5  346.81    7.64
   6  -6  -5  339.29    7.61
   6  -6  -5  329.84    7.08
  -6   6   5  358.32    8.69
   6  -6  -5  349.21    8.61
  -6   6   4  103.67    3.42
   6  -6  -4  101.28    3.40
   6   6  -4  105.13    3.78
   6  -6  -4  104.60    3.68
  -6   6   4  108.15    3.72
   6  -6  -4  107.39    4.35
  -6   6   4  113.55    4.37
   6  -6  -3   39.76    2.16
   6  -6  -3   40.61    2.31
  -6   6   3   44.99    2.33
  -6   6   3   39.85    2.32
   6   6  -3   40.44    2.25
   6  -6  -3   40.21    2.83
   6   6  -3   40.75    1.12
  -6   6   3   45.34    2.77
  -6   6   2   13.05    1.53
   6  -6  -2   13.82    1.54
   6   6  -2   12.11    1.35
  -6   6   2   14.74    1.54
   6  -6  -2   14.01    1.50
  -6   6   2   14.89    1.76
   6  -6  -2   10.73    1.72
  -6   6   1   49.12    2.59
   6  -6  -1   52.09    2.63
   6  -6  -1   46.17    2.52
   6   6  -1   49.73    2.33
  -6   6   1   50.29    2.63
   6  -6  -1   49.83    3.02
  -6   6   1   47.13    1.99
  -6   6   1   53.28    2.97
  -6   6   0 2127.76   33.43
   6  -6   0 2125.46   33.46
   6   6   0 2071.99   32.27
  -6   6   0 2150.70   33.22
  -6   6   0 2075.69   31.90
   6  -6   0 2111.78   34.05
  -6   6   0 2167.05   34.14
  -6   6  -1   44.86    2.70
   6  -6   1   43.50    2.58
  -6   6  -1   44.15    2.73
   6  -6   1   42.56    2.84
  -6   6  -1   42.11    2.07
  -6   6  -1   38.29    2.46
  -6  -6  -1   40.19    2.06
   6   6   1   45.29    2.13
  -6   6  -2  711.64   13.89
   6  -6   2  742.07   14.04
   6   6   2  699.66   12.47
  -6   6  -2  743.90   13.80
  -6  -6  -2  707.96   12.55
  -6   6  -2  733.61   14.29
  -6   6  -2  702.71   12.70
   6  -6   3   20.34    2.04
  -6   6  -3   17.26    2.01
  -6   6  -3   15.32    1.87
  -6  -6  -3   16.53    1.41
   6   6   3   16.32    1.37
  -6   6  -3   12.47    1.24
  -6   6  -3   19.26    2.01
  -6  -6  -3   14.74    0.63
   6  -6   4   19.19    1.96
  -6   6  -4   20.25    2.19
  -6   6  -4   17.32    2.03
  -6  -6  -4   17.02    1.44
  -6   6  -4   18.08    1.91
  -6   6  -4   18.95    1.67
  -6  -6  -4   18.70    0.96
  -6   6  -5  112.28    4.48
  -6   6  -5  110.84    4.61
  -6  -6  -5  115.16    3.57
  -6   6  -5  117.61    4.17
  -6   6  -5  116.51    4.63
   6  -6   5  113.81    4.52
  -6  -6  -5  117.13    2.92
  -6   6  -6  168.36    5.84
  -6   6  -6  169.18    5.74
  -6  -6  -6  173.68    4.65
  -6   6  -6  172.82    5.44
  -6   6  -6  168.29    5.78
   6  -6   6  180.15    5.89
   6  -6   7   10.37    1.69
  -6   6  -7    6.97    1.74
  -6  -6  -7   11.31    1.35
  -6   6  -7    8.54    1.54
  -6   6  -7   11.20    1.77
  -6   6  -8  349.21    9.40
  -6  -6  -8  353.96    7.83
   6  -6   8  354.20    8.96
   6  -6   8  371.25    9.42
  -6   6  -9  234.17    7.52
   6  -6   9  233.06    7.18
  -6  -6  -9  238.42    6.10
  -6   6 -10  368.44    9.97
  -6  -6 -10  362.54    8.29
   6  -6  10  361.54    9.63
   6   6  11  135.07    4.77
  -6   6 -11  139.39    5.92
  -6  -6 -11  144.06    4.78
   6  -6  11  138.87    5.75
  -6   6 -12  132.02    5.89
   6   6  12  128.66    4.66
  -6  -6 -12  135.61    4.77
   6  -6  12  122.41    5.55
   6   6  13   11.02    1.59
  -6   6 -13   11.86    2.31
   6  -6  13   18.44    2.70
  -6  -6 -13   16.80    1.96
   6   6  14   91.08    3.91
  -6  -6 -14   88.74    4.10
  -6   6 -14   98.38    5.35
   6  -6  14   88.23    5.02
  -6   6 -15   27.46    3.18
   6   6  15   22.97    2.11
   6  -6  15   28.51    3.15
  -6  -6 -15   25.26    2.38
  -6   6 -16  553.12   14.42
  -6  -6 -16  569.68   12.89
   6  -6  16  544.99   14.50
  -6  -6 -17   18.83    2.31
  -6   6 -17   19.46    2.84
   6  -6  17   11.81    2.56
  -6   6 -18  399.97   12.21
  -6  -6 -18  408.89   10.97
   6  -6  18  409.00   12.58
  -6   6 -19   88.71    5.58
  -6  -6 -19   92.22    4.94
   6  -6  19   89.35    5.78
  -6  -6 -20    9.62    2.15
  -6   6 -20   11.47    2.65
   6  -6  20   10.25    2.41
  -6   6 -21  166.11    8.01
  -6  -6 -21  165.68    7.08
  -6   6 -22  126.40    7.08
   6   8 -24   41.24    4.01
   6   8 -23    9.43    2.38
  -6   8  22   81.16    4.76
   6   8 -22   83.39    5.34
  -6   8  21   34.13    3.13
   6  -8 -21   36.04    4.05
  -6   8  20   21.47    2.63
   6  -8 -20   22.71    3.33
   6  -8 -19   61.43    4.66
   6  -8 -18  145.40    6.95
   6  -8 -17  124.19    6.39
   6  -8 -16  213.97    6.84
   6  -8 -16  227.27    8.49
   6  -8 -15   31.93    2.54
   6  -8 -15   28.47    3.25
   6  -8 -14   85.87    3.88
   6  -8 -14   79.05    4.77
   6  -8 -13  485.51   10.73
   6  -8 -13  485.67   12.59
   6  -8 -12   40.17    2.55
   6  -8 -12   42.87    3.47
   6  -8 -11  347.17    8.27
   6  -8 -11  363.27   10.06
   6  -8 -10  213.72    5.91
   6  -8 -10  218.68    7.43
   6  -8  -9  194.51    5.47
   6  -8  -9  198.51    6.90
   6  -8  -8  131.88    4.29
   6  -8  -8  136.52    5.53
   6  -8  -7    1.17    0.85
  -6   8   7    4.26    1.57
   6  -8  -7    3.75    1.61
   6  -8  -6   66.95    2.92
  -6   8   6   65.41    2.71
   6  -8  -6   73.86    3.95
  -6   8   6   74.61    3.97
   6   8  -5   19.76    1.85
   6  -8  -5   22.05    1.71
  -6   8   5   22.93    1.83
  -6   8   5   19.97    1.65
  -6   8   5   21.49    2.15
   6  -8  -5   25.75    2.58
   6  -8  -4   49.25    2.49
  -6   8   4   52.79    2.63
   6   8  -4   50.36    2.65
  -6   8   4   51.30    2.60
   6   8  -4   46.78    1.63
   6  -8  -4   53.77    3.41
  -6   8   4   49.86    3.15
  -6   8   3  136.29    4.42
  -6   8   3  138.97    4.34
   6   8  -3  132.83    4.22
   6  -8  -3  130.09    5.21
   6   8  -3  133.54    2.64
  -6   8   3  142.92    5.30
  -6   8   2   41.02    2.39
  -6   8   2   47.50    2.49
   6   8  -2   44.08    2.33
   6  -8  -2   42.98    3.08
  -6   8   2   48.48    3.07
  -6   8   1    2.09    1.24
  -6   8   1    0.89    1.14
   6   8  -1   -0.73    0.92
   6  -8  -1    0.48    1.37
  -6   8   1    1.58    1.19
  -6   8   0  875.18   16.25
   6   8   0  844.84   14.60
  -6   8   0  880.62   15.78
  -6   8   0  856.57   15.14
   6  -8   0  862.79   17.00
  -6   8   0  895.12   17.12
  -6   8  -1    2.03    1.26
   6   8   1    1.70    0.85
  -6   8  -1    2.90    1.32
  -6   8  -1    2.58    0.99
  -6   8  -1    0.01    1.26
   6   8   2  825.48   14.15
  -6   8  -2  850.29   16.42
  -6   8  -2  896.43   17.12
  -6   8  -2  860.30   15.46
  -6   8  -2  856.50   15.89
   6   8   3  550.27    9.98
  -6   8  -3  562.83   11.85
  -6   8  -3  561.70   12.31
  -6   8  -3  569.73   11.47
  -6   8  -3  581.29   12.73
  -6   8  -4    1.13    1.41
  -6  -8  -4    0.40    0.74
  -6   8  -4    4.12    1.54
  -6   8  -4    2.67    1.06
  -6   8  -4    2.71    1.27
  -6  -8  -4    2.12    0.49
  -6   8  -5  377.55    9.35
  -6   8  -5  355.40    9.49
  -6  -8  -5  372.47    7.37
  -6   8  -5  390.66    9.13
  -6  -8  -5  370.23    6.70
  -6   8  -6  223.68    7.19
  -6   8  -6  222.43    6.89
  -6  -8  -6  211.51    5.03
  -6   8  -6  207.88    6.46
  -6  -8  -6  216.15    4.74
  -6   8  -7  186.87    6.40
  -6   8  -7  176.98    6.49
  -6  -8  -7  175.90    4.58
  -6   8  -7  184.17    6.13
  -6  -8  -7  178.21    4.48
  -6   8  -8  901.80   18.45
  -6  -8  -8  897.07   15.38
  -6   8  -8  923.53   17.95
  -6  -8  -8  894.60   15.45
  -6  -8  -9  273.87    6.36
  -6   8  -9  271.41    8.60
  -6  -8  -9  272.28    6.54
  -6  -8 -10   93.91    3.45
  -6   8 -10   93.14    4.95
  -6  -8 -10   95.01    3.70
  -6  -8 -11  100.06    3.66
  -6   8 -11   95.21    5.17
  -6  -8 -11   93.93    3.91
  -6  -8 -12    3.60    1.13
  -6   8 -12    3.35    1.87
  -6  -8 -12    2.54    1.13
  -6  -8 -13   58.12    2.98
  -6   8 -13   59.56    4.32
   6   8  13   55.27    3.08
  -6  -8 -13   56.67    3.33
  -6   8 -14   50.39    4.19
  -6  -8 -14   48.77    2.89
  -6  -8 -14   48.45    3.24
  -6   8 -15  118.85    6.21
  -6  -8 -15  121.46    4.76
  -6  -8 -15  121.09    5.25
  -6   8 -16  329.46   10.96
  -6  -8 -16  331.03    8.64
  -6  -8 -16  311.00    9.30
  -6  -8 -17   -0.60    1.15
  -6   8 -17   -0.66    1.93
  -6  -8 -17    2.49    1.71
  -6   8 -18  196.54    8.56
  -6  -8 -18  178.25    7.27
  -6   8 -19   94.26    5.97
  -6  -8 -19   79.63    5.02
  -6   8 -20    1.05    2.17
  -6  -8 -20    1.24    1.90
  -6  -8 -21  170.03    7.78
  -6  -8 -22   97.93    6.11
   6 -10 -20    2.33    2.04
   6 -10 -19   58.25    5.48
   6 -10 -18   70.86    5.20
   6 -10 -17   50.13    4.33
   6 -10 -16  194.25    8.14
   6 -10 -15   20.41    3.02
   6 -10 -14   16.36    2.80
   6 -10 -13  581.04   14.76
   6 -10 -12   44.81    2.56
   6 -10 -12   48.83    3.92
   6 -10 -11  570.01   11.34
   6 -10 -11  564.46   14.09
   6 -10 -10   80.92    3.27
   6 -10 -10   80.00    4.64
   6 -10  -9    1.25    0.88
   6 -10  -9   -1.27    1.62
   6 -10  -8  334.66    7.52
   6 -10  -8  329.12    9.70
   6 -10  -7  150.28    4.54
  -6  10   7  169.86    4.80
   6  10  -7  157.78    4.47
   6 -10  -7  158.23    6.36
  -6  10   6   43.83    2.53
   6  10  -6   38.52    2.59
   6  10  -6   39.31    1.97
   6 -10  -6   37.42    3.22
  -6  10   5  128.98    4.42
  -6  10   5  127.39    4.09
   6  10  -5  118.24    4.37
   6 -10  -5  121.14    5.40
   6  10  -5  118.86    3.30
  -6  10   4   37.69    2.30
   6  10  -4   34.45    2.32
  -6  10   4   27.44    2.12
   6 -10  -4   31.58    2.99
   6  10  -4   34.29    1.50
  -6  10   3  396.02    9.24
  -6  10   3  406.47    8.70
   6  10  -3  397.94    8.63
   6 -10  -3  385.74   10.41
   6  10  -3  397.99    6.79
  -6  10   2  180.93    5.70
  -6  10   2  187.64    5.24
   6  10  -2  176.67    4.86
   6 -10  -2  181.05    6.55
   6  10  -2  167.14    3.11
  -6  10   1  222.26    6.59
   6 -10  -1  211.70    7.27
   6  10  -1  218.78    5.35
  -6  10   1  214.96    5.99
  -6  10   0   69.61    3.61
  -6  10   0   70.49    3.30
  -6  10   0   71.08    3.32
   6  10   0   69.36    2.57
  -6  10  -1   45.51    3.05
  -6  10  -1   46.53    2.77
  -6  10  -1   51.20    2.84
   6  10   1   45.15    1.99
   6  10   2  147.94    3.61
  -6  10  -2  142.92    5.51
  -6  10  -2  142.42    5.02
  -6  10  -2  140.32    5.02
  -6  10  -3  603.11   13.54
  -6  10  -3  615.66   12.87
  -6  10  -3  597.85   12.73
  -6  10  -4   47.00    3.05
  -6  10  -4   52.91    3.58
  -6  10  -4   46.77    2.95
  -6  10  -5  307.76    8.51
  -6  10  -5  305.09    9.11
  -6 -10  -5  316.86    5.90
  -6  10  -5  321.02    8.69
  -6  10  -6   86.14    4.35
  -6  10  -6   71.40    4.31
  -6 -10  -6   78.63    2.52
  -6  10  -7    1.81    1.62
  -6  10  -7    0.84    1.57
  -6 -10  -7    0.62    0.67
  -6  10  -8  220.14    7.47
  -6  10  -8  215.60    7.78
  -6 -10  -8  217.44    5.39
  -6 -10  -9    8.71    0.92
  -6  10  -9    8.44    2.12
  -6 -10  -9    9.27    1.23
  -6 -10 -10  126.10    3.42
  -6  10 -10  117.85    5.96
  -6 -10 -10  127.38    4.31
  -6 -10 -11   69.81    2.57
  -6  10 -11   71.00    4.74
  -6 -10 -11   71.67    3.30
  -6  10 -12   40.62    3.95
  -6 -10 -12   41.69    2.69
  -6  10 -13   71.82    5.00
  -6 -10 -13   73.85    3.71
  -6  10 -14    6.04    2.20
  -6 -10 -14    6.54    1.61
  -6  10 -15   26.74    3.48
  -6 -10 -15   31.00    2.73
  -6  10 -16  154.42    7.63
  -6 -10 -16  148.88    6.11
  -6  10 -17   20.78    3.24
   6 -12 -18   85.88    5.92
   6 -12 -17  128.74    7.07
   6 -12 -16   49.74    4.37
   6 -12 -15   48.83    4.36
   6 -12 -14   96.81    5.75
   6 -12 -13  185.25    7.85
   6 -12 -12   92.02    5.40
   6 -12 -11  240.63    8.77
   6 -12 -10   61.97    4.44
   6 -12  -9    3.29    2.16
  -6  12   8  165.91    5.01
   6 -12  -8  158.73    6.89
   6  12  -7    8.76    1.61
  -6  12   7   10.84    1.60
   6 -12  -7    6.94    1.94
   6  12  -7    8.54    1.24
   6  12  -6   15.02    1.83
  -6  12   6   18.81    1.98
   6  12  -6   13.84    1.35
   6 -12  -6   18.74    2.69
  -6  12   5  452.70   10.39
   6  12  -5  448.77   10.08
   6 -12  -5  461.59   12.33
   6  12  -5  460.62    8.68
  -6  12   4   32.15    2.51
   6  12  -4   33.72    2.30
  -6  12   4   37.06    2.21
   6 -12  -4   28.98    3.00
   6  12  -4   32.31    1.60
  -6  12   3  194.27    6.38
   6  12  -3  191.70    5.35
  -6  12   3  201.52    5.55
   6 -12  -3  186.79    7.26
   6  12  -3  197.32    4.20
  -6  12   2  118.94    4.95
  -6  12   2  120.86    4.28
   6  12  -2  121.21    3.82
   6 -12  -2  118.42    5.68
   6  12  -2  123.07    2.77
  -6  12   1  121.63    5.09
  -6  12   1  126.88    4.45
   6  12  -1  118.72    3.54
  -6  12   0    4.77    1.28
  -6  12   0    6.87    1.40
   6  12   0    6.25    0.93
  -6  12  -1   -2.01    1.68
  -6  12  -1    3.70    1.37
   6  12   1    1.51    0.61
  -6  12  -1    2.20    1.32
  -6  12  -2   36.04    3.17
  -6  12  -2   38.67    2.74
  -6  12  -3  161.17    6.41
  -6  12  -3  163.51    5.74
  -6  12  -4   39.31    3.37
  -6  12  -4   40.65    3.03
  -6  12  -5  373.21    9.78
  -6  12  -5  371.45   10.75
  -6  12  -6    7.64    2.08
  -6 -12  -6    7.75    0.88
  -6  12  -6    8.29    1.83
  -6  12  -7    4.53    1.81
  -6  12  -7    2.88    1.92
  -6  12  -8  103.68    5.24
  -6  12  -8  102.77    5.64
  -6  12  -9    6.51    2.11
  -6  12  -9    4.94    2.15
  -6  12 -10  120.05    5.89
  -6  12 -10  119.21    6.31
  -6  12 -11   51.90    4.06
  -6  12 -11   53.12    4.44
  -6  12 -12    4.10    2.18
  -6  12 -13  112.01    6.50
  -6  12 -14   33.11    3.96
   6 -14 -15    7.28    2.56
   6 -14 -14    4.32    2.32
   6 -14 -13   56.38    4.68
   6 -14 -12    1.53    1.94
   6 -14 -11  227.78    9.03
   6 -14 -10   24.39    3.29
   6 -14  -9  121.05    6.36
   6 -14  -8   28.55    3.38
  -6  14   7   21.48    2.14
   6 -14  -7   20.29    2.76
  -6  14   6   16.93    2.01
   6 -14  -6   17.00    2.72
  -6  14   5  473.57   11.26
   6 -14  -5  464.17   13.01
  -6  14   4   17.20    2.22
   6 -14  -4   11.30    2.35
  -6  14   3  283.11    8.59
   6 -14  -3  296.40    9.83
  -6  14   2   53.13    3.61
  -6  14   1   24.45    2.62
  -6  14   1   24.19    2.06
  -6  14   0   27.32    2.74
  -6  14   0   36.28    2.56
  -6  14  -1   16.86    2.33
  -6  14  -1   16.33    1.90
  -6  14  -2   48.41    3.85
  -6  14  -2   53.27    3.17
  -6  14  -3  110.42    5.77
  -6  14  -3  110.31    4.67
  -6  14  -4   51.48    4.16
  -6  14  -4   55.01    3.49
  -6  14  -5  303.01   10.20
  -6  14  -5  298.40    8.75
  -6  14  -6   14.28    2.81
  -6  14  -6    9.96    2.13
  -6  14  -7  146.45    6.14
  -6  14  -7  142.09    6.98
  -6  14  -8   21.31    3.02
  -6  14  -8   23.52    2.77
  -6  14  -9    5.93    2.31
  -6  14  -9    3.03    1.74
  -6  14 -10   16.14    2.89
  -6  14 -10   20.64    2.95
  -6  14 -11  151.32    6.98
  -6  14 -12    5.49    2.07
  -6  14 -13  190.40    8.33
  -6  14 -14   35.55    4.05
   6 -16 -11  172.97    8.30
   6 -16 -10   22.85    3.37
   6 -16  -9  155.35    7.70
   6 -16  -8    3.74    1.95
   6 -16  -7    0.33    1.78
   6 -16  -6   -1.56    2.19
   6 -16  -5  255.39    9.82
  -6  16   4    2.44    1.52
  -6  16   3  141.57    6.20
  -6  16   2    4.28    1.58
  -6  16   1   29.89    3.06
  -6  16   0    5.92    1.81
  -6  16  -1   -1.78    1.95
  -6  16  -2   37.22    3.50
  -6  16  -3   72.39    4.97
  -6  16  -4   17.40    2.88
  -6  16  -5  185.03    8.31
  -6  16  -6   15.87    2.98
  -6  18   0    1.58    1.59
  -6  18  -1   12.81    2.47
  -7   1  25   10.35    2.43
  -7   1  24   92.87    5.25
   7  -1 -24   99.07    6.32
  -7   1  23    3.83    1.77
   7  -1 -23    3.67    2.30
  -7   1  22  355.54   10.23
   7  -1 -22  347.03   11.50
  -7   1  21    3.28    1.59
   7  -1 -21   -0.85    2.05
  -7   1  20  208.67    7.05
   7  -1 -20  202.07    5.38
   7  -1 -20  211.57    8.34
  -7   1  19   73.09    3.91
   7  -1 -19   76.17    4.84
  -7   1  18    5.29    1.51
   7  -1 -18    5.50    2.14
  -7   1  17  208.86    6.39
   7  -1 -17  199.32    7.46
  -7   1  16  625.11   12.69
   7  -1 -16  603.70   14.26
  -7   1  15   18.12    1.83
   7  -1 -15   18.19    2.42
  -7   1  14  345.39    7.94
   7  -1 -14  340.95    9.39
  -7   1  13   14.77    1.55
   7  -1 -13   16.67    2.26
   7   1 -12  127.91    4.43
   7   1 -12  137.21    5.00
   7  -1 -12  131.82    5.11
   7  -1 -11   -0.03    1.15
   7   1 -11    2.64    1.04
   7   1 -11    0.68    1.37
   7  -1 -11    0.22    1.34
   7  -1 -10  180.33    5.79
   7   1 -10  177.24    4.84
   7   1 -10  180.16    5.44
   7  -1 -10  172.26    5.61
   7   1  -9  362.97    8.70
   7  -1  -9  350.50    8.48
   7   1  -9  332.40    7.14
   7   1  -9  343.00    7.95
   7  -1  -9  341.10    8.26
   7  -1  -8  520.13   10.95
   7   1  -8  516.67   11.02
   7   1  -8  501.97    9.42
   7  -1  -8  518.33   10.67
   7   1  -8  509.44   10.23
   7  -1  -7  189.13    5.55
   7   1  -7  193.75    5.68
   7   1  -7  182.84    4.38
   7  -1  -7  187.05    5.34
   7   1  -7  183.70    5.02
   7  -1  -6 1732.40   28.19
   7   1  -6 1719.41   28.23
   7  -1  -6 1739.24   25.41
   7  -1  -6 1722.30   27.72
   7   1  -6 1754.98   27.26
  -7   1   6 1749.51   27.79
   7   1  -5   26.20    2.09
  -7   1   5   29.30    2.31
   7  -1  -5   26.09    2.08
   7  -1  -5   27.99    0.97
   7   1  -5   30.42    1.90
  -7   1   5   27.17    1.93
   7  -1  -5   29.31    2.07
   7  -1  -4 1487.99   24.27
   7   1  -4 1495.15   24.36
  -7   1   4 1500.46   24.37
  -7  -1   4 1506.00   24.41
  -7   1   4 1466.82   23.75
   7  -1  -4 1493.93   23.75
  -7  -1   4 1436.58   23.07
   7   1  -4 1476.55   23.12
   7   1  -3   96.48    3.62
  -7  -1   3   98.62    3.80
  -7   1   3   98.77    3.76
   7  -1  -3   98.24    3.68
  -7   1   3   96.00    3.35
   7  -1  -3   99.97    3.44
   7   1  -3  100.34    3.06
  -7  -1   3   93.52    2.95
   7  -1  -2    8.71    1.51
  -7   1   2    7.39    1.65
   7   1  -2    7.88    1.41
  -7  -1   2    8.04    1.68
  -7  -1   2    6.97    1.05
   7  -1  -2    8.56    1.43
   7   1  -2    8.93    1.18
  -7   1   2    6.02    1.14
   7  -1  -1   46.39    2.51
  -7  -1   1   44.23    2.60
   7   1  -1   43.62    2.45
  -7   1   1   43.27    2.57
   7   1  -1   46.56    2.02
   7  -1  -1   44.16    2.31
  -7   1   1   45.23    2.24
  -7  -1   1   41.46    1.84
  -7  -1   0 2481.28   37.89
  -7   1   0 2474.14   38.04
   7  -1   0 2440.28   37.93
   7   1   0 2446.22   37.85
   7   1   0 2521.98   36.52
   7  -1   0 2442.41   37.27
  -7   1   0 2429.82   37.18
  -7  -1   0 2407.65   36.42
   7  -1   1  266.42    6.60
   7  -1   1  262.60    6.60
  -7   1  -1  263.31    6.08
  -7  -1  -1  258.08    5.51
  -7  -1  -1  273.75    6.64
  -7   1  -1  266.24    6.67
   7   1   1  268.37    6.52
   7  -1   2 1623.64   26.29
   7   1   2 1604.87   26.05
   7  -1   2 1613.20   26.38
  -7  -1  -2 1585.39   24.83
  -7   1  -2 1610.88   25.61
  -7   1  -2 1624.27   26.30
  -7  -1  -2 1643.09   26.13
   7  -1   3   15.51    1.75
  -7   1  -3   12.29    1.46
  -7  -1  -3   15.93    1.36
  -7  -1  -3   12.75    1.70
   7   1   3   15.16    1.68
  -7   1  -3   14.49    1.96
   7  -1   4  287.15    7.33
  -7   1  -4  289.99    6.83
  -7  -1  -4  290.77    7.20
  -7   1  -4  297.92    7.43
   7  -1   5   16.63    1.87
   7   1   5   15.15    1.77
  -7   1  -5   13.96    1.87
  -7  -1  -5   13.01    1.81
   7  -1   6   76.99    3.56
  -7   1  -6   68.98    3.46
  -7  -1  -6   69.92    3.38
   7   1   6   79.11    3.54
   7  -1   7   60.48    3.23
  -7   1  -7   55.56    3.21
   7   1   7   64.40    3.24
  -7  -1  -7   63.30    3.27
   7   1   8  116.21    4.40
  -7  -1  -8  102.10    4.28
   7  -1   8  112.11    4.45
  -7   1  -8   97.87    4.36
  -7  -1  -9   38.19    2.74
   7   1   9   42.94    2.78
  -7   1  -9   37.53    2.88
   7  -1   9   39.12    2.74
   7   1  10  684.38   13.79
   7  -1  10  676.48   13.94
  -7  -1 -10  635.36   13.70
   7  -1  11   93.59    4.24
  -7  -1 -11   81.66    4.09
   7   1  11   93.85    4.17
   7  -1  11   89.64    4.49
   7  -1  12  456.54   10.93
   7   1  12  463.66   10.78
   7  -1  12  451.49   11.40
   7   1  13   28.94    2.51
   7  -1  13   28.09    2.89
   7   1  14    6.67    1.44
   7  -1  14   10.85    2.33
   7  -1  15    4.89    2.15
   7  -1  16  632.05   15.44
   7  -1  17   36.24    3.70
   7   1  17   37.37    3.84
   7   1  18  709.29   17.54
   7  -1  18  726.88   17.53
   7  -1  19   35.54    3.83
   7   1  19   37.76    3.85
   7   1  20   66.83    5.11
   7  -1  20   57.27    4.68
   7  -1  21    3.59    2.41
   7   1  21   -0.42    2.09
  -7   3  25    4.37    1.91
  -7   3  24   69.19    4.52
  -7   3  23   91.86    4.96
   7  -3 -23   97.90    6.23
   7   3 -23   93.08    4.68
  -7   3  22  174.11    6.72
   7  -3 -22  176.01    8.10
  -7   3  21    7.03    1.74
   7  -3 -21    6.68    2.38
  -7   3  20  193.98    6.69
   7  -3 -20  199.24    8.26
  -7   3  19   45.71    3.14
   7  -3 -19   41.45    3.85
   7  -3 -18    3.26    0.63
  -7   3  18    3.96    1.30
   7  -3 -18    1.41    1.76
  -7   3  17  216.16    6.37
   7  -3 -17  200.36    7.66
   7   3 -16  179.17    6.42
  -7   3  16  169.41    5.34
   7  -3 -16  152.61    6.50
  -7   3  15    9.84    1.54
   7   3 -15   12.27    1.88
   7  -3 -15   10.25    2.13
   7  -3 -14  480.55   11.58
  -7   3  14  488.75    9.93
   7   3 -14  492.47   11.25
   7  -3 -14  482.10   11.93
   7  -3 -13    3.58    1.32
  -7   3  13    3.50    1.10
   7   3 -13    0.79    1.08
   7  -3 -13    4.65    1.83
   7  -3 -12  235.21    6.96
  -7   3  12  230.76    5.43
   7   3 -12  224.35    6.47
   7  -3 -12  230.39    7.24
   7  -3 -11    4.71    1.30
   7   3 -11    3.77    1.22
  -7   3  11    3.01    0.85
   7  -3 -11    5.12    1.69
   7  -3 -10    2.00    1.19
   7   3 -10   -0.61    0.97
  -7   3  10   -1.07    0.74
   7  -3 -10   -0.13    1.42
   7  -3  -9    1.03    1.10
   7   3  -9    2.89    1.10
  -7   3   9    1.26    0.61
   7  -3  -9    2.46    1.51
   7  -3  -8  753.08   14.25
   7   3  -8  759.21   14.62
  -7   3   8  743.35   11.44
   7  -3  -8  720.87   14.36
  -7   3   8  734.32   14.35
   7   3  -8  726.66   13.23
   7   3  -7   33.29    2.35
   7  -3  -7   32.54    2.27
   7   3  -7   34.47    1.94
   7  -3  -7   32.88    2.50
  -7   3   7   33.15    2.35
   7  -3  -6  994.62   17.71
   7   3  -6 1018.17   18.01
   7  -3  -6 1009.00   17.93
   7   3  -6  988.63   16.38
  -7   3   6 1014.49   17.95
  -7   3   5   15.66    1.86
   7   3  -5   13.66    1.64
   7  -3  -5   16.18    1.76
   7  -3  -5   15.65    1.52
   7  -3  -5   14.91    1.90
   7   3  -5   17.12    1.33
  -7   3   5   15.73    1.73
  -7   3   4  370.06    8.35
   7   3  -4  388.43    8.50
   7  -3  -4  373.40    8.35
   7  -3  -4  372.36    7.95
   7   3  -4  374.69    6.93
  -7   3   4  378.89    8.47
   7  -3  -4  373.29    8.47
   7  -3  -3  272.25    6.47
   7   3  -3  274.72    6.70
  -7   3   3  280.31    6.81
   7  -3  -3  266.72    6.68
   7  -3  -3  266.19    6.75
  -7   3   3  269.69    6.70
   7   3  -3  268.99    5.18
   7  -3  -2   13.79    1.53
  -7   3   2   17.70    1.92
   7   3  -2   16.00    1.62
  -7  -3   2   16.12    1.81
   7  -3  -2   13.37    1.65
   7   3  -2   16.87    1.04
  -7   3   2   14.18    1.57
   7  -3  -2   14.75    1.80
   7  -3  -1  109.93    3.89
   7  -3  -1  114.19    4.05
  -7   3   1  109.62    4.03
  -7  -3   1  112.98    3.98
   7   3  -1  111.45    3.81
   7  -3  -1  105.46    3.95
   7   3  -1  117.95    2.64
  -7   3   1  107.36    3.86
  -7  -3   1  109.55    2.56
   7  -3   0 2148.29   33.72
   7  -3   0 2201.21   33.91
  -7  -3   0 2144.68   33.45
   7   3   0 2151.96   33.35
  -7   3   0 2168.15   33.77
   7  -3   0 2150.30   33.70
   7  -3   0 2135.29   31.51
  -7  -3   0 2122.64   31.25
  -7   3   0 2150.51   33.63
   7  -3   1  296.12    7.17
   7  -3   1  292.90    7.11
  -7   3  -1  292.07    7.14
   7   3   1  284.77    6.68
  -7  -3  -1  278.38    6.75
   7  -3   1  278.45    5.69
  -7   3  -1  285.80    6.93
   7  -3   1  290.72    7.06
  -7  -3  -1  280.09    5.15
   7  -3   2 1635.86   26.63
   7   3   2 1646.24   26.00
  -7   3  -2 1627.10   26.38
   7  -3   2 1612.49   24.99
  -7  -3  -2 1577.06   24.12
  -7  -3  -2 1633.25   26.04
  -7   3  -2 1656.29   26.71
   7   3   3  206.16    5.47
   7  -3   3  203.22    5.90
  -7   3  -3  207.20    5.77
   7  -3   3  201.17    5.06
  -7  -3  -3  196.06    4.30
  -7  -3  -3  205.42    5.55
  -7   3  -3  207.83    5.97
  -7   3  -4  367.93    8.74
   7  -3   4  372.01    8.78
  -7   3  -4  375.04    8.59
   7  -3   4  359.21    7.88
  -7  -3  -4  377.89    8.26
   7  -3   5    4.30    1.28
  -7   3  -5    5.99    1.63
   7  -3   5    6.11    1.38
  -7   3  -5    5.21    1.32
  -7   3  -5    5.21    1.64
  -7  -3  -5    5.62    1.38
  -7   3  -6   57.17    3.33
  -7   3  -6   58.39    3.30
   7  -3   6   58.48    3.22
  -7   3  -6   58.37    3.10
   7  -3   6   54.87    2.96
  -7  -3  -6   61.45    3.01
  -7   3  -7  120.93    4.79
  -7   3  -7  118.76    4.79
   7  -3   7  114.80    4.55
   7  -3   7  110.15    4.34
  -7  -3  -7  121.30    4.37
   7   3   8  505.99   10.89
  -7  -3  -8  496.18   10.73
   7  -3   8  508.24   11.36
  -7   3  -8  497.68   11.43
  -7   3  -8  509.18   11.50
   7  -3   8  476.41   10.91
   7   3   9   23.29    2.13
  -7   3  -9   22.60    2.49
   7  -3   9   18.70    2.03
   7  -3   9   21.91    2.37
  -7  -3  -9   17.08    2.01
   7  -3  10  710.19   14.65
  -7  -3 -10  672.70   13.95
   7   3  10  717.08   14.10
  -7   3 -10  693.24   14.80
   7  -3  10  657.47   14.36
   7   3  11    0.08    1.19
  -7   3 -11    3.60    1.82
   7  -3  11    2.78    1.60
  -7  -3 -11    0.77    1.25
   7   3  12  280.77    7.71
  -7   3 -12  279.67    8.47
  -7  -3 -12  272.92    7.86
   7  -3  12  270.09    8.32
  -7  -3 -13   74.03    4.00
   7   3  13   75.13    3.76
  -7   3 -13   76.93    4.36
   7  -3  13   81.41    4.55
  -7  -3 -14    2.16    1.54
   7   3  14    0.20    1.12
  -7   3 -14    0.03    1.62
   7  -3  14    3.01    1.90
   7   3  15   24.46    2.33
  -7   3 -15   25.25    2.86
   7  -3  15   29.99    3.20
  -7   3 -16  194.90    7.56
   7   3  16  206.95    6.75
   7  -3  16  197.86    7.77
   7  -3  17   17.96    2.86
   7  -3  18  295.92   10.25
   7  -3  19   24.30    3.45
   7  -3  20  117.31    6.64
   7  -3  21    3.39    2.36
  -7   5  24  157.30    6.61
   7   5 -24  142.61    6.53
   7   5 -23   30.69    3.19
  -7   5  23   30.78    3.11
  -7   5  22   98.67    5.00
   7  -5 -22   87.57    5.77
  -7   5  21   28.73    2.82
   7  -5 -21   25.38    3.37
  -7   5  20   12.48    1.96
   7  -5 -20   15.60    2.94
  -7   5  19   67.40    3.69
   7  -5 -19   73.83    4.96
  -7   5  18    4.82    1.51
   7  -5 -18    3.98    2.00
  -7   5  17  119.55    4.57
   7  -5 -17  118.82    5.94
  -7   5  16  372.53    8.70
   7  -5 -16  356.73   10.70
  -7   5  15   -0.55    1.06
   7  -5 -15   -0.48    1.78
   7  -5 -14  627.46   13.67
  -7   5  14  627.65   12.00
   7  -5 -14  620.40   14.57
   7  -5 -13   32.14    1.16
   7  -5 -13   35.82    2.74
  -7   5  13   38.00    2.18
   7   5 -13   35.84    2.78
   7  -5 -13   29.38    2.90
   7  -5 -12  569.29    9.57
   7  -5 -12  597.27   12.59
  -7   5  12  595.87   10.82
   7   5 -12  591.61   12.85
   7  -5 -12  588.41   13.46
   7  -5 -11   17.96    1.14
   7  -5 -11   20.62    2.10
  -7   5  11   20.95    1.49
   7   5 -11   20.70    2.07
   7  -5 -11   22.25    2.52
   7  -5 -10   29.94    1.54
   7  -5 -10   32.28    2.38
  -7   5  10   35.81    1.72
   7   5 -10   31.44    2.43
   7  -5 -10   29.91    2.63
   7  -5  -9   34.92    2.43
   7  -5  -9   29.78    1.62
  -7   5   9   34.99    2.66
   7  -5  -9   35.67    2.79
   7  -5  -8  511.72   10.77
   7  -5  -8  492.62    9.39
  -7   5   8  539.12   11.66
   7  -5  -8  516.59   11.55
   7   5  -7   31.12    2.38
   7  -5  -7   31.26    2.23
   7  -5  -7   31.83    1.82
  -7   5   7   34.55    2.59
   7  -5  -7   30.87    2.59
  -7   5   6  774.72   14.42
   7  -5  -6  761.28   14.38
   7   5  -6  787.49   14.81
   7  -5  -6  746.19   13.46
  -7   5   6  812.16   15.29
   7  -5  -6  775.06   15.15
   7   5  -6  762.14   12.76
   7  -5  -5   30.59    2.17
   7   5  -5   35.60    2.39
  -7   5   5   32.43    2.31
   7  -5  -5   29.51    1.89
   7   5  -5   31.42    1.48
  -7   5   5   34.37    2.50
   7  -5  -5   32.81    2.58
   7  -5  -4  110.11    3.70
   7  -5  -4  106.48    3.96
  -7   5   4  109.01    3.97
   7   5  -4  109.09    4.00
  -7   5   4  107.21    2.18
   7  -5  -4  106.39    4.37
  -7   5   4  111.11    4.37
   7   5  -4  109.15    2.58
   7  -5  -3  396.31    8.41
   7  -5  -3  390.19    8.69
  -7   5   3  394.90    8.69
   7   5  -3  388.55    8.53
  -7   5   3  379.50    6.35
   7  -5  -3  380.32    9.08
   7   5  -3  391.63    6.23
  -7   5   3  401.87    9.17
   7  -5  -2  187.45    5.46
   7  -5  -2  185.71    5.27
  -7   5   2  189.31    5.40
   7   5  -2  186.60    5.22
   7  -5  -2  188.07    5.82
  -7   5   2  182.48    3.69
  -7   5   2  188.89    5.79
   7  -5  -1  432.27    9.39
   7  -5  -1  430.83    9.27
   7   5  -1  427.36    8.91
  -7   5   1  438.13    9.37
  -7   5   1  420.67    7.46
   7  -5  -1  431.66    9.78
  -7   5   1  437.11    9.70
  -7   5   0  935.03   16.82
   7  -5   0  929.81   16.82
   7  -5   0  952.91   16.94
  -7   5   0  928.27   16.77
   7   5   0  924.20   16.12
  -7  -5   0  943.05   16.25
  -7   5   0  909.29   14.91
   7  -5   0  939.22   17.19
  -7   5   0  954.61   17.26
   7  -5   1   59.18    3.02
  -7   5  -1   57.32    3.07
  -7   5  -1   56.49    3.05
   7  -5   1   56.64    3.17
  -7  -5  -1   58.06    2.73
  -7   5  -1   57.49    2.97
   7   5   1   55.52    2.59
   7   5   2 1056.06   18.16
   7  -5   2 1089.33   19.37
  -7   5  -2 1073.35   19.30
  -7   5  -2 1118.16   19.58
  -7  -5  -2 1072.08   18.30
  -7   5  -2 1094.56   19.26
   7   5   3  128.89    4.05
   7  -5   3  134.55    4.79
  -7   5  -3  125.87    4.76
  -7  -5  -3  125.58    2.61
  -7   5  -3  136.55    4.88
  -7   5  -3  137.64    4.83
  -7  -5  -3  126.36    4.09
  -7   5  -4  456.52   10.31
   7  -5   4  468.00   10.46
  -7   5  -4  454.30   10.44
  -7   5  -4  457.37   10.43
   7  -5   4  450.99    9.30
  -7  -5  -4  437.86    9.22
   7  -5   5  100.01    4.25
  -7   5  -5   98.58    4.33
  -7   5  -5   99.99    4.32
  -7   5  -5   98.01    4.25
   7  -5   5   93.06    3.70
  -7  -5  -5   99.43    3.61
  -7   5  -6    3.78    1.63
   7  -5   6    1.18    1.19
  -7   5  -6    3.46    1.22
   7  -5   6    1.59    1.27
  -7   5  -6    0.76    1.44
  -7  -5  -6    0.07    1.05
   7  -5   7  112.73    4.67
  -7   5  -7  113.98    4.90
  -7   5  -7  107.64    4.69
   7  -5   7  114.09    4.45
  -7   5  -7  113.25    4.73
  -7  -5  -7  104.12    3.90
   7  -5   8 1205.94   21.79
  -7   5  -8 1163.46   21.82
  -7   5  -8 1142.27   21.63
   7  -5   8 1161.42   21.08
  -7  -5  -8 1152.65   20.16
  -7   5  -9   18.67    2.38
   7  -5   9   20.59    2.34
  -7  -5  -9   17.23    1.87
  -7   5 -10  681.42   14.96
  -7  -5 -10  671.68   13.44
   7  -5  10  653.53   14.40
  -7   5 -11    9.84    2.05
   7   5  11   10.75    1.69
   7  -5  11    7.32    1.89
  -7  -5 -11    6.99    1.48
   7   5  12  114.56    4.61
  -7   5 -12  116.04    5.52
  -7  -5 -12  114.07    4.62
   7  -5  12  109.97    5.22
   7   5  13   94.18    4.21
  -7   5 -13   99.87    5.20
  -7  -5 -13   94.69    4.35
   7  -5  13   91.55    4.98
   7   5  14   63.99    3.52
  -7  -5 -14   60.83    3.61
  -7   5 -14   59.88    4.23
   7  -5  14   61.03    4.21
  -7   5 -15   -0.43    1.72
   7   5  15    1.93    1.28
   7  -5  15    0.70    1.81
  -7  -5 -15    1.74    1.31
   7   5  16    0.88    1.24
  -7   5 -16   -1.50    1.86
   7  -5  16    4.77    2.06
  -7  -5 -16    1.10    1.35
  -7   5 -17   -1.33    1.94
   7  -5  17    4.96    2.14
  -7  -5 -17    1.69    1.56
  -7   5 -18  141.16    7.22
  -7  -5 -18  142.46    6.22
   7  -5  18  135.88    6.96
  -7  -5 -19   10.54    2.17
  -7   5 -19   12.56    2.53
   7  -5  19    8.40    2.31
  -7  -5 -20  192.05    7.77
  -7   5 -20  184.38    8.19
   7  -5  20  188.44    8.51
  -7  -5 -21    4.16    2.11
  -7   5 -21    0.86    2.02
  -7  -5 -22    3.71    3.06
  -7   5 -22    2.93    2.21
  -7  -5 -23    5.48    2.37
   7   7 -24  162.37    7.55
  -7   7  21    7.36    1.88
   7  -7 -21    4.34    2.42
  -7   7  20   56.04    3.56
   7  -7 -20   59.74    4.77
  -7   7  19   39.57    2.96
   7  -7 -19   43.24    4.13
  -7   7  18   50.66    3.20
   7  -7 -18   50.24    4.27
  -7   7  17    2.42    1.34
   7  -7 -17    3.16    2.02
  -7   7  16   81.55    3.73
   7  -7 -16   80.88    4.93
   7  -7 -15   26.23    2.44
   7  -7 -15   25.26    3.00
   7  -7 -14  375.80    9.54
   7  -7 -14  370.65   10.82
   7  -7 -13   28.26    2.39
   7  -7 -13   24.68    2.86
   7  -7 -12  420.83   10.06
   7  -7 -12  455.62   11.64
   7  -7 -11   93.70    4.01
   7  -7 -11   97.22    4.87
   7  -7 -10   12.66    1.59
   7  -7 -10    9.76    1.98
   7  -7  -9  332.59    8.15
   7  -7  -9  348.41    9.53
   7  -7  -8  683.35   13.39
   7  -7  -8  677.40   12.04
   7  -7  -8  733.97   15.09
   7  -7  -7   14.70    1.66
   7   7  -7   14.04    1.74
  -7   7   7   20.70    2.16
   7  -7  -7   18.53    1.43
   7  -7  -7   14.27    2.06
  -7   7   6  693.73   13.16
   7  -7  -6  671.14   13.19
   7   7  -6  690.95   13.66
   7  -7  -6  656.74   12.33
   7  -7  -6  678.55   14.42
  -7   7   6  714.88   14.56
   7  -7  -5  285.02    6.80
  -7   7   5  292.66    7.24
   7   7  -5  295.76    7.52
   7  -7  -5  294.67    7.28
   7  -7  -5  298.54    8.32
  -7   7   5  320.67    8.45
   7   7  -4   17.65    1.77
  -7   7   4   20.09    1.94
   7  -7  -4   18.86    1.80
   7  -7  -4   22.45    1.75
   7  -7  -4   19.55    2.32
  -7   7   4   17.39    1.97
   7   7  -4   19.32    0.85
   7  -7  -3   41.02    2.46
   7  -7  -3   38.42    2.44
  -7   7   3   45.19    2.60
   7   7  -3   37.32    2.32
  -7   7   3   40.33    2.49
  -7   7   3   37.42    1.69
   7  -7  -3   34.40    2.82
  -7   7   3   39.98    2.85
   7  -7  -2   40.89    2.51
  -7   7   2   46.13    2.63
   7  -7  -2   41.54    2.56
  -7   7   2   43.19    2.57
   7   7  -2   42.50    2.41
  -7   7   2   42.62    1.90
   7  -7  -2   41.07    3.01
  -7   7   2   41.63    2.83
   7  -7  -1   38.07    2.48
  -7   7   1   35.52    2.43
  -7   7   1   33.29    2.33
   7   7  -1   34.23    2.12
  -7   7   1   35.62    1.83
   7  -7  -1   36.09    2.79
  -7   7   1   34.97    2.64
   7  -7   0   91.75    3.85
  -7   7   0   91.14    3.86
   7   7   0   90.23    3.32
  -7   7   0   88.55    3.75
  -7   7   0   90.02    3.13
   7  -7   0   93.04    4.30
  -7   7   0   89.76    4.15
   7  -7   1  311.15    7.96
  -7   7  -1  310.24    8.00
  -7   7  -1  313.94    7.80
   7   7   1  304.66    6.90
  -7   7  -1  292.27    6.73
  -7   7  -1  328.04    8.49
   7  -7   2  283.33    7.65
  -7   7  -2  276.55    7.60
   7   7   2  274.97    6.35
  -7   7  -2  272.25    7.37
  -7  -7  -2  268.58    6.38
  -7   7  -2  308.34    8.24
  -7   7  -2  276.74    6.57
   7   7   3   22.98    1.67
  -7   7  -3   25.56    2.36
   7  -7   3   27.26    2.36
  -7  -7  -3   22.89    1.71
  -7   7  -3   25.75    2.31
  -7   7  -3   21.36    1.68
  -7   7  -3   26.74    2.42
  -7   7  -4  319.12    8.59
  -7   7  -4  325.48    8.41
  -7  -7  -4  321.56    7.09
  -7   7  -4  337.91    8.88
  -7   7  -4  329.42    7.70
  -7  -7  -4  303.74    5.05
   7  -7   4  334.61    8.66
  -7   7  -5   74.55    3.96
  -7   7  -5   71.90    3.77
  -7  -7  -5   67.84    2.87
  -7   7  -5   73.59    3.45
   7  -7   5   78.02    3.96
  -7  -7  -5   73.54    2.04
  -7   7  -6   17.26    2.27
  -7   7  -6   17.46    2.27
  -7  -7  -6   16.75    1.57
  -7   7  -6   21.24    2.09
  -7  -7  -6   17.63    1.16
  -7  -7  -7   93.55    3.53
  -7   7  -7   94.31    4.54
  -7   7  -7  100.35    4.78
  -7  -7  -7   99.67    3.05
  -7   7  -8  319.78    9.19
  -7   7  -8  310.41    8.98
  -7  -7  -8  312.97    7.41
  -7   7  -9  121.86    5.56
  -7   7  -9  120.77    5.41
  -7  -7  -9  117.99    4.20
  -7   7 -10   84.92    4.79
  -7  -7 -10   92.53    3.74
  -7   7 -11   24.03    2.85
  -7  -7 -11   25.23    2.19
  -7   7 -12   23.98    2.92
   7   7  12   23.20    2.23
  -7  -7 -12   26.66    2.24
  -7   7 -13   64.09    4.42
   7   7  13   63.45    3.45
   7  -7  13   57.19    4.13
  -7  -7 -13   69.32    3.52
  -7   7 -14   13.35    2.61
   7   7  14   11.68    1.79
   7  -7  14   12.94    2.73
  -7  -7 -14   19.21    2.13
  -7   7 -15   75.64    5.00
  -7  -7 -15   82.80    4.15
   7  -7  15   73.12    4.90
  -7   7 -16   28.06    3.35
   7  -7  16   32.00    3.48
  -7  -7 -16   29.76    2.64
  -7   7 -17    3.71    2.23
   7  -7  17    5.16    2.24
  -7  -7 -17    1.40    1.25
  -7   7 -18  216.13    9.02
  -7  -7 -18  216.28    7.48
   7  -7  18  211.25    8.94
  -7   7 -19   -0.79    1.88
   7  -7  19    1.42    2.24
  -7  -7 -19    1.26    1.48
  -7   7 -20  203.12    9.03
   7  -9 -20   27.87    3.67
   7  -9 -19   77.42    5.41
   7  -9 -18   11.96    2.79
   7  -9 -17    0.29    2.01
   7  -9 -16   41.05    3.89
   7  -9 -15    2.09    1.79
   7  -9 -14  219.38    6.71
   7  -9 -14  229.06    8.49
   7  -9 -13   71.81    3.59
   7  -9 -13   72.16    4.71
   7  -9 -12  195.19    6.03
   7  -9 -12  205.42    7.78
   7  -9 -11  326.34    8.16
   7  -9 -11  341.22   10.08
   7  -9 -10   -0.05    0.96
   7  -9 -10   -1.21    1.58
   7  -9  -9   54.93    2.88
   7  -9  -9   57.28    3.95
   7  -9  -8  478.30   10.32
   7  -9  -8  497.23   12.29
   7  -9  -7   40.24    2.46
   7  -9  -7   44.79    3.49
   7   9  -7   41.16    2.82
   7  -9  -6  188.53    5.57
   7  -9  -6  190.94    6.90
   7   9  -6  196.54    4.44
  -7   9   6  197.47    5.65
   7   9  -6  187.06    5.99
   7  -9  -5   84.64    3.52
  -7   9   5   84.53    3.49
  -7   9   5   93.37    3.71
   7   9  -5   86.20    3.79
   7  -9  -5   88.79    4.56
   7   9  -5   86.19    2.37
  -7   9   4   47.01    2.63
   7   9  -4   42.80    2.59
  -7   9   4   43.66    2.60
   7  -9  -4   47.17    3.46
   7   9  -4   44.40    1.23
  -7   9   3  139.30    4.82
   7  -9  -3  141.24    5.74
  -7   9   3  147.60    4.80
   7   9  -3  137.80    4.56
  -7   9   2    3.23    1.04
  -7   9   2    7.41    1.16
   7  -9  -2    5.55    1.87
  -7   9   2    7.89    1.40
   7   9  -2    7.43    1.31
  -7   9   1   32.58    2.51
   7  -9  -1   26.74    2.67
  -7   9   1   26.81    1.90
  -7   9   1   27.90    2.28
   7   9  -1   26.69    1.86
  -7   9   0  268.37    7.51
  -7   9   0  255.53    6.44
   7  -9   0  258.09    7.99
  -7   9   0  253.00    6.95
   7   9   0  251.92    6.06
  -7   9  -1  228.33    6.94
  -7   9  -1  225.11    6.08
  -7   9  -1  218.38    6.44
   7   9   1  209.59    5.32
  -7   9  -2  290.80    8.35
   7   9   2  303.70    6.59
  -7   9  -2  302.56    7.55
  -7   9  -2  309.41    8.09
  -7   9  -3   21.48    2.40
  -7   9  -3   18.18    1.76
  -7   9  -3   22.60    2.30
  -7   9  -4  136.82    5.62
  -7   9  -4  132.98    5.28
  -7   9  -4  128.38    4.80
  -7   9  -5  254.48    8.01
  -7   9  -5  246.95    7.49
  -7  -9  -5  240.30    4.21
  -7   9  -5  248.28    7.16
  -7   9  -6   57.98    3.93
  -7   9  -6   61.47    3.76
  -7  -9  -6   60.78    2.48
  -7   9  -6   61.31    3.54
  -7  -9  -6   58.82    1.90
  -7   9  -7  376.85   10.60
  -7   9  -7  387.38   10.37
  -7  -9  -7  395.01    7.91
  -7   9  -7  380.81    9.93
  -7  -9  -7  375.62    7.24
  -7  -9  -8  221.86    5.49
  -7   9  -8  219.87    7.59
  -7   9  -8  212.91    7.72
  -7  -9  -8  216.73    5.17
  -7  -9  -9  127.30    3.98
  -7   9  -9  120.46    5.87
  -7   9  -9  118.36    5.64
  -7  -9  -9  121.55    3.85
  -7  -9 -10  309.63    7.14
  -7   9 -10  295.90    9.71
  -7   9 -10  308.25    9.62
  -7  -9 -10  309.18    7.26
  -7  -9 -11  198.74    5.49
  -7   9 -11  189.53    7.75
  -7  -9 -11  200.25    5.76
  -7  -9 -12   24.30    1.94
  -7   9 -12   26.26    3.29
  -7  -9 -12   23.75    2.06
  -7  -9 -13   20.27    1.88
  -7   9 -13   20.86    3.05
  -7  -9 -13   21.22    2.08
  -7  -9 -14    1.75    1.17
  -7   9 -14    2.16    2.06
  -7  -9 -14    0.50    1.26
  -7   9 -15   66.08    4.90
  -7  -9 -15   61.00    3.73
  -7   9 -16  136.09    7.17
  -7  -9 -16  128.06    5.54
  -7   9 -17   29.92    3.69
  -7  -9 -17   26.61    2.87
   7 -11 -18   22.68    3.42
   7 -11 -17   69.60    5.24
   7 -11 -16  134.97    7.17
   7 -11 -15   19.76    2.97
   7 -11 -14  177.52    7.80
   7 -11 -13   33.60    3.68
   7 -11 -12   15.50    2.86
   7 -11 -11   67.06    4.65
   7 -11 -10   37.58    3.55
   7 -11  -9   57.00    2.83
   7 -11  -9   57.87    4.22
   7  11  -9   55.30    2.72
   7 -11  -8   33.52    2.15
   7  11  -8   38.61    2.91
   7  11  -8   34.40    2.08
   7 -11  -8   38.95    3.48
  -7  11   7   41.43    2.47
   7  11  -7   43.08    2.94
   7  11  -7   43.89    2.09
   7 -11  -7   39.43    3.46
  -7  11   6  189.53    5.77
   7  11  -6  193.06    6.18
   7 -11  -6  196.54    7.45
   7  11  -6  192.21    4.44
   7  11  -5   32.30    2.48
  -7  11   5   34.64    2.32
  -7  11   5   36.12    2.56
   7 -11  -5   28.96    3.00
   7  11  -5   35.15    1.45
  -7  11   4  304.49    7.93
  -7  11   4  306.67    7.40
   7  11  -4  290.38    7.34
   7 -11  -4  303.51    9.35
   7  11  -4  269.53    4.72
  -7  11   3   75.12    3.72
   7 -11  -3   80.71    4.70
   7  11  -3   82.55    3.45
  -7  11   3   83.67    3.64
  -7  11   2   13.33    1.78
   7 -11  -2   12.89    2.28
  -7  11   2   14.78    1.79
   7  11  -2   15.69    1.61
  -7  11   1    5.76    1.64
   7 -11  -1    2.79    1.73
  -7  11   1    4.16    1.29
   7  11  -1    3.90    1.01
  -7  11   1    2.30    1.34
  -7  11   0   41.99    3.06
  -7  11   0   41.33    2.70
  -7  11   0   44.29    2.82
   7  11   0   41.60    2.13
  -7  11  -1   89.82    4.55
   7  11   1   87.57    2.94
  -7  11  -1   85.95    3.91
  -7  11  -1   89.12    4.06
  -7  11  -2  143.08    5.91
   7  11   2  150.74    3.83
  -7  11  -2  143.69    5.25
  -7  11  -2  144.61    5.35
  -7  11  -3   36.06    3.18
  -7  11  -3   39.47    2.76
  -7  11  -3   36.17    2.83
  -7  11  -4   23.08    2.81
  -7  11  -4   18.36    2.00
  -7  11  -4   21.25    2.44
  -7  11  -5  422.13   10.78
  -7  11  -5  418.28   11.50
  -7  11  -6   10.45    2.22
  -7 -11  -6    8.40    0.68
  -7  11  -6    9.33    2.01
  -7  11  -7  403.56   10.94
  -7  11  -7  399.12   11.54
  -7 -11  -7  407.50    7.36
  -7  11  -8   -0.28    1.70
  -7  11  -8    1.55    1.67
  -7 -11  -8    1.50    0.67
  -7  11  -9    5.02    1.94
  -7  11  -9    8.63    2.39
  -7  11 -10   28.46    3.26
  -7  11 -10   31.99    3.59
  -7  11 -11   72.79    5.04
  -7  11 -11   68.86    4.65
  -7  11 -12   13.24    2.68
  -7  11 -12   15.76    2.82
  -7  11 -13  225.59    9.21
  -7  11 -13  231.13    9.08
  -7  11 -14   -2.11    1.90
  -7  11 -15   36.03    4.17
   7 -13 -15   15.69    2.85
   7 -13 -14   19.96    3.20
   7 -13 -13   72.26    5.42
   7 -13 -12    1.44    1.96
   7 -13 -11  253.54    9.53
   7 -13 -10   25.35    3.26
   7 -13  -9  196.06    8.20
  -7  13   8    8.02    1.42
   7 -13  -8    9.26    2.42
  -7  13   7   11.43    1.64
   7 -13  -7   13.32    2.47
  -7  13   6  110.50    4.61
   7 -13  -6  103.44    5.76
  -7  13   5  184.93    6.24
   7 -13  -5  175.74    7.52
  -7  13   4   57.19    3.46
   7 -13  -4   56.56    4.34
  -7  13   4   62.04    3.02
  -7  13   3  728.55   15.59
   7 -13  -3  739.07   17.45
  -7  13   3  738.53   14.20
  -7  13   2   11.39    1.81
   7 -13  -2   13.01    2.58
  -7  13   2   13.68    1.75
  -7  13   1  220.13    6.48
  -7  13   1  212.79    7.39
  -7  13   0  110.67    4.53
  -7  13   0  109.95    5.26
  -7  13  -1    9.82    1.75
  -7  13  -1   13.34    2.32
  -7  13  -2   13.44    1.94
  -7  13  -2   16.77    2.46
  -7  13  -3  122.40    5.16
  -7  13  -3  117.07    5.79
  -7  13  -4    1.80    1.43
  -7  13  -4    2.85    1.90
  -7  13  -5  171.06    6.47
  -7  13  -5  172.88    7.32
  -7  13  -6   10.85    2.17
  -7  13  -6    7.86    2.31
  -7  13  -7  149.97    6.33
  -7  13  -7  150.25    7.11
  -7  13  -8    3.52    1.98
  -7  13  -8    2.82    2.19
  -7  13  -9   22.36    2.94
  -7  13  -9   26.69    3.30
  -7  13 -10   61.50    4.56
  -7  13 -10   69.79    5.18
  -7  13 -11   46.02    4.12
  -7  13 -11   45.91    4.40
  -7  13 -12   93.61    5.69
  -7  13 -13  342.61   11.60
  -7  13 -14    1.31    2.13
   7 -15 -12   -0.67    2.02
   7 -15 -11  113.19    6.58
   7 -15 -10    5.19    2.10
   7 -15  -9  120.22    6.69
   7 -15  -8   -0.54    1.96
   7 -15  -7   74.07    5.28
   7 -15  -6    4.45    1.90
  -7  15   5   21.07    2.46
   7 -15  -5   19.16    3.15
  -7  15   4    4.48    1.55
   7 -15  -4    9.80    2.47
  -7  15   3  341.35    9.94
  -7  15   2   14.60    2.16
  -7  15   1  236.59    8.40
  -7  15   0    3.21    1.68
  -7  15  -1    0.83    1.46
  -7  15  -2   17.78    2.77
  -7  15  -3  171.11    7.61
  -7  15  -4    2.27    1.90
  -7  15  -5  212.47    7.43
  -7  15  -5  218.55    8.92
  -7  15  -6   -0.85    1.54
  -7  15  -6   -0.84    1.86
  -7  15  -7  125.08    5.81
  -7  15  -7  119.09    6.69
  -7  15  -8    4.27    2.16
  -7  15  -9   53.20    4.18
  -7  15 -10   34.30    3.67
  -7  15 -11    6.05    1.97
  -7  15 -12   43.01    4.13
  -7  17   2    9.19    2.14
  -7  17   1  274.38    9.72
  -7  17   0    7.49    1.92
  -7  17  -1    1.24    1.44
  -7  17  -2    0.17    1.62
   8   0 -23    2.00    2.05
   8   0 -22   13.14    2.81
   8   0 -21    2.03    1.97
   8   0 -20  384.21   11.72
   8   0 -19   -0.15    1.74
   8   0 -18   85.36    4.95
   8   0 -17    0.32    1.62
   8   0 -16   48.96    3.59
   8   0 -15    1.37    1.57
   8   0 -14  935.57   18.58
   8   0 -13   -0.48    1.56
   8   0 -12  647.44   13.95
   8   0 -12  614.04   13.32
   8   0 -11   -0.28    1.34
   8   0 -11   -1.51    1.45
   8   0 -10    4.79    1.48
   8   0 -10    3.56    0.90
   8   0 -10    4.92    1.51
   8   0  -9   -0.15    1.18
   8   0  -9    0.53    0.72
   8   0  -9   -0.14    1.32
   8   0  -8 1354.88   23.36
   8   0  -8 1338.01   20.82
   8   0  -8 1337.24   22.61
   8   0  -7   -0.61    1.26
   8   0  -7    0.45    0.63
   8   0  -7    1.30    1.15
   8   0  -6 2685.30   41.24
   8   0  -6 2600.00   38.27
   8   0  -6 2623.72   40.17
   8   0  -5    0.50    1.18
  -8   0   5   -0.66    1.41
   8   0  -5   -0.20    1.13
  -8   0   5   -0.20    0.95
   8   0  -4 1642.57   27.01
  -8   0   4 1648.76   27.06
   8   0  -4 1667.38   26.04
  -8   0   4 1605.45   25.98
  -8   0   3   -2.21    1.56
   8   0  -3   -1.84    1.23
  -8   0   3   -0.80    0.92
   8   0  -3   -0.86    1.09
  -8   0   2  345.92    8.22
   8   0  -2  357.28    8.24
   8   0  -2  355.78    7.41
  -8   0   2  340.69    7.29
  -8   0   1   -0.43    1.46
   8   0  -1   -1.27    1.17
   8   0  -1    0.21    1.03
  -8   0   1    0.11    0.84
  -8   0   0   17.19    1.92
   8   0   0   21.01    1.98
   8   0   0   21.50    1.73
  -8   0   0   18.79    1.54
   8   0   1    0.89    1.13
  -8   0  -1   -3.13    1.59
  -8   0  -1    0.33    0.86
   8   0   2 2827.51   42.99
  -8   0  -2 2714.46   41.70
  -8   0  -2 2771.82   42.90
   8   0   3    0.84    1.12
  -8   0  -3   -0.20    0.90
  -8   0  -3    1.74    1.41
   8   0   4 1058.01   18.72
  -8   0  -4  988.45   17.46
  -8   0  -4 1043.71   18.62
   8   0   5   -1.03    1.09
  -8   0  -5   -0.38    0.91
  -8   0  -5    0.77    1.41
   8   0   6  196.73    6.13
  -8   0  -6  193.28    6.12
   8   0   7   -0.11    1.11
  -8   0  -7   -0.25    1.54
   8   0   8   47.55    3.06
  -8   0  -8   45.88    3.09
   8   0   9    1.25    1.17
  -8   0  -9   -0.28    1.45
  -8   0 -10  118.88    5.06
   8   0  10  122.73    4.98
   8   0  11   -0.35    1.17
  -8   0 -11   -0.87    1.50
  -8   0 -12  359.31    9.89
  -8   0 -13   -3.04    1.79
  -8   0 -14  416.41   11.39
   8   0  14  446.89   11.97
   8   0  15    4.40    2.23
   8   0  16   36.14    3.57
   8   0  17   -1.35    1.92
   8   0  18  180.16    7.89
   8   0  19    0.90    2.05
   8   0  20  372.60   12.28
  -8   2  24   54.64    3.96
  -8   2  23   52.28    3.71
   8  -2 -23   45.49    4.34
  -8   2  22  317.44    9.34
   8  -2 -22  349.84   11.62
  -8   2  21    3.42    1.52
   8  -2 -21    2.71    2.17
  -8   2  20  359.47    9.55
   8  -2 -20  364.65   11.50
  -8   2  19    2.71    1.34
   8  -2 -19    3.78    1.99
  -8   2  18   35.91    2.62
   8  -2 -18   33.61    3.45
  -8   2  17   19.22    2.01
   8  -2 -17   18.09    2.51
  -8   2  16   35.63    2.39
   8  -2 -16   31.90    3.10
  -8   2  15   28.64    2.06
   8   2 -15   30.13    2.60
   8  -2 -15   26.78    2.86
   8   2 -14  598.32   12.64
  -8   2  14  613.79   11.47
   8   2 -14  572.75   13.02
   8  -2 -14  588.17   13.64
   8  -2 -13    5.26    1.57
   8   2 -13    4.29    1.72
   8   2 -13    3.85    1.44
   8  -2 -13    0.64    1.49
   8  -2 -12  782.85   15.80
   8   2 -12  751.08   14.49
   8  -2 -12  766.39   15.73
   8   2 -12  760.83   15.12
   8  -2 -11   48.24    3.11
   8   2 -11   45.18    3.02
   8   2 -11   43.29    2.50
   8  -2 -11   42.06    2.99
   8   2 -11   46.08    2.83
   8  -2 -10   69.94    3.63
   8   2 -10   73.88    3.78
   8   2 -10   66.12    2.92
   8   2 -10   73.24    3.36
   8  -2 -10   68.49    3.63
   8   2  -9  110.28    4.54
   8  -2  -9  109.01    4.40
   8   2  -9  104.91    3.59
   8  -2  -9  109.48    4.41
   8   2  -9  104.85    3.91
   8   2  -8    0.50    1.23
   8  -2  -8    2.16    1.18
   8   2  -8   -0.15    0.84
   8   2  -8    1.38    1.22
   8  -2  -8    0.18    1.31
   8   2  -7   -0.44    1.20
   8  -2  -7   -0.43    1.13
  -8   2   7    1.21    1.15
   8  -2  -7   -1.14    1.33
   8   2  -7   -0.61    1.01
   8  -2  -6    1.17    1.19
   8   2  -6   -0.63    1.21
   8  -2  -6    4.55    1.53
  -8   2   6    3.12    1.20
   8   2  -6    0.02    0.96
   8   2  -5   19.25    1.88
  -8   2   5   18.38    2.03
   8  -2  -5   21.86    2.02
  -8   2   5   19.20    1.79
   8   2  -5   20.78    1.56
   8  -2  -5   17.48    1.93
  -8   2   4  709.44   13.80
   8   2  -4  722.66   13.82
   8  -2  -4  702.73   13.75
  -8   2   4  711.67   13.46
   8  -2  -4  710.41   13.43
   8   2  -4  719.18   12.27
  -8   2   3   -0.50    1.43
   8  -2  -3    2.59    1.20
  -8  -2   3    0.31    1.32
   8   2  -3    2.31    1.15
   8  -2  -3   -0.84    1.24
   8   2  -3    0.89    0.84
  -8   2   3    2.13    1.13
  -8  -2   3    2.04    0.79
  -8   2   2  605.08   12.32
  -8  -2   2  626.75   12.37
   8   2  -2  614.95   12.21
   8  -2  -2  615.50   12.35
   8  -2  -2  615.25   11.94
   8  -2  -2  626.59    9.50
   8   2  -2  631.16   10.68
  -8  -2   2  599.69   10.60
  -8   2   2  612.10   11.87
   8  -2  -1    2.83    1.32
  -8  -2   1    1.30    1.44
   8   2  -1    2.02    1.18
   8  -2  -1    1.00    1.17
  -8   2   1    2.72    1.45
   8  -2  -1    2.32    0.66
   8   2  -1    2.41    0.83
   8  -2  -1    3.37    1.34
  -8   2   1    1.73    0.99
  -8  -2   1    1.10    0.66
   8  -2   0  145.77    4.83
   8  -2   0  144.53    4.78
   8   2   0  152.89    4.78
  -8  -2   0  144.44    4.78
  -8   2   0  145.29    4.90
   8  -2   0  138.32    3.43
   8  -2   0  138.72    4.52
  -8   2   0  134.66    4.40
  -8  -2   0  143.23    3.58
   8  -2   1  131.66    4.59
   8  -2   1  129.73    4.58
  -8  -2  -1  128.23    4.46
   8   2   1  130.48    4.37
  -8   2  -1  127.43    4.59
   8  -2   1  115.95    3.36
  -8   2  -1  120.81    4.17
  -8  -2  -1  124.13    3.29
   8   2   2  720.65   13.47
   8  -2   2  721.68   13.90
   8  -2   2  756.29   14.04
  -8   2  -2  703.97   13.81
  -8  -2  -2  719.32   13.58
  -8   2  -2  721.76   13.35
  -8  -2  -2  706.04   11.97
   8  -2   3    3.24    1.30
  -8  -2  -3    5.12    1.49
   8   2   3    4.23    1.31
  -8   2  -3    5.84    1.74
  -8  -2  -3    1.99    0.74
   8  -2   3    3.39    1.28
  -8   2  -3    4.77    1.20
   8  -2   4  849.30   15.89
  -8   2  -4  821.98   15.20
  -8  -2  -4  806.94   13.95
   8  -2   4  781.24   14.56
  -8  -2  -4  829.09   15.42
  -8   2  -4  823.56   15.72
   8  -2   5  165.48    5.56
  -8   2  -5  162.94    5.61
   8  -2   5  152.64    4.91
  -8   2  -5  164.20    5.21
  -8  -2  -5  163.79    5.29
  -8   2  -6  121.07    4.82
   8  -2   6  120.19    4.74
   8  -2   6  113.28    4.32
  -8   2  -6  118.87    4.50
  -8  -2  -6  116.03    4.48
   8  -2   7   14.64    1.85
   8   2   7   16.32    1.86
   8  -2   7   18.12    2.09
  -8   2  -7   15.19    2.15
  -8  -2  -7   16.22    2.07
  -8  -2  -8  211.54    6.49
  -8   2  -8  212.52    6.86
   8   2   8  223.96    6.66
   8  -2   8  215.24    6.77
   8  -2   8  201.59    6.38
   8  -2   9    6.89    1.51
   8   2   9    9.00    1.65
   8  -2   9    7.19    2.10
  -8   2  -9   13.17    2.14
  -8  -2  -9    6.42    1.66
   8   2  10  769.30   15.25
  -8  -2 -10  732.19   15.13
  -8   2 -10  719.08   15.61
   8  -2  10  730.72   15.37
  -8   2 -11    4.54    2.00
   8   2  11    2.20    1.20
   8  -2  11    1.58    1.57
  -8  -2 -11    0.33    1.38
   8   2  12  174.55    6.11
  -8  -2 -12  161.17    6.09
  -8   2 -12  163.16    6.45
   8  -2  12  163.46    6.36
   8  -2  13   21.80    2.75
  -8  -2 -13   20.42    2.46
  -8  -2 -14  126.57    5.70
   8  -2  14  133.66    6.07
  -8  -2 -15    2.71    1.82
   8  -2  15    0.42    1.85
  -8  -2 -16    7.96    2.10
   8  -2  16   13.84    2.65
  -8  -2 -17  117.86    5.97
   8  -2  17  121.58    6.29
  -8  -2 -18  289.25    9.82
   8  -2  18  306.18   10.49
  -8  -2 -19   24.62    3.22
   8  -2  19   27.32    3.55
   8   2  19   25.20    3.32
  -8  -2 -20  167.20    7.60
   8   2  20  178.32    8.32
   8  -2  20  177.04    8.13
  -8  -2 -21   12.92    2.55
  -8  -2 -22   42.80    4.24
  -8   4  23   31.70    2.93
  -8   4  22  418.45   10.83
   8  -4 -22  414.12   13.14
  -8   4  21    4.83    1.52
   8  -4 -21    4.26    2.09
  -8   4  20  399.35    9.97
   8  -4 -20  378.55   12.15
  -8   4  19    0.34    1.37
   8  -4 -19    1.26    2.08
  -8   4  18   -0.04    1.16
   8  -4 -18    0.89    1.76
  -8   4  17  105.00    4.11
   8  -4 -17  115.67    5.76
   8  -4 -16  366.63    6.84
  -8   4  16  389.84    8.62
   8  -4 -16  381.14   10.91
   8  -4 -15   31.36    1.52
   8   4 -15   29.75    2.69
  -8   4  15   28.31    1.99
   8  -4 -15   30.42    3.09
   8  -4 -14  484.42    9.20
  -8   4  14  538.94   10.13
   8   4 -14  533.06   12.01
   8  -4 -14  536.71   13.04
   8  -4 -13    7.82    0.99
   8  -4 -13    8.29    1.60
   8   4 -13    8.86    1.65
  -8   4  13    9.92    1.22
   8  -4 -13    6.39    1.94
   8  -4 -12  351.99    7.47
   8  -4 -12  381.54    9.63
  -8   4  12  403.00    7.49
   8   4 -12  374.58    9.28
   8  -4 -12  383.60   10.19
   8  -4 -11   93.80    3.17
   8  -4 -11  101.67    4.42
  -8   4  11  100.25    2.81
   8   4 -11   96.36    4.07
   8  -4 -11   92.30    4.50
   8  -4 -10  302.08    6.79
   8  -4 -10  313.82    8.30
   8   4 -10  313.29    7.95
  -8   4  10  325.35    5.80
   8  -4 -10  315.05    8.69
   8   4 -10  318.17    7.55
   8  -4  -9   70.61    2.83
   8  -4  -9   71.58    3.58
   8   4  -9   80.35    3.94
  -8   4   9   72.60    1.81
  -8   4   9   70.52    3.72
   8   4  -9   68.62    3.00
   8  -4  -9   68.69    3.76
   8  -4  -8   70.43    3.47
   8   4  -8   75.51    3.74
   8  -4  -8   67.55    2.83
   8   4  -8   68.81    2.87
  -8   4   8   72.30    3.69
   8  -4  -8   67.14    3.60
   8  -4  -7    0.75    1.22
   8   4  -7    4.32    1.44
   8  -4  -7    2.58    0.97
   8  -4  -7    1.64    1.43
   8   4  -7    2.86    0.89
  -8   4   7    3.78    1.81
   8   4  -6  620.28   12.75
  -8   4   6  629.42   12.65
   8  -4  -6  622.07   12.64
   8  -4  -6  617.91   11.82
   8   4  -6  614.13   10.89
   8  -4  -6  616.00   12.88
  -8   4   6  636.04   12.94
   8   4  -5    1.93    1.15
   8  -4  -5    3.35    1.25
  -8   4   5    1.19    1.36
   8  -4  -5    2.57    1.08
  -8   4   5    2.95    1.19
   8  -4  -5    0.30    1.44
   8   4  -5    3.16    0.82
   8  -4  -4  808.86   14.98
   8  -4  -4  814.21   15.47
   8   4  -4  834.40   15.55
  -8   4   4  816.45   15.44
   8  -4  -4  825.76   15.76
  -8   4   4  828.43   15.70
   8   4  -4  839.28   13.26
   8  -4  -3   52.62    2.72
   8   4  -3   56.81    2.95
  -8   4   3   51.09    2.93
   8  -4  -3   53.32    2.94
   8   4  -3   53.01    1.75
   8  -4  -3   56.77    3.16
  -8   4   3   53.35    2.95
   8  -4  -2  152.92    4.87
  -8   4   2  143.16    4.94
  -8  -4   2  151.65    4.88
   8  -4  -2  150.32    5.03
   8   4  -2  142.92    4.74
   8  -4  -2  140.98    5.01
   8   4  -2  150.33    3.08
  -8   4   2  145.41    4.93
   8  -4  -1   10.81    1.55
  -8   4   1    8.92    1.75
   8   4  -1    8.98    1.42
   8  -4  -1   11.11    1.60
  -8  -4   1   10.15    1.61
   8  -4  -1   10.37    1.73
  -8   4   1    8.99    1.47
   8  -4   0  174.91    5.44
   8  -4   0  174.48    5.50
  -8  -4   0  168.02    5.15
   8   4   0  169.75    5.05
  -8   4   0  173.40    5.49
   8  -4   0  170.95    5.46
  -8   4   0  172.73    5.41
  -8  -4   0  166.19    3.22
   8  -4   1  296.63    7.67
   8  -4   1  295.99    7.60
  -8   4  -1  289.33    7.56
   8   4   1  292.99    7.12
  -8  -4  -1  291.67    7.20
   8  -4   1  292.53    5.97
  -8   4  -1  301.14    7.64
  -8  -4  -1  293.91    5.13
   8   4   2  667.99   12.78
   8  -4   2  679.35   13.57
  -8  -4  -2  693.28   13.01
  -8   4  -2  671.60   13.52
   8  -4   2  670.84   11.84
  -8   4  -2  695.98   13.56
  -8  -4  -2  649.83   10.60
   8  -4   3    7.01    1.53
   8   4   3    4.74    1.25
  -8   4  -3    6.69    1.75
  -8  -4  -3    5.55    1.38
   8  -4   3    5.68    1.16
  -8  -4  -3    5.80    0.74
  -8   4  -3    5.36    1.30
   8  -4   4  814.41   15.90
   8  -4   4  809.92   14.58
  -8   4  -4  823.93   15.82
  -8  -4  -4  795.14   13.16
  -8   4  -4  795.59   15.80
  -8  -4  -4  817.41   15.08
  -8   4  -5  218.45    6.77
   8  -4   5  226.35    6.80
  -8   4  -5  217.54    6.76
  -8   4  -5  217.37    6.58
   8  -4   5  214.37    5.96
  -8  -4  -5  207.78    5.98
  -8   4  -6  178.02    6.14
  -8   4  -6  174.39    6.15
   8  -4   6  185.19    6.20
  -8   4  -6  184.11    6.07
   8  -4   6  175.93    5.56
  -8  -4  -6  179.33    5.55
  -8   4  -7  266.60    7.91
   8  -4   7  271.96    7.88
  -8   4  -7  254.42    7.81
   8  -4   7  266.59    7.37
  -8   4  -7  284.41    7.95
  -8  -4  -7  272.85    7.21
  -8   4  -8  290.03    8.41
  -8   4  -8  275.09    8.20
  -8   4  -8  293.64    8.24
   8  -4   8  266.88    7.67
  -8  -4  -8  278.46    7.48
  -8   4  -9   13.72    2.32
   8   4   9   15.58    1.94
   8  -4   9   11.95    1.99
  -8   4  -9   14.21    2.26
  -8  -4  -9   13.72    1.77
  -8  -4 -10  843.84   16.58
   8   4  10  900.13   17.00
  -8   4 -10  864.99   17.82
  -8   4 -10  861.23   17.78
   8  -4  10  778.29   16.90
  -8   4 -11    7.92    2.10
   8   4  11   11.17    1.91
  -8   4 -11    8.47    2.05
   8  -4  11    7.27    1.96
  -8  -4 -11    6.69    1.67
  -8  -4 -12  648.95   14.16
   8   4  12  690.22   14.30
  -8   4 -12  657.92   15.31
   8  -4  12  652.29   15.03
  -8   4 -13    7.78    2.15
   8   4  13    7.00    1.60
   8  -4  13   10.43    2.83
  -8  -4 -13    6.25    1.63
  -8   4 -14    2.82    1.91
   8  -4  14    3.59    1.95
  -8  -4 -14    7.07    1.73
  -8   4 -15  105.77    5.59
  -8  -4 -15   91.94    4.80
   8  -4  15   94.75    5.40
  -8  -4 -16   95.37    4.95
  -8   4 -16   91.64    5.39
   8  -4  16   94.17    5.55
  -8  -4 -17  147.99    6.48
   8  -4  17  160.37    7.34
  -8  -4 -18  235.22    8.47
   8  -4  18  250.30    9.52
   8  -4  19   44.51    4.13
  -8  -4 -19   37.79    3.63
  -8  -4 -20  102.41    5.78
   8  -4  20   94.20    6.04
  -8  -4 -21   80.71    5.43
  -8  -4 -22   42.02    4.29
  -8  -4 -23    0.09    2.26
   8  -6 -21    3.48    2.20
  -8   6  20  189.97    6.32
   8  -6 -20  181.89    8.33
  -8   6  19    4.59    1.48
   8  -6 -19   -0.01    1.91
  -8   6  18   20.58    2.06
   8  -6 -18   28.14    3.43
  -8   6  17   81.31    3.61
   8  -6 -17   71.38    4.84
  -8   6  16  126.33    4.35
   8  -6 -16  127.53    6.12
  -8   6  15   48.55    2.59
   8  -6 -15   49.88    3.95
   8  -6 -14  171.86    6.19
  -8   6  14  172.38    4.77
   8  -6 -14  164.65    6.82
   8  -6 -13   -0.43    0.45
   8  -6 -13    0.44    1.22
  -8   6  13   -0.60    0.92
   8  -6 -13   -1.06    1.69
   8  -6 -12  278.13    5.65
   8  -6 -12  291.33    8.12
  -8   6  12  300.19    6.23
   8  -6 -12  283.28    8.86
   8  -6 -11   35.09    1.70
   8  -6 -11   34.79    2.65
  -8   6  11   34.49    1.72
   8   6 -11   32.66    2.62
   8  -6 -11   35.47    3.03
   8  -6 -10  653.72   11.81
   8  -6 -10  663.61   13.79
  -8   6  10  693.57   11.23
   8  -6 -10  685.73   14.96
   8   6  -9   66.73    3.70
   8  -6  -9   59.50    3.23
   8  -6  -9   65.62    2.60
   8  -6  -9   69.43    4.00
   8   6  -8  140.88    5.24
   8  -6  -8  133.44    4.86
   8  -6  -8  131.07    4.01
   8  -6  -8  131.99    5.38
   8  -6  -7   15.40    1.81
   8   6  -7   17.79    2.01
   8  -6  -7   17.57    1.56
  -8   6   7   16.93    2.10
   8  -6  -7   15.26    2.11
   8   6  -7   17.16    1.34
   8  -6  -6 1136.97   19.72
   8  -6  -6 1162.56   20.65
  -8   6   6 1175.41   20.64
   8   6  -6 1199.37   21.13
  -8   6   6 1158.84   17.12
   8  -6  -6 1163.06   21.58
  -8   6   6 1247.98   21.85
   8   6  -6 1198.30   18.38
   8  -6  -5   16.85    1.66
  -8   6   5   18.50    1.97
   8   6  -5   21.54    2.07
   8  -6  -5   20.33    1.99
  -8   6   5   17.43    0.77
  -8   6   5   16.78    2.08
   8   6  -5   19.48    1.10
   8  -6  -5   17.98    2.30
   8  -6  -4  882.83   16.23
   8   6  -4  881.02   16.64
   8  -6  -4  930.10   16.88
  -8   6   4  894.53   16.65
  -8   6   4  899.79   13.57
   8  -6  -4  881.98   17.48
  -8   6   4  951.61   17.69
   8   6  -4  902.34   13.58
   8  -6  -3    8.37    1.42
  -8   6   3    6.50    1.60
   8   6  -3    8.09    1.45
   8  -6  -3    6.05    1.33
  -8   6   3    7.37    0.73
   8  -6  -3    4.72    1.64
  -8   6   3    8.84    1.64
   8  -6  -2   18.60    1.87
   8  -6  -2   20.26    1.98
   8   6  -2   17.27    1.70
  -8   6   2   18.17    2.01
  -8   6   2   17.46    1.09
   8  -6  -2   17.41    2.16
  -8   6   2   22.12    2.18
   8  -6  -1  166.69    5.34
   8  -6  -1  162.47    5.37
  -8   6   1  157.11    5.24
   8   6  -1  152.75    4.85
   8  -6  -1  151.51    5.56
  -8   6   1  154.97    3.74
  -8   6   1  163.91    5.59
  -8   6   0  104.03    4.26
   8  -6   0  104.66    4.24
   8   6   0  106.18    3.86
  -8   6   0  102.22    4.21
  -8  -6   0  103.64    3.84
   8  -6   0  107.27    4.58
  -8   6   0  106.91    4.52
   8   6   1  123.67    4.20
  -8   6  -1  128.73    4.83
  -8  -6  -1  129.20    4.34
   8  -6   1  132.73    4.87
  -8   6  -1  137.81    5.02
  -8   6  -1  134.89    5.11
   8  -6   2  179.77    5.89
   8   6   2  172.18    5.04
  -8   6  -2  173.65    5.92
  -8   6  -2  179.17    6.07
  -8  -6  -2  172.34    5.12
  -8   6  -2  170.29    5.76
   8   6   3   55.77    2.75
   8  -6   3   58.38    3.32
  -8   6  -3   55.62    3.37
  -8   6  -3   63.23    3.53
  -8   6  -3   60.00    3.42
  -8  -6  -3   59.88    2.92
   8  -6   4  111.15    4.69
  -8   6  -4  109.29    4.76
  -8   6  -4  111.07    4.75
  -8  -6  -4  108.65    2.38
  -8   6  -4  106.69    4.60
  -8  -6  -4  107.71    3.97
   8  -6   5   91.37    4.32
  -8   6  -5   87.36    4.34
  -8   6  -5   90.79    4.37
  -8   6  -5   89.06    4.35
  -8  -6  -5   86.71    3.56
  -8   6  -6  208.36    6.88
  -8   6  -6  207.63    7.01
  -8  -6  -6  211.15    5.91
  -8   6  -7   16.95    2.42
   8  -6   7   12.17    1.82
  -8   6  -7   19.43    2.44
  -8  -6  -7   15.73    1.78
  -8   6  -8   95.65    4.79
  -8   6  -8   91.39    4.73
   8  -6   8   91.09    4.27
  -8  -6  -8   85.49    3.76
  -8   6  -9   51.12    3.65
  -8   6  -9   48.22    3.63
   8  -6   9   48.52    3.29
  -8  -6  -9   53.28    2.97
  -8   6 -10  418.54   11.42
  -8   6 -10  414.08   11.21
   8  -6  10  405.46   10.70
  -8  -6 -10  407.92    9.69
  -8   6 -11   33.82    3.45
  -8   6 -11   31.89    3.24
   8   6  11   31.04    2.56
   8  -6  11   26.11    2.76
  -8  -6 -11   30.73    2.54
  -8   6 -12  694.88   16.16
   8   6  12  676.83   14.35
   8  -6  12  641.47   15.32
  -8  -6 -12  669.52   14.08
   8   6  13  134.37    5.34
  -8   6 -13  130.03    6.33
   8  -6  13  128.68    6.06
  -8  -6 -13  140.62    5.40
  -8   6 -14   17.73    2.88
   8  -6  14   13.63    2.48
  -8  -6 -14   16.88    2.23
  -8   6 -15  143.59    6.85
  -8  -6 -15  136.32    5.65
   8  -6  15  136.34    6.65
  -8  -6 -16  113.23    5.28
  -8   6 -16  119.13    6.38
   8  -6  16  110.00    6.10
  -8  -6 -17   85.26    4.75
  -8   6 -17   92.21    5.77
   8  -6  17   83.95    5.54
  -8   6 -18  156.13    7.60
  -8  -6 -18  143.10    6.34
   8  -6  18  156.49    7.61
  -8   6 -19    9.22    2.49
   8  -6  19   16.50    3.08
  -8  -6 -19   10.50    2.26
  -8   6 -20   96.84    6.30
  -8  -6 -20   94.05    5.35
   8  -8 -20   67.42    5.23
   8  -8 -19   78.60    5.52
  -8   8  18    2.75    1.42
   8  -8 -18    2.79    2.27
  -8   8  17   79.57    3.66
   8  -8 -17   80.52    5.26
  -8   8  16   61.03    3.14
   8  -8 -16   49.97    4.26
   8  -8 -15  106.15    5.85
   8  -8 -14  116.89    5.01
   8  -8 -14  133.53    6.35
   8  -8 -13   13.67    1.98
   8  -8 -13   10.67    2.07
   8  -8 -12  110.40    4.63
   8  -8 -12  112.92    5.70
   8  -8 -11   91.82    4.11
   8  -8 -11   98.30    5.17
   8  -8 -10   56.64    3.21
   8  -8 -10   57.01    3.96
   8   8  -9  266.64    7.95
   8  -8  -9  250.92    7.09
   8  -8  -9  261.31    8.36
   8   8  -8  178.78    6.17
   8  -8  -8  173.64    5.68
   8  -8  -8  179.84    6.73
   8  -8  -7  439.28    9.90
   8   8  -7  431.09   10.35
   8  -8  -7  445.42   11.29
   8  -8  -7  411.47    8.92
   8  -8  -6  294.80    7.74
  -8   8   6  310.48    7.82
   8   8  -6  295.84    8.05
   8  -8  -6  308.66    8.98
   8  -8  -6  283.60    7.13
   8   8  -6  309.76    5.72
   8  -8  -5  102.39    4.11
  -8   8   5  100.57    4.10
   8   8  -5   98.97    4.21
   8  -8  -5  102.57    4.83
   8   8  -5   99.21    2.25
   8  -8  -5   95.63    3.79
   8   8  -5  100.76    2.22
   8  -8  -4  734.77   14.39
   8   8  -4  717.57   14.23
  -8   8   4  720.63   14.27
  -8   8   4  729.08   12.22
   8  -8  -4  770.18   15.89
   8  -8  -4  705.10   14.00
  -8   8   3  237.06    6.70
   8  -8  -3  244.62    6.81
   8   8  -3  226.16    6.40
  -8   8   3  236.23    6.68
  -8   8   3  232.74    5.22
   8  -8  -3  237.63    7.62
   8  -8  -3  231.78    6.59
  -8   8   2   65.01    3.43
   8   8  -2   59.18    3.00
  -8   8   2   59.44    3.23
   8  -8  -2   57.17    3.73
  -8   8   2   64.68    2.48
   8  -8  -2   62.30    3.31
  -8   8   1  462.75   10.54
   8   8  -1  444.43    9.61
  -8   8   1  457.60   10.41
  -8   8   1  456.77    8.89
   8  -8  -1  447.83   11.25
   8  -8  -1  453.80   10.49
  -8   8   0  228.88    6.94
   8   8   0  225.06    6.00
  -8   8   0  230.75    6.74
  -8   8   0  228.85    5.65
   8  -8   0  225.88    7.40
   8  -8   0  240.26    7.05
  -8   8  -1   14.44    2.08
   8  -8   1   14.87    1.91
  -8   8  -1   14.22    1.97
   8   8   1   14.54    1.55
  -8   8  -1   16.29    1.70
   8   8   2  374.82    8.26
  -8   8  -2  382.88    9.84
  -8   8  -2  382.44    9.58
  -8   8  -2  385.86    8.50
   8  -8   2  394.69    9.90
  -8   8  -3    6.94    1.72
  -8   8  -3    3.77    1.01
  -8  -8  -3    7.15    1.29
  -8   8  -3    6.73    1.72
   8   8   3    4.47    1.05
  -8   8  -4  240.18    7.78
  -8   8  -4  262.42    7.02
  -8   8  -4  254.49    7.71
  -8  -8  -4  262.56    6.47
  -8   8  -5  105.10    4.83
  -8   8  -5  102.63    4.95
  -8  -8  -5  102.32    3.74
  -8   8  -5  114.01    4.52
  -8  -8  -6  177.60    5.17
  -8   8  -6  171.43    6.42
  -8   8  -6  174.64    6.70
  -8  -8  -6  181.42    3.73
  -8  -8  -7  118.79    4.18
  -8   8  -7  122.35    5.63
  -8   8  -7  117.83    5.32
  -8  -8  -7  120.12    3.19
  -8  -8  -8   33.59    2.34
  -8   8  -8   32.73    3.10
  -8   8  -8   34.75    3.20
  -8  -8  -8   32.91    1.79
  -8  -8  -9  512.22   10.79
  -8   8  -9  504.75   12.91
  -8   8  -9  506.71   13.17
  -8  -8  -9  519.57   10.02
  -8  -8 -10  504.95   10.98
  -8   8 -10  534.13   13.49
  -8   8 -10  529.27   13.64
  -8  -8 -10  524.95   10.51
  -8  -8 -11   73.13    3.49
  -8   8 -11   75.07    4.81
  -8   8 -11   72.93    4.80
  -8  -8 -11   76.22    3.38
  -8  -8 -12  244.97    6.98
  -8   8 -12  237.23    8.87
  -8   8 -12  249.11    8.97
  -8  -8 -12  247.86    6.86
  -8  -8 -13   47.53    3.02
  -8   8 -13   48.78    4.18
  -8   8 -13   48.07    4.13
  -8  -8 -14    7.70    1.57
  -8   8 -14    3.82    2.12
  -8  -8 -15   61.37    3.62
  -8   8 -15   63.61    4.81
  -8  -8 -16   14.00    1.97
  -8   8 -16   14.44    2.82
  -8   8 -17   39.25    4.18
  -8   8 -18   46.09    4.61
   8 -10 -18   12.88    2.97
   8 -10 -17  119.73    6.67
   8 -10 -16   24.02    3.36
   8 -10 -15  125.51    6.62
   8 -10 -14   34.71    3.60
   8 -10 -13   20.81    3.05
   8 -10 -12   25.21    2.22
   8 -10 -12   27.67    3.26
   8 -10 -11   30.36    2.38
   8 -10 -11   36.11    3.51
   8 -10 -10    7.39    1.46
   8 -10 -10   10.07    2.25
   8 -10  -9  168.63    5.55
   8 -10  -9  173.78    7.08
   8  10  -8   36.12    2.94
   8 -10  -8   35.42    2.44
   8 -10  -8   38.35    3.45
   8 -10  -7  426.24    9.81
   8 -10  -7  437.72   11.80
   8  10  -7  425.14    7.91
   8  10  -7  431.44   10.56
   8 -10  -6  217.81    6.40
   8  10  -6  216.67    6.72
  -8  10   6  232.63    6.55
   8  10  -6  220.22    4.36
   8 -10  -6  223.85    7.93
   8  10  -5    5.19    1.39
  -8  10   5    5.30    1.44
  -8  10   5    4.18    1.08
   8 -10  -5    0.81    1.64
  -8  10   4   15.62    1.83
   8 -10  -4   15.20    2.32
   8  10  -4   15.70    1.92
  -8  10   4   14.89    1.86
  -8  10   3  244.87    7.17
   8 -10  -3  246.82    8.25
  -8  10   3  252.24    6.16
   8  10  -3  240.87    6.64
  -8  10   3  246.24    6.96
  -8  10   2  177.60    6.06
  -8  10   2  178.76    5.10
   8 -10  -2  172.75    6.79
  -8  10   2  178.45    5.81
   8  10  -2  176.37    5.36
  -8  10   1   93.63    4.41
  -8  10   1  101.37    3.75
   8 -10  -1   94.08    4.95
  -8  10   1  101.18    4.33
   8  10  -1   95.05    3.73
  -8  10   0   -0.39    1.34
  -8  10   0    1.60    1.01
  -8  10   0   -0.15    1.33
   8  10   0    1.25    0.94
  -8  10  -1    9.96    1.87
  -8  10  -1   11.48    1.63
  -8  10  -1   12.77    1.89
   8  10   1   13.46    1.44
  -8  10  -2  263.65    8.26
   8  10   2  274.89    6.42
  -8  10  -2  273.40    7.32
  -8  10  -2  268.79    7.84
  -8  10  -3    1.69    1.64
  -8  10  -3    1.67    1.01
  -8  10  -3    5.52    1.80
  -8  10  -4  492.08   12.48
  -8  10  -4  500.88   11.37
  -8  10  -4  491.41   11.94
  -8  10  -5   21.92    2.74
  -8  10  -5   22.79    2.26
  -8  10  -5   23.81    2.68
  -8  10  -6  117.08    5.42
  -8  10  -6  123.99    5.86
  -8  10  -7  240.18    8.48
  -8  10  -7  233.16    8.00
  -8 -10  -7  245.99    5.80
  -8 -10  -7  229.68    4.42
  -8 -10  -8    3.17    0.96
  -8  10  -8    3.52    1.80
  -8  10  -8    6.90    2.31
  -8 -10  -8    3.46    0.71
  -8 -10  -9  168.41    4.74
  -8  10  -9  172.51    7.35
  -8  10  -9  166.25    6.93
  -8 -10  -9  161.55    4.25
  -8 -10 -10  120.70    3.99
  -8  10 -10  113.94    6.15
  -8  10 -10  120.41    6.11
  -8  10 -11    1.06    1.99
  -8  10 -11    2.17    2.18
  -8  10 -12  201.48    8.43
  -8  10 -12  196.09    8.22
  -8  10 -13   87.24    5.67
  -8  10 -13   86.15    5.51
  -8  10 -14   20.92    3.25
  -8  10 -14   21.70    3.34
  -8  10 -15  193.13    8.77
  -8  10 -15  210.84    9.02
  -8  10 -16    3.08    2.20
   8 -12 -16    4.69    2.30
   8 -12 -15   14.20    2.84
   8 -12 -14   94.60    5.89
   8 -12 -13   11.04    2.70
   8 -12 -12   98.66    6.01
   8 -12 -11  103.01    5.93
   8 -12 -10    2.52    2.15
   8 -12  -9  184.86    7.88
   8 -12  -8   27.87    3.22
   8 -12  -7  240.61    8.92
   8  12  -6   31.28    2.56
  -8  12   6   22.93    2.07
   8 -12  -6   25.82    3.17
  -8  12   5   12.87    1.83
   8 -12  -5   10.60    2.33
  -8  12   5   15.63    1.87
   8  12  -5   10.49    1.74
  -8  12   4    7.22    1.48
   8 -12  -4    6.41    2.22
   8  12  -4    6.19    1.32
  -8  12   4    8.73    1.48
  -8  12   3  110.42    4.85
  -8  12   3  110.11    4.25
   8 -12  -3  121.28    6.05
  -8  12   3  117.42    4.67
   8  12  -3  113.90    4.25
  -8  12   2    4.63    1.23
   8 -12  -2    7.23    2.07
  -8  12   2    7.64    1.44
  -8  12   2    8.52    1.69
  -8  12   1  182.75    6.69
  -8  12   1  192.13    6.04
  -8  12   1  195.60    6.30
  -8  12   0    7.34    2.05
  -8  12   0    3.62    1.48
  -8  12   0   -0.28    1.31
  -8  12  -1  359.24   10.33
  -8  12  -1  372.62    9.40
  -8  12  -1  370.45    9.60
  -8  12  -2  135.95    6.07
  -8  12  -2  131.55    5.24
  -8  12  -2  135.50    5.45
  -8  12  -3   45.16    3.29
  -8  12  -3   41.00    3.57
  -8  12  -4  257.38    8.20
  -8  12  -4  255.98    8.86
  -8  12  -5   83.69    4.61
  -8  12  -5   79.10    4.91
  -8  12  -6   31.33    3.16
  -8  12  -6   37.77    3.65
  -8  12  -7  188.45    7.88
  -8  12  -7  181.43    7.22
  -8  12  -8    2.12    1.88
  -8  12  -8    6.68    2.36
  -8  12  -9  158.53    6.99
  -8  12  -9  156.32    7.34
  -8  12 -10   18.64    2.93
  -8  12 -10   18.60    3.18
  -8  12 -11   16.27    2.91
  -8  12 -11   17.94    2.99
  -8  12 -12    7.89    2.50
  -8  12 -12    9.13    2.53
  -8  12 -13   45.16    4.26
  -8  12 -14  106.66    6.44
   8 -14 -12    3.87    2.22
   8 -14 -11  262.64   10.23
   8 -14 -10   -0.31    1.96
   8 -14  -9  166.33    8.06
   8 -14  -8   -0.34    2.01
   8 -14  -7  108.66    6.40
  -8  14   6    0.89    1.31
   8 -14  -6    6.80    2.35
  -8  14   5   13.10    1.89
   8 -14  -5   15.00    2.81
  -8  14   4   28.29    2.64
   8 -14  -4   31.75    3.62
  -8  14   3   49.90    3.48
   8 -14  -3   45.69    4.20
  -8  14   2   63.31    3.98
  -8  14   1  235.33    8.21
  -8  14   1  255.57    7.44
  -8  14   0   49.42    3.94
  -8  14   0   43.60    3.11
  -8  14  -1  157.58    6.86
  -8  14  -1  166.99    6.06
  -8  14  -2   71.52    4.72
  -8  14  -2   70.07    4.06
  -8  14  -3    3.24    1.85
  -8  14  -3    4.27    1.85
  -8  14  -4   44.62    3.98
  -8  14  -4   41.78    3.39
  -8  14  -5  118.32    6.37
  -8  14  -5  116.58    5.55
  -8  14  -6    2.94    2.27
  -8  14  -6   -0.51    1.78
  -8  14  -7  187.20    8.30
  -8  14  -7  178.09    7.31
  -8  14  -8   15.20    3.07
  -8  14  -8   11.56    2.29
  -8  14  -9   26.70    3.22
  -8  14 -10    6.56    2.38
  -8  14 -11   10.15    2.51
  -8  14 -12   -3.41    2.05
   8 -16  -6    7.25    2.32
   8 -16  -5   14.50    2.92
  -8  16   3   44.94    3.66
  -8  16   2    3.36    1.57
  -8  16   1  243.56    8.83
  -8  16   0   14.25    2.64
  -8  16  -1  174.79    7.71
  -8  16  -2    6.62    2.32
  -8  16  -3    4.10    1.87
  -8  16  -4    5.36    2.55
   9  -1 -23   -2.93    2.48
   9   1 -23    5.01    2.31
   9  -1 -22  163.68    7.78
   9   1 -22  152.11    7.39
   9  -1 -21    0.35    1.85
   9   1 -21   -1.24    1.86
   9  -1 -20  264.97    9.57
   9   1 -20  238.98    8.96
   9  -1 -19    3.94    2.01
   9   1 -19    5.33    2.09
   9   1 -18  188.24    7.48
   9  -1 -18  207.60    7.96
   9  -1 -17    8.57    2.19
   9   1 -17   10.80    2.26
   9  -1 -16   13.31    2.37
   9   1 -16   15.78    2.38
   9  -1 -15    1.06    1.52
   9   1 -15   -1.85    1.68
   9   1 -14  116.12    5.10
   9  -1 -14  113.80    5.19
   9   1 -13   77.76    3.46
   9   1 -13   77.03    3.98
   9  -1 -13   70.61    4.01
   9   1 -12  733.64   13.80
   9  -1 -12  749.84   15.41
   9   1 -12  732.72   14.94
   9  -1 -11   12.08    1.96
   9   1 -11   11.92    1.37
   9   1 -11    9.94    1.70
   9  -1 -11    9.36    1.81
   9   1 -10  437.39   10.59
   9  -1 -10  424.76   10.33
   9   1 -10  414.98    8.51
   9  -1 -10  408.78    9.89
   9   1 -10  409.26    9.53
   9   1  -9   39.73    2.86
   9  -1  -9   39.82    2.89
   9   1  -9   36.14    1.95
   9  -1  -9   36.95    2.64
   9   1  -9   39.19    2.56
   9   1  -8    2.98    1.46
   9  -1  -8    1.64    1.24
   9   1  -8    2.21    0.76
   9  -1  -8    0.45    1.31
   9   1  -8    0.42    1.15
   9   1  -7   24.20    2.28
   9  -1  -7   26.45    2.33
   9  -1  -7   25.84    1.10
   9  -1  -7   26.34    2.20
   9   1  -7   24.84    1.93
  -9   1   7   27.59    2.17
   9  -1  -6  805.35   15.58
   9   1  -6  824.11   15.78
   9  -1  -6  795.98   12.11
  -9   1   6  799.24   14.95
   9  -1  -6  793.85   14.96
   9   1  -6  803.30   14.38
  -9   1   5  333.56    8.41
   9   1  -5  343.84    8.45
   9  -1  -5  333.76    8.37
   9  -1  -5  329.49    5.42
   9  -1  -5  333.82    7.81
   9   1  -5  334.46    7.32
  -9   1   5  327.58    7.76
  -9  -1   5  317.30    7.21
   9   1  -4  666.09   13.20
  -9  -1   4  644.81   13.17
  -9   1   4  649.33   13.18
   9  -1  -4  655.80   13.20
  -9  -1   4  627.82   11.79
   9  -1  -4  645.65   12.41
   9   1  -4  638.23   11.79
  -9   1   4  634.94   12.38
   9  -1  -3  171.83    5.50
  -9  -1   3  163.39    5.45
   9   1  -3  165.85    5.42
  -9   1   3  162.75    5.47
   9   1  -3  167.25    4.55
   9  -1  -3  171.89    5.04
  -9   1   3  162.41    4.90
  -9  -1   3  163.36    4.49
  -9   1   2 1122.10   20.05
   9  -1  -2 1130.76   20.08
   9   1  -2 1149.45   20.04
  -9  -1   2 1101.01   19.95
   9   1  -2 1161.84   18.55
   9  -1  -2 1130.66   19.21
  -9  -1   2 1085.86   18.38
  -9   1   2 1091.09   19.06
  -9  -1   1   86.22    3.88
  -9   1   1   85.24    3.87
   9  -1  -1   92.52    3.91
   9   1  -1   89.34    3.86
   9  -1  -1   88.28    3.45
   9   1  -1   87.90    3.08
  -9   1   1   86.11    3.40
  -9  -1   1   90.11    3.06
   9  -1   0   75.13    3.57
  -9   1   0   73.26    3.61
  -9  -1   0   73.89    3.64
   9   1   0   75.30    3.50
   9  -1   0   75.20    3.26
  -9  -1   0   72.67    2.80
  -9   1   0   76.36    3.20
   9  -1   1    7.15    1.49
   9   1   1    6.12    1.42
  -9   1  -1    5.77    1.74
  -9  -1  -1    5.17    1.61
   9  -1   1    5.35    1.39
  -9   1  -1    4.36    1.16
  -9  -1  -1    4.87    0.98
   9  -1   2  393.06    9.24
   9   1   2  390.40    9.09
   9  -1   2  385.19    9.28
  -9   1  -2  372.52    9.17
  -9  -1  -2  376.87    9.10
  -9   1  -2  376.41    8.44
  -9  -1  -2  371.17    7.83
  -9   1  -3   10.76    1.87
   9   1   3   11.20    1.71
  -9  -1  -3    9.23    1.75
   9  -1   3   14.85    1.92
  -9  -1  -3   11.98    1.30
  -9   1  -3    9.79    1.38
   9  -1   4 1103.71   19.88
  -9  -1  -4 1040.87   18.02
  -9   1  -4 1058.21   18.72
  -9  -1  -4 1059.91   19.42
  -9   1  -4 1062.43   19.66
   9  -1   5    8.94    1.67
   9   1   5   10.90    1.72
  -9  -1  -5    9.64    1.31
  -9   1  -5   10.59    1.50
  -9   1  -5    5.47    1.70
  -9  -1  -5    4.86    1.58
   9  -1   6  998.56   18.64
   9   1   6 1015.07   18.63
  -9  -1  -6  919.18   16.94
  -9   1  -6  940.71   17.66
  -9  -1  -6  958.89   18.25
  -9   1  -6  948.86   18.40
   9   1   7   27.91    2.45
   9  -1   7   26.08    2.51
  -9   1  -7   26.04    2.16
  -9   1  -7   27.03    2.74
  -9  -1  -7   22.96    2.41
   9   1   8    2.59    1.34
   9  -1   8    1.13    1.33
  -9  -1  -8    1.87    1.57
  -9   1  -8    3.60    1.68
   9   1   9   40.08    2.96
  -9   1  -9   34.75    3.03
  -9  -1  -9   34.51    2.86
  -9  -1 -10  411.53   10.50
  -9   1 -10  404.56   10.70
   9  -1  11    9.44    2.19
  -9   1 -11    7.71    2.08
  -9  -1 -11   11.39    2.15
  -9   1 -12  493.91   12.58
  -9  -1 -12  500.71   12.43
   9  -1  12  514.45   12.70
   9  -1  13   30.28    3.06
  -9   1 -13   28.36    3.10
  -9  -1 -13   26.01    2.90
  -9  -1 -14  279.53    9.04
  -9   1 -14  285.92    9.31
   9  -1  14  283.47    9.28
  -9   1 -15    1.98    1.77
   9  -1  15    3.93    2.18
  -9  -1 -15    2.67    1.73
  -9   1 -16   19.66    2.93
   9  -1  16   21.84    2.99
  -9  -1 -16   20.23    2.81
  -9   1 -17    2.31    1.85
   9  -1  17    8.58    2.21
   9   1  17    7.87    2.51
  -9  -1 -17   10.81    2.46
  -9   1 -18   66.23    4.90
  -9  -1 -18   66.75    4.80
   9   1  18   74.85    5.33
   9  -1  18   68.95    5.07
  -9   1 -19   -1.38    1.99
   9  -1  19   -2.83    2.21
   9   1  19    0.17    1.99
  -9  -1 -19   -2.09    2.07
  -9   1 -20  204.80    8.99
  -9  -1 -20  201.11    8.59
   9  -1  20  210.04    9.13
  -9  -1 -21    9.07    2.64
   9   3 -23   75.90    5.31
  -9   3  22   42.91    3.08
   9  -3 -22   38.87    4.13
   9   3 -22   35.57    3.87
  -9   3  21    5.38    1.46
   9  -3 -21    8.01    2.56
   9   3 -21    3.04    2.01
  -9   3  20  269.76    7.58
   9   3 -20  245.28    8.98
   9  -3 -20  261.91    9.73
  -9   3  19   11.02    1.67
   9   3 -19   13.64    2.59
   9  -3 -19   11.84    2.78
  -9   3  18  357.26    8.59
   9   3 -18  342.41   10.33
   9  -3 -18  361.76   11.11
  -9   3  17    8.37    1.42
   9   3 -17    7.92    1.94
   9  -3 -17    5.19    2.01
   9   3 -16    2.77    1.32
   9   3 -16    1.67    1.62
   9  -3 -16   -0.42    1.68
   9   3 -15   36.99    2.81
   9   3 -15   33.89    2.90
   9  -3 -15   36.99    3.35
   9   3 -14  244.87    7.20
   9  -3 -14  240.84    8.06
   9   3 -14  249.01    7.53
   9   3 -13   57.88    3.23
   9  -3 -13   58.66    3.80
   9   3 -13   57.34    3.35
   9   3 -12  948.57   17.53
   9  -3 -12  942.43   18.81
   9   3 -12  937.80   17.71
   9  -3 -11   10.62    1.82
   9   3 -11    5.49    1.20
   9   3 -11    4.12    1.37
   9  -3 -11    5.12    1.82
   9   3 -10  220.37    7.00
   9  -3 -10  208.70    6.66
   9   3 -10  198.10    5.74
   9   3 -10  199.59    5.81
   9  -3 -10  199.16    6.63
   9  -3  -9  391.52    9.64
   9   3  -9  399.06    9.92
   9   3  -9  370.36    8.39
   9   3  -9  383.52    8.52
   9  -3  -9  369.34    9.47
   9  -3  -8    0.88    1.21
   9   3  -8    2.33    1.34
  -9   3   8    2.31    1.32
   9  -3  -8    3.70    1.57
   9   3  -8    4.60    1.22
   9  -3  -7  179.43    5.87
   9   3  -7  190.23    6.12
  -9   3   7  188.92    6.00
   9   3  -7  173.00    4.84
   9  -3  -7  183.32    5.97
  -9   3   6  457.46   10.51
   9   3  -6  474.96   10.74
   9  -3  -6  475.97   10.68
   9  -3  -6  445.83   10.38
  -9   3   6  469.99   10.51
   9   3  -6  463.93    9.04
   9  -3  -5    3.70    1.31
   9   3  -5    4.49    1.46
  -9   3   5    0.75    1.40
   9  -3  -5    4.06    1.23
   9   3  -5    2.93    0.89
  -9   3   5    2.41    1.15
   9  -3  -5    3.20    1.47
   9  -3  -4 1032.05   18.49
  -9   3   4 1010.66   18.80
   9   3  -4 1061.68   18.95
   9  -3  -4 1026.41   18.93
   9  -3  -4 1028.73   18.75
  -9   3   4 1053.11   18.79
   9   3  -4 1037.64   16.77
   9  -3  -3   53.26    2.91
  -9  -3   3   49.01    3.02
  -9   3   3   47.03    3.00
   9  -3  -3   48.52    2.90
   9   3  -3   53.84    3.02
   9  -3  -3   50.79    2.96
   9   3  -3   49.74    2.03
  -9   3   3   49.53    2.86
   9  -3  -2  603.86   12.41
   9  -3  -2  607.74   12.69
  -9   3   2  610.17   12.63
   9   3  -2  598.48   12.36
  -9  -3   2  594.49   12.41
   9   3  -2  627.15   10.38
   9  -3  -2  603.65   12.38
  -9  -3   2  590.22   10.27
  -9   3   2  599.22   12.28
   9  -3  -1   84.65    3.81
   9  -3  -1   80.72    3.66
  -9  -3   1   78.29    3.64
  -9   3   1   77.50    3.75
   9   3  -1   76.37    3.53
   9  -3  -1   77.18    3.58
   9  -3  -1   79.88    2.11
  -9   3   1   78.83    3.55
  -9  -3   1   80.04    2.47
   9  -3   0   11.38    1.65
  -9   3   0   12.82    1.96
  -9  -3   0   13.79    1.85
   9  -3   0   14.83    1.87
   9   3   0    9.92    1.52
   9  -3   0   11.88    1.03
   9  -3   0   13.07    1.85
  -9  -3   0   11.94    1.01
  -9   3   0   13.89    1.75
   9  -3   1   -0.21    1.16
  -9   3  -1    0.10    1.43
   9  -3   1    0.69    1.23
  -9  -3  -1    0.95    1.39
   9   3   1    0.14    1.10
   9  -3   1    0.89    0.75
  -9  -3  -1    0.38    0.60
  -9   3  -1    2.80    1.30
   9   3   2  355.94    8.47
   9  -3   2  353.36    8.86
  -9  -3  -2  347.92    8.51
  -9   3  -2  341.97    8.84
  -9   3  -2  361.40    8.62
   9  -3   2  350.51    7.30
  -9  -3  -2  339.34    6.73
   9  -3   3  251.58    7.21
   9   3   3  247.72    6.74
  -9  -3  -3  239.47    5.32
  -9   3  -3  237.27    6.79
   9  -3   3  233.05    5.86
  -9  -3  -3  235.12    6.72
  -9   3  -3  241.29    7.15
   9  -3   4  322.76    8.51
  -9  -3  -4  308.99    6.54
  -9   3  -4  307.88    8.09
   9  -3   4  294.78    7.19
  -9   3  -4  303.37    8.35
  -9  -3  -4  319.54    8.06
   9  -3   5   83.65    4.09
  -9   3  -5   84.04    3.92
  -9  -3  -5   83.22    2.99
   9  -3   5   75.23    3.39
  -9   3  -5   86.44    4.27
  -9  -3  -5   82.77    3.89
  -9   3  -6  603.09   13.18
   9  -3   6  618.25   13.22
  -9   3  -6  596.61   12.72
  -9  -3  -6  601.43   12.50
  -9   3  -7    8.49    1.57
   9  -3   7    7.22    1.60
  -9   3  -7    8.82    1.86
  -9  -3  -7   10.52    1.87
   9   3   8   22.91    2.28
   9  -3   8   20.77    2.29
  -9   3  -8   22.61    2.25
  -9   3  -8   25.25    2.66
  -9  -3  -8   20.52    2.30
   9   3   9    3.90    1.57
   9  -3   9    3.57    1.65
  -9   3  -9    1.40    1.52
  -9  -3  -9    5.15    1.69
  -9   3 -10   43.93    3.53
   9  -3  10   39.94    3.17
  -9  -3 -10   46.50    3.28
   9  -3  11   15.90    2.32
  -9   3 -11   12.34    2.24
  -9  -3 -11   11.80    2.03
  -9   3 -12  168.34    6.82
  -9  -3 -12  165.10    6.28
   9  -3  12  160.50    6.45
  -9  -3 -13   62.00    3.94
  -9   3 -13   68.12    4.49
   9  -3  13   70.88    4.44
  -9   3 -14  312.18   10.07
  -9  -3 -14  300.77    9.24
   9  -3  14  304.93    9.71
  -9   3 -15   18.16    2.94
   9  -3  15   19.62    2.91
  -9  -3 -15   18.80    2.69
  -9   3 -16   22.19    3.22
   9  -3  16   18.51    2.89
  -9  -3 -16   23.81    2.92
  -9   3 -17   -0.26    2.14
   9  -3  17    2.32    1.95
  -9  -3 -17    0.68    1.77
  -9  -3 -18  124.84    6.32
   9  -3  18  137.70    7.05
   9  -3  19   18.36    3.27
  -9  -3 -19   16.25    2.83
  -9  -3 -20  239.96    9.31
  -9  -3 -21    8.34    2.52
  -9  -3 -22   79.62    5.74
   9  -5 -21   16.44    3.02
  -9   5  20  339.03    8.69
   9  -5 -20  334.73   11.56
  -9   5  19   12.18    1.77
   9  -5 -19   11.14    2.61
  -9   5  18  173.44    5.39
   9  -5 -18  171.81    7.67
  -9   5  17    5.46    1.27
   9  -5 -17    4.00    1.95
  -9   5  16   38.46    2.22
   9  -5 -16   32.76    3.36
   9  -5 -15   42.32    1.80
  -9   5  15   47.34    2.30
   9  -5 -15   42.59    3.63
   9  -5 -14  431.67    8.33
  -9   5  14  455.56    8.62
   9  -5 -14  434.86   11.92
   9  -5 -13   12.89    1.21
  -9   5  13   15.59    1.24
   9   5 -13   16.66    2.07
   9  -5 -13   12.42    2.24
   9  -5 -12  422.17    8.67
   9  -5 -12  443.24   10.94
  -9   5  12  459.02    7.85
   9   5 -12  429.46   10.50
   9   5 -12  423.54    9.84
   9  -5 -12  419.39   11.31
   9  -5 -11    2.04    0.89
   9  -5 -11    0.47    1.27
  -9   5  11   -0.33    0.53
   9   5 -11    1.55    1.16
   9   5 -11   -0.43    1.11
   9  -5 -11   -0.26    1.60
   9  -5 -10  269.64    7.70
   9  -5 -10  243.54    6.19
   9   5 -10  272.58    6.72
   9  -5 -10  273.77    8.23
   9  -5  -9  366.32    9.23
   9   5  -9  371.82    9.64
   9  -5  -9  335.30    7.81
   9   5  -9  358.91    7.87
   9  -5  -9  358.87    9.67
   9  -5  -8   14.42    1.93
   9   5  -8   13.66    1.90
   9  -5  -8   12.70    1.46
   9  -5  -8   14.41    2.14
   9   5  -8   13.35    1.42
   9   5  -7  244.06    7.26
   9  -5  -7  252.32    7.14
   9  -5  -7  238.46    6.34
   9   5  -7  247.16    5.64
   9  -5  -7  240.83    7.45
  -9   5   7  256.70    7.50
   9  -5  -6  143.30    5.13
   9   5  -6  140.69    5.20
  -9   5   6  135.38    5.08
   9  -5  -6  137.80    4.61
   9   5  -6  135.77    3.64
   9  -5  -6  132.63    5.26
  -9   5   6  144.73    5.38
  -9   5   5   19.55    2.17
   9   5  -5   20.24    2.05
   9  -5  -5   20.40    2.07
   9  -5  -5   22.07    1.93
   9  -5  -5   19.82    2.33
  -9   5   5   21.39    2.11
   9   5  -5   22.50    1.30
   9  -5  -4  835.55   15.82
   9   5  -4  865.73   16.31
   9  -5  -4  864.64   16.45
  -9   5   4  830.52   16.21
   9  -5  -4  819.92   16.56
  -9   5   4  871.46   16.71
   9   5  -4  843.01   13.28
   9  -5  -3   74.00    3.65
   9  -5  -3   73.04    3.46
   9   5  -3   73.84    3.50
  -9   5   3   70.13    3.61
   9   5  -3   72.85    1.87
   9  -5  -3   71.63    3.80
  -9   5   3   69.61    3.67
   9  -5  -2  823.08   15.90
   9  -5  -2  808.85   15.55
  -9   5   2  802.79   15.67
   9   5  -2  799.69   15.35
   9  -5  -2  781.27   15.90
  -9   5   2  814.19   15.96
   9  -5  -1    3.23    1.20
   9   5  -1    1.63    1.10
   9  -5  -1    3.89    1.37
  -9   5   1    3.47    1.39
  -9  -5   1    4.02    1.30
   9  -5  -1    1.98    1.40
  -9   5   1    5.30    1.41
   9  -5   0    2.17    1.38
   9  -5   0    0.44    1.13
  -9   5   0    1.02    1.42
   9   5   0   -0.56    1.06
  -9  -5   0    1.05    1.18
   9  -5   0    0.83    1.51
  -9   5   0    0.65    1.09
  -9  -5  -1  146.28    4.97
  -9   5  -1  145.26    5.40
   9   5   1  145.64    4.88
   9  -5   1  153.43    5.41
  -9   5  -1  149.75    5.40
   9   5   2  647.15   12.60
   9  -5   2  637.52   13.42
  -9   5  -2  605.06   13.20
  -9  -5  -2  624.99   12.61
  -9   5  -2  650.58   13.49
  -9  -5  -2  610.75    9.56
   9   5   3  172.87    5.38
   9  -5   3  175.64    6.04
  -9   5  -3  176.84    6.12
  -9  -5  -3  178.04    5.55
   9  -5   3  172.17    4.81
  -9   5  -3  177.05    6.07
  -9  -5  -3  169.02    3.51
   9  -5   4  712.45   14.84
  -9  -5  -4  688.71   13.69
  -9   5  -4  676.38   14.59
  -9   5  -4  721.33   14.79
   9  -5   4  700.50   13.18
  -9  -5  -4  684.76   11.33
  -9   5  -5    0.71    1.63
  -9  -5  -5   -0.66    1.19
  -9  -5  -5    2.21    0.69
   9  -5   5    0.88    1.08
  -9   5  -5    2.69    1.40
  -9   5  -6   57.21    3.68
  -9   5  -6   52.43    3.49
   9  -5   6   58.01    3.17
  -9  -5  -6   63.58    3.34
  -9   5  -7   21.60    2.59
   9  -5   7   23.88    2.36
  -9  -5  -7   22.86    2.08
  -9   5  -7   24.77    2.79
  -9   5  -8  140.85    5.94
  -9   5  -8  139.64    5.85
   9  -5   8  132.37    5.27
  -9  -5  -8  141.34    5.18
  -9   5  -9  102.23    5.22
  -9   5  -9  110.70    5.34
   9  -5   9   98.80    4.68
  -9  -5  -9  104.12    4.52
  -9   5 -10   11.18    2.21
   9  -5  10   11.99    2.25
  -9   5 -10   12.52    2.43
  -9  -5 -10   10.75    1.82
  -9   5 -11    2.81    1.96
   9  -5  11    4.58    1.83
  -9   5 -11    3.54    1.81
  -9  -5 -11    3.53    1.41
  -9   5 -12  185.37    7.39
  -9   5 -12  184.10    7.40
   9  -5  12  147.94    6.42
  -9  -5 -12  172.50    6.24
  -9   5 -13   76.94    4.89
  -9   5 -13   78.38    5.04
   9  -5  13   74.02    4.62
  -9  -5 -13   75.04    4.23
  -9   5 -14  546.80   14.30
  -9  -5 -14  518.73   12.72
  -9   5 -14  534.39   14.17
   9  -5  14  481.09   13.31
  -9   5 -15    1.08    2.04
   9  -5  15    2.97    2.03
  -9  -5 -15   -0.21    1.49
  -9   5 -16   41.80    4.10
   9  -5  16   42.73    3.98
  -9  -5 -16   38.29    3.38
  -9   5 -17    0.91    2.15
   9  -5  17    0.80    2.07
  -9  -5 -17    0.16    1.56
  -9  -5 -18  107.75    5.74
   9  -5  18  110.29    6.36
  -9  -5 -19   63.72    4.56
   9  -5  19   63.69    5.01
  -9  -5 -20  152.65    7.15
  -9  -5 -21    6.36    2.07
   9  -7 -20  193.72    8.68
   9  -7 -19   33.71    3.92
   9  -7 -18  278.74   10.21
  -9   7  17   42.24    2.47
   9  -7 -17   38.94    3.79
  -9   7  16    3.00    1.12
   9  -7 -16    1.01    2.05
  -9   7  15   81.28    3.09
   9  -7 -15   85.50    5.19
  -9   7  14  123.55    3.70
   9  -7 -14  120.21    6.00
  -9   7  13   56.32    2.25
   9  -7 -13   52.38    3.93
   9  -7 -12  114.74    3.36
   9  -7 -12  114.23    4.95
  -9   7  12  126.70    3.26
   9  -7 -12  128.49    5.98
   9  -7 -11    0.81    0.70
   9  -7 -11    1.87    1.37
  -9   7  11    2.45    0.68
   9  -7 -11   -0.31    1.73
   9  -7 -10   85.74    3.18
   9  -7 -10   92.70    4.36
  -9   7  10   94.98    2.33
   9  -7 -10   82.95    4.69
   9  -7  -9    8.04    1.19
   9  -7  -9    8.91    1.80
  -9   7   9    8.50    0.69
   9  -7  -9    9.88    2.25
   9   7  -9    9.25    1.30
   9  -7  -8   -0.42    1.32
   9   7  -8    1.97    1.28
   9  -7  -8    0.24    0.81
   9   7  -8    0.39    0.78
   9  -7  -8    0.78    1.62
   9   7  -7  354.47    9.24
   9  -7  -7  354.52    9.04
  -9   7   7  347.51    8.87
   9  -7  -7  336.13    8.03
   9  -7  -7  361.02    9.90
   9   7  -7  353.71    6.85
   9  -7  -6   49.67    2.74
   9   7  -6   52.03    3.22
   9  -7  -6   51.24    3.12
  -9   7   6   48.28    3.06
   9  -7  -6   56.83    3.72
   9   7  -6   53.84    1.85
   9  -7  -5   87.58    3.73
   9  -7  -5   92.18    4.09
  -9   7   5   89.68    4.09
   9   7  -5   90.58    4.08
   9  -7  -5   86.75    4.47
  -9   7   5   87.85    1.93
   9   7  -5   89.56    2.06
   9  -7  -4  598.95   12.64
   9  -7  -4  560.23   12.07
   9   7  -4  591.23   12.49
  -9   7   4  589.91   12.56
  -9   7   4  584.70    9.26
   9  -7  -4  577.00   13.35
   9  -7  -3   37.29    2.57
   9  -7  -3   35.79    2.70
   9   7  -3   34.16    2.43
  -9   7   3   33.04    2.59
  -9   7   3   36.57    1.45
   9  -7  -3   33.66    2.97
   9  -7  -2  517.65   11.49
   9  -7  -2  533.38   11.76
   9  -7  -2  515.60   12.23
  -9   7   2  507.74   11.43
   9   7  -2  512.50   11.12
   9  -7  -1   26.11    2.30
   9  -7  -1   20.81    2.42
   9   7  -1   24.70    2.09
  -9   7   1   23.85    2.36
   9  -7   0   50.88    3.28
   9  -7   0   51.98    3.54
   9   7   0   51.18    2.83
  -9   7   0   50.39    3.22
   9   7   1  261.93    6.88
  -9  -7  -1  266.82    6.97
  -9   7  -1  264.62    7.70
  -9   7  -1  261.69    7.73
   9  -7   1  264.49    7.77
  -9   7  -2  123.79    5.08
  -9  -7  -2  119.91    4.38
   9   7   2  124.28    4.37
  -9   7  -2  125.68    5.17
  -9  -7  -3  143.14    4.83
  -9   7  -3  149.27    5.70
   9   7   3  144.11    4.78
  -9   7  -3  143.33    5.74
  -9   7  -4   85.14    4.37
  -9  -7  -4   87.73    3.73
  -9   7  -4   84.21    4.49
  -9   7  -5   54.68    3.75
  -9   7  -5   54.42    3.66
  -9  -7  -5   51.87    2.92
  -9  -7  -5   50.70    1.44
  -9  -7  -5   53.35    1.45
  -9  -7  -6    2.36    1.11
  -9   7  -6    1.89    1.64
  -9   7  -6    2.00    1.77
  -9  -7  -6    2.68    0.59
  -9   7  -7   90.85    4.86
  -9   7  -7   85.37    4.77
  -9  -7  -7   86.35    3.80
  -9   7  -8  107.24    5.47
  -9   7  -8  102.97    5.27
  -9  -7  -8  102.94    4.24
  -9   7  -9  295.60    9.43
  -9   7  -9  282.24    9.35
  -9  -7  -9  297.78    7.92
  -9   7 -10   29.64    3.24
  -9  -7 -10   28.43    2.41
  -9   7 -10   20.85    2.81
  -9   7 -11  244.63    8.78
  -9   7 -11  249.21    8.93
   9  -7  11  243.13    8.23
  -9  -7 -11  242.79    7.24
  -9   7 -12  218.28    8.33
  -9   7 -12  214.85    8.35
   9  -7  12  198.95    7.63
  -9  -7 -12  196.86    6.56
  -9   7 -13    5.36    2.12
   9  -7  13    0.84    1.69
  -9   7 -13    2.89    2.12
  -9  -7 -13    4.17    1.42
  -9   7 -14  370.59   11.69
  -9   7 -14  365.66   11.66
   9  -7  14  330.95   10.77
  -9  -7 -14  355.56    9.75
  -9   7 -15   46.20    4.28
  -9   7 -15   45.76    4.36
   9  -7  15   40.44    3.92
  -9  -7 -15   42.64    3.30
  -9   7 -16   15.99    3.05
  -9   7 -16   15.20    3.21
   9  -7  16   16.03    2.78
  -9  -7 -16   11.22    1.90
  -9   7 -17  107.29    6.57
  -9   7 -17  109.52    6.54
   9  -7  17   87.85    5.76
  -9  -7 -17  100.84    5.16
  -9   7 -18   96.22    6.25
   9  -7  18   95.45    6.07
   9  -9 -18  319.22   11.36
   9  -9 -17   54.54    4.71
   9  -9 -16    4.98    2.23
   9  -9 -15  105.12    6.07
   9  -9 -14  157.23    7.24
   9  -9 -13    7.93    2.25
   9  -9 -12  318.44    8.84
   9  -9 -12  331.61   10.51
   9  -9 -11    2.41    1.23
   9  -9 -11    3.34    1.84
   9  -9 -10  154.00    5.63
   9  -9 -10  146.00    6.60
   9  -9  -9    1.52    1.19
   9  -9  -9   -0.95    1.74
   9  -9  -8  127.20    5.02
   9  -9  -8  126.95    6.06
   9   9  -8  136.79    3.63
   9  -9  -7  202.70    6.47
   9   9  -7  212.14    6.92
   9  -9  -7  208.14    7.67
   9   9  -7  214.78    4.44
   9  -9  -6   40.02    2.75
  -9   9   6   38.96    2.81
   9   9  -6   40.55    2.89
   9   9  -6   34.61    1.13
  -9   9   6   40.53    1.74
   9   9  -6   35.63    1.14
   9  -9  -6   36.15    3.27
   9  -9  -5  284.11    7.80
  -9   9   5  275.73    7.71
   9   9  -5  278.76    7.77
  -9   9   5  276.71    5.75
   9  -9  -5  277.24    8.92
   9  -9  -5  258.92    7.28
   9  -9  -4  246.96    7.19
   9   9  -4  229.48    6.85
  -9   9   4  243.91    7.15
   9  -9  -4  235.61    8.04
  -9   9   4  236.36    5.29
   9  -9  -4  232.13    6.88
   9  -9  -3    9.90    1.70
  -9   9   3    6.53    1.60
   9   9  -3   10.35    1.58
  -9   9   3   10.07    1.13
   9  -9  -3    6.87    2.01
  -9   9   2  106.47    4.66
   9   9  -2   98.59    4.08
  -9   9   2  103.44    4.53
   9  -9  -2  104.10    5.18
  -9   9   2  104.40    3.39
   9  -9  -2  103.14    4.53
  -9   9   1  496.41   11.81
  -9   9   1  524.61   10.05
   9  -9  -1  536.13   13.06
  -9   9   1  502.81   11.63
   9   9  -1  500.12   10.85
  -9   9   0    7.76    1.78
  -9   9   0   11.32    1.48
  -9   9   0    9.14    1.74
   9   9   0    9.49    1.51
  -9   9  -1  550.40   12.88
   9   9   1  566.49   11.38
  -9   9  -1  546.73   11.10
  -9   9  -1  543.52   12.49
  -9   9  -2   22.38    2.54
  -9   9  -2   18.80    1.74
  -9   9  -2   19.04    2.45
   9   9   2   19.14    1.84
  -9   9  -3  189.21    6.98
   9   9   3  193.65    5.50
  -9   9  -3  184.82    5.78
  -9   9  -3  201.14    6.89
  -9   9  -4   92.83    4.89
  -9   9  -4  102.79    4.30
  -9   9  -4   89.36    4.65
  -9  -9  -5   18.81    1.79
  -9   9  -5   18.18    2.47
  -9   9  -5   17.14    2.60
  -9   9  -6  143.83    6.13
  -9  -9  -6  135.22    4.60
  -9   9  -6  134.49    6.12
  -9  -9  -7  287.54    7.10
  -9   9  -7  290.56    9.10
  -9   9  -7  270.79    9.12
  -9  -9  -7  264.16    4.78
  -9   9  -8   24.16    2.91
  -9  -9  -8   26.01    2.11
  -9   9  -8   30.58    3.25
  -9  -9  -8   25.40    1.35
  -9  -9  -9  285.86    7.37
  -9   9  -9  280.01    9.63
  -9   9  -9  272.62    9.28
  -9  -9  -9  283.79    6.13
  -9  -9 -10   53.35    2.99
  -9   9 -10   43.87    3.91
  -9   9 -10   49.46    4.14
  -9  -9 -10   52.12    2.45
  -9  -9 -11  199.87    6.13
  -9   9 -11  206.31    8.24
  -9   9 -11  202.86    8.35
  -9  -9 -12  157.43    5.43
  -9   9 -12  156.78    7.48
  -9   9 -12  164.85    7.60
  -9   9 -13    4.81    2.29
  -9   9 -13    7.39    2.39
  -9   9 -14   78.72    5.46
  -9   9 -14   79.66    5.60
  -9   9 -15  146.80    7.61
  -9   9 -15  157.19    7.75
   9 -11 -16   27.95    3.64
   9 -11 -15  179.64    8.31
   9 -11 -14    1.31    2.00
   9 -11 -13   62.11    4.74
   9 -11 -12   72.49    5.14
   9 -11 -11   14.30    2.71
   9 -11 -10  279.32    9.82
   9 -11  -9   73.63    5.04
   9 -11  -8   33.15    2.56
   9 -11  -8   35.85    3.57
   9 -11  -7  178.31    7.56
   9 -11  -6  109.13    5.87
  -9  11   6  112.26    4.73
   9  11  -6  109.38    4.79
  -9  11   5  190.50    5.14
   9 -11  -5  190.38    7.64
   9  11  -5  186.54    6.26
  -9  11   5  198.89    6.37
  -9  11   4   16.15    2.09
   9 -11  -4   13.43    2.45
  -9  11   4   11.74    1.38
   9  11  -4   12.21    1.79
  -9  11   4   12.95    1.97
  -9  11   3   24.08    2.51
   9 -11  -3   18.29    2.79
  -9  11   3   21.40    1.79
   9  11  -3   22.92    2.16
  -9  11   3   18.79    2.15
  -9  11   2    4.33    1.56
   9 -11  -2    2.37    1.74
  -9  11   2    2.58    1.07
   9  11  -2    2.10    1.24
  -9  11   2    4.32    1.49
  -9  11   1   88.43    4.57
  -9  11   1   87.23    3.69
  -9  11   1   95.12    4.46
   9  11  -1   90.65    3.70
  -9  11   0    2.54    1.58
  -9  11   0   -2.13    1.09
  -9  11   0   -0.11    1.34
   9  11   0   -0.13    1.01
  -9  11  -1  532.74   13.18
   9  11   1  560.50   10.94
  -9  11  -1  517.85   11.47
  -9  11  -1  537.51   12.60
  -9  11  -2   66.05    4.28
   9  11   2   62.14    2.84
  -9  11  -2   67.39    3.48
  -9  11  -2   66.96    3.97
  -9  11  -3   94.93    5.14
  -9  11  -3   97.44    4.29
  -9  11  -3   93.70    4.76
  -9  11  -4  180.28    7.29
  -9  11  -4  191.46    6.45
  -9  11  -4  179.97    6.89
  -9  11  -5   35.62    3.21
  -9  11  -5   40.38    3.64
  -9  11  -6  153.67    6.48
  -9  11  -6  148.65    6.82
  -9  11  -7  107.51    5.66
  -9  11  -7  113.58    5.99
  -9  11  -8   16.45    2.68
  -9  11  -8   17.94    2.81
  -9  11  -9  180.48    7.93
  -9  11  -9  178.46    7.49
  -9  11 -10   58.82    4.49
  -9  11 -10   62.65    4.85
  -9  11 -11  112.60    6.52
  -9  11 -11  108.46    6.14
  -9  11 -12  244.63    9.91
  -9  11 -12  256.14    9.78
  -9  11 -13   -4.80    2.31
  -9  11 -14   27.23    3.83
   9 -13 -13    6.82    2.48
   9 -13 -12  125.76    6.93
   9 -13 -11   99.70    6.13
   9 -13 -10  162.07    7.88
   9 -13  -9  505.35   14.61
   9 -13  -8    9.24    2.59
   9 -13  -7  339.24   11.39
   9 -13  -6  130.05    6.72
  -9  13   5   41.86    3.03
   9 -13  -5   46.36    4.22
  -9  13   5   49.99    3.10
  -9  13   4   48.63    3.39
   9 -13  -4   49.53    4.31
  -9  13   4   48.06    3.19
  -9  13   3  143.58    5.95
   9 -13  -3  142.96    7.03
  -9  13   3  153.06    5.64
  -9  13   2   10.80    1.96
  -9  13   2   12.17    1.99
  -9  13   1  218.83    7.94
  -9  13   1  231.16    7.39
  -9  13   0   23.95    2.78
  -9  13   0   28.45    2.70
  -9  13  -1  189.89    7.46
  -9  13  -1  193.72    6.93
  -9  13  -2    5.97    2.04
  -9  13  -2    5.60    1.72
  -9  13  -3  142.99    6.71
  -9  13  -3  149.95    6.17
  -9  13  -4   64.21    4.50
  -9  13  -4   64.41    4.14
  -9  13  -5    4.61    2.30
  -9  13  -5    1.01    1.55
  -9  13  -6  204.92    8.47
  -9  13  -6  205.59    7.85
  -9  13  -7  292.66   10.43
  -9  13  -7  284.20    9.60
  -9  13  -8   14.37    2.78
  -9  13  -8   14.70    2.90
  -9  13  -9  177.02    8.18
  -9  13  -9  167.55    7.59
  -9  13 -10   92.27    5.73
  -9  13 -11   25.58    3.50
  -9  13 -12   66.49    5.20
   9 -15  -7  184.77    8.54
   9 -15  -6   18.26    2.90
   9 -15  -5   43.69    4.38
  -9  15   4   13.65    2.08
  -9  15   3   30.04    2.94
  -9  15   2   12.07    2.24
  -9  15   1   95.32    5.34
  -9  15   0   24.29    2.93
  -9  15  -1  188.47    7.95
  -9  15  -2    4.01    1.88
  -9  15  -3  131.51    6.81
  -9  15  -4   50.42    4.45
  -9  15  -5    7.06    2.56
  -9  15  -6   90.30    5.19
  -9  15  -7  268.74    9.46
  -9  15  -8    4.01    2.05
  -9  15  -9  191.03    8.16
  -9  15 -10    4.32    2.35
  -9  17   1   89.60    5.60
  -9  17   0    2.92    1.70
  10   0 -23   -3.04    2.03
  10   0 -22   10.14    2.68
  10   0 -21   -3.93    2.18
  10   0 -20  207.49    8.35
  10   0 -19   -1.01    1.97
  10   0 -18  571.13   14.55
  10   0 -17   -1.08    1.79
  10   0 -16   75.68    4.53
  10   0 -15    4.01    1.88
  10   0 -14    7.39    1.86
  10   0 -13   -0.83    1.43
  10   0 -12  337.85    9.09
  10   0 -11    0.56    1.29
  10   0 -10 1455.79   22.70
  10   0 -10 1409.66   24.91
  10   0  -9   -1.10    1.31
  10   0  -9   -0.28    0.69
  10   0  -9   -0.94    1.34
  10   0  -8  130.05    5.23
  10   0  -8  129.20    3.34
  10   0  -8  121.12    4.53
  10   0  -7    0.70    1.24
  10   0  -7   -0.26    0.54
  10   0  -7   -0.44    1.17
  10   0  -6   59.93    3.43
  10   0  -6   58.65    3.01
 -10   0   6   58.18    2.92
  10   0  -5    1.11    1.31
 -10   0   5   -0.21    1.59
 -10   0   5   -0.04    0.89
  10   0  -5   -0.90    1.21
 -10   0   4  455.97   10.62
  10   0  -4  467.30   10.65
  10   0  -4  450.75    9.55
 -10   0   4  436.05    9.45
  10   0  -3    0.01    1.28
 -10   0   3    1.47    1.52
 -10   0   3   -1.07    0.98
  10   0  -3    0.14    1.06
  10   0  -2  719.53   14.41
 -10   0   2  712.39   14.48
  10   0  -2  709.76   13.21
 -10   0   2  692.61   13.15
 -10   0   1    1.59    1.47
  10   0  -1    0.13    1.17
  10   0  -1    1.69    1.23
 -10   0   1   -1.37    0.97
 -10   0   0   61.94    3.53
  10   0   0   69.94    3.61
 -10   0   0   63.25    2.88
  10   0   1    0.93    1.27
 -10   0  -1    1.23    1.51
 -10   0  -1   -0.52    0.88
  10   0   2   36.65    2.73
 -10   0  -2   38.17    2.86
 -10   0  -2   36.62    2.28
 -10   0  -3    0.90    1.46
  10   0   3    0.46    1.26
  10   0   3   -0.47    1.19
 -10   0  -3   -2.29    1.03
 -10   0  -4   10.24    1.93
  10   0   4   15.22    2.03
 -10   0  -4   11.41    1.53
  10   0   5    1.38    1.18
 -10   0  -5    1.32    1.06
 -10   0  -5    1.30    1.50
  10   0   6  270.09    7.99
 -10   0  -6  258.48    7.03
 -10   0  -6  254.48    7.79
 -10   0  -7    0.50    1.00
 -10   0  -7    0.14    1.53
 -10   0  -8  177.24    5.87
 -10   0  -8  172.48    6.40
 -10   0  -9   -0.21    1.61
 -10   0 -10   34.20    3.12
 -10   0 -11   -1.10    1.58
 -10   0 -12  513.57   13.00
 -10   0 -13    1.01    1.73
 -10   0 -14  537.45   14.07
  10   0  14  582.22   14.63
  10   0  15    2.54    2.09
 -10   0 -15    0.48    1.97
 -10   0 -16  287.68    9.96
  10   0  16  289.75   10.07
  10   0  17    0.62    1.89
 -10   0 -17    1.80    2.08
  10   0  18    5.09    2.35
 -10   0 -18    5.09    2.18
  10   0  19    0.32    2.01
 -10   0 -19   -1.07    2.13
 -10   0 -20   75.28    5.55
  10   2 -23    6.46    2.55
  10  -2 -22   33.79    3.91
  10   2 -22   26.20    3.50
  10   2 -21   29.46    3.52
  10  -2 -21   26.89    3.44
  10   2 -20  242.74    9.09
  10  -2 -20  243.71    9.41
  10   2 -19    9.81    2.43
  10  -2 -19    2.35    1.99
  10   2 -18  295.35    9.64
  10  -2 -18  309.87   10.18
  10  -2 -17    5.66    2.14
  10   2 -17    5.22    1.94
  10   2 -16  137.27    5.91
  10  -2 -16  136.40    6.30
  10   2 -15    7.91    1.61
  10  -2 -15    4.60    1.81
  10   2 -15    6.01    1.76
  10   2 -14    3.70    1.40
  10  -2 -14    1.79    1.86
  10   2 -14    2.48    1.49
  10   2 -13   20.40    1.99
  10  -2 -13   19.40    2.43
  10   2 -13   16.22    2.10
  10   2 -12  167.64    5.17
  10  -2 -12  158.13    6.11
  10   2 -12  163.13    5.70
  10   2 -11   33.82    2.17
  10   2 -11   32.44    2.55
  10  -2 -11   32.93    2.80
  10   2 -10  547.25   10.90
  10   2 -10  572.71   11.83
  10  -2 -10  546.32   12.42
  10  -2  -9   50.51    3.30
  10   2  -9   47.10    2.41
  10   2  -9   45.36    2.66
  10  -2  -9   49.80    3.22
  10  -2  -8  377.60    9.59
  10   2  -8  368.58    9.60
  10   2  -8  357.50    8.28
  10  -2  -8  354.20    9.14
 -10   2   8  363.66    9.13
  10   2  -7   22.86    2.29
  10  -2  -7   25.58    2.39
  10  -2  -7   20.81    2.16
 -10   2   7   23.49    2.15
  10   2  -7   27.08    2.04
 -10   2   6   80.27    4.03
  10   2  -6   88.13    4.16
  10  -2  -6   90.29    4.17
  10  -2  -6   83.20    3.88
  10   2  -6   85.61    3.33
 -10   2   6   84.96    3.84
  10   2  -5  125.21    4.90
 -10   2   5  116.83    4.87
  10  -2  -5  134.54    5.06
  10  -2  -5  123.13    4.65
  10   2  -5  131.96    4.04
 -10   2   5  129.29    4.71
 -10   2   4  172.11    5.96
 -10  -2   4  175.05    5.98
  10  -2  -4  176.76    5.94
  10   2  -4  174.39    5.88
  10  -2  -4  176.21    5.64
  10   2  -4  178.45    4.76
 -10   2   4  187.11    5.68
 -10  -2   4  169.80    4.64
  10  -2  -3   46.52    2.94
 -10  -2   3   45.70    3.08
  10   2  -3   45.24    2.92
 -10   2   3   46.42    3.11
  10  -2  -3   42.72    2.74
  10  -2  -3   46.23    1.22
  10   2  -3   46.93    2.29
 -10   2   3   47.02    2.82
 -10  -2   3   47.57    2.22
  10  -2  -2  979.72   18.14
 -10  -2   2  952.56   18.16
  10  -2  -2  986.81   18.38
 -10   2   2  935.03   18.19
  10   2  -2  976.65   18.15
  10  -2  -2  960.38   14.76
  10   2  -2  996.15   16.20
  10  -2  -2  975.19   17.64
 -10  -2   2  925.29   16.05
 -10   2   2  948.38   17.46
  10  -2  -1   30.47    2.42
 -10   2   1   30.24    2.59
 -10  -2   1   26.17    2.46
  10  -2  -1   28.42    2.44
  10   2  -1   28.45    2.42
  10  -2  -1   27.91    1.43
  10  -2  -1   23.62    2.15
 -10  -2   1   23.69    1.57
 -10   2   1   32.17    2.34
  10  -2   0  271.15    7.59
  10  -2   0  267.13    7.46
 -10   2   0  263.26    7.50
  10   2   0  274.18    7.44
 -10  -2   0  262.25    7.38
  10  -2   0  242.40    5.45
  10  -2   0  249.40    6.87
 -10   2   0  263.36    6.95
 -10  -2   0  250.85    5.81
  10   2   1   88.16    3.99
  10  -2   1   88.38    4.12
  10  -2   1   86.62    4.07
 -10  -2  -1   88.62    4.12
 -10   2  -1   85.05    4.14
  10  -2   1   74.34    2.81
 -10   2  -1   86.74    3.71
 -10  -2  -1   81.11    2.92
  10  -2   2   15.56    1.92
  10  -2   2   13.40    1.94
 -10   2  -2   12.21    1.99
  10   2   2   11.73    1.76
 -10  -2  -2   12.65    2.02
  10  -2   2   12.39    1.45
 -10   2  -2   14.16    1.70
 -10  -2  -2   13.80    1.30
  10  -2   3   19.25    2.16
 -10   2  -3   14.39    2.13
  10   2   3   18.48    1.98
 -10  -2  -3   16.18    2.09
  10  -2   3   16.46    1.65
 -10   2  -3   15.18    1.77
 -10  -2  -3   16.99    1.49
  10  -2   4  427.54   10.44
  10  -2   4  391.19    8.91
 -10  -2  -4  401.80    8.52
 -10   2  -4  415.22    9.77
 -10   2  -4  404.45   10.22
 -10  -2  -4  417.46   10.08
 -10  -2  -5   25.43    1.82
  10  -2   5   25.95    2.26
 -10   2  -5   25.80    2.27
 -10  -2  -5   22.21    2.39
 -10   2  -5   22.05    2.46
 -10   2  -6 1082.73   20.02
  10  -2   6 1055.42   19.46
 -10  -2  -6 1069.55   18.69
 -10   2  -6 1092.53   20.77
 -10  -2  -6 1092.70   20.32
 -10   2  -7  242.76    7.28
  10  -2   7  234.61    7.01
 -10  -2  -7  237.52    6.43
 -10  -2  -7  248.91    7.57
 -10   2  -7  239.71    7.70
 -10   2  -8  101.83    5.01
  10  -2   8   92.19    4.42
 -10   2  -8   97.99    4.58
 -10  -2  -8   99.23    4.72
  10  -2   9   27.73    2.73
 -10   2  -9   25.00    2.83
 -10  -2  -9   24.38    2.58
  10  -2  10    2.56    1.71
 -10   2 -10   -0.30    1.65
 -10  -2 -10    2.24    1.73
 -10  -2 -11  267.81    8.44
 -10   2 -11  260.59    8.70
  10  -2  11  259.52    8.32
  10  -2  12   36.80    3.35
 -10   2 -12   40.51    3.61
 -10  -2 -12   33.40    3.19
 -10   2 -13   56.71    4.25
 -10  -2 -13   56.33    4.05
  10  -2  13   57.15    4.07
 -10  -2 -14  212.77    7.92
 -10   2 -14  217.44    8.34
  10  -2  14  235.70    8.39
 -10  -2 -15   72.85    4.73
 -10   2 -15   85.43    5.32
  10  -2  15   92.29    5.37
 -10   2 -16  183.07    7.95
 -10  -2 -16  167.97    7.28
  10  -2  16  180.41    7.69
 -10   2 -17    2.46    2.07
 -10  -2 -17    3.70    2.07
  10  -2  17    6.69    2.37
 -10   2 -18    0.86    2.05
 -10  -2 -18    3.10    2.08
  10  -2  18    1.43    1.87
 -10   2 -19   -2.79    2.10
 -10  -2 -19    2.10    2.26
  10  -2  19    1.98    2.07
 -10  -2 -20   23.54    3.22
  10   4 -23   23.01    3.18
  10   4 -22   25.71    3.34
  10   4 -21    6.03    2.21
  10  -4 -21    6.59    2.38
  10  -4 -20  183.99    8.35
  10   4 -20  174.52    7.49
  10  -4 -19   11.49    2.57
  10   4 -19   15.72    2.57
  10  -4 -18  245.44    9.16
  10   4 -18  225.68    8.15
  10  -4 -17   33.24    3.57
  10   4 -17   31.59    2.98
  10  -4 -16  182.65    7.46
  10   4 -16  177.57    6.69
  10  -4 -15    3.92    0.99
  10   4 -15    4.57    1.53
  10  -4 -15    1.38    1.74
  10   4 -15    2.57    1.53
  10  -4 -14    0.89    0.85
  10   4 -14    0.56    1.08
  10   4 -14   -0.52    1.31
  10  -4 -14    1.69    1.72
  10  -4 -13    1.37    0.89
  10   4 -13   -0.58    1.21
  10   4 -13   -0.66    1.24
  10  -4 -13    0.97    1.63
  10  -4 -12  190.55    5.57
  10   4 -12  213.41    6.47
  10   4 -12  208.63    6.30
  10  -4 -12  202.21    7.22
  10  -4 -11   15.27    1.64
  10   4 -11   13.88    1.70
  10   4 -11   13.92    1.74
  10  -4 -11   16.41    2.32
  10  -4 -10  511.00   10.77
  10   4 -10  510.96   11.10
  10   4 -10  532.15   10.88
  10  -4 -10  511.55   12.37
  10  -4  -9   85.38    4.19
  10  -4  -9   81.92    3.56
  10   4  -9   82.90    3.43
  10  -4  -9   84.17    4.37
  10   4  -8   23.54    2.40
  10  -4  -8   16.29    1.99
  10  -4  -8   18.10    1.78
 -10   4   8   19.41    2.22
  10  -4  -8   18.65    2.26
  10   4  -8   19.17    1.71
  10   4  -7  118.78    4.93
  10  -4  -7  118.07    4.89
 -10   4   7  105.66    4.71
  10  -4  -7  110.59    4.29
  10  -4  -7  105.79    4.76
 -10   4   7  117.08    4.85
  10   4  -7  113.01    3.67
  10  -4  -6    1.99    1.42
 -10   4   6    1.83    1.52
  10   4  -6    0.95    1.20
  10  -4  -6    2.20    1.19
  10   4  -6    0.80    0.80
  10  -4  -6    2.02    1.50
 -10   4   6    0.94    1.28
  10  -4  -5  485.71   10.69
  10   4  -5  498.23   11.28
 -10   4   5  471.71   11.09
  10  -4  -5  490.81   11.26
  10  -4  -5  458.80   11.03
 -10   4   5  473.16   11.09
  10   4  -5  474.60    8.90
  10  -4  -4   92.77    4.03
  10   4  -4   92.72    4.19
  10  -4  -4   89.81    4.18
 -10   4   4   86.79    4.20
  10  -4  -4   86.67    4.17
  10   4  -4   93.75    2.83
 -10   4   4   81.43    4.02
  10  -4  -3    0.72    1.11
  10   4  -3    1.00    1.17
  10  -4  -3    1.19    1.29
 -10   4   3   -1.22    1.59
  10   4  -3    0.46    0.67
  10  -4  -3    1.41    1.58
 -10   4   3   -0.68    1.09
  10  -4  -2  748.73   15.08
  10  -4  -2  725.14   14.66
 -10  -4   2  721.38   14.66
 -10   4   2  719.49   14.92
  10   4  -2  717.88   14.58
  10  -4  -2  725.50   14.81
 -10   4   2  729.02   14.71
  10  -4  -1  228.96    6.87
  10  -4  -1  228.45    7.03
 -10   4   1  235.32    7.10
 -10  -4   1  223.66    6.79
  10   4  -1  227.00    6.70
  10  -4  -1  218.87    6.83
 -10  -4   1  230.15    4.63
 -10   4   1  229.88    6.88
  10  -4   0  701.73   14.43
  10  -4   0  709.30   14.58
 -10  -4   0  668.11   13.94
  10   4   0  699.31   14.03
 -10   4   0  675.93   14.38
  10  -4   0  677.90   14.20
 -10   4   0  703.23   14.27
 -10  -4   0  679.83   11.22
  10  -4   1  132.31    5.12
  10  -4   1  123.52    5.04
  10   4   1  131.70    4.86
 -10  -4  -1  122.18    4.84
 -10   4  -1  130.41    5.19
  10  -4   1  126.26    3.53
 -10  -4  -1  125.00    3.13
 -10   4  -1  121.97    4.81
  10   4   2   91.14    4.00
  10  -4   2   92.30    4.34
 -10  -4  -2   88.31    4.09
 -10   4  -2   91.42    4.41
  10  -4   2   88.63    3.13
 -10   4  -2   91.33    4.18
 -10  -4  -2   90.05    2.64
  10   4   3  195.75    6.10
  10  -4   3  195.08    6.58
 -10   4  -3  189.39    6.56
 -10  -4  -3  187.61    6.12
 -10   4  -3  198.98    6.44
  10  -4   3  193.03    5.23
 -10  -4  -3  185.13    4.37
  10   4   4  939.47   17.38
 -10  -4  -4  887.00   14.95
 -10   4  -4  927.78   17.89
  10  -4   4  902.47   16.27
 -10  -4  -4  887.81   17.29
 -10   4  -4  892.23   18.08
 -10  -4  -5   65.93    2.59
  10  -4   5   71.91    3.34
 -10   4  -5   71.06    3.84
 -10   4  -5   64.97    3.92
 -10  -4  -5   71.19    3.72
  10  -4   6  700.28   14.15
 -10  -4  -6  705.47   12.75
 -10   4  -6  705.22   15.44
 -10  -4  -6  717.05   14.70
 -10   4  -7  205.52    7.24
  10  -4   7  179.42    6.08
 -10  -4  -7  188.60    6.32
 -10   4  -8   83.56    4.68
  10  -4   8   70.10    3.91
 -10  -4  -8   87.58    4.27
 -10   4  -9  516.94   12.71
  10  -4   9  418.94   11.13
 -10  -4  -9  502.68   11.70
 -10   4 -10   54.72    4.06
  10  -4  10   52.58    3.72
 -10  -4 -10   59.53    3.70
 -10   4 -11  473.16   12.65
  10  -4  11  442.62   11.87
 -10  -4 -11  492.25   11.90
 -10   4 -12  101.31    5.54
  10  -4  12   97.81    5.20
 -10  -4 -12   99.10    4.91
  10  -4  13   47.25    3.88
 -10  -4 -13   43.54    3.44
 -10   4 -13   49.18    4.05
 -10   4 -14  136.78    6.72
  10  -4  14  142.72    6.56
 -10  -4 -14  128.82    5.94
  10  -4  15   40.08    3.80
 -10   4 -15   40.95    4.04
 -10  -4 -15   36.94    3.42
 -10   4 -16   90.58    5.77
 -10  -4 -16   90.68    5.23
  10  -4  16   89.45    5.58
  10  -4  17   18.90    2.96
 -10   4 -17   15.87    2.76
 -10  -4 -17   16.45    2.76
  10  -4  18   10.11    2.72
 -10   4 -18   14.59    3.06
 -10  -4 -18   12.92    2.52
  10  -4  19    0.89    2.14
 -10  -4 -19   -1.32    1.96
 -10  -4 -20   87.29    5.62
 -10  -4 -21    1.94    2.05
  10  -6 -20   23.27    3.38
  10  -6 -19    2.03    2.03
  10  -6 -18  113.25    6.27
  10  -6 -17   18.40    2.94
  10   6 -16  306.14    8.97
  10  -6 -16  312.44   10.43
 -10   6  15   58.30    2.28
  10  -6 -15   49.68    4.07
  10   6 -15   51.95    3.40
 -10   6  14    0.37    0.66
  10   6 -14    0.08    1.32
  10  -6 -14   -0.23    1.70
  10  -6 -13   22.09    1.62
  10  -6 -13   22.82    2.96
  10   6 -13   23.08    2.16
  10  -6 -12  414.62    8.71
  10   6 -12  419.54    9.64
  10  -6 -12  417.22   11.66
  10  -6 -11   19.45    1.69
  10  -6 -11   16.84    2.53
  10   6 -11   21.19    1.94
  10  -6 -10  325.01    7.79
  10  -6 -10  339.18    9.85
  10   6 -10  346.38    7.82
  10  -6  -9   27.34    2.51
  10  -6  -9   26.38    2.05
  10   6  -9   28.94    1.94
  10  -6  -9   28.86    2.88
  10  -6  -8    1.92    1.36
  10  -6  -8    2.51    1.12
  10   6  -8    3.08    1.00
  10  -6  -8    0.27    1.56
 -10   6   7  544.57   12.35
  10  -6  -7  549.00   12.40
  10   6  -7  546.62   12.61
  10  -6  -7  530.77   11.43
  10   6  -7  554.88    9.94
  10  -6  -7  546.87   13.03
  10  -6  -6   50.79    2.94
  10  -6  -6   54.69    3.42
  10   6  -6   54.98    3.41
 -10   6   6   46.58    3.15
  10  -6  -6   54.36    3.68
  10   6  -6   52.04    2.02
  10  -6  -5  376.68    9.26
 -10   6   5  381.85    9.76
  10   6  -5  403.23    9.96
  10  -6  -5  400.09    9.94
  10  -6  -5  375.60   10.14
  10   6  -5  395.15    6.87
  10  -6  -4   38.10    2.65
  10  -6  -4   36.58    2.85
  10   6  -4   33.44    2.62
 -10   6   4   37.18    2.84
  10   6  -4   34.78    1.13
  10  -6  -4   34.95    2.90
  10  -6  -3   35.60    2.80
  10  -6  -3   33.69    2.57
  10  -6  -3   31.60    2.83
 -10   6   3   31.98    2.75
  10   6  -3   35.26    2.65
  10  -6  -2  287.11    8.16
  10  -6  -2  273.34    7.74
  10  -6  -2  267.33    8.10
 -10   6   2  265.24    7.75
  10   6  -2  260.60    7.37
  10  -6  -1   28.31    2.49
  10  -6  -1   27.18    2.65
  10   6  -1   27.06    2.29
  10  -6  -1   29.19    2.56
 -10   6   1   27.78    2.59
  10  -6   0  521.05   11.95
  10  -6   0  501.26   12.07
 -10  -6   0  501.74   11.25
  10   6   0  512.19   11.28
 -10   6   0  511.62   11.90
  10   6   1   51.90    3.05
 -10  -6  -1   52.07    3.04
 -10   6  -1   45.08    3.23
 -10  -6  -2   21.66    2.19
 -10   6  -2   24.87    2.59
  10   6   2   20.80    2.02
 -10   6  -3  116.23    5.12
 -10  -6  -3  114.18    4.59
  10   6   3  116.71    4.52
 -10   6  -4  287.75    8.65
 -10  -6  -4  287.72    7.75
 -10  -6  -4  278.15    4.97
 -10  -6  -5    1.14    1.37
 -10   6  -5   -1.36    1.68
 -10  -6  -5    0.67    0.54
 -10  -6  -6  362.07    6.99
  10  -6   6  363.94    9.02
 -10  -6  -6  363.18    9.13
 -10   6  -6  360.49   10.14
  10  -6   7   43.99    3.08
 -10  -6  -7   41.76    1.99
 -10  -6  -7   40.91    2.91
 -10   6  -7   42.52    3.52
 -10   6  -8  267.10    8.76
  10  -6   8  254.63    7.80
 -10  -6  -8  270.47    7.75
 -10   6  -9  112.28    5.66
 -10   6  -9  104.81    5.55
  10  -6   9  103.23    4.95
 -10  -6  -9  109.42    4.70
 -10   6 -10    2.70    2.00
  10  -6  10    2.63    1.73
 -10  -6 -10    4.76    1.55
 -10   6 -10    2.79    1.77
 -10   6 -11  227.04    8.54
 -10   6 -11  234.42    8.57
  10  -6  11  208.76    7.67
 -10  -6 -11  225.40    7.34
  10  -6  12   25.34    2.93
 -10  -6 -12   20.22    2.34
 -10   6 -12   25.12    3.12
  10  -6  13    0.56    1.81
 -10   6 -13   -0.29    1.91
 -10  -6 -13    0.93    1.36
 -10   6 -14  177.22    7.87
  10  -6  14  147.19    6.92
 -10  -6 -14  165.84    6.58
 -10   6 -15   74.60    5.36
  10  -6  15   56.50    4.53
 -10  -6 -15   60.16    4.11
 -10   6 -16  273.60   10.29
  10  -6  16  250.88    9.67
 -10  -6 -16  254.26    8.71
 -10   6 -17  107.97    6.58
 -10  -6 -17   91.13    5.24
  10  -6  17   96.18    5.98
 -10  -6 -18   19.82    2.84
  10  -6  18   24.85    3.37
 -10  -6 -19   56.39    4.40
  10  -8 -19   44.78    4.46
  10  -8 -18   81.95    5.55
  10  -8 -17  107.68    6.29
  10  -8 -16   35.15    3.69
  10  -8 -15  359.81   11.62
  10  -8 -14   49.50    4.19
  10   8 -13  368.79    8.97
  10  -8 -13  374.55   11.39
 -10   8  12  191.88    3.85
  10  -8 -12  204.87    7.98
  10   8 -12  199.46    5.85
 -10   8  11   89.56    1.95
  10  -8 -11   88.50    3.29
  10   8 -11   91.17    3.61
  10  -8 -11   93.19    5.26
  10  -8 -10  146.68    4.57
  10   8 -10  147.19    4.46
  10  -8 -10  154.39    6.66
  10  -8  -9   35.24    2.85
  10  -8  -9   35.55    2.39
  10  -8  -9   35.41    3.35
  10   8  -9   35.91    2.00
  10  -8  -8  120.91    4.43
  10  -8  -8  118.05    5.06
  10  -8  -8  121.82    5.88
  10   8  -8  122.18    3.42
  10  -8  -7  217.78    6.43
  10  -8  -7  231.92    7.26
 -10   8   7  227.06    7.22
  10  -8  -7  232.81    8.11
  10   8  -7  233.75    4.71
  10  -8  -6   13.88    1.95
  10   8  -6    9.25    1.77
 -10   8   6    7.64    1.72
  10  -8  -6   10.30    1.59
  10  -8  -6    8.15    2.03
  10   8  -6    7.17    0.56
  10  -8  -5   41.25    2.72
  10  -8  -5   46.73    3.15
  10  -8  -5   44.84    3.60
 -10   8   5   48.03    3.22
  10   8  -5   45.65    3.10
  10  -8  -4  222.99    7.09
  10  -8  -4  219.12    6.79
  10  -8  -4  215.90    7.67
  10   8  -4  216.62    6.78
 -10   8   4  214.54    6.93
  10  -8  -3   24.74    2.42
  10  -8  -3   21.26    2.17
  10  -8  -3   21.73    2.73
 -10   8   3   24.61    2.49
  10   8  -3   22.83    2.23
  10  -8  -2  301.77    8.44
  10  -8  -2  294.46    9.10
 -10   8   2  306.63    8.58
  10   8  -2  298.35    8.01
  10  -8  -1   15.96    2.45
  10   8  -1   16.87    1.95
 -10   8   1   17.21    2.32
  10   8   0  488.03   10.85
 -10   8   0  484.22   11.74
 -10   8  -1  141.75    5.73
  10   8   1  150.29    5.15
 -10   8  -2    0.57    1.48
  10   8   2    1.37    1.11
 -10   8  -2    0.42    1.49
 -10  -8  -3   89.57    3.92
 -10   8  -3   85.29    4.56
 -10   8  -3   87.46    4.72
  10   8   3   88.83    3.86
 -10   8  -4  366.44   10.32
 -10  -8  -4  376.95    9.09
 -10   8  -4  368.48   10.45
 -10  -8  -5    1.56    1.06
 -10   8  -5    3.25    1.88
 -10   8  -5    3.74    1.97
 -10   8  -6  497.91   12.76
 -10  -8  -6  496.27   11.07
 -10   8  -6  494.52   12.97
 -10   8  -7  125.07    5.94
 -10  -8  -7  123.96    4.76
 -10   8  -7  121.74    5.99
 -10  -8  -7  117.73    2.82
 -10  -8  -8   28.38    2.41
 -10   8  -8   25.89    3.03
 -10   8  -8   31.28    3.46
 -10  -8  -8   26.88    1.49
 -10  -8  -9  130.13    5.08
 -10   8  -9  137.63    6.44
 -10   8  -9  139.86    6.58
 -10  -8  -9  135.52    3.88
 -10   8 -10    1.46    1.82
 -10  -8 -10    4.52    1.31
 -10   8 -10    2.67    2.33
 -10  -8 -10    4.73    1.12
 -10  -8 -11  232.61    7.24
 -10   8 -11  233.10    9.03
 -10   8 -11  230.85    8.82
 -10   8 -12   20.48    2.96
 -10  -8 -12   26.14    2.48
 -10   8 -12   28.53    3.45
 -10   8 -13   42.89    4.19
 -10  -8 -13   40.09    3.02
 -10   8 -13   33.05    4.97
 -10  -8 -14   90.58    4.58
 -10   8 -14  102.02    6.19
 -10   8 -14  109.11    6.56
 -10   8 -15    9.05    2.75
 -10   8 -15    8.14    2.52
  10 -10 -16   10.96    2.82
  10 -10 -15  467.69   14.01
  10 -10 -14    7.44    2.34
  10 -10 -13  371.89   11.93
  10 -10 -12   30.95    3.66
  10  10 -11    1.51    1.00
  10 -10 -11    3.72    2.00
  10 -10 -10  230.39    8.82
  10  10 -10  225.80    5.52
  10 -10  -9  143.32    5.70
  10 -10  -9  153.78    7.05
  10  10  -9  150.15    3.86
  10 -10  -8  222.17    7.17
  10 -10  -8  244.80    8.89
  10 -10  -7  234.17    7.34
  10 -10  -7  235.66    8.70
 -10  10   6    2.47    1.56
  10 -10  -6    1.20    1.24
  10 -10  -6   -0.82    2.04
  10 -10  -5  196.24    7.75
 -10  10   5  189.50    4.46
  10  10  -5  174.35    6.25
 -10  10   5  190.25    6.54
  10 -10  -4  315.29   10.13
 -10  10   4  325.36    6.67
  10  10  -4  313.19    8.58
 -10  10   4  320.14    8.90
 -10  10   3   15.49    1.38
  10 -10  -3   10.13    2.25
  10  10  -3   14.99    1.91
 -10  10   3   12.94    1.98
  10 -10  -2  293.72    9.73
 -10  10   2  300.20    6.74
 -10  10   2  296.70    8.63
  10  10  -2  301.87    8.04
 -10  10   1   93.29    4.76
 -10  10   1  101.01    3.59
  10 -10  -1   88.77    5.19
 -10  10   1   94.34    4.66
  10  10  -1   89.91    4.00
 -10  10   0  354.72   10.16
 -10  10   0  378.64    8.38
  10  10   0  385.02    9.03
 -10  10   0  365.56   10.00
  10  10   1  222.70    6.34
 -10  10  -1  212.68    7.61
 -10  10  -1  223.03    6.12
 -10  10  -1  218.96    7.43
 -10  10  -2    4.81    2.00
 -10  10  -2   -0.51    1.16
 -10  10  -2    4.29    1.73
  10  10   2    1.84    1.20
 -10  10  -3  273.12    9.00
 -10  10  -3  287.65    8.86
 -10  10  -4  117.29    5.80
 -10  10  -4  115.13    5.52
 -10  10  -5   70.59    4.68
 -10  10  -5   63.94    4.25
 -10  10  -6  154.93    6.94
 -10  10  -6  148.21    6.57
 -10 -10  -6  161.14    5.13
 -10  10  -7  109.84    5.94
 -10  10  -7  113.16    5.80
 -10 -10  -7  109.74    4.19
 -10  10  -8  172.52    7.61
 -10  10  -8  175.66    7.42
 -10 -10  -8  176.94    5.54
 -10  10  -9  138.11    6.76
 -10  10  -9  142.30    7.13
 -10  10 -10    7.11    2.42
 -10  10 -10   11.01    2.49
 -10  10 -11  116.17    6.44
 -10  10 -11  110.23    6.42
 -10  10 -12  120.10    6.79
 -10  10 -12  113.84    6.50
 -10  10 -13   25.95    3.70
 -10  10 -13   29.44    3.69
 -10  10 -14  105.22    6.56
  10 -12 -13  147.05    7.64
  10 -12 -12   16.63    3.07
  10 -12 -11   34.90    3.90
  10 -12 -10   77.94    5.30
  10 -12  -9   24.77    3.38
  10 -12  -8  256.31    9.71
  10 -12  -7  269.33    9.93
  10 -12  -6    2.18    1.97
 -10  12   6    1.64    1.35
  10 -12  -5  187.76    8.02
 -10  12   5  182.74    6.47
  10 -12  -4  159.08    7.35
 -10  12   4  168.19    6.21
  10 -12  -3  154.80    7.34
 -10  12   3  157.12    6.06
 -10  12   2  127.88    5.83
 -10  12   2  120.94    5.33
 -10  12   1   84.30    4.78
 -10  12   1   86.84    4.54
 -10  12   0   27.82    3.01
 -10  12   0   26.02    2.71
 -10  12  -1  241.84    8.52
 -10  12  -1  243.30    8.05
 -10  12  -2   25.37    2.98
 -10  12  -2   23.59    2.65
 -10  12  -3  274.57    9.49
 -10  12  -3  277.90    8.93
 -10  12  -4    1.72    1.98
 -10  12  -4    0.43    1.72
 -10  12  -5    5.16    2.07
 -10  12  -5    7.05    2.33
 -10  12  -6   54.05    4.46
 -10  12  -6   56.20    4.31
 -10  12  -7   42.00    4.01
 -10  12  -7   38.45    3.68
 -10  12  -8   74.59    5.31
 -10  12  -8   74.87    5.03
 -10  12  -9  123.37    6.85
 -10  12  -9  121.46    6.46
 -10  12 -10   19.97    3.01
 -10  12 -11  186.10    8.47
 -10  12 -12  152.45    7.71
  10 -14  -9   33.35    4.03
  10 -14  -8   65.35    5.27
  10 -14  -7  164.78    8.01
  10 -14  -6    1.15    2.08
  10 -14  -5  369.95   12.41
  10 -14  -4   87.21    5.83
 -10  14   3    7.40    2.08
 -10  14   2  194.70    7.62
 -10  14   1   88.45    4.62
 -10  14   1   94.91    5.36
 -10  14   0   15.26    2.43
 -10  14   0   17.90    2.75
 -10  14  -1  101.85    5.12
 -10  14  -1   96.11    5.66
 -10  14  -2    1.91    1.72
 -10  14  -2    2.22    1.97
 -10  14  -3  135.27    6.17
 -10  14  -3  133.15    6.83
 -10  14  -4    0.27    1.66
 -10  14  -4    0.75    2.04
 -10  14  -5   89.24    5.27
 -10  14  -5  100.52    6.13
 -10  14  -6   -1.10    1.71
 -10  14  -6    2.44    2.25
 -10  14  -7   -2.06    1.97
 -10  14  -8   28.51    3.61
 -10  14  -9  210.97    8.73
 -10  14 -10    8.39    2.67
 -10  16   2   27.28    3.19
 -10  16   1   36.42    3.69
 -10  16   0   12.64    2.58
 -10  16  -1   36.83    3.84
  11   1 -23    0.21    2.10
  11   1 -22   38.83    3.98
  11  -1 -22   35.57    3.95
  11   1 -21   46.88    4.26
  11  -1 -21   51.49    4.47
  11   1 -20   10.41    2.31
  11  -1 -20   15.98    2.97
  11   1 -19   47.29    3.97
  11  -1 -19   38.49    3.76
  11  -1 -18  404.64   11.95
  11   1 -18  407.16   11.75
  11   1 -17   13.78    2.38
  11  -1 -17   11.40    2.42
  11  -1 -16  147.15    6.54
  11   1 -16  138.89    6.11
  11  -1 -15   47.24    3.70
  11   1 -15   45.12    3.52
  11  -1 -14   32.32    3.07
  11   1 -14   29.58    2.80
  11   1 -13   98.21    3.79
  11  -1 -13   95.66    4.76
  11   1 -13  100.50    4.71
  11   1 -12  183.61    5.21
  11  -1 -12  182.78    6.54
  11   1 -12  180.97    6.30
  11   1 -11   78.01    3.06
  11   1 -11   72.49    3.80
  11  -1 -11   70.76    3.93
  11   1 -10  882.13   15.19
  11   1 -10  889.22   16.91
  11  -1 -10  866.33   17.28
  11   1  -9    2.49    0.78
  11  -1  -9    4.28    1.66
  11   1  -9    2.78    1.35
  11   1  -8  496.10    9.29
  11  -1  -8  488.26   11.15
  11   1  -8  486.34   10.67
  11  -1  -7   18.17    0.80
  11   1  -7   18.00    1.89
 -11   1   7   18.30    1.93
  11  -1  -7   18.07    2.09
  11   1  -6   56.18    3.49
 -11   1   6   56.54    3.61
  11  -1  -6   58.84    3.58
  11  -1  -6   55.96    1.44
 -11   1   6   53.17    3.03
  11  -1  -6   52.18    3.10
  11   1  -6   54.00    2.87
 -11  -1   5   69.08    3.96
  11  -1  -5   76.35    3.97
 -11   1   5   72.21    4.04
  11   1  -5   79.85    4.05
  11   1  -5   70.85    3.22
  11  -1  -5   74.69    3.56
 -11  -1   5   77.35    3.27
 -11   1   5   75.50    3.51
  11  -1  -4    1.65    1.22
 -11  -1   4    3.02    1.64
  11   1  -4    2.13    1.28
 -11   1   4    1.48    1.61
 -11  -1   4    2.06    0.88
  11  -1  -4    4.28    1.48
  11   1  -4    1.21    1.14
 -11   1   4    3.30    1.17
  11   1  -3    9.43    1.73
 -11  -1   3    8.78    1.93
 -11   1   3    7.86    1.85
  11  -1  -3   10.52    1.73
 -11   1   3   10.33    1.57
  11   1  -3    8.73    1.40
  11  -1  -3    8.96    1.60
 -11  -1   3    8.29    1.22
  11  -1  -2  534.09   11.95
  11   1  -2  530.25   11.89
 -11   1   2  499.76   11.80
 -11  -1   2  489.14   11.67
  11   1  -2  513.79   10.26
  11  -1  -2  519.43   10.94
 -11   1   2  494.64   10.76
 -11  -1   2  493.73   10.20
  11   1  -1   42.87    2.97
  11  -1  -1   41.59    3.05
 -11  -1   1   40.61    3.13
 -11   1   1   43.06    3.23
  11  -1  -1   40.62    2.64
 -11  -1   1   38.47    2.22
 -11   1   1   36.93    2.41
 -11   1   0  997.82   19.15
 -11  -1   0  992.35   19.08
  11  -1   0 1020.77   19.23
  11   1   0 1035.84   19.19
 -11   1   0  973.48   17.89
 -11  -1   0  946.46   17.07
 -11   1  -1   61.25    3.68
 -11  -1  -1   60.89    3.68
  11  -1   1   61.55    3.59
  11   1   1   64.74    3.58
  11  -1   1   63.43    3.65
 -11   1  -1   58.11    3.05
 -11  -1  -1   63.65    2.87
 -11  -1  -2  149.00    5.77
 -11   1  -2  144.82    5.73
  11  -1   2  156.63    5.84
  11   1   2  163.07    5.83
  11  -1   2  159.23    5.88
 -11   1  -2  153.09    5.13
 -11  -1  -2  150.18    4.67
  11   1   3    0.76    1.22
 -11   1  -3    1.72    1.75
 -11  -1  -3   -0.84    1.47
 -11   1  -3   -0.78    1.16
 -11  -1  -3   -1.88    0.98
 -11   1  -4    1.65    1.57
 -11  -1  -4    0.80    1.50
 -11   1  -4   -0.91    1.04
 -11  -1  -4   -0.05    0.86
 -11  -1  -5  107.78    4.10
 -11   1  -5  110.04    4.48
 -11   1  -5  101.38    4.89
 -11  -1  -5  105.87    4.94
 -11  -1  -6  329.35    8.31
 -11   1  -6  350.61    8.93
 -11   1  -6  348.89    9.71
 -11  -1  -6  339.45    9.48
 -11  -1  -7   40.29    2.68
 -11   1  -7   39.33    2.84
 -11   1  -7   37.99    3.25
 -11  -1  -7   40.72    3.23
 -11  -1  -8  154.22    5.44
 -11   1  -8  145.36    5.61
 -11   1  -8  144.29    6.12
 -11  -1  -8  153.73    6.23
 -11  -1  -9    5.76    1.46
 -11   1  -9    3.13    1.83
 -11  -1  -9    4.09    1.98
  11  -1  10   84.23    4.63
 -11   1 -10   79.46    4.71
 -11  -1 -10   73.59    4.48
  11  -1  11   -0.36    1.75
 -11   1 -11    1.08    1.66
 -11  -1 -11    0.12    1.66
  11  -1  12   -0.72    1.85
 -11   1 -12   -0.78    1.67
 -11  -1 -12    1.49    1.70
  11  -1  13    4.84    2.10
 -11   1 -13    5.40    2.10
 -11  -1 -13    3.27    1.93
 -11   1 -14  170.18    7.38
 -11  -1 -14  161.86    7.09
  11  -1  14  161.14    7.11
  11  -1  15   11.10    2.51
 -11  -1 -15   11.98    2.61
 -11   1 -15   13.14    2.82
 -11  -1 -16  456.53   13.24
 -11   1 -16  455.42   13.51
  11   1  16  491.17   14.03
  11  -1  16  466.42   13.47
  11  -1  17    0.20    1.87
  11   1  17    1.80    2.26
 -11   1 -17   -0.69    1.93
 -11  -1 -17    0.09    1.97
 -11  -1 -18   65.58    4.93
 -11   1 -18   66.50    5.06
  11   1  18   74.39    5.41
  11  -1  18   63.27    4.98
 -11  -1 -19    2.65    2.15
  11   3 -23    4.35    2.27
  11   3 -22   22.80    3.23
  11  -3 -21   29.61    3.73
  11   3 -21   23.13    3.23
  11  -3 -20   40.25    3.98
  11   3 -20   42.71    3.94
  11   3 -19   90.01    5.26
  11  -3 -19   85.76    5.52
  11   3 -18  194.26    7.59
  11  -3 -18  205.72    8.28
  11  -3 -17   41.53    3.75
  11   3 -17   36.29    3.29
  11   3 -16  206.45    6.85
  11  -3 -16  215.55    8.14
  11   3 -16  207.76    7.37
  11   3 -15  135.80    5.24
  11  -3 -15  134.65    6.27
  11   3 -15  128.94    5.55
  11   3 -14   28.25    2.41
  11   3 -14   32.07    2.82
  11  -3 -14   31.20    3.19
  11   3 -13   37.10    2.55
  11  -3 -13   40.64    3.39
  11   3 -13   34.46    2.80
  11   3 -12   52.28    2.98
  11   3 -12   52.68    3.22
  11  -3 -12   47.18    3.58
  11   3 -11  106.61    4.13
  11   3 -11  108.92    4.41
  11  -3 -11  103.57    4.99
  11   3 -10  663.77   13.12
  11   3 -10  694.09   13.57
  11  -3 -10  677.99   14.93
  11   3  -9   94.35    3.80
  11  -3  -9   90.24    4.44
 -11   3   8  163.41    5.95
  11  -3  -8  165.85    6.01
  11   3  -8  160.93    4.95
 -11   3   7   17.62    2.40
  11   3  -7   15.78    1.61
 -11   3   7   14.88    2.01
  11  -3  -7   17.89    2.22
 -11   3   6   28.06    2.76
  11  -3  -6   30.11    2.45
  11   3  -6   30.63    2.00
  11  -3  -6   25.57    2.51
 -11   3   6   30.79    2.53
  11  -3  -5   57.14    3.29
  11   3  -5   56.10    3.49
 -11   3   5   52.13    3.45
  11  -3  -5   49.99    3.29
  11  -3  -5   49.94    3.24
  11   3  -5   58.86    2.60
 -11   3   5   52.49    3.19
  11   3  -4    6.33    1.65
  11  -3  -4    5.30    1.65
 -11   3   4    5.94    1.78
  11  -3  -4    7.91    1.61
 -11   3   4    6.58    1.46
  11   3  -4    5.58    1.07
  11  -3  -4    9.28    1.79
  11  -3  -3   72.47    3.75
 -11  -3   3   71.13    3.91
  11  -3  -3   78.22    4.01
 -11   3   3   67.76    3.90
  11   3  -3   69.70    3.73
  11   3  -3   73.17    2.72
  11  -3  -3   67.60    3.64
 -11   3   3   70.71    3.68
 -11  -3   3   68.59    2.60
  11  -3  -2  453.18   10.95
  11  -3  -2  425.84   10.51
 -11   3   2  429.74   10.75
 -11  -3   2  424.52   10.56
  11   3  -2  459.78   10.72
  11  -3  -2  419.49   10.22
 -11  -3   2  431.90    8.43
 -11   3   2  441.41   10.28
  11  -3  -1    9.59    1.78
 -11  -3   1    9.67    1.98
 -11   3   1    6.72    1.79
  11  -3  -1    8.43    1.70
  11   3  -1    5.10    1.37
  11  -3  -1    7.74    1.65
  11  -3  -1    6.84    0.77
 -11   3   1    6.39    1.42
 -11  -3   1    5.02    0.88
  11  -3   0  432.45   10.65
  11  -3   0  435.10   10.77
 -11   3   0  419.31   10.62
  11   3   0  446.45   10.52
 -11  -3   0  434.82   10.58
  11  -3   0  422.72    7.97
 -11  -3   0  413.56    8.23
 -11   3   0  421.67   10.08
  11   3   1  254.33    7.43
  11  -3   1  247.83    7.60
 -11  -3  -1  241.63    7.42
 -11   3  -1  252.18    7.79
  11  -3   1  239.82    5.65
 -11   3  -1  262.21    7.35
 -11  -3  -1  237.76    5.56
  11   3   2  380.57    9.46
 -11  -3  -2  364.71    9.51
 -11   3  -2  348.29    9.61
  11  -3   2  355.30    7.73
 -11   3  -2  372.62    9.29
 -11  -3  -2  346.25    7.34
  11   3   3   99.91    4.45
 -11  -3  -3   93.14    4.48
 -11   3  -3   91.77    4.70
 -11   3  -3   97.33    4.36
  11  -3   3   88.99    3.50
 -11  -3  -3   90.20    3.18
 -11   3  -4   10.19    2.14
 -11  -3  -4    9.74    2.04
  11  -3   4    9.87    1.50
 -11   3  -4   11.84    1.85
 -11  -3  -4    8.45    1.15
 -11  -3  -5   16.65    2.33
 -11   3  -5   11.88    2.16
  11  -3   5   13.68    1.72
 -11  -3  -5   17.65    1.59
 -11   3  -5   17.31    2.17
 -11  -3  -6  272.96    6.70
  11  -3   6  235.62    7.08
 -11   3  -6  276.69    8.65
 -11  -3  -6  271.68    8.10
  11  -3   7   28.85    2.54
 -11  -3  -7   32.68    2.23
 -11  -3  -7   26.86    2.72
 -11   3  -7   32.63    3.16
 -11  -3  -8 1012.02   18.26
  11  -3   8  955.37   19.18
 -11   3  -8 1031.86   20.71
 -11  -3  -8 1022.44   19.95
  11  -3   9    4.61    1.76
 -11  -3  -9    2.96    1.64
 -11   3  -9    3.92    2.00
 -11   3 -10   82.16    4.90
  11  -3  10   75.50    4.32
 -11  -3 -10   80.03    4.54
  11  -3  11    4.59    1.87
 -11   3 -11    1.20    1.80
 -11  -3 -11    4.78    1.92
  11  -3  12   24.44    2.97
 -11   3 -12   26.44    3.09
 -11  -3 -12   20.55    2.64
 -11   3 -13  184.46    7.76
  11  -3  13  183.03    7.39
 -11  -3 -13  175.26    7.11
 -11   3 -14  187.27    7.98
  11  -3  14  182.61    7.66
 -11  -3 -14  183.89    7.47
  11  -3  15   15.61    2.80
 -11   3 -15   15.02    2.84
 -11  -3 -15   16.15    2.74
 -11   3 -16  267.75   10.05
 -11  -3 -16  251.12    9.25
  11  -3  16  251.34    9.50
  11  -3  17   30.75    3.56
 -11   3 -17   32.84    3.78
 -11  -3 -17   26.30    3.37
 -11  -3 -18   54.93    4.54
  11  -3  18   69.21    5.24
 -11  -3 -19   63.45    4.90
 -11  -3 -20    4.01    2.26
  11   5 -23   10.56    2.73
  11   5 -22    2.24    1.91
  11   5 -21   67.44    4.77
  11  -5 -20   64.14    4.98
  11   5 -20   62.81    4.42
  11  -5 -19   53.84    4.67
  11   5 -19   49.72    4.02
  11  -5 -18  232.17    9.12
  11   5 -18  219.47    7.96
  11  -5 -17    4.83    2.10
  11   5 -17    5.10    1.93
  11   5 -16  185.24    6.83
  11  -5 -16  190.96    7.96
  11   5 -15  142.02    5.68
  11  -5 -15  141.02    6.64
  11  -5 -14  154.56    6.81
  11   5 -14  157.60    5.83
  11  -5 -13   48.73    2.66
  11  -5 -13   45.57    3.71
  11   5 -13   41.85    2.91
  11  -5 -12   11.09    1.51
  11   5 -12    9.37    1.62
  11  -5 -12   12.50    2.42
  11   5 -12   11.73    1.70
  11  -5 -11   36.79    2.44
  11   5 -11   35.44    2.66
  11  -5 -11   38.89    3.36
  11   5 -11   37.72    2.55
  11  -5 -10  227.53    6.60
  11   5 -10  248.67    6.48
  11  -5 -10  244.92    8.12
  11  -5  -9   30.36    2.42
  11   5  -9   36.80    2.23
  11  -5  -9   35.75    3.05
  11  -5  -8  766.99   15.27
  11  -5  -8  774.40   16.62
  11   5  -8  787.03   13.96
 -11   5   7    6.88    1.88
  11  -5  -7    8.22    1.51
  11   5  -7    7.42    1.16
  11  -5  -7   10.17    2.14
 -11   5   6    0.84    1.54
  11  -5  -6    3.17    1.23
  11  -5  -6    3.36    1.65
  11   5  -6    2.28    0.79
  11  -5  -5  266.31    7.66
  11  -5  -5  256.33    8.04
  11   5  -5  271.50    5.64
  11   5  -5  278.09    8.08
 -11   5   5  266.73    8.07
  11  -5  -4  180.43    6.13
  11   5  -4  180.32    4.04
  11  -5  -4  182.28    6.52
 -11   5   4  162.96    6.18
  11   5  -4  189.02    6.42
  11  -5  -3  174.62    6.07
  11  -5  -3  171.90    6.29
 -11   5   3  167.56    6.23
  11   5  -3  179.32    6.11
  11  -5  -2  326.26    8.82
  11  -5  -2  307.48    8.83
 -11   5   2  318.49    8.96
  11   5  -2  319.70    8.65
 -11  -5   2  317.75    8.67
  11  -5  -1   67.66    3.75
 -11  -5   1   59.86    3.52
 -11   5   1   62.24    3.77
  11   5  -1   64.21    3.54
  11  -5  -1   59.14    3.72
 -11   5   0  222.97    7.37
  11   5   0  233.03    7.04
 -11  -5   0  228.55    7.09
 -11  -5  -1  222.43    6.96
 -11   5  -1  214.47    7.27
  11   5   1  224.31    6.91
 -11  -5  -1  228.16    4.29
 -11   5  -2  195.80    6.94
 -11  -5  -2  199.34    6.58
  11   5   2  200.27    6.43
 -11  -5  -2  200.09    4.09
  11   5   3  147.42    5.47
 -11  -5  -3  142.28    5.50
 -11   5  -3  151.62    6.08
  11  -5   3  157.25    4.68
 -11  -5  -3  153.53    3.56
 -11   5  -4    3.38    1.72
 -11  -5  -4    2.59    1.49
  11  -5   4    0.98    1.04
 -11  -5  -4    0.64    0.57
 -11  -5  -5    0.77    1.78
 -11   5  -5    2.30    1.75
  11  -5   5    2.35    1.14
 -11  -5  -5    2.39    0.76
  11  -5   6  555.81   12.05
 -11  -5  -6  551.55   10.33
 -11  -5  -6  547.92   12.59
 -11   5  -6  562.26   13.67
 -11  -5  -7   64.28    2.70
  11  -5   7   56.68    3.46
 -11   5  -7   64.20    4.30
 -11  -5  -7   61.93    3.71
  11  -5   8 1162.49   22.18
 -11  -5  -8 1184.12   20.20
 -11   5  -8 1230.70   23.94
 -11  -5  -8 1225.52   22.62
  11  -5   9    5.90    1.74
 -11  -5  -9    1.48    1.41
 -11   5  -9    2.25    1.93
 -11   5 -10  156.20    6.87
  11  -5  10  129.09    5.78
 -11  -5 -10  150.25    6.02
  11  -5  11   29.03    3.01
 -11  -5 -11   36.60    3.19
 -11   5 -11   34.56    3.55
  11  -5  12    5.05    1.86
 -11  -5 -12    0.55    1.50
 -11   5 -12    5.46    2.23
 -11   5 -13   66.02    4.91
  11  -5  13   58.63    4.31
 -11  -5 -13   63.64    4.15
 -11   5 -14  130.79    6.82
  11  -5  14  120.25    6.26
 -11  -5 -14  127.29    6.10
  11  -5  15    2.26    1.90
 -11   5 -15    4.40    2.20
 -11  -5 -15   -2.17    1.86
 -11   5 -16  109.41    6.52
 -11  -5 -16   88.64    5.32
  11  -5  16  103.24    6.03
 -11  -5 -17   87.41    5.35
  11  -5  17   99.21    6.06
 -11  -5 -18   91.43    5.58
  11  -5  18   97.93    6.17
 -11  -5 -19   79.20    5.46
  11   7 -23    3.95    2.22
  11   7 -22   34.79    3.63
  11   7 -21   36.28    3.65
  11   7 -20    4.39    1.90
  11   7 -19   10.78    2.23
  11  -7 -19   16.44    2.97
  11   7 -18   63.94    4.20
  11  -7 -18   57.91    4.86
  11  -7 -17   11.82    2.82
  11   7 -17    9.11    1.90
  11   7 -16  143.19    5.76
  11  -7 -16  145.95    7.24
  11  -7 -15   51.74    4.29
  11   7 -15   48.37    3.27
  11   7 -14  191.32    6.34
  11  -7 -14  193.15    8.05
  11   7 -13  112.88    4.53
  11  -7 -13  115.42    6.03
  11   7 -12   -0.28    1.05
  11  -7 -12    1.53    1.90
  11  -7 -11  204.71    5.86
  11  -7 -11  201.39    7.84
  11   7 -11  203.68    5.79
  11  -7 -10  276.42    7.38
  11  -7 -10  301.21    9.56
  11   7 -10  297.70    7.00
  11  -7  -9   14.17    1.74
  11  -7  -9   11.35    2.34
  11   7  -9   13.39    1.36
  11  -7  -8  794.82   15.97
  11  -7  -8  832.64   18.18
  11   7  -8  850.05   14.11
  11  -7  -7   97.33    4.26
 -11   7   7   94.37    4.67
  11  -7  -7  106.95    5.42
  11   7  -7  101.27    2.86
  11  -7  -6   27.33    2.37
 -11   7   6   30.43    2.80
  11   7  -6   30.15    1.27
  11  -7  -6   32.80    3.18
  11  -7  -5  429.90   10.42
 -11   7   5  418.20   10.75
  11  -7  -5  423.83   11.45
 -11   7   4   18.71    2.24
  11   7  -4   22.44    2.31
  11  -7  -4   22.75    2.26
  11  -7  -4   22.39    2.74
  11  -7  -3  134.06    5.35
  11  -7  -3  129.22    5.75
 -11   7   3  124.15    5.37
  11   7  -3  135.49    5.30
  11  -7  -2  110.24    5.28
 -11   7   2  108.14    5.03
  11   7  -2  116.94    4.86
  11  -7  -1   78.54    4.54
 -11   7   1   75.19    4.21
  11   7  -1   75.62    3.84
 -11   7   0   85.77    4.54
  11   7   0   91.48    4.19
  11   7   1   45.30    2.95
 -11  -7  -1   45.20    3.09
 -11   7  -1   51.33    3.56
  11   7   2  177.14    5.95
 -11  -7  -2  175.03    6.02
 -11   7  -2  185.16    6.83
  11   7   3  203.70    6.45
 -11  -7  -3  204.60    6.59
 -11   7  -3  201.60    7.30
 -11   7  -4   18.00    2.54
 -11  -7  -4   15.98    2.05
 -11   7  -5   58.10    4.12
 -11  -7  -5   56.77    3.43
 -11  -7  -6  114.97    2.75
 -11   7  -6  116.36    5.75
 -11  -7  -6  114.76    4.89
 -11  -7  -7   42.53    3.11
 -11   7  -7   46.27    3.81
 -11  -7  -8  399.43   10.33
 -11   7  -8  418.83   11.94
 -11   7  -9    0.66    2.06
 -11  -7  -9    2.54    1.40
 -11   7 -10   24.65    3.29
 -11  -7 -10   22.78    2.57
 -11   7 -11  237.02    9.05
  11  -7  11  219.14    8.03
 -11  -7 -11  238.47    7.72
 -11   7 -12  128.03    6.75
  11  -7  12  116.08    5.95
 -11  -7 -12  135.09    5.71
  11  -7  13   47.11    4.04
 -11   7 -13   52.84    4.60
 -11  -7 -13   51.65    3.69
 -11   7 -14  155.61    7.71
 -11  -7 -14  158.35    6.48
  11  -7  14  131.70    6.73
 -11  -7 -15   22.31    2.71
 -11   7 -15   27.37    3.79
  11  -7  15   19.01    3.09
 -11  -7 -16  136.55    6.23
  11  -7  16  112.58    6.51
  11  -7  17   49.47    4.51
  11  -9 -17    1.69    2.15
  11  -9 -16  158.68    7.76
  11  -9 -15   70.83    5.18
  11   9 -15   57.54    3.38
  11   9 -14   15.10    1.83
  11  -9 -14   13.13    2.66
  11   9 -13  129.86    4.74
  11  -9 -13  136.52    6.84
  11   9 -12   21.32    1.90
  11  -9 -12   20.39    3.12
  11  -9 -11  164.30    7.37
  11   9 -11  162.80    4.78
  11  -9 -10   80.31    5.14
  11   9 -10   83.44    3.03
  11  -9  -9    9.28    1.48
  11  -9  -9   14.10    2.60
  11   9  -9   10.01    1.09
  11  -9  -8  119.15    6.06
  11  -9  -8  123.66    4.76
  11   9  -8  122.75    2.94
  11  -9  -7  194.77    6.30
 -11   9   7  200.07    6.97
  11  -9  -7  205.48    8.01
 -11   9   6    3.22    1.62
  11  -9  -6    8.06    1.61
  11  -9  -6    4.31    4.16
  11  -9  -5  801.62   16.68
  11  -9  -5  853.43   18.80
 -11   9   5  847.38   17.39
  11  -9  -4   46.49    3.93
 -11   9   4   43.86    3.33
  11  -9  -3  113.49    5.71
 -11   9   3  111.70    5.20
  11   9  -3  116.19    4.89
  11  -9  -2   63.28    4.36
 -11   9   2   71.26    4.16
  11   9  -2   69.15    3.71
  11  -9  -1   -2.60    2.00
  11   9  -1    2.67    1.32
 -11   9   1    2.60    1.62
 -11   9   0  164.07    6.45
  11   9   0  166.13    5.74
 -11   9  -1   57.46    3.89
  11   9   1   57.03    3.26
 -11   9  -2   58.28    3.99
  11   9   2   61.87    3.41
 -11   9  -3  304.77    9.46
  11   9   3  306.97    8.15
 -11  -9  -4   60.52    3.38
 -11   9  -4   57.71    4.15
 -11   9  -4   61.82    4.31
 -11   9  -5  216.44    8.01
 -11  -9  -5  217.17    6.68
 -11   9  -5  210.54    8.10
 -11  -9  -6  215.95    6.72
 -11   9  -6  223.91    8.31
 -11   9  -6  215.07    8.28
 -11  -9  -7    5.51    1.39
 -11   9  -7   10.67    2.56
 -11   9  -7   15.00    2.79
 -11   9  -8  274.16    9.58
 -11  -9  -8  285.84    8.00
 -11   9  -8  265.22    9.69
 -11   9  -9   78.06    5.16
 -11  -9  -9   80.73    4.02
 -11   9  -9   82.67    5.38
 -11  -9 -10   51.79    3.33
 -11   9 -10   57.65    4.67
 -11   9 -10   63.91    4.95
 -11   9 -11  130.86    6.80
 -11   9 -11  129.12    6.89
 -11   9 -12   20.89    3.25
 -11   9 -12   14.76    2.87
 -11   9 -13   15.04    3.00
 -11   9 -13   18.24    3.20
  11 -11 -14    1.07    2.11
  11 -11 -13  116.12    6.78
  11 -11 -12   13.24    2.72
  11 -11 -11  198.70    8.62
  11 -11 -10   20.04    3.02
  11 -11  -9   12.95    2.67
  11 -11  -8   50.40    4.37
  11 -11  -7   30.95    3.68
  11 -11  -6   84.56    5.42
 -11  11   6   73.89    4.24
  11 -11  -5  193.62    8.14
 -11  11   5  206.26    7.20
  11 -11  -4   -1.40    2.06
 -11  11   4    2.73    1.71
  11 -11  -3  135.19    6.73
 -11  11   3  132.74    5.73
  11 -11  -2   31.12    3.47
 -11  11   2   32.09    2.98
 -11  11   1    1.48    1.58
 -11  11   0  242.33    8.20
 -11  11  -1   86.36    4.83
 -11  11  -1   84.47    4.99
 -11  11  -2   10.24    2.20
 -11  11  -2   10.56    2.26
 -11  11  -3  286.52    9.31
 -11  11  -3  293.75    9.83
 -11  11  -4   29.72    3.27
 -11  11  -4   37.09    3.54
 -11  11  -5  168.40    7.17
 -11  11  -5  171.02    7.58
 -11  11  -6   14.28    2.61
 -11  11  -6   23.92    3.33
 -11  11  -7    3.93    2.26
 -11  11  -7    5.53    2.27
 -11  11  -8    4.97    2.30
 -11  11  -8    2.88    2.06
 -11  11  -9   93.26    5.82
 -11  11  -9  104.90    6.33
 -11  11 -10   65.75    5.02
 -11  11 -10   65.27    5.25
 -11  11 -11  312.34   11.22
  11 -13  -9   30.50    3.85
  11 -13  -8    4.49    2.11
  11 -13  -7  126.15    7.00
  11 -13  -6   33.22    3.78
  11 -13  -5  305.74   11.09
 -11  13   5  300.69    9.00
  11 -13  -4   12.82    2.83
 -11  13   4   20.08    2.45
 -11  13   3  211.50    7.46
 -11  13   2  144.43    6.13
 -11  13   1    2.91    1.80
 -11  13   0   69.14    4.39
 -11  13   0   71.48    4.73
 -11  13  -1   83.39    4.85
 -11  13  -1   85.34    5.29
 -11  13  -2    1.62    1.72
 -11  13  -2    4.77    2.11
 -11  13  -3  187.41    7.55
 -11  13  -3  197.97    8.29
 -11  13  -4   57.00    4.25
 -11  13  -4   60.12    4.80
 -11  13  -5   72.00    4.91
 -11  13  -5   78.23    5.31
 -11  13  -6   32.87    3.61
 -11  13  -6   29.08    3.69
 -11  13  -7   -0.79    2.06
 -11  13  -8    1.12    1.92
 -11  13  -9   69.35    5.10
 -11  13 -10   50.77    4.50
 -11  15   1    4.51    2.25
 -11  15   0   37.86    3.84
 -11  15  -1  236.71    9.30
 -11  15  -2    1.93    2.11
  12   0 -22  144.98    7.43
  12   0 -21    0.72    1.92
  12   0 -20    6.85    2.44
  12   0 -19   -0.13    2.08
  12   0 -18   17.79    2.74
  12   0 -17    4.11    2.04
  12   0 -16  125.00    5.97
  12   0 -15   -0.67    1.59
  12   0 -14  193.29    7.08
  12   0 -13   -1.44    1.43
  12   0 -12   58.00    3.68
  12   0 -11   -0.67    1.47
  12   0 -10 1532.36   23.49
  12   0 -10 1475.17   26.46
  12   0  -9   -0.15    0.67
  12   0  -9   -2.99    1.51
  12   0  -8  604.95   10.26
  12   0  -8  596.04   12.83
  12   0  -7    0.42    0.55
  12   0  -7    1.14    1.20
 -12   0   6   99.67    4.87
  12   0  -6   99.77    4.21
 -12   0   6   99.25    4.14
 -12   0   5    0.28    1.63
 -12   0   5   -1.01    1.03
  12   0  -5    1.66    1.31
 -12   0   4   34.73    3.07
  12   0  -4   36.54    2.61
 -12   0   4   36.10    2.46
 -12   0   3   -0.86    1.69
  12   0  -3    0.37    1.13
 -12   0   3   -1.10    1.03
 -12   0   2   38.84    3.21
  12   0  -2   38.62    2.55
 -12   0   2   37.65    2.48
 -12   0   1    1.16    1.71
 -12   0   1   -0.86    1.04
 -12   0   0 1057.96   20.53
 -12   0   0 1042.64   18.75
 -12   0  -1    1.26    1.60
 -12   0  -1    1.02    1.38
 -12   0  -2  740.64   15.82
 -12   0  -2  720.72   14.20
 -12   0  -3    2.77    1.86
 -12   0  -3    1.47    1.05
 -12   0  -4  264.91    8.32
 -12   0  -4  246.65    7.05
 -12   0  -5    0.64    1.69
 -12   0  -5    0.73    1.00
 -12   0  -6   14.45    2.44
 -12   0  -6   11.14    1.66
 -12   0  -7    1.97    1.21
 -12   0  -7    1.60    1.70
 -12   0  -8  804.60   16.43
 -12   0  -8  802.76   17.64
 -12   0  -9   -2.41    1.91
 -12   0 -10  503.92   13.24
 -12   0 -11   -1.49    1.83
 -12   0 -12   30.58    3.33
  12   0  13    3.21    2.05
 -12   0 -13    1.37    2.02
  12   0  14    2.25    2.08
 -12   0 -14    0.97    2.04
  12   0  15    1.12    2.12
 -12   0 -15    0.56    1.95
 -12   0 -16  142.20    7.26
  12   0  16  155.63    7.44
 -12   0 -17   -0.02    2.04
  12   0  17   -1.08    1.96
  12   2 -22  107.93    6.28
  12   2 -21    4.08    2.20
  12  -2 -21    8.64    2.75
  12  -2 -20   66.22    5.00
  12   2 -20   63.32    4.66
  12  -2 -19    1.50    2.06
  12   2 -19    1.16    1.91
  12  -2 -18   22.04    3.18
  12   2 -18   16.75    2.68
  12   2 -17   21.94    2.72
  12  -2 -17   28.04    3.21
  12  -2 -16  220.85    8.32
  12   2 -16  216.33    7.72
  12   2 -15    1.10    1.09
  12   2 -15    0.15    1.48
  12  -2 -15   -1.09    1.71
  12   2 -14  394.02    9.28
  12   2 -14  383.83   10.39
  12  -2 -14  388.34   11.00
  12   2 -13   83.24    3.65
  12   2 -13   84.02    4.32
  12  -2 -13   89.55    4.76
  12   2 -12  275.90    7.02
  12   2 -12  280.34    8.03
  12  -2 -12  280.62    8.70
  12   2 -11   32.06    2.17
  12  -2 -11   34.85    3.05
  12   2 -11   30.95    2.65
  12   2 -10    6.21    1.13
  12  -2 -10    5.63    1.78
  12   2 -10    8.83    1.63
  12   2  -9   47.53    2.41
  12  -2  -9   44.60    3.21
  12   2  -9   51.81    3.02
  12  -2  -8  219.86    7.06
  12   2  -8  224.29    6.35
 -12   2   7   13.77    1.90
  12  -2  -7   12.38    1.95
  12   2  -7   16.21    1.76
 -12   2   6  330.99    9.47
  12  -2  -6  333.54    8.89
  12   2  -6  329.69    7.87
 -12   2   6  331.47    8.80
 -12   2   5    8.15    1.93
  12  -2  -5    7.06    1.57
  12   2  -5    7.92    1.39
 -12   2   5    9.37    1.68
 -12   2   4   24.74    2.75
 -12  -2   4   22.95    2.68
  12   2  -4   29.27    2.07
  12  -2  -4   30.12    2.69
 -12   2   4   28.54    2.47
 -12  -2   4   26.04    1.86
  12  -2  -3   36.41    2.86
 -12   2   3   30.50    2.89
 -12  -2   3   27.65    2.79
  12   2  -3   31.88    2.08
  12  -2  -3   30.31    2.58
  12  -2  -3   35.05    1.21
 -12  -2   3   33.21    2.08
 -12   2   3   31.98    2.53
 -12  -2   2   95.58    4.73
 -12   2   2   91.60    4.69
  12  -2  -2   97.61    2.60
  12  -2  -2   89.62    4.16
  12   2  -2  104.97    3.65
 -12  -2   2   92.72    3.48
 -12   2   2   85.99    4.05
 -12   2   1   35.44    3.15
 -12  -2   1   40.99    3.21
  12  -2  -1   40.02    1.83
  12  -2  -1   37.66    2.75
 -12  -2   1   38.37    2.19
 -12   2   1   35.91    2.63
 -12   2   0  416.29   10.81
 -12  -2   0  417.19   10.70
  12  -2   0  405.80    8.11
 -12   2   0  417.41   10.03
 -12  -2   0  411.32    8.72
 -12   2  -1   65.74    4.03
 -12  -2  -1   63.11    3.90
  12  -2   1   63.47    2.75
 -12   2  -1   66.46    3.51
 -12  -2  -1   65.50    2.85
 -12  -2  -2  366.21    9.93
 -12   2  -2  383.86   10.31
  12  -2   2  336.04    7.94
 -12   2  -2  371.54    9.31
 -12  -2  -2  374.84    8.16
 -12  -2  -3  151.73    6.01
 -12   2  -3  165.45    6.37
  12  -2   3  138.12    4.69
 -12   2  -3  151.23    5.55
 -12  -2  -3  152.64    4.72
 -12  -2  -4   39.54    2.39
  12  -2   4   39.89    2.60
 -12   2  -4   38.17    2.78
 -12   2  -4   40.78    3.33
 -12  -2  -4   35.88    3.13
  12  -2   5  239.10    6.88
 -12   2  -5  249.70    7.57
 -12  -2  -5  238.17    6.52
 -12   2  -5  246.65    8.22
 -12  -2  -5  246.00    7.99
  12  -2   6  114.89    4.70
 -12  -2  -6  107.04    4.21
 -12   2  -6  116.04    5.57
 -12  -2  -6  119.06    5.43
 -12  -2  -7    1.72    1.10
  12  -2   7   -0.13    1.43
 -12  -2  -7    3.28    1.77
 -12   2  -7   -2.19    1.74
 -12  -2  -8  540.98   11.89
  12  -2   8  531.13   12.53
 -12   2  -8  568.71   14.00
 -12  -2  -8  547.13   13.44
  12  -2   9   55.67    3.74
 -12  -2  -9   51.11    3.10
 -12  -2  -9   52.82    3.89
 -12   2  -9   52.52    4.05
  12  -2  10  133.97    5.89
 -12  -2 -10  137.31    5.38
 -12   2 -10  140.54    6.46
 -12  -2 -10  131.04    6.04
  12  -2  11    8.34    2.39
 -12   2 -11    9.85    2.49
 -12  -2 -11    9.42    2.34
 -12   2 -12   84.17    5.28
  12  -2  12   79.89    4.80
 -12  -2 -12   80.28    4.99
  12  -2  13   -0.07    1.79
 -12   2 -13   -0.46    1.89
 -12  -2 -13   -1.65    1.84
  12  -2  14    0.08    1.94
 -12   2 -14   -2.32    2.16
 -12  -2 -14   -1.71    1.86
  12  -2  15    7.75    2.30
 -12   2 -15   18.81    3.08
 -12  -2 -15    9.81    2.40
 -12   2 -16  204.27    8.80
  12  -2  16  196.13    8.44
 -12  -2 -16  197.66    8.39
  12  -2  17    1.92    2.03
 -12  -2 -17   -0.98    2.05
 -12  -2 -18  203.55    8.90
  12   4 -23   16.78    3.24
  12   4 -22  153.16    7.36
  12   4 -21   -0.23    1.78
  12   4 -20   -0.53    1.87
  12  -4 -20   -2.24    1.99
  12   4 -19   14.39    2.57
  12  -4 -19   18.04    3.18
  12  -4 -18  181.33    7.98
  12   4 -18  170.71    7.00
  12   4 -17  105.76    5.32
  12  -4 -17  110.40    6.10
  12   4 -16  252.36    8.22
  12  -4 -16  252.94    9.28
  12  -4 -15    2.01    1.82
  12   4 -15   -0.92    1.49
  12  -4 -14  160.73    5.50
  12   4 -14  178.75    6.17
  12   4 -14  178.53    6.34
  12  -4 -14  176.47    7.30
  12  -4 -13  166.01    5.72
  12   4 -13  182.80    6.11
  12   4 -13  189.23    6.37
  12  -4 -13  195.09    7.56
  12  -4 -12   70.86    3.66
  12   4 -12   76.50    3.76
  12   4 -12   82.12    3.92
  12  -4 -12   79.21    4.69
  12  -4 -11  124.66    4.89
  12   4 -11  118.92    4.67
  12   4 -11  131.75    4.82
  12  -4 -11  125.79    5.81
  12  -4 -10    9.18    1.63
  12   4 -10    9.78    1.61
  12  -4 -10    7.33    1.87
  12  -4  -9   42.25    2.91
  12   4  -9   40.53    2.48
  12  -4  -9   36.64    3.32
  12  -4  -8  668.29   14.20
  12  -4  -8  665.21   14.98
  12   4  -8  679.02   12.92
  12  -4  -7   54.25    3.34
 -12   4   7   56.34    3.84
  12  -4  -7   52.94    3.54
  12   4  -7   52.93    2.62
  12  -4  -6  453.83   10.97
 -12   4   6  433.18   11.33
  12   4  -6  454.90    9.09
  12  -4  -6  439.28   11.23
 -12   4   5   10.12    2.06
  12  -4  -5   10.84    1.76
  12   4  -5    6.80    1.15
  12  -4  -5    7.97    1.91
  12  -4  -4   72.41    3.93
 -12   4   4   64.93    4.00
  12   4  -4   65.31    2.59
  12  -4  -4   60.54    3.79
 -12   4   3   51.71    3.64
 -12  -4   3   55.48    3.67
  12  -4  -3   56.40    3.67
 -12  -4   2  450.04   11.26
 -12   4   2  436.93   11.40
  12  -4  -2  452.11   11.14
 -12   4   1   61.44    3.94
 -12  -4   1   60.14    3.80
  12  -4  -1   51.18    3.50
 -12  -4   1   56.10    2.17
 -12   4   0  607.90   14.13
 -12  -4   0  616.05   13.89
  12  -4   0  618.81   10.61
 -12  -4   0  624.90   10.86
 -12  -4  -1   16.61    2.38
 -12   4  -1   11.88    2.14
  12  -4   1   15.68    1.34
 -12  -4  -1   15.57    1.22
 -12  -4  -2  100.20    4.80
 -12   4  -2   96.63    4.97
  12  -4   2   99.31    3.47
 -12  -4  -2   95.06    3.07
 -12  -4  -3  435.82   11.09
 -12   4  -3  425.73   11.41
  12  -4   3  426.32    9.24
 -12  -4  -3  441.69    8.56
 -12  -4  -4   11.26    2.04
 -12   4  -4   10.35    2.22
  12  -4   4   13.45    1.63
 -12  -4  -4   10.19    1.23
 -12  -4  -5  464.23   11.61
 -12   4  -5  453.61   12.14
 -12  -4  -5  466.13    9.35
  12  -4   5  460.93   10.40
 -12  -4  -6   98.50    4.88
 -12   4  -6   94.13    5.10
 -12  -4  -6   93.09    3.47
  12  -4   6   87.15    4.12
 -12  -4  -7    4.15    1.63
 -12   4  -7    3.84    1.93
  12  -4   7    7.53    1.75
 -12  -4  -7    6.95    1.21
 -12   4  -8  362.02   10.80
 -12  -4  -8  352.93    9.96
 -12  -4  -8  345.74    8.18
  12  -4   8  314.67    9.10
 -12  -4  -9   25.47    2.74
 -12   4  -9   28.83    3.15
  12  -4   9   29.22    2.90
 -12  -4  -9   31.22    2.31
 -12   4 -10  266.79    9.32
 -12  -4 -10  262.12    8.63
  12  -4  10  240.43    8.16
 -12  -4 -10  255.44    7.21
 -12   4 -11   53.04    4.32
 -12  -4 -11   52.96    4.01
  12  -4  11   48.13    3.75
 -12  -4 -12   13.59    2.50
 -12   4 -12   28.18    3.53
  12  -4  12   14.52    2.53
 -12   4 -13   24.14    3.23
 -12  -4 -13   20.86    2.81
  12  -4  13   25.91    3.20
 -12   4 -14   17.75    3.07
 -12  -4 -14   12.48    2.57
  12  -4  14   10.76    2.45
 -12   4 -15   10.74    2.50
 -12  -4 -15    8.35    2.32
  12  -4  15    7.50    2.28
 -12  -4 -16  288.74   10.18
  12  -4  16  282.78   10.32
 -12  -4 -17    8.85    2.56
  12  -4  17   11.09    2.56
 -12  -4 -18  153.79    7.41
 -12  -4 -19   10.57    2.71
  12   6 -23   12.80    2.90
  12   6 -22  131.48    6.73
  12   6 -21   27.32    3.16
  12   6 -20    9.69    2.28
  12   6 -19   61.37    4.34
  12  -6 -19   58.03    4.94
  12   6 -18  141.55    6.22
  12  -6 -18  148.78    7.42
  12  -6 -17   89.15    5.73
  12   6 -17   97.76    4.97
  12  -6 -16  204.55    8.51
  12   6 -16  190.83    6.85
  12   6 -15    0.60    1.31
  12  -6 -15    2.14    2.06
  12   6 -14   83.70    4.13
  12  -6 -14   78.61    5.12
  12   6 -13  149.22    5.34
  12  -6 -13  149.59    6.84
  12  -6 -12   43.57    2.76
  12   6 -12   46.75    2.87
  12  -6 -12   45.07    3.91
  12  -6 -11   38.95    2.70
  12   6 -11   38.71    2.46
  12  -6 -11   37.49    3.45
  12  -6 -10   11.62    1.79
  12   6 -10   11.61    1.46
  12  -6 -10   12.14    2.51
  12  -6  -9   14.30    1.82
  12   6  -9   15.06    1.55
  12  -6  -9   12.32    2.39
  12  -6  -8  463.70   11.17
  12  -6  -8  475.56   12.57
  12   6  -8  499.17    9.50
 -12   6   7    4.69    1.80
  12  -6  -7    5.73    1.59
  12  -6  -7    3.43    1.73
  12   6  -7    6.23    1.02
  12  -6  -6  509.69   11.91
  12   6  -6  511.28    9.06
  12  -6  -6  491.67   12.70
 -12   6   6  499.76   12.42
  12  -6  -5  152.12    5.81
 -12   6   5  147.74    6.11
  12  -6  -5  150.79    6.32
  12   6  -5  154.38    3.46
 -12   6   4   85.27    4.55
  12  -6  -4   80.84    4.55
 -12   6   3   90.20    4.78
  12  -6  -3   91.95    4.82
 -12   6   2   95.94    4.94
  12  -6  -2  101.99    5.17
 -12   6   1   71.19    4.25
 -12  -6   1   73.20    4.08
  12  -6  -1   69.36    4.28
 -12   6   0  398.70   10.83
 -12  -6   0  397.51   10.32
 -12   6  -1   -0.17    1.75
 -12  -6  -1    3.73    1.66
 -12  -6  -2   68.33    3.94
 -12   6  -2   65.56    4.27
 -12   6  -3  166.62    6.64
 -12  -6  -3  164.34    6.09
 -12  -6  -3  146.29    2.78
 -12   6  -4   43.61    3.76
 -12  -6  -4   45.67    3.29
 -12  -6  -4   49.63    1.60
 -12   6  -5   28.41    3.11
 -12  -6  -5   37.22    3.02
 -12  -6  -5   36.51    1.58
  12  -6   6   12.91    1.81
 -12  -6  -6   11.43    1.94
 -12   6  -6   16.63    2.51
  12  -6   7    6.10    1.55
 -12  -6  -7    5.89    1.76
 -12   6  -7   10.80    2.52
  12  -6   8  192.13    6.77
 -12  -6  -8  205.01    7.22
 -12   6  -8  204.22    8.02
  12  -6   9   15.55    2.31
 -12  -6  -9   12.15    2.19
 -12   6  -9   13.08    2.62
  12  -6  10  559.37   13.78
 -12   6 -10  589.40   15.36
 -12  -6 -10  572.78   13.79
  12  -6  11   37.92    3.40
 -12   6 -11   45.16    4.23
 -12  -6 -11   38.77    3.47
 -12   6 -12   58.20    4.78
  12  -6  12   44.13    3.78
 -12  -6 -12   57.25    4.00
 -12   6 -13  144.80    7.30
  12  -6  13  107.47    5.96
 -12  -6 -13  127.33    5.94
 -12   6 -14  208.61    9.03
 -12  -6 -14  201.88    7.76
  12  -6  14  188.79    8.04
 -12  -6 -15    4.24    1.92
  12  -6  15    4.51    2.18
 -12  -6 -16  293.44    9.99
  12  -6  16  278.84   10.44
 -12  -6 -17    4.34    1.79
  12  -6  17    7.43    2.47
  12  -8 -17   29.82    3.73
  12   8 -16  191.64    6.70
  12  -8 -16  203.59    8.72
  12   8 -15   46.48    3.09
  12  -8 -15   47.96    4.34
  12   8 -14   33.76    2.58
  12  -8 -14   32.13    3.65
  12  -8 -13  140.33    6.93
  12   8 -13  136.04    4.89
  12   8 -12   -0.74    1.06
  12  -8 -12    2.53    1.84
  12  -8 -11   24.31    3.19
  12   8 -11   20.15    1.78
  12   8 -10   10.11    1.30
  12  -8 -10   15.65    2.78
  12  -8  -9    1.57    1.18
  12   8  -9    3.98    0.92
  12  -8  -9    3.83    1.97
  12  -8  -8  274.01    7.93
  12  -8  -8  292.25    9.71
  12   8  -8  279.15    5.52
  12  -8  -7    7.10    1.51
 -12   8   7    5.11    1.85
  12   8  -7    5.21    0.55
  12  -8  -7    4.41    1.89
  12  -8  -6  715.96   16.69
 -12   8   6  691.53   15.58
  12  -8  -5  160.90    6.92
 -12   8   5  162.48    6.44
  12  -8  -4   10.17    2.29
 -12   8   4   12.83    2.39
  12  -8  -3  208.31    7.90
 -12   8   3  205.52    7.36
  12  -8  -2  206.64    7.88
 -12   8   2  209.86    7.48
 -12   8   1    0.82    1.56
 -12   8   0  512.16   12.97
  12   8   0  528.11   12.27
 -12   8  -1   46.73    3.69
  12   8   1   43.36    3.09
 -12  -8  -2  123.38    5.09
 -12   8  -2  114.87    5.73
  12   8   2  115.56    5.00
 -12  -8  -3  194.94    6.65
 -12   8  -3  189.66    7.36
  12   8   3  188.79    6.49
 -12   8  -4    0.55    1.86
 -12  -8  -4    5.26    1.45
 -12  -8  -5  136.33    5.50
 -12   8  -5  135.53    6.45
 -12   8  -6   57.81    4.32
 -12  -8  -6   54.13    3.51
 -12   8  -7  250.51    9.25
 -12  -8  -7  259.47    7.98
 -12   8  -8  101.64    5.87
 -12  -8  -8  106.87    4.93
 -12   8  -9   80.85    5.39
 -12  -8  -9   81.95    4.41
 -12  -8 -10  140.37    5.85
 -12   8 -10  146.20    7.17
 -12  -8 -11   38.02    3.21
 -12   8 -11   37.84    3.99
 -12  -8 -12   59.53    3.93
 -12   8 -12   70.88    5.35
 -12   8 -13  165.20    8.14
  12 -10 -14   83.24    5.77
  12 -10 -13   56.54    4.74
  12 -10 -12    4.40    2.46
  12 -10 -11   32.94    3.84
  12 -10 -10  128.08    6.84
  12 -10  -9   18.32    2.91
  12 -10  -8  236.77    9.19
 -12  10   7    3.16    1.74
  12 -10  -7    1.73    1.99
  12 -10  -6   91.66    5.66
 -12  10   6  101.12    5.09
  12 -10  -5  195.50    8.18
 -12  10   5  197.35    7.28
  12 -10  -4   17.01    2.63
 -12  10   4   24.71    2.73
  12 -10  -3   51.19    4.24
 -12  10   3   51.03    3.74
  12 -10  -2  101.98    5.83
 -12  10   2  100.93    5.22
 -12  10   1    1.95    1.72
 -12  10   0  286.37    9.20
 -12  10  -1   10.96    2.40
 -12  10  -2  237.84    8.54
 -12  10  -3  118.15    5.95
 -12  10  -4    1.24    1.77
 -12  10  -5   65.54    4.66
 -12  10  -6   22.91    3.14
 -12 -10  -6   20.66    2.14
 -12  10  -7   48.62    4.26
 -12  10  -8   50.41    4.38
 -12  10  -9   12.28    2.72
 -12  10 -10  115.84    6.62
 -12  10 -11   73.68    5.48
  12 -12 -10  117.46    6.92
  12 -12  -9   69.90    5.38
  12 -12  -8   81.70    5.73
  12 -12  -7    3.48    2.17
  12 -12  -6   17.30    2.92
 -12  12   6   15.87    2.35
  12 -12  -5  248.44    9.77
 -12  12   5  227.29    8.04
  12 -12  -4   44.34    4.37
 -12  12   4   37.42    3.33
  12 -12  -3  262.91   10.11
 -12  12   3  244.07    8.39
 -12  12   2    0.17    1.77
 -12  12   1   85.65    4.92
 -12  12   0   46.78    3.82
 -12  12  -1    6.21    2.16
 -12  12  -2  203.52    7.93
 -12  12  -3   82.56    5.25
 -12  12  -4    5.09    1.86
 -12  12  -4   12.85    2.72
 -12  12  -5  148.80    7.05
 -12  12  -5  153.22    7.46
 -12  12  -6   41.31    3.98
 -12  12  -6   45.91    4.35
 -12  12  -7   84.36    5.56
 -12  12  -8   20.00    3.03
 -12  12  -9    8.64    2.54
 -12  14   0    1.88    1.83
 -12  14  -1   14.95    2.65
 -12  14  -2   32.55    3.45
 -12  14  -3  120.74    6.28
 -12  14  -3  123.10    6.95
 -12  14  -4    3.62    2.04
 -12  14  -5  329.28   11.05
 -12  14  -6   31.97    3.76
 -12  14  -7   34.14    3.81
  13   1 -22  184.57    8.49
  13  -1 -21    5.09    2.26
  13   1 -21    6.57    2.27
  13  -1 -20   55.33    4.54
  13   1 -20   51.15    4.36
  13   1 -19   22.67    3.16
  13  -1 -19   21.80    3.12
  13   1 -18   19.70    2.90
  13  -1 -18   17.18    2.84
  13   1 -17    1.66    1.65
  13  -1 -17   -1.01    1.98
  13  -1 -16   91.36    5.26
  13   1 -16   90.45    5.04
  13  -1 -15   16.76    2.53
  13   1 -15   18.17    2.51
  13   1 -14  241.91    8.01
  13  -1 -14  243.46    8.33
  13  -1 -13    7.22    1.95
  13   1 -13    7.63    1.88
  13   1 -12  424.72    8.76
  13  -1 -12  408.75   10.99
  13   1 -12  413.43   10.62
  13   1 -11    1.75    0.81
  13  -1 -11    0.20    1.54
  13   1 -11    0.63    1.33
  13   1 -10   24.75    1.65
  13  -1 -10   20.55    2.38
  13   1 -10   24.86    2.45
  13   1  -9    0.96    0.69
  13  -1  -9    0.43    1.45
  13   1  -9    3.37    1.43
  13   1  -8  323.26    6.84
  13  -1  -8  325.24    8.96
  13   1  -8  346.52    8.69
  13  -1  -7  170.48    6.04
  13   1  -7  161.15    5.54
 -13   1   7  163.06    5.86
 -13   1   6  608.20   14.29
  13  -1  -6  589.05    9.01
  13  -1  -6  608.82   13.17
  13   1  -6  621.06   12.62
 -13   1   6  622.48   13.28
 -13   1   5   32.77    3.16
 -13  -1   5   36.03    3.30
  13   1  -5   31.86    2.42
  13  -1  -5   33.58    2.70
 -13  -1   5   35.32    2.46
 -13   1   5   32.57    2.61
 -13   1   4  338.14    9.85
 -13  -1   4  328.35    9.71
  13   1  -4  341.06    8.30
  13  -1  -4  328.21    8.73
 -13  -1   4  334.22    8.25
 -13   1   4  333.55    8.73
 -13  -1   3   18.77    2.60
 -13   1   3   14.45    2.27
  13   1  -3   16.06    1.81
  13  -1  -3   15.54    2.02
 -13  -1   3   18.02    1.78
 -13   1   3   16.15    1.97
 -13   1   2    7.40    2.04
 -13  -1   2    5.39    1.86
  13   1  -2    3.41    1.22
  13  -1  -2    6.74    1.60
 -13  -1   2    5.75    1.26
 -13   1   2    6.52    1.42
 -13   1   1   73.17    4.39
 -13  -1   1   74.77    4.40
 -13  -1   1   69.89    3.33
 -13   1   1   79.31    3.79
 -13   1   0  181.83    6.89
 -13  -1   0  172.20    6.71
 -13   1   0  173.82    5.83
 -13  -1   0  175.59    5.44
 -13   1  -1   50.95    3.80
 -13  -1  -1   51.54    3.74
 -13   1  -1   56.38    3.23
 -13  -1  -1   54.21    2.89
 -13   1  -2  287.07    8.97
 -13  -1  -2  283.73    8.88
 -13   1  -2  274.90    7.79
 -13  -1  -2  275.18    7.26
 -13   1  -3   21.65    2.79
 -13  -1  -3   25.10    2.85
 -13   1  -3   25.26    2.26
 -13  -1  -3   24.58    2.07
 -13  -1  -4  376.78   10.64
 -13   1  -4  378.38   10.80
 -13   1  -4  379.45    9.68
 -13  -1  -4  365.55    9.01
 -13   1  -5   12.51    2.35
 -13  -1  -5   11.65    2.37
 -13   1  -5   15.91    2.05
 -13  -1  -5   14.86    1.80
 -13   1  -6  262.48    8.84
 -13  -1  -6  269.76    8.81
 -13  -1  -6  256.30    7.40
 -13   1  -7    4.12    2.23
 -13  -1  -7   -3.50    1.95
 -13  -1  -7    0.18    1.13
 -13   1  -8  660.68   15.94
 -13  -1  -8  688.76   15.94
 -13  -1  -8  649.68   14.20
 -13  -1  -9   23.09    2.99
 -13   1  -9   23.92    3.04
  13  -1   9   22.58    2.74
 -13   1 -10  784.50   18.23
 -13  -1 -10  776.57   17.84
  13  -1  10  761.00   17.12
 -13   1 -11   12.94    2.57
 -13  -1 -11   17.68    2.89
  13  -1  11   15.76    2.57
 -13   1 -12  213.12    8.54
 -13  -1 -12  217.16    8.48
  13  -1  12  203.73    7.96
 -13   1 -13    3.42    2.33
 -13  -1 -13    6.36    2.38
  13  -1  13    2.22    1.99
 -13   1 -14    2.48    2.23
 -13  -1 -14   -1.10    1.97
  13  -1  14   -0.17    1.92
 -13   1 -15    2.34    2.04
 -13  -1 -15    2.74    2.28
  13  -1  15    1.18    2.04
  13   1  15    0.08    1.97
 -13   1 -16   99.56    6.26
 -13  -1 -16   84.92    5.71
  13   1  16  102.30    6.25
  13  -1  16   95.47    5.88
  13  -1  17    4.73    2.33
  13   3 -22  168.60    7.91
  13   3 -21   12.00    2.56
  13  -3 -20  112.06    6.51
  13   3 -20   97.54    5.77
  13   3 -19   15.00    2.62
  13  -3 -19   15.05    2.81
  13   3 -18   29.21    3.16
  13  -3 -18   29.58    3.59
  13   3 -17    1.80    1.63
  13  -3 -17   -2.75    2.37
  13   3 -16  135.94    6.00
  13  -3 -16  133.98    6.53
  13   3 -15    0.48    1.44
  13  -3 -15   -2.51    1.98
  13   3 -14  251.33    7.93
  13  -3 -14  244.34    8.72
  13   3 -13    3.46    1.21
  13  -3 -13    3.31    1.73
  13   3 -13    1.34    1.46
  13   3 -12  191.19    5.84
  13  -3 -12  191.09    7.30
  13   3 -12  180.89    6.25
  13   3 -11   49.88    2.78
  13  -3 -11   48.14    3.68
  13   3 -11   51.21    3.19
  13   3 -10   22.63    1.96
  13   3 -10   21.12    2.10
  13  -3 -10   25.54    2.78
  13  -3  -9   79.46    4.48
  13   3  -9   91.73    3.94
  13  -3  -8  350.22    9.43
  13  -3  -8  328.92    9.57
  13   3  -8  338.01    8.24
 -13   3   7    0.05    1.60
  13  -3  -7   -1.72    1.77
  13   3  -7    2.36    1.15
 -13   3   6  479.21   12.35
  13  -3  -6  474.68   11.82
  13   3  -6  493.13   10.21
 -13   3   5  177.68    6.87
  13   3  -5  181.82    5.20
  13  -3  -5  169.36    6.39
 -13   3   4  493.51   12.53
 -13  -3   4  498.91   12.56
  13   3  -4  520.37   10.25
  13  -3  -4  487.27   11.97
 -13   3   3    0.64    1.84
 -13  -3   3    0.35    1.69
  13   3  -3   -0.77    0.98
  13  -3  -3   -2.14    1.57
 -13  -3   3    0.43    0.83
 -13   3   2  143.77    6.17
 -13  -3   2  141.64    6.01
  13  -3  -2  146.14    5.74
 -13  -3   2  148.16    4.39
 -13  -3   1   33.67    3.26
 -13   3   1   31.48    3.08
  13  -3  -1   30.67    2.80
  13  -3  -1   33.98    1.53
 -13  -3   1   32.59    1.98
 -13   3   0  218.42    7.78
 -13  -3   0  212.73    7.52
  13  -3   0  223.11    5.14
 -13  -3   0  221.87    5.67
 -13  -3  -1   16.69    2.53
 -13   3  -1   17.94    2.55
  13  -3   1   18.21    1.52
 -13  -3  -1   15.22    1.46
 -13  -3  -2  628.66   14.67
 -13   3  -2  646.91   15.14
  13  -3   2  635.34   12.14
 -13  -3  -2  640.42   12.07
 -13  -3  -3   88.74    4.79
 -13   3  -3   84.82    4.90
  13  -3   3   81.48    3.49
 -13  -3  -3   83.88    3.32
 -13  -3  -4  637.76   14.74
 -13   3  -4  652.87   15.24
  13  -3   4  612.24   12.71
 -13  -3  -4  631.57   12.24
 -13   3  -5   -1.12    1.81
 -13  -3  -5   -2.12    1.81
  13  -3   5    1.25    1.25
 -13  -3  -5    1.98    1.03
 -13   3  -6    2.60    1.86
 -13  -3  -6    4.71    1.90
  13  -3   6    4.46    1.49
 -13  -3  -6   -0.69    0.97
 -13   3  -7   25.24    3.08
 -13  -3  -7   19.10    2.57
  13  -3   7   18.80    2.19
 -13  -3  -7   19.88    1.89
 -13   3  -8  207.95    8.12
 -13  -3  -8  211.48    7.79
 -13  -3  -8  205.71    6.41
  13  -3   8  197.77    6.89
 -13  -3  -9   21.92    2.82
 -13   3  -9   19.78    3.04
  13  -3   9   25.56    2.87
 -13  -3  -9   24.57    2.22
 -13   3 -10  339.83   10.93
 -13  -3 -10  334.48   10.30
  13  -3  10  298.80    9.38
 -13  -3 -11   14.40    2.60
 -13   3 -11   15.46    2.94
  13  -3  11   14.39    2.56
 -13   3 -12   80.99    5.33
 -13  -3 -12   71.90    4.88
  13  -3  12   77.98    4.84
 -13   3 -13   28.30    3.65
 -13  -3 -13   26.79    3.30
  13  -3  13   25.25    3.27
 -13   3 -14    0.00    1.91
 -13  -3 -14    0.09    1.84
  13  -3  14   -0.60    1.91
 -13   3 -15   -2.72    2.38
 -13  -3 -15   -2.85    2.19
  13  -3  15   -1.32    1.85
 -13  -3 -16  160.72    7.68
  13  -3  16  166.79    7.97
 -13  -3 -17    4.09    2.39
  13  -3  17    2.07    2.10
  13   5 -22   64.37    4.88
  13   5 -21   41.71    3.86
  13   5 -20  114.35    5.97
  13  -5 -19    3.07    2.04
  13   5 -19   -1.05    1.61
  13  -5 -18   12.43    2.90
  13   5 -18    8.56    2.05
  13  -5 -17    5.42    2.38
  13   5 -17    6.40    1.81
  13   5 -16  268.96    8.50
  13  -5 -16  275.99   10.03
  13  -5 -15    3.24    2.19
  13   5 -15    1.62    1.59
  13   5 -14  341.51    9.24
  13  -5 -14  336.77   10.87
  13  -5 -13   12.37    2.39
  13   5 -13   10.21    1.74
  13  -5 -12  111.23    4.80
  13   5 -12  139.89    5.06
  13  -5 -12  135.80    6.38
  13  -5 -11   70.36    3.83
  13   5 -11   79.15    3.98
  13  -5 -11   78.77    4.84
  13   5 -11   82.81    3.71
  13  -5 -10   67.50    3.79
  13  -5 -10   69.22    4.50
  13   5 -10   74.69    3.38
  13  -5  -9   30.72    2.66
  13   5  -9   32.89    2.22
  13  -5  -9   32.92    3.21
  13  -5  -8  213.39    7.18
  13  -5  -8  235.33    8.15
  13   5  -8  238.93    6.00
 -13   5   7   69.82    4.37
  13   5  -7   77.63    3.05
  13  -5  -7   80.27    4.61
 -13   5   6  260.34    8.65
  13  -5  -6  271.01    8.75
  13   5  -6  278.93    6.24
 -13   5   5   85.25    4.82
  13  -5  -5   95.50    4.99
  13   5  -5  100.27    3.12
 -13   5   4  354.55   10.23
  13  -5  -4  349.01   10.12
 -13   5   3  132.10    5.96
  13  -5  -3  133.36    5.82
 -13  -5   2   11.64    2.34
 -13   5   2    9.95    2.14
  13  -5  -2    8.71    1.94
 -13   5   1    2.13    1.80
 -13  -5   1    3.00    1.64
  13  -5  -1    1.77    1.57
 -13   5   0  472.16   12.43
 -13  -5   0  488.88   12.16
 -13  -5  -1    0.94    1.56
 -13   5  -1    2.02    1.81
 -13  -5  -1    0.96    0.54
 -13   5  -2  904.24   19.33
 -13  -5  -2  884.92   18.49
 -13  -5  -2  898.13   14.50
 -13  -5  -3   10.25    2.14
 -13   5  -3   10.89    2.34
  13  -5   3   11.08    1.42
 -13  -5  -3    9.27    0.93
 -13  -5  -4  186.48    6.94
 -13   5  -4  187.11    7.41
  13  -5   4  178.94    5.55
 -13  -5  -4  179.91    4.48
 -13   5  -5   29.64    3.25
 -13  -5  -5   28.71    2.97
  13  -5   5   26.39    2.30
 -13   5  -6    1.19    1.84
 -13  -5  -6    3.48    1.75
  13  -5   6    3.14    1.46
 -13  -5  -7    3.59    1.91
 -13   5  -7    1.54    1.99
  13  -5   7    1.84    1.38
 -13  -5  -8   50.76    3.75
 -13   5  -8   57.97    4.41
  13  -5   8   48.76    3.45
 -13  -5  -9    9.03    2.19
 -13   5  -9    6.01    2.48
  13  -5   9    8.07    1.82
 -13   5 -10  168.89    7.66
 -13  -5 -10  157.30    6.74
  13  -5  10  142.90    6.21
 -13   5 -11   50.68    4.40
 -13  -5 -11   45.31    3.72
  13  -5  11   34.94    3.29
 -13   5 -12  164.85    7.71
 -13  -5 -12  133.33    6.39
  13  -5  12  126.73    6.23
 -13   5 -13   48.34    4.49
 -13  -5 -13   44.78    3.99
  13  -5  13   34.25    3.61
 -13  -5 -14   25.68    3.22
  13  -5  14   21.25    3.00
 -13  -5 -15    1.11    1.88
  13  -5  15   -2.71    2.24
 -13  -5 -16   95.99    5.80
  13  -5  16   96.06    5.93
 -13  -5 -17    7.95    2.78
  13  -7 -17  168.02    8.14
  13   7 -17  155.91    6.26
  13   7 -16  189.88    6.74
  13  -7 -16  201.73    8.73
  13   7 -15   14.25    2.01
  13  -7 -15   19.76    3.08
  13   7 -14  282.08    7.95
  13  -7 -14  283.57   10.32
  13   7 -13   80.43    3.80
  13  -7 -13   87.11    5.54
  13   7 -12    5.73    1.33
  13  -7 -12    6.78    2.40
  13  -7 -11   90.02    5.50
  13   7 -11   87.47    3.57
  13  -7 -10   82.74    5.19
  13   7 -10   89.87    3.40
  13  -7  -9   33.48    2.83
  13   7  -9   42.28    2.17
  13  -7  -9   41.82    3.79
  13  -7  -8  150.24    6.85
  13   7  -8  150.64    3.94
 -13   7   7   24.54    2.93
  13   7  -7   23.84    1.31
  13  -7  -7   24.55    2.96
 -13   7   6  106.11    5.38
  13  -7  -6  109.49    5.70
 -13   7   5    7.70    2.04
  13  -7  -5    8.70    2.23
 -13   7   4  305.99    9.50
  13  -7  -4  306.77    9.81
 -13   7   3   76.85    4.61
  13  -7  -3   74.68    4.69
 -13   7   2   14.37    2.62
  13  -7  -2   10.18    2.27
 -13   7   1   68.13    4.38
 -13   7   0  107.61    5.52
 -13  -7  -1   36.70    3.08
 -13   7  -1   35.54    3.34
 -13  -7  -2  235.92    7.79
 -13   7  -2  223.74    8.27
 -13   7  -3   21.62    2.78
 -13  -7  -3   22.61    2.62
 -13  -7  -4   55.43    3.78
 -13   7  -4   57.05    4.25
 -13   7  -5  151.46    6.91
 -13  -7  -5  144.05    6.02
 -13   7  -6   63.39    4.65
 -13  -7  -6   53.84    3.76
 -13   7  -7   54.67    4.37
 -13  -7  -7   47.28    3.58
 -13  -7  -8   44.77    3.52
 -13   7  -8   53.81    4.57
 -13  -7  -9   35.50    3.27
 -13   7  -9   37.97    3.83
 -13  -7 -10   85.22    4.88
 -13   7 -10   95.33    5.97
 -13   7 -11   11.93    2.78
 -13  -7 -11    8.95    2.21
 -13  -7 -12  124.28    6.00
 -13   7 -12  134.22    7.19
  13  -7  12  119.62    6.04
 -13  -7 -13  109.01    5.65
  13  -7  13   86.85    5.35
 -13  -7 -14    5.85    2.14
  13  -7  14    3.98    1.94
  13  -7  15   53.13    4.50
  13  -7  16   68.92    5.24
  13  -9 -14  160.01    7.86
  13  -9 -13  114.59    6.60
  13  -9 -12   18.46    3.07
  13  -9 -11   97.52    5.98
  13  -9 -10   22.57    3.24
  13  -9  -9   60.69    4.71
  13  -9  -8   16.38    2.89
 -13   9   7   55.52    4.05
  13  -9  -7   60.29    4.70
 -13   9   6   80.83    4.80
  13  -9  -6   78.76    5.19
 -13   9   5   30.94    3.19
  13  -9  -5   35.83    3.80
 -13   9   4   79.39    4.74
  13  -9  -4   77.56    5.15
 -13   9   3  190.76    7.49
  13  -9  -3  210.41    8.43
 -13   9   2    1.06    1.99
  13  -9  -2   -2.15    2.03
 -13   9   1  203.25    7.78
 -13   9   0   38.43    3.61
 -13   9  -1   33.40    3.46
 -13   9  -2  302.10   10.02
 -13   9  -3  219.34    8.43
 -13  -9  -4   82.54    4.36
 -13   9  -4   77.71    5.07
 -13  -9  -5  158.30    6.13
 -13   9  -5  153.48    7.13
 -13   9  -6   43.99    4.01
 -13  -9  -6   46.50    3.29
 -13   9  -7   29.22    3.63
 -13  -9  -7   33.92    2.96
 -13  -9  -8   64.79    3.90
 -13   9  -8   67.04    5.12
 -13   9  -9    7.94    2.74
 -13   9 -10  105.70    6.38
  13 -11 -10   11.04    2.80
  13 -11  -9  134.18    7.29
  13 -11  -8   -2.27    2.14
  13 -11  -7  132.15    7.16
 -13  11   6   54.91    4.03
  13 -11  -6   51.78    4.65
 -13  11   5    5.69    1.93
  13 -11  -5    5.28    2.26
 -13  11   4   10.43    2.31
  13 -11  -4    8.30    2.49
 -13  11   3  141.93    6.46
  13 -11  -3  157.59    7.58
 -13  11   2   33.46    3.41
 -13  11   1  353.11   10.96
 -13  11   0   64.86    4.52
 -13  11  -1   21.77    3.00
 -13  11  -2  109.67    5.98
 -13  11  -3   59.94    4.53
 -13  11  -4   52.47    4.26
 -13  11  -5  103.47    5.96
 -13  11  -6   17.09    3.00
 -13  11  -7   82.31    5.53
 -13  11  -8  133.95    7.16
 -13  13   5  167.58    7.08
 -13  13   4   -0.31    1.77
 -13  13   3  151.16    6.79
 -13  13   2    3.72    2.16
 -13  13   1  139.24    6.67
 -13  13   0    3.88    1.91
 -13  13  -1   40.02    3.82
 -13  13  -2   41.78    3.92
 -13  13  -3    6.60    2.52
 -13  13  -4   65.15    4.76
 -13  13  -5   85.81    5.55
 -13  13  -6   19.67    3.13
  14   0 -21    1.37    2.08
  14   0 -20  377.65   12.30
  14   0 -19    0.47    1.79
  14   0 -18   70.69    5.02
  14   0 -17   -1.44    1.84
  14   0 -16  101.60    5.55
  14   0 -15   -1.10    1.69
  14   0 -14  291.20    9.22
  14   0 -13   -0.84    1.64
  14   0 -12  218.38    7.55
  14   0 -11    1.89    1.63
  14   0 -10  246.89    7.77
  14   0  -9   -0.43    0.60
  14   0  -9    0.16    1.32
  14   0  -8  100.56    4.67
  14   0  -8  105.68    2.78
  14   0  -7    0.17    0.55
 -14   0   7    1.66    1.19
  14   0  -7   -2.19    1.51
 -14   0   6  571.88   14.16
  14   0  -6  575.84   12.70
 -14   0   6  558.97   12.53
 -14   0   5   -1.79    1.89
  14   0  -5    1.57    1.29
 -14   0   5   -2.04    1.34
 -14   0   4 1103.42   21.99
  14   0  -4 1071.88   19.88
 -14   0   4 1045.53   19.80
 -14   0   3   -1.50    1.94
  14   0  -3   -0.51    1.28
 -14   0   3    4.44    1.36
 -14   0   2   55.14    4.03
 -14   0   2   50.66    3.09
 -14   0   1   -0.97    1.81
 -14   0   1    1.32    1.18
 -14   0   0  250.54    8.57
 -14   0   0  241.77    7.08
 -14   0  -1   -2.22    1.94
 -14   0  -1   -1.63    1.15
 -14   0  -2  153.10    6.58
 -14   0  -2  139.82    5.25
 -14   0  -3   -0.47    1.90
 -14   0  -3   -2.59    1.26
 -14   0  -4  118.19    5.86
 -14   0  -4  110.62    4.71
 -14   0  -5   -0.22    1.85
 -14   0  -5   -0.30    1.17
 -14   0  -6  212.65    8.11
 -14   0  -7    1.86    1.96
 -14   0  -8  146.65    6.84
 -14   0  -9    3.50    2.02
 -14   0 -10  505.97   13.97
 -14   0 -11   -1.52    1.93
 -14   0 -12  474.85   13.77
  14   0  12  453.31   13.02
 -14   0 -13    0.47    2.06
  14   0  13    1.53    2.01
 -14   0 -14  133.38    7.09
  14   0  14  111.66    6.34
 -14   0 -15    4.68    2.59
  14   0  15   -1.94    2.39
  14   0  16  100.32    6.19
  14   2 -21    0.70    2.77
  14   2 -20  306.38   10.74
  14  -2 -20  324.60   11.51
  14   2 -19   -1.64    1.91
  14  -2 -19   -0.34    1.97
  14   2 -18   76.35    4.95
  14  -2 -18   75.79    5.31
  14  -2 -17    5.23    1.94
  14   2 -17    5.35    1.89
  14   2 -16   54.69    4.00
  14  -2 -16   55.22    4.35
  14  -2 -15   -1.48    1.99
  14   2 -15    1.72    1.60
  14  -2 -14   96.29    5.36
  14   2 -14   87.05    4.68
  14  -2 -13    9.30    2.17
  14   2 -13    8.88    1.90
  14  -2 -12  350.71   10.35
  14   2 -12  346.94    9.54
  14   2 -11   12.33    1.96
  14  -2 -11    9.41    2.00
  14   2 -10  426.83    9.06
  14  -2 -10  426.84   11.41
  14   2 -10  444.73   10.68
  14   2  -9   18.25    1.57
  14  -2  -9   16.35    2.45
  14   2  -9   21.40    2.30
  14  -2  -8   42.86    3.34
  14   2  -8   46.72    2.98
 -14   2   7   30.83    3.15
  14  -2  -7   37.29    3.05
  14   2  -7   30.81    2.47
 -14   2   6  475.67   12.70
  14  -2  -6  470.25   11.77
  14   2  -6  494.77   10.77
 -14   2   5    2.39    1.79
  14   2  -5    1.31    1.21
  14  -2  -5    0.55    1.43
 -14  -2   4  646.56   15.38
 -14   2   4  649.87   15.45
  14  -2  -4  639.12   14.29
  14   2  -4  672.00   13.08
 -14  -2   4  638.53   12.91
 -14   2   3   97.11    5.25
 -14  -2   3  101.49    5.35
  14  -2  -3  102.19    2.34
  14  -2  -3  102.91    4.80
 -14  -2   3  102.96    3.99
 -14  -2   2  118.38    5.79
 -14   2   2  112.95    5.69
  14  -2  -2  112.81    5.06
  14  -2  -2  121.42    3.10
 -14  -2   2  112.75    4.20
 -14  -2   1  182.22    7.12
 -14   2   1  182.18    7.20
  14  -2  -1  181.19    4.43
 -14  -2   1  170.84    5.38
 -14   2   0  173.43    7.14
 -14  -2   0  185.61    7.20
  14  -2   0  177.35    4.71
 -14  -2   0  172.16    5.36
 -14   2  -1    5.47    2.09
 -14  -2  -1    9.77    2.34
  14  -2   1    7.05    1.23
 -14  -2  -1    5.01    1.16
 -14   2  -2  465.81   12.51
 -14  -2  -2  462.04   12.33
  14  -2   2  441.67    9.65
 -14  -2  -2  462.96   10.09
 -14  -2  -3   23.09    2.90
 -14   2  -3   25.83    3.09
  14  -2   3   24.47    2.10
 -14  -2  -3   19.57    1.85
 -14  -2  -4  273.61    9.08
 -14   2  -4  284.28    9.45
  14  -2   4  264.15    7.36
 -14  -2  -4  274.37    7.33
 -14   2  -5    3.21    1.99
 -14  -2  -5   -1.95    1.96
  14  -2   5    1.03    1.33
 -14  -2  -5    0.31    0.98
 -14   2  -6  256.71    9.09
 -14  -2  -6  258.19    8.93
  14  -2   6  254.95    7.62
 -14  -2  -6  251.72    7.24
 -14   2  -7   29.65    3.34
 -14  -2  -7   33.54    3.44
  14  -2   7   26.38    2.56
 -14  -2  -7   28.32    2.40
 -14   2  -8   18.85    3.09
 -14  -2  -8   18.62    2.84
  14  -2   8   17.93    2.41
 -14   2  -9   70.35    5.02
 -14  -2  -9   64.15    4.51
  14  -2   9   60.03    4.00
 -14   2 -10  215.81    8.63
 -14  -2 -10  204.10    8.12
  14  -2  10  180.09    7.15
 -14  -2 -11   27.33    3.31
 -14   2 -11   28.45    3.46
  14  -2  11   31.30    3.27
 -14   2 -12  414.26   12.84
 -14  -2 -12  392.78   12.27
  14  -2  12  388.02   11.57
 -14  -2 -13    2.18    2.03
 -14   2 -13    8.74    2.82
  14  -2  13    2.25    1.90
 -14   2 -14  124.05    6.95
 -14  -2 -14  107.93    6.25
  14  -2  14  114.59    6.23
 -14  -2 -15   -2.96    2.20
  14  -2  15    3.45    2.09
  14  -2  16   19.72    3.12
  14   4 -22  151.42    7.55
  14   4 -21   -0.29    1.92
  14   4 -20  157.79    7.34
  14   4 -19   35.54    3.50
  14  -4 -19   42.45    4.34
  14   4 -18   53.03    4.05
  14  -4 -18   57.65    4.82
  14   4 -17   50.24    3.76
  14  -4 -17   58.52    4.68
  14  -4 -16   -0.11    1.91
  14   4 -16    2.43    1.62
  14  -4 -15    9.02    2.54
  14   4 -15    7.03    1.94
  14  -4 -14  130.65    6.48
  14   4 -14  130.23    5.52
  14  -4 -13   55.41    4.26
  14   4 -13   53.11    3.39
  14  -4 -12  417.26   12.01
  14   4 -12  418.87   10.29
  14   4 -11    1.71    1.14
  14   4 -11   -1.26    1.33
  14  -4 -11    0.81    1.88
  14  -4 -10   33.66    3.29
  14   4 -10   30.59    2.40
  14  -4  -9    4.80    1.90
  14   4  -9    3.55    1.21
  14  -4  -8   58.05    4.09
  14   4  -8   69.68    3.23
 -14   4   7   74.78    4.68
  14   4  -7   72.52    3.22
  14  -4  -7   68.43    4.26
 -14   4   6  306.53    9.81
  14   4  -6  327.40    7.52
  14  -4  -6  313.81    9.61
 -14   4   5    3.17    1.86
  14   4  -5    4.36    1.09
  14  -4  -5    2.39    1.61
 -14   4   4  148.06    6.50
  14  -4  -4  144.49    6.14
 -14  -4   3  158.66    6.62
 -14   4   3  155.10    6.70
  14  -4  -3  156.31    6.37
 -14  -4   2   92.32    5.04
 -14   4   2   88.53    5.02
  14  -4  -2   91.34    4.86
 -14   4   1  116.39    5.85
 -14  -4   1  117.88    5.69
 -14  -4   1  125.48    3.75
 -14  -4   0  134.46    6.11
 -14   4   0  133.53    6.34
 -14  -4   0  140.48    4.03
 -14  -4  -1  100.34    5.21
 -14   4  -1  100.37    5.41
  14  -4   1   95.94    3.20
 -14  -4  -1   99.80    3.36
 -14   4  -2  227.83    8.44
 -14  -4  -2  231.68    8.15
  14  -4   2  240.00    5.95
 -14  -4  -2  229.73    5.70
 -14   4  -3    4.26    2.14
 -14  -4  -3   -1.33    1.89
  14  -4   3    3.80    1.14
 -14  -4  -3    2.53    0.89
 -14  -4  -4  411.49   11.53
 -14   4  -4  409.53   11.96
  14  -4   4  410.68    9.49
 -14   4  -5   40.33    3.76
 -14  -4  -5   47.05    3.87
  14  -4   5   44.25    2.85
 -14  -4  -6  193.50    7.54
 -14   4  -6  191.12    7.92
  14  -4   6  188.85    6.35
 -14   4  -7   12.37    2.74
 -14  -4  -7   14.66    2.55
  14  -4   7   14.17    2.10
 -14   4  -8   11.12    2.49
 -14  -4  -8   12.39    2.51
  14  -4   8   10.09    1.86
 -14   4  -9   77.28    5.27
 -14  -4  -9   80.50    5.02
  14  -4   9   67.64    4.18
 -14   4 -10  249.19    9.57
 -14  -4 -10  247.89    8.95
  14  -4  10  215.48    7.89
 -14   4 -11  125.35    6.82
 -14  -4 -11  114.92    6.06
  14  -4  11  106.03    5.62
 -14   4 -12  209.73    8.91
 -14  -4 -12  184.16    7.91
  14  -4  12  162.51    7.25
 -14  -4 -13    0.58    1.86
  14  -4  13   -0.18    1.88
 -14  -4 -14   44.35    4.24
  14  -4  14   54.15    4.45
 -14  -4 -15   11.81    2.74
  14  -4  15   10.23    2.67
 -14  -4 -16   -2.32    1.94
  14  -4  16   -2.68    2.31
  14  -6 -17   31.74    3.87
  14   6 -17   35.60    3.21
  14  -6 -16    1.40    2.04
  14   6 -16    4.65    1.76
  14   6 -15   27.49    2.65
  14  -6 -15   25.59    3.34
  14   6 -14  146.17    5.55
  14  -6 -14  147.33    7.24
  14   6 -13   10.41    1.68
  14  -6 -13    9.52    2.34
  14  -6 -12  440.24   12.95
  14   6 -12  445.54   10.21
  14   6 -11   31.55    2.36
  14  -6 -11   31.18    3.48
  14  -6 -10   21.44    3.00
  14   6 -10   18.63    1.80
  14  -6  -9   71.56    4.77
  14   6  -9   71.89    3.08
  14  -6  -8   58.77    4.28
  14   6  -8   57.04    2.58
 -14   6   7   61.99    4.40
  14   6  -7   64.94    2.54
  14  -6  -7   57.90    4.41
 -14   6   6  210.23    7.94
  14  -6  -6  209.89    8.01
  14   6  -6  216.65    4.84
 -14   6   5   32.63    3.43
  14  -6  -5   34.66    3.47
 -14   6   4   82.75    4.97
  14  -6  -4   92.56    5.16
 -14   6   3   23.24    2.91
  14  -6  -3   21.99    2.79
 -14   6   2   87.68    5.10
  14  -6  -2   88.12    5.02
 -14  -6   1    3.90    1.90
 -14   6   1   -0.49    1.80
 -14   6   0   26.49    3.18
 -14  -6   0   26.28    2.96
 -14   6  -1  120.47    6.02
 -14  -6  -1  114.45    5.63
 -14   6  -2  113.91    5.96
 -14  -6  -2  102.03    5.26
 -14  -6  -3    3.87    1.88
 -14   6  -3    3.30    1.98
 -14   6  -4  617.39   15.74
 -14  -6  -4  626.54   14.92
 -14  -6  -5   18.94    2.64
 -14   6  -5   23.58    3.18
 -14  -6  -6  193.46    7.50
 -14   6  -6  206.14    8.43
 -14   6  -7    6.88    2.37
 -14  -6  -7    5.04    2.08
  14  -6   7    3.60    1.50
 -14   6  -8   24.05    3.27
 -14  -6  -8   22.92    2.92
  14  -6   8   20.40    2.37
 -14  -6  -9   18.16    2.76
 -14   6  -9   26.37    3.42
  14  -6   9   18.87    2.41
 -14  -6 -10  208.96    8.12
 -14   6 -10  223.38    9.26
  14  -6  10  207.46    7.71
 -14  -6 -11    6.86    2.07
 -14   6 -11    2.90    2.07
  14  -6  11    0.42    1.70
 -14  -6 -12   82.45    5.19
  14  -6  12   79.19    5.00
 -14  -6 -13    7.25    2.20
  14  -6  13    7.04    2.17
 -14  -6 -14   57.11    4.58
  14  -6  14   59.01    4.61
 -14  -6 -15   51.39    4.49
  14  -6  15   55.17    4.62
  14  -8 -14   95.65    6.14
  14  -8 -13    6.25    2.18
  14  -8 -12  370.75   12.16
  14  -8 -11   40.50    4.13
  14  -8 -10   36.22    3.85
  14  -8  -9   45.62    4.17
  14  -8  -8   50.61    4.27
 -14   8   7   18.78    2.77
  14  -8  -7   14.61    2.73
 -14   8   6  296.99    9.77
  14  -8  -6  309.81   10.47
 -14   8   5   -1.66    2.00
  14  -8  -5    0.82    1.86
 -14   8   4  135.01    6.39
  14  -8  -4  143.91    6.88
 -14   8   3    4.10    2.02
  14  -8  -3    1.63    1.95
 -14   8   2   30.07    3.35
 -14   8   1   29.49    3.25
 -14   8   0   14.05    2.62
 -14   8  -1  125.21    6.30
 -14   8  -2  163.49    7.42
 -14  -8  -2  182.15    6.95
 -14   8  -3   20.30    3.01
 -14  -8  -3   23.02    2.73
 -14  -8  -4  254.81    8.52
 -14   8  -4  258.46    9.60
 -14  -8  -5  110.75    5.47
 -14   8  -5  111.03    6.21
 -14  -8  -6   13.81    2.29
 -14   8  -6   12.72    2.71
 -14   8  -7  226.16    9.17
 -14  -8  -7  213.68    7.79
 -14   8  -8    4.72    2.31
 -14  -8  -8    3.58    1.74
 -14  -8  -9   16.69    2.47
 -14   8  -9   16.41    3.00
 -14  -8 -10   71.19    4.48
  14 -10 -10   13.19    3.13
  14 -10  -9  151.91    7.67
  14 -10  -8    8.09    2.61
 -14  10   7   21.61    2.96
  14 -10  -7   22.21    3.32
 -14  10   6  162.24    7.22
  14 -10  -6  183.10    8.36
 -14  10   5    1.70    1.78
  14 -10  -5   -1.39    2.21
 -14  10   4  228.03    8.64
  14 -10  -4  257.95    9.89
 -14  10   3   11.41    2.44
  14 -10  -3    6.63    2.30
 -14  10   2   60.68    4.56
 -14  10   1  115.13    6.07
 -14  10   0    2.92    2.06
 -14  10  -1  359.43   11.43
 -14  10  -2   20.68    3.07
 -14  10  -3   51.96    4.45
 -14  10  -4  114.54    6.44
 -14  10  -5  118.04    6.53
 -14  10  -6   54.11    4.62
 -14  10  -7  197.52    8.88
 -14  12   6   17.52    2.69
 -14  12   5   23.79    3.19
 -14  12   4   47.82    4.02
 -14  12   3   33.43    3.43
 -14  12   2    3.78    2.06
 -14  12   1  250.63    9.35
 -14  12   0    6.50    2.32
 -14  12  -1  114.93    6.30
 -14  12  -2   37.73    3.95
 -14  12  -3   -0.13    1.99
 -14  12  -4    6.36    2.28
 -14  12  -5   50.15    4.54
  15   1 -21   -0.47    1.90
  15   1 -20  291.94   10.74
  15  -1 -20  281.93   10.74
  15  -1 -19    0.57    2.20
  15   1 -19    0.98    1.90
  15  -1 -18  207.87    8.68
  15   1 -18  203.95    8.38
  15  -1 -17   22.26    3.22
  15   1 -17   24.05    3.11
  15  -1 -16   -0.13    1.77
  15   1 -16   -1.95    1.91
  15  -1 -15   79.91    5.04
  15   1 -15   83.73    4.87
  15  -1 -14  150.65    6.75
  15   1 -14  168.84    6.78
  15   1 -13    6.72    1.81
  15  -1 -13    3.73    1.63
  15  -1 -12  291.31    9.33
  15   1 -12  308.63    9.16
  15  -1 -11   33.86    3.19
  15   1 -11   29.08    2.81
  15  -1 -10  473.50   12.22
  15   1 -10  491.28   11.89
  15  -1  -9  170.23    6.63
  15   1  -9  177.56    6.33
  15  -1  -8   13.25    2.16
  15   1  -8   15.86    2.12
  15   1  -7   43.50    3.06
  15  -1  -7   42.39    3.30
 -15   1   6    7.66    2.32
  15   1  -6    6.69    1.55
  15  -1  -6    3.03    1.56
 -15   1   5    0.81    1.94
 -15  -1   5    3.76    2.05
  15   1  -5   -0.17    1.24
  15  -1  -5    0.45    0.37
  15  -1  -5   -1.13    1.54
 -15  -1   5    1.38    1.25
 -15  -1   4  411.88   11.77
 -15   1   4  405.49   11.78
  15  -1  -4  399.36   10.39
  15   1  -4  412.56    9.90
 -15  -1   4  389.59    9.75
 -15   1   3   13.14    2.51
 -15  -1   3   12.91    2.54
  15  -1  -3   12.09    2.09
 -15  -1   3   12.60    1.66
 -15  -1   2 1047.38   21.77
 -15   1   2 1060.33   21.80
 -15  -1   2  991.21   18.91
 -15   1   1   23.08    3.09
 -15  -1   1   28.89    3.27
 -15  -1   1   19.09    2.03
 -15   1   0   80.41    5.02
 -15  -1   0   84.40    5.06
 -15  -1   0   69.67    3.54
 -15   1  -1   -3.15    2.13
 -15  -1  -1   -1.55    1.94
 -15  -1  -1    2.70    1.22
 -15   1  -2  207.89    8.13
 -15  -1  -2  206.95    8.07
 -15  -1  -2  199.52    6.40
 -15  -1  -3    9.99    2.46
 -15   1  -3    6.92    2.22
 -15  -1  -3    6.06    1.45
 -15   1  -4  439.83   12.51
 -15  -1  -4  433.35   12.36
 -15  -1  -4  412.38   10.31
 -15   1  -5   40.58    3.80
 -15  -1  -5   38.80    3.76
 -15  -1  -6   77.76    5.05
 -15   1  -6   69.32    4.92
  15  -1   6   75.07    4.14
 -15   1  -7   46.72    4.21
 -15  -1  -7   51.89    4.32
  15  -1   7   43.05    3.39
 -15   1  -8   14.04    2.76
 -15  -1  -8   12.28    2.65
  15  -1   8   12.45    2.24
 -15   1  -9    7.50    2.31
 -15  -1  -9   -1.52    2.03
  15  -1   9    6.86    2.15
 -15  -1 -10   52.04    4.40
 -15   1 -10   54.75    4.71
  15  -1  10   59.03    4.19
 -15   1 -11    6.87    2.55
 -15  -1 -11    0.10    1.91
  15  -1  11    1.39    1.88
 -15   1 -12  170.08    8.06
 -15  -1 -12  169.85    7.95
  15  -1  12  162.91    7.27
 -15  -1 -13    1.55    2.39
  15  -1  13   -0.44    1.91
  15   1  14  317.46   11.17
  15  -1  14  303.28   10.70
  15  -1  15   -0.32    1.80
  15   3 -21    0.66    1.85
  15   3 -20  184.97    7.99
  15   3 -19   12.48    2.51
  15   3 -18  240.65    8.83
  15  -3 -18  248.64    9.91
  15  -3 -17    4.67    2.25
  15   3 -17    2.33    1.82
  15  -3 -16    0.33    1.89
  15   3 -16   -2.38    1.83
  15  -3 -15   23.49    3.12
  15   3 -15   23.28    2.65
  15  -3 -14   62.31    4.57
  15   3 -14   63.95    4.06
  15   3 -13    5.28    1.71
  15  -3 -13    6.24    2.16
  15  -3 -12  246.58    8.82
  15   3 -12  246.90    7.68
  15  -3 -11   20.53    2.84
  15   3 -11   28.75    2.61
  15  -3 -10  237.79    8.43
  15   3 -10  236.13    7.17
  15   3  -9   44.95    3.03
  15  -3  -9   43.86    3.65
  15  -3  -8  124.57    5.93
  15   3  -8  135.02    4.99
 -15   3   7    9.74    2.46
  15   3  -7    8.57    1.63
  15  -3  -7    7.06    1.95
 -15   3   6   76.09    4.89
  15   3  -6   79.64    3.62
  15  -3  -6   70.58    4.36
 -15   3   5   -3.06    2.13
  15   3  -5    1.88    1.21
  15  -3  -5   -1.23    1.67
 -15  -3   4  624.51   15.20
 -15   3   4  604.57   15.21
  15  -3  -4  586.32   14.12
 -15  -3   3   63.93    4.46
 -15   3   3   68.70    4.67
  15  -3  -3   59.36    3.94
 -15  -3   3   60.02    2.89
 -15  -3   2  544.57   14.10
 -15   3   2  528.38   14.11
 -15  -3   2  553.66   11.14
 -15  -3   1    9.77    2.38
 -15   3   1   10.94    2.55
  15  -3  -1   10.50    0.95
 -15  -3   1    8.03    1.20
 -15  -3   0    9.74    2.30
 -15   3   0    7.75    2.25
  15  -3   0    7.40    0.99
 -15  -3   0    7.22    1.24
 -15   3  -1   73.79    4.91
 -15  -3  -1   80.67    4.99
  15  -3   1   79.16    3.05
 -15   3  -2  213.98    8.36
 -15  -3  -2  213.55    8.18
  15  -3   2  216.58    5.82
 -15  -3  -3   17.76    2.80
 -15   3  -3   16.44    2.78
  15  -3   3   16.11    1.71
 -15  -3  -4  203.22    8.05
 -15   3  -4  208.44    8.50
  15  -3   4  204.86    6.23
 -15  -3  -5   18.20    2.84
 -15   3  -5   24.57    3.39
  15  -3   5   17.91    2.05
 -15  -3  -6  293.77    9.89
 -15   3  -6  310.25   10.46
  15  -3   6  265.75    7.97
 -15   3  -7   33.78    3.62
 -15  -3  -7   30.03    3.41
  15  -3   7   32.75    2.89
 -15   3  -8    0.88    1.99
 -15  -3  -8    2.29    1.90
  15  -3   8    1.31    1.38
 -15   3  -9   22.69    3.28
 -15  -3  -9   21.47    3.06
  15  -3   9   19.79    2.52
 -15   3 -10   51.42    4.53
 -15  -3 -10   49.00    4.20
  15  -3  10   44.46    3.62
 -15   3 -11   70.64    5.33
 -15  -3 -11   73.50    5.17
  15  -3  11   65.73    4.51
 -15  -3 -12  172.23    7.76
  15  -3  12  167.39    7.24
 -15  -3 -13   23.73    3.37
  15  -3  13   24.13    3.15
 -15  -3 -14  105.25    6.35
  15  -3  14  107.40    6.06
  15  -3  15   13.73    2.83
  15  -5 -17    2.97    2.08
  15   5 -17    0.54    1.49
  15   5 -16    0.55    1.42
  15  -5 -16    0.50    2.04
  15  -5 -15   61.42    4.84
  15   5 -15   57.62    3.72
  15   5 -14   24.45    2.50
  15  -5 -14   19.93    3.13
  15   5 -13   26.88    2.53
  15  -5 -13   31.37    3.55
  15  -5 -12  153.16    7.15
  15   5 -12  154.66    5.55
  15  -5 -11   23.10    3.12
  15   5 -11   23.24    2.15
  15  -5 -10  321.20   10.49
  15   5 -10  321.84    8.09
  15  -5  -9   18.86    2.90
  15   5  -9   17.73    1.85
  15   5  -8   41.33    2.49
  15  -5  -8   36.07    3.59
 -15   5   7   43.09    3.88
  15   5  -7   53.09    2.63
  15  -5  -7   42.05    3.76
 -15   5   6  122.22    6.17
  15  -5  -6  126.46    6.22
  15   5  -6  133.46    4.09
 -15   5   5    5.84    2.13
  15  -5  -5   12.88    2.41
 -15   5   4  500.65   13.52
  15  -5  -4  501.57   13.25
 -15   5   3    6.32    2.26
  15  -5  -3    2.71    1.86
 -15   5   2  142.57    6.76
 -15  -5   2  147.38    6.64
 -15   5   1    2.22    2.11
 -15  -5   1    0.28    1.80
 -15  -5   0   11.39    2.32
 -15   5   0   12.41    2.48
 -15   5  -1   50.83    4.18
 -15  -5  -1   53.83    4.17
 -15   5  -2  106.38    5.98
 -15  -5  -2  106.09    5.67
 -15   5  -3   10.56    2.60
 -15  -5  -3    9.62    2.32
 -15  -5  -4  156.11    6.91
 -15   5  -4  168.43    7.55
  15  -5   4  158.66    5.17
 -15  -5  -5   76.36    4.99
 -15   5  -5   80.62    5.42
  15  -5   5   80.86    3.78
 -15  -5  -6  407.81   11.98
 -15   5  -6  406.22   12.53
  15  -5   6  407.25   10.11
 -15   5  -7   13.18    2.71
 -15  -5  -7   10.81    2.24
  15  -5   7   13.12    1.95
 -15  -5  -8  174.61    7.57
 -15   5  -8  172.70    8.02
  15  -5   8  161.07    6.27
 -15   5  -9    6.10    2.36
 -15  -5  -9    4.15    2.21
  15  -5   9    1.06    1.42
 -15   5 -10   51.69    4.69
 -15  -5 -10   55.85    4.46
  15  -5  10   52.69    3.94
 -15  -5 -11   13.79    2.85
  15  -5  11   11.97    2.39
 -15  -5 -12  224.36    9.02
  15  -5  12  237.04    8.71
 -15  -5 -13   29.80    3.54
  15  -5  13   28.09    3.29
 -15  -5 -14   98.18    6.05
  15  -5  14   90.66    5.66
 -15  -5 -15   19.18    3.51
  15  -5  15   20.63    3.18
  15  -7 -14   31.20    3.91
  15  -7 -13   48.92    4.47
  15  -7 -12  107.78    6.32
  15  -7 -11   33.31    3.72
  15  -7 -10  197.13    8.42
  15  -7  -9   64.52    4.82
  15  -7  -8   93.88    5.69
 -15   7   7  137.24    6.62
  15  -7  -7  133.43    6.82
 -15   7   6   51.68    4.16
  15  -7  -6   44.23    4.11
 -15   7   5   34.56    3.68
  15  -7  -5   33.57    3.46
 -15   7   4  176.08    7.53
  15  -7  -4  185.13    7.90
 -15   7   3    1.06    2.05
  15  -7  -3   -1.52    2.07
 -15   7   2   70.22    4.91
 -15   7   1    3.32    2.22
 -15   7   0   19.29    3.00
 -15   7  -1   64.14    4.75
 -15  -7  -1   56.94    4.15
 -15  -7  -2    2.82    1.86
 -15   7  -2    3.35    2.08
 -15   7  -3  217.85    8.77
 -15  -7  -3  192.41    7.69
 -15  -7  -4   43.84    3.84
 -15   7  -4   42.96    4.24
 -15  -7  -5   10.27    2.38
 -15   7  -5   17.98    3.13
 -15   7  -6  230.03    9.25
 -15  -7  -6  224.62    8.39
 -15   7  -7  107.85    6.44
 -15  -7  -7  104.35    5.66
 -15   7  -8   23.23    3.39
 -15  -7  -8   20.90    2.88
 -15  -7  -9   96.35    5.58
 -15  -7 -10   99.20    5.65
 -15  -7 -11   20.56    3.02
 -15  -7 -12  255.77    9.45
  15  -9 -10   44.17    4.45
  15  -9  -9  313.08   11.31
  15  -9  -8   -1.85    2.29
 -15   9   7  240.31    9.07
  15  -9  -7  258.91    9.92
 -15   9   6   56.91    4.44
  15  -9  -6   63.07    4.92
 -15   9   5   17.82    2.85
  15  -9  -5   21.69    3.17
 -15   9   4  133.48    6.72
  15  -9  -4  144.12    7.36
 -15   9   3   37.65    3.68
 -15   9   2   71.54    4.96
 -15   9   1   25.98    3.34
 -15   9   0    9.27    2.37
 -15   9  -1   70.43    5.11
 -15   9  -2   97.30    5.89
 -15   9  -3  123.78    6.79
 -15  -9  -4  222.33    8.07
 -15   9  -4  218.22    9.10
 -15   9  -5    2.02    2.21
 -15  -9  -5    1.05    1.60
 -15   9  -6  140.35    7.43
 -15  -9  -6  137.45    6.25
 -15  11   6   -0.43    1.98
 -15  11   5   58.10    4.61
 -15  11   4   95.92    5.75
 -15  11   3   25.16    3.35
 -15  11   2   98.67    5.85
 -15  11   1  100.59    6.00
 -15  11   0   50.83    4.42
 -15  11  -1   46.20    4.32
 -15  11  -2   14.15    2.88
 -15  11  -3   89.38    5.81
 -15  11  -4  111.85    6.61
 -15  13   3   12.25    2.80
 -15  13   2   83.45    5.49
 -15  13   1   25.87    3.41
 -15  13   0   42.89    4.29
 -15  13  -1  113.19    6.63
  16   0 -19   -1.48    1.96
  16   0 -18  196.13    8.35
  16   0 -17   -0.82    1.87
  16   0 -16   56.01    4.45
  16   0 -15   -1.05    1.70
  16   0 -14  104.11    5.61
  16   0 -13    0.72    1.70
  16   0 -12  906.13   19.30
  16   0 -11   -0.34    1.61
  16   0 -10  318.28    9.54
  16   0  -9    2.93    1.70
  16   0  -8    2.61    1.57
  16   0  -7    0.43    1.48
  16   0  -6  149.48    5.97
 -16   0   5    2.22    2.25
  16   0  -5   -0.29    1.34
 -16   0   4  185.49    7.78
  16   0  -4  188.53    6.62
 -16   0   3   -1.21    2.07
 -16   0   2  363.86   11.40
 -16   0   1   -1.88    2.15
 -16   0   0  212.03    8.46
 -16   0  -1   -0.21    2.12
 -16   0  -2   46.23    4.17
 -16   0  -3    3.51    2.19
 -16   0  -4  164.10    7.55
 -16   0  -5    1.09    1.95
 -16   0  -6  381.56   12.07
 -16   0  -7   -1.11    2.01
 -16   0  -8  272.44   10.18
 -16   0  -9    1.28    2.01
 -16   0 -10    7.73    2.56
  16   0  10    4.08    1.94
 -16   0 -11   -2.82    2.29
  16   0  11   -1.76    2.00
  16   0  12   13.15    2.65
  16   0  13   -1.86    1.96
  16   0  14   62.37    4.96
  16   2 -20   65.19    4.92
  16   2 -19   -1.30    1.87
  16  -2 -18  277.37   10.48
  16   2 -18  270.99    9.65
  16  -2 -17    3.74    2.30
  16   2 -17    5.95    2.03
  16  -2 -16  131.62    6.82
  16   2 -16  135.86    6.38
  16   2 -15   20.75    2.94
  16  -2 -15   22.02    3.07
  16   2 -14    4.99    1.88
  16  -2 -14    9.19    2.34
  16   2 -13   46.25    3.49
  16  -2 -13   44.39    3.87
  16  -2 -12   63.95    4.50
  16   2 -12   64.38    3.99
  16  -2 -11   60.70    4.35
  16   2 -11   50.48    3.46
  16   2 -10  349.55    9.55
  16  -2 -10  341.37   10.44
  16  -2  -9   71.07    4.50
  16   2  -9   70.78    3.94
  16   2  -8   18.62    2.29
  16  -2  -8   15.24    2.43
  16   2  -7  118.56    4.88
  16  -2  -7  111.86    5.51
 -16   2   6   35.65    3.66
  16   2  -6   35.14    2.75
  16  -2  -6   32.63    3.14
 -16   2   5   17.81    2.91
  16  -2  -5   19.22    2.57
  16   2  -5   25.04    2.37
 -16  -2   4   55.59    4.42
 -16   2   4   58.08    4.49
  16  -2  -4   57.27    3.95
 -16   2   3   19.11    2.93
 -16  -2   3   18.69    2.88
  16  -2  -3   19.62    2.56
 -16  -2   2  286.26    9.87
 -16   2   2  285.70    9.96
 -16   2   1   25.09    3.43
 -16  -2   1   23.97    3.16
 -16  -2   0  199.92    8.12
 -16   2   0  219.50    8.60
 -16  -2  -1    1.65    2.18
 -16   2  -1    0.68    2.04
  16  -2   1    0.51    0.97
 -16   2  -2   -0.18    1.93
 -16  -2  -2   -0.47    1.90
  16  -2   2    1.24    0.97
 -16   2  -3   63.01    4.68
 -16  -2  -3   60.34    4.60
  16  -2   3   55.95    3.09
 -16   2  -4  193.45    8.21
 -16  -2  -4  189.88    8.14
  16  -2   4  185.77    6.04
 -16   2  -5   99.08    5.95
 -16  -2  -5  105.63    6.00
  16  -2   5   85.99    4.19
 -16  -2  -6  205.41    8.45
 -16   2  -6  198.40    9.12
  16  -2   6  197.44    6.77
 -16   2  -7   33.53    3.81
 -16  -2  -7   31.67    3.67
  16  -2   7   27.37    2.75
 -16  -2  -8  174.50    7.95
 -16   2  -8  166.58    7.94
  16  -2   8  178.77    6.80
 -16   2  -9   -1.63    1.97
 -16  -2  -9    1.19    2.04
  16  -2   9    1.80    1.69
 -16   2 -10    2.14    2.13
 -16  -2 -10    2.06    2.21
  16  -2  10    4.17    2.07
 -16  -2 -11    7.22    2.46
  16  -2  11    1.05    1.84
 -16  -2 -12   45.84    4.46
  16  -2  12   42.48    3.83
  16  -2  13    2.31    2.18
  16  -2  14   85.29    5.57
  16   4 -16   56.60    3.92
  16  -4 -16   53.49    4.56
  16   4 -15   11.09    2.10
  16  -4 -15   15.21    2.90
  16   4 -14   12.67    2.09
  16  -4 -14    8.43    2.43
  16  -4 -13  101.51    5.90
  16   4 -13  112.06    5.05
  16  -4 -12   77.69    5.14
  16   4 -12   68.53    3.86
  16   4 -11   48.89    3.20
  16  -4 -11   46.69    4.75
  16   4 -10  195.42    6.31
  16  -4 -10  181.96    7.74
  16   4  -9    0.45    1.16
  16  -4  -9    0.78    1.85
  16   4  -8  157.17    5.27
  16  -4  -8  137.86    6.61
 -16   4   7  104.26    5.93
  16   4  -7  102.96    4.04
  16  -4  -7   94.58    5.40
 -16   4   6    9.19    2.44
  16   4  -6    8.40    1.43
  16  -4  -6   11.62    2.40
 -16   4   5   55.84    4.42
  16  -4  -5   48.71    3.90
 -16   4   4  183.20    7.90
  16  -4  -4  173.28    7.17
 -16  -4   3    1.54    1.92
 -16   4   3    5.28    2.48
  16  -4  -3    2.58    1.79
 -16  -4   2  398.28   11.93
 -16   4   2  387.81   12.05
 -16  -4   1    6.81    2.08
 -16   4   1    9.22    2.51
 -16   4   0  255.09    9.44
 -16  -4   0  237.71    8.96
 -16  -4  -1   42.48    4.01
 -16   4  -1   42.26    4.01
 -16   4  -2    9.79    2.65
 -16  -4  -2    4.90    2.11
 -16   4  -3  178.02    7.98
 -16  -4  -3  184.28    7.90
 -16   4  -4  128.70    6.82
 -16  -4  -4  125.70    6.47
 -16  -4  -5  119.73    6.42
 -16   4  -5  127.00    6.86
 -16  -4  -6  268.30    9.83
 -16   4  -6  292.47   10.58
 -16  -4  -7   67.53    4.93
 -16   4  -7   74.49    5.38
 -16  -4  -8   60.30    4.77
 -16   4  -8   70.80    5.28
  16  -4   8   68.21    4.06
 -16  -4  -9   58.25    4.57
  16  -4   9   61.83    4.05
 -16  -4 -10   -0.07    1.99
  16  -4  10   -0.71    1.55
 -16  -4 -11    5.76    2.50
  16  -4  11    3.14    1.90
 -16  -4 -12   48.25    4.56
  16  -4  12   37.26    3.65
  16  -4  13   11.12    2.42
  16  -6 -14    9.23    2.73
  16  -6 -13   55.57    4.68
  16  -6 -12  146.21    7.35
  16  -6 -11   48.27    4.38
  16  -6 -10   95.39    5.77
  16  -6  -9   -0.33    1.89
  16  -6  -8  239.49    9.21
 -16   6   7   94.62    5.68
  16  -6  -7   80.93    5.38
 -16   6   6   86.07    5.53
  16  -6  -6   88.13    5.45
 -16   6   5  104.07    5.95
  16  -6  -5  100.88    5.80
 -16   6   4   27.59    3.51
  16  -6  -4   40.39    3.77
 -16   6   3   62.11    4.73
  16  -6  -3   64.49    4.67
 -16   6   2  437.61   13.07
 -16   6   1   -0.21    1.99
 -16   6   0  202.12    8.50
 -16  -6   0  197.22    7.97
 -16   6  -1    4.33    2.33
 -16  -6  -1    3.21    2.07
 -16  -6  -2    0.33    1.82
 -16   6  -2   -1.75    1.96
 -16   6  -3   72.01    5.20
 -16  -6  -3   71.08    4.89
 -16  -6  -4   19.17    2.86
 -16   6  -4   21.38    3.59
 -16   6  -5   31.35    3.86
 -16  -6  -5   22.86    3.24
 -16  -6  -6  215.86    8.66
 -16   6  -6  234.29    9.60
 -16   6  -7    8.55    2.67
 -16  -6  -7    6.17    2.38
 -16  -6  -8  129.73    6.71
 -16  -6  -9   46.24    4.19
 -16  -6 -10   21.51    3.17
 -16  -6 -11   65.38    4.86
 -16  -6 -12   82.21    5.61
  16  -8 -10  206.59    9.04
  16  -8  -9   -2.76    2.25
  16  -8  -8  162.95    7.93
 -16   8   7   68.51    4.97
  16  -8  -7   68.59    5.04
 -16   8   6   -0.93    2.05
  16  -8  -6    4.21    2.32
 -16   8   5  193.49    8.29
  16  -8  -5  196.84    8.53
 -16   8   4   60.02    4.75
  16  -8  -4   55.49    4.64
 -16   8   3    1.86    2.19
 -16   8   2  288.17   10.41
 -16   8   1   31.95    3.66
 -16   8   0   85.47    5.57
 -16   8  -1  126.44    6.80
 -16   8  -2   -0.56    2.11
 -16   8  -3  188.00    8.45
 -16  -8  -3  183.33    7.67
 -16  -8  -4   30.62    3.38
 -16   8  -4   34.03    3.87
 -16  -8  -5   88.82    5.40
 -16   8  -5   91.72    6.05
 -16  -8  -6   61.08    4.54
 -16  -8  -7   62.47    4.53
 -16  -8  -8   88.17    5.33
 -16  10   7   43.32    4.10
 -16  10   6    1.55    2.04
 -16  10   5  162.85    7.64
 -16  10   4   57.77    4.80
 -16  10   3   18.81    3.08
 -16  10   2   85.42    5.65
 -16  10   1   47.45    4.45
 -16  10   0   75.52    5.38
 -16  10  -1  114.20    6.64
 -16  10  -2   37.91    4.10
 -16  12   6   31.28    3.76
 -16  12   5  286.74   10.44
 -16  12   4   -1.00    2.00
 -16  12   3   14.38    2.97
 -16  12   2    5.06    2.57
  17   1 -19    1.73    1.84
  17  -1 -18  132.63    7.18
  17   1 -18  147.02    7.17
  17   1 -17    2.53    1.96
  17  -1 -17    6.20    2.85
  17  -1 -16  140.48    7.04
  17   1 -16  131.84    6.54
  17  -1 -15    0.24    1.78
  17   1 -15    0.38    1.73
  17  -1 -14  167.80    7.41
  17   1 -14  175.29    7.27
  17  -1 -13   23.52    2.91
  17   1 -13   25.90    2.99
  17  -1 -12    3.41    2.00
  17   1 -12    4.19    1.74
  17  -1 -11    2.84    1.71
  17   1 -11   -0.80    1.62
  17  -1 -10   72.79    4.60
  17   1 -10   73.13    4.27
  17   1  -9   -1.89    1.60
  17  -1  -9    0.22    1.72
  17   1  -8  566.27   13.38
  17  -1  -8  563.64   14.02
  17  -1  -7    2.83    1.72
  17   1  -7    1.33    1.40
 -17   1   6  159.74    7.51
  17  -1  -6  147.37    6.29
  17   1  -6  148.81    5.85
 -17  -1   5   11.34    2.70
 -17   1   5    9.33    2.53
  17   1  -5    5.28    1.70
  17  -1  -5    2.86    1.53
 -17  -1   4   15.05    3.08
 -17   1   4   14.80    2.77
  17  -1  -4    8.20    1.97
 -17  -1   3    3.39    2.15
 -17   1   3   10.72    2.86
 -17   1   2  195.60    8.34
 -17  -1   2  174.66    7.95
 -17  -1   1   11.76    2.75
 -17   1   1   10.61    2.59
 -17   1   0  134.75    6.90
 -17  -1   0  122.10    6.53
 -17  -1  -1    3.76    2.25
 -17   1  -1    0.56    1.97
 -17   1  -2   25.37    3.46
 -17  -1  -2   22.72    3.24
 -17   1  -3   29.40    3.61
 -17  -1  -3   36.92    4.01
 -17   1  -4    0.83    2.12
 -17  -1  -4    0.22    2.03
 -17  -1  -5    8.35    2.59
 -17   1  -5    6.94    2.46
  17  -1   5    9.15    1.84
 -17   1  -6  191.91    8.52
 -17  -1  -6  185.39    8.36
  17  -1   6  167.80    6.41
 -17   1  -7    1.10    2.18
 -17  -1  -7   -0.52    1.97
  17  -1   7    3.01    1.65
 -17  -1  -8  465.24   14.07
 -17   1  -8  475.52   14.41
  17  -1   8  443.74   12.02
 -17  -1  -9   15.18    3.03
  17  -1   9    6.44    2.06
  17  -1  10   85.25    5.07
  17  -1  11    0.43    1.83
  17  -1  12   18.49    2.97
  17   1  12   20.85    3.21
  17  -3 -16  154.37    7.65
  17  -3 -15    1.88    1.91
  17  -3 -14   64.93    4.91
  17   3 -14   76.84    4.49
  17  -3 -13    0.99    1.93
  17   3 -13   -1.60    1.59
  17  -3 -12   -2.15    2.02
  17   3 -12   -2.05    1.54
  17   3 -11  104.59    4.88
  17  -3 -11   94.21    5.60
  17   3 -10  316.04    8.86
  17  -3 -10  305.09   10.24
  17   3  -9   28.88    2.62
  17  -3  -9   26.81    3.21
  17   3  -8  244.75    7.31
  17  -3  -8  223.33    8.52
  17  -3  -7   19.42    2.82
  17   3  -7   19.24    2.11
 -17   3   6   78.10    5.42
  17  -3  -6   78.57    4.92
  17   3  -6   85.86    3.97
 -17   3   5   98.76    6.00
  17  -3  -5   94.16    5.32
 -17   3   4    5.14    2.32
  17  -3  -4   -2.75    2.03
 -17   3   3   37.12    4.02
 -17  -3   3   36.46    3.89
 -17  -3   2  103.49    6.06
 -17   3   2  109.04    6.37
 -17   3   1    1.45    2.13
 -17  -3   1    4.56    2.25
 -17  -3   0  342.44   11.44
 -17   3   0  353.15   11.73
 -17  -3  -1    0.27    1.95
 -17   3  -1    4.38    2.61
 -17   3  -2   95.28    5.99
 -17  -3  -2   93.61    5.84
 -17   3  -3    1.40    2.04
 -17  -3  -3   -0.34    2.10
 -17  -3  -4   17.59    3.07
 -17   3  -4   11.78    2.68
 -17  -3  -5   40.29    4.04
 -17   3  -5   45.10    4.33
 -17  -3  -6   38.03    3.95
 -17   3  -6   38.44    4.11
 -17  -3  -7   23.47    3.21
 -17   3  -7   21.92    3.37
 -17  -3  -8  188.81    8.46
 -17  -3  -9   19.24    2.98
 -17  -3 -10   36.11    4.15
  17  -5 -14   19.02    3.05
  17  -5 -13   26.99    3.50
  17  -5 -12   38.30    4.09
  17  -5 -11   41.03    4.02
  17  -5 -10  317.22   10.92
  17  -5  -9   28.38    3.39
  17  -5  -8   94.80    5.71
 -17   5   7   36.89    3.97
  17  -5  -7   37.13    3.83
 -17   5   6    1.06    1.94
  17  -5  -6    0.81    1.81
 -17   5   5  151.11    7.45
  17  -5  -5  144.32    7.09
 -17   5   4   16.49    2.99
  17  -5  -4   15.31    2.63
 -17   5   3    7.93    2.44
 -17   5   2  220.57    9.16
 -17   5   1   34.01    3.97
 -17  -5   1   41.23    4.09
 -17  -5   0  378.46   12.01
 -17   5   0  385.88   12.45
 -17   5  -1    4.32    2.48
 -17  -5  -1    6.83    2.49
 -17   5  -2  105.57    6.41
 -17  -5  -2  110.71    6.33
 -17   5  -3    0.51    2.21
 -17  -5  -3    0.67    1.94
 -17   5  -4    1.85    2.25
 -17  -5  -4   -0.29    1.96
 -17  -5  -5   48.42    4.44
 -17   5  -5   55.50    4.78
 -17  -5  -6  213.17    9.01
 -17  -5  -7    2.98    2.12
 -17  -5  -8   52.11    4.58
 -17  -5  -9    4.88    2.29
 -17  -5 -10   36.68    4.00
  17  -7 -10  227.88    9.50
  17  -7  -9    3.95    2.25
  17  -7  -8  106.77    6.36
 -17   7   7   -2.56    2.34
  17  -7  -7    0.56    1.90
 -17   7   6   53.15    4.61
  17  -7  -6   64.13    4.94
 -17   7   5   61.47    4.89
  17  -7  -5   66.39    5.09
 -17   7   4   -1.03    2.14
  17  -7  -4    0.99    2.04
 -17   7   3  104.11    6.33
 -17   7   2   71.10    5.33
 -17   7   1    6.03    2.54
 -17   7   0  249.54    9.88
 -17   7  -1   32.12    3.84
 -17  -7  -1   22.11    3.18
 -17   7  -2   51.61    4.61
 -17  -7  -2   52.96    4.39
 -17   7  -3  214.77    9.32
 -17  -7  -3  197.55    8.40
 -17  -7  -4   29.77    3.43
 -17  -7  -5   87.22    5.60
 -17  -7  -6  226.07    9.06
 -17  -7  -7    2.79    1.87
 -17  -7  -8   30.29    3.84
 -17  -7  -9   57.46    4.80
 -17   9   7   25.99    3.35
 -17   9   6   35.32    4.09
 -17   9   5   45.24    4.36
 -17   9   4    3.20    2.38
 -17   9   3  125.81    7.00
 -17   9   2  157.31    7.83
 -17   9   1    8.40    2.61
  18   0 -17   -0.03    1.86
  18   0 -16  214.49    8.67
  18   0 -15   -3.69    2.34
  18   0 -14    3.96    2.07
  18   0 -13   -0.16    1.68
  18   0 -12   35.63    3.50
  18   0 -11   -0.53    1.63
  18   0 -10   16.27    2.64
  18   0  -9   -0.80    1.56
  18   0  -8  103.30    5.31
  18   0  -7    0.42    1.64
  18   0  -6  227.36    7.92
 -18   0   5    1.12    2.17
 -18   0   4  105.59    6.26
 -18   0   3    2.69    2.14
 -18   0   2    5.95    2.59
 -18   0   1   -0.46    2.09
 -18   0   0  217.34    9.20
 -18   0  -1   -0.92    2.34
 -18   0  -2  215.46    9.25
 -18   0  -3   -1.46    2.05
 -18   0  -4   18.79    3.34
 -18   0  -5   -6.09    2.47
  18  -2 -16  125.75    6.99
  18  -2 -15   10.23    2.52
  18  -2 -14  116.79    6.49
  18  -2 -13   23.38    3.22
  18  -2 -12    4.03    2.03
  18   2 -11    6.13    1.93
  18  -2 -11    2.71    2.08
  18   2 -10   18.33    2.48
  18  -2 -10   19.83    2.90
  18   2  -9   15.70    2.18
  18  -2  -9   12.17    2.45
  18   2  -8  181.58    6.56
  18  -2  -8  176.91    7.49
  18  -2  -7    1.59    1.89
  18   2  -7    1.33    1.56
 -18   2   6  223.49    9.34
  18  -2  -6  205.80    7.95
 -18   2   5    2.73    2.36
  18  -2  -5    1.15    1.82
 -18   2   4  124.99    6.94
 -18  -2   4  127.96    6.95
 -18  -2   3   92.68    6.00
 -18   2   3   96.15    6.20
 -18   2   2   40.31    4.16
 -18  -2   2   48.81    4.49
 -18  -2   1   -3.88    2.48
 -18   2   1   -1.37    2.22
 -18  -2   0  435.10   13.62
 -18   2   0  458.44   13.98
 -18   2  -1    4.30    2.28
 -18  -2  -1    4.58    2.43
 -18   2  -2  168.81    8.18
 -18  -2  -2  175.03    8.23
 -18  -2  -3   -0.12    2.12
 -18   2  -3    0.90    2.13
 -18   2  -4  118.61    6.96
 -18  -2  -4  132.15    7.24
 -18  -2  -5    4.17    2.44
 -18  -2  -6    1.01    2.17
  18  -4 -13    3.97    2.22
  18  -4 -12   32.12    3.70
  18  -4 -11   37.08    3.80
  18  -4 -10   44.10    4.14
  18  -4  -9    5.10    2.20
  18  -4  -8  206.88    8.51
  18  -4  -7    4.88    2.13
 -18   4   6  119.79    6.72
  18  -4  -6  112.25    6.18
 -18   4   5   71.82    5.34
  18  -4  -5   71.24    4.98
 -18   4   4   15.07    3.07
 -18   4   3  197.60    8.84
 -18   4   2   95.00    6.08
 -18  -4   2   85.67    5.80
 -18   4   1   33.47    4.01
 -18  -4   1   27.91    3.59
 -18   4   0  195.73    8.78
 -18  -4   0  193.40    8.57
 -18  -4  -1   33.09    3.74
 -18   4  -1   25.20    3.47
 -18  -4  -2  211.62    9.05
 -18   4  -2  215.48    9.39
 -18  -4  -3  118.31    6.71
 -18  -4  -4   23.88    3.57
 -18  -4  -5    1.16    2.14
 -18  -4  -6   26.87    3.65
 -18  -4  -7   -0.60    2.15
  18  -6  -9   91.13    5.96
  18  -6  -8  114.67    6.52
 -18   6   7   13.88    2.99
  18  -6  -7    6.50    2.34
 -18   6   6  115.04    6.72
  18  -6  -6  110.37    6.46
 -18   6   5   70.72    5.40
  18  -6  -5   74.05    5.27
 -18   6   4   18.09    3.19
 -18   6   3   73.88    5.48
 -18   6   2    2.65    2.45
 -18   6   1   28.06    3.69
 -18  -6   0   88.42    5.93
 -18  -6  -1   -3.78    2.39
 -18  -6  -2  347.90   11.81
 -18  -6  -3    0.43    2.09
 -18  -6  -4   87.39    5.79
 -18  -6  -5   23.86    3.29
 -18  -6  -6   35.35    3.92
 -18  -6  -7    5.26    2.77
 -18  -8  -4   60.45    4.84
  19  -1 -15    5.85    2.27
  19  -1 -14  393.40   12.30
  19  -1 -13   -1.56    1.90
  19  -1 -12  311.60   10.51
  19  -1 -11   10.99    2.38
  19  -1 -10   -1.18    1.91
  19  -1  -9   -0.10    1.79
  19  -1  -8  111.43    5.77
  19  -1  -7    0.94    1.81
  19  -1  -6  124.71    6.07
 -19   1   5    2.57    2.42
 -19   1   4  137.13    7.54
 -19  -1   4  159.34    8.11
 -19  -1   3    8.48    2.94
 -19   1   3    4.88    2.49
 -19   1   2   81.23    5.94
 -19  -1   2   86.98    5.96
 -19  -1   1    2.42    2.36
 -19  -1   0   89.57    6.19
  19  -3 -13   22.28    3.57
  19  -3 -12  119.70    6.64
  19  -3 -11   10.89    2.55
  19  -3 -10   20.68    3.06
  19  -3  -9    7.60    2.25
  19  -3  -8   67.11    4.83
  19  -3  -7   -4.22    2.24
  19  -3  -6  136.76    6.82
 -19  -3   3    6.11    2.46
 -19  -3   2   20.49    3.56
 -19  -3   1   15.37    3.15
 -19  -3   0   77.08    5.67
 -19  -3  -1    8.61    2.79
  19  -5  -9    4.03    2.36
  19  -5  -8   31.14    3.73
  19  -5  -7    0.16    2.02
  19  -5  -6  158.30    7.79
 -19  -5   0   76.18    5.63
 -19  -5  -1    6.25    2.62
 -19  -5  -2   97.85    6.42
  20  -2 -12  331.15   11.42
  20  -2 -11    1.12    1.88
  20  -2 -10   69.26    4.96
  20  -2  -9   37.04    3.81
  20  -2  -8    8.18    2.15
  20  -2  -7   21.64    3.00
  20  -4  -8   11.47    2.67
  20  -4  -7   21.33    3.11
   0   0   0    0.00    0.00


TITL pvl729b_autored in C2/c
REM C2/c (#15 in standard setting)
CELL 0.71073  15.587818  13.895064  20.185963  90.0000  98.2398  90.0000
ZERR   49.00   0.000481   0.000437   0.000604   0.0000   0.0028   0.0000
LATT  7
SYMM -x, y,-z+1/2
SFAC C H N O S Cd
UNIT 49.00 49.00 49.00 49.00 49.00 49.00
REM  CrysAlisPro recorded range (K): Min=130.0; max=130.0; aver:130.0
TEMP -143
TREF
HKLF 4
END
_computing_structure_solution     'SHELXT 2018/2 (Sheldrick, 2018)'
;
_shelx_hkl_checksum   41301

