 
data_pvl729_auto_a
 
_audit_creation_method            'SHELXL-2018/3'
_shelx_SHELXL_version_number      '2018/3'
_chemical_name_systematic         ?
_chemical_name_common             ?
_chemical_melting_point           ?
_chemical_formula_moiety          ?
_chemical_formula_sum
 'C20 H12 Cd N6 O4 S' 
_chemical_formula_weight          544.82

loop_
 _atom_type_symbol
 _atom_type_description
 _atom_type_scat_dispersion_real
 _atom_type_scat_dispersion_imag
 _atom_type_scat_source
 'C'  'C'   0.0033   0.0016
 'International Tables Vol C Tables 4.2.6.8 and 6.1.1.4'
 'H'  'H'   0.0000   0.0000
 'International Tables Vol C Tables 4.2.6.8 and 6.1.1.4'
 'N'  'N'   0.0061   0.0033
 'International Tables Vol C Tables 4.2.6.8 and 6.1.1.4'
 'O'  'O'   0.0106   0.0060
 'International Tables Vol C Tables 4.2.6.8 and 6.1.1.4'
 'S'  'S'   0.1246   0.1234
 'International Tables Vol C Tables 4.2.6.8 and 6.1.1.4'
 'Cd'  'Cd'  -0.8075   1.2024
 'International Tables Vol C Tables 4.2.6.8 and 6.1.1.4'
 
_space_group_crystal_system       monoclinic
_space_group_IT_number            9
_space_group_name_H-M_alt         'C c'
_space_group_name_Hall            'C -2yc'
 
_shelx_space_group_comment
;
The symmetry employed for this shelxl refinement is uniquely defined
by the following loop, which should always be used as a source of
symmetry information in preference to the above space-group names.
They are only intended as comments.
;
 
loop_
 _space_group_symop_operation_xyz
 'x, y, z'
 'x, -y, z+1/2'
 'x+1/2, y+1/2, z'
 'x+1/2, -y+1/2, z+1/2'
 
_cell_length_a                    17.5960(7)
_cell_length_b                    11.2439(5)
_cell_length_c                    21.1217(8)
_cell_angle_alpha                 90
_cell_angle_beta                  91.830(3)
_cell_angle_gamma                 90
_cell_volume                      4176.7(3)
_cell_formula_units_Z             8
_cell_measurement_temperature     150(2)
_cell_measurement_reflns_used     ?
_cell_measurement_theta_min       ?
_cell_measurement_theta_max       ?
 
_exptl_crystal_description        ?
_exptl_crystal_colour             ?
_exptl_crystal_density_meas       ?
_exptl_crystal_density_method     ?
_exptl_crystal_density_diffrn     1.733          
_exptl_crystal_F_000              2160
_exptl_transmission_factor_min    ?
_exptl_transmission_factor_max    ?
_exptl_crystal_size_max           ?
_exptl_crystal_size_mid           ?
_exptl_crystal_size_min           ?
_exptl_absorpt_coefficient_mu     1.187
_shelx_estimated_absorpt_T_min    ?
_shelx_estimated_absorpt_T_max    ?
_exptl_absorpt_correction_type    ?
_exptl_absorpt_correction_T_min   ?
_exptl_absorpt_correction_T_max   ?
_exptl_absorpt_process_details    ?
_exptl_absorpt_special_details    ?
_diffrn_ambient_temperature       150(2)
_diffrn_radiation_wavelength      0.71073
_diffrn_radiation_type            MoK\a
_diffrn_source                    ?
_diffrn_measurement_device_type   ?
_diffrn_measurement_method        ?
_diffrn_detector_area_resol_mean  ?
_diffrn_reflns_number             9265
_diffrn_reflns_av_unetI/netI      0.0273
_diffrn_reflns_av_R_equivalents   0.0153
_diffrn_reflns_limit_h_min        -22
_diffrn_reflns_limit_h_max        18
_diffrn_reflns_limit_k_min        -14
_diffrn_reflns_limit_k_max        11
_diffrn_reflns_limit_l_min        -28
_diffrn_reflns_limit_l_max        21
_diffrn_reflns_theta_min          1.929
_diffrn_reflns_theta_max          28.936
_diffrn_reflns_theta_full         25.242
_diffrn_measured_fraction_theta_max   0.832
_diffrn_measured_fraction_theta_full  1.000
_diffrn_reflns_Laue_measured_fraction_max    0.832
_diffrn_reflns_Laue_measured_fraction_full   1.000
_diffrn_reflns_point_group_measured_fraction_max   0.558
_diffrn_reflns_point_group_measured_fraction_full  0.706
_reflns_number_total              6159
_reflns_number_gt                 5946
_reflns_threshold_expression      'I > 2\s(I)'
_reflns_Friedel_coverage          0.341
_reflns_Friedel_fraction_max      0.284
_reflns_Friedel_fraction_full     0.412
 
_reflns_special_details
;
 Reflections were merged by SHELXL according to the crystal
 class for the calculation of statistics and refinement.
 
 _reflns_Friedel_fraction is defined as the number of unique
 Friedel pairs measured divided by the number that would be
 possible theoretically, ignoring centric projections and
 systematic absences. Completness statistics refer to single and
 composite reflections containing twin component 1 only.
;
 
_computing_data_collection        ?
_computing_cell_refinement        ?
_computing_data_reduction         ?
_computing_structure_solution     'SHELXT 2018/2 (Sheldrick, 2018)'
_computing_structure_refinement 'SHELXL-2018/3 (Sheldrick, 2018)'
_computing_molecular_graphics     ?
_computing_publication_material   ?
_refine_special_details
;
 Refined as a 2-component inversion twin.
;
_refine_ls_structure_factor_coef  Fsqd
_refine_ls_matrix_type            full
_refine_ls_weighting_scheme       calc
_refine_ls_weighting_details
'w=1/[\s^2^(Fo^2^)+(0.0412P)^2^+0.6094P] where P=(Fo^2^+2Fc^2^)/3'
_atom_sites_solution_primary      ?
_atom_sites_solution_secondary    ?
_atom_sites_solution_hydrogens    geom
_refine_ls_hydrogen_treatment     constr
_refine_ls_extinction_method      none
_refine_ls_extinction_coef        .
_refine_ls_abs_structure_details
;
 Refined as an inversion twin.
;
_refine_ls_abs_structure_Flack    0.25(5)
_chemical_absolute_configuration  ?
_refine_ls_number_reflns          6159
_refine_ls_number_parameters      578
_refine_ls_number_restraints      2
_refine_ls_R_factor_all           0.0490
_refine_ls_R_factor_gt            0.0473
_refine_ls_wR_factor_ref          0.1469
_refine_ls_wR_factor_gt           0.1463
_refine_ls_goodness_of_fit_ref    2.340
_refine_ls_restrained_S_all       2.339
_refine_ls_shift/su_max           0.001
_refine_ls_shift/su_mean          0.000
 
loop_
 _atom_site_label
 _atom_site_type_symbol
 _atom_site_fract_x
 _atom_site_fract_y
 _atom_site_fract_z
 _atom_site_U_iso_or_equiv
 _atom_site_adp_type
 _atom_site_occupancy
 _atom_site_site_symmetry_order  
 _atom_site_calc_flag
 _atom_site_refinement_flags_posn
 _atom_site_refinement_flags_adp
 _atom_site_refinement_flags_occupancy
 _atom_site_disorder_assembly
 _atom_site_disorder_group
Cd1 Cd 0.60048(3) 0.72045(7) 0.43286(3) 0.0254(2) Uani 1 1 d . . . . .
Cd3 Cd 0.42815(4) 0.76383(8) 0.54921(3) 0.0308(2) Uani 1 1 d . . . . .
S1 S 0.3024(2) 0.8817(3) 0.22462(17) 0.0497(9) Uani 1 1 d . . . . .
S3 S 0.6426(2) 0.6231(3) 0.82632(17) 0.0454(8) Uani 1 1 d . . . . .
O2 O 0.4601(5) 0.8614(9) 0.4593(4) 0.044(3) Uani 1 1 d . . . . .
O3 O 0.8301(6) 0.2712(7) 0.6217(6) 0.039(3) Uani 1 1 d . . . . .
O4 O 0.8218(5) 0.4104(10) 0.5472(4) 0.045(3) Uani 1 1 d . . . . .
O5 O 0.5600(6) 0.6052(9) 0.5152(4) 0.047(3) Uani 1 1 d . . . . .
O6 O 0.5431(5) 0.8812(8) 0.3836(4) 0.031(2) Uani 1 1 d . . . . .
O7 O 0.2009(6) 1.2221(7) 0.3623(5) 0.037(2) Uani 1 1 d . . . . .
O8 O 0.2078(6) 1.0853(10) 0.4345(5) 0.054(3) Uani 1 1 d . . . . .
O10 O 0.4893(5) 0.6127(10) 0.5998(4) 0.043(3) Uani 1 1 d . . . . .
N1 N 0.6984(6) 0.7069(9) 0.8640(5) 0.042(3) Uani 1 1 d . . . . .
N2 N 0.8627(7) 0.8657(11) 0.9852(5) 0.039(3) Uani 1 1 d . . . . .
N3 N 0.4990(7) 0.8771(10) 0.6170(6) 0.038(3) Uani 1 1 d . . . . .
N4 N 0.5751(6) 0.9281(9) 0.6973(5) 0.029(2) Uani 1 1 d . . . . .
N5 N 0.6101(6) 0.7121(9) 0.7721(5) 0.039(2) Uani 1 1 d . . . . .
N6 N 0.4344(5) 0.5643(9) 0.2953(4) 0.027(2) Uani 1 1 d . . . . .
N7 N 0.3581(6) 0.7870(9) 0.2587(5) 0.040(3) Uani 1 1 d . . . . .
N8 N 0.2630(6) 0.8018(9) 0.1705(5) 0.038(2) Uani 1 1 d . . . . .
N9 N 0.2213(6) 0.5949(9) 0.0882(4) 0.032(2) Uani 1 1 d . . . . .
N10 N 0.7840(6) 0.9246(9) 0.9088(4) 0.032(2) Uani 1 1 d . . . . .
N11 N 0.1529(6) 0.6588(9) 0.0077(5) 0.033(2) Uani 1 1 d . . . . .
N12 N 0.5174(6) 0.6143(9) 0.3716(5) 0.027(2) Uani 1 1 d . . . . .
C1 C 0.6340(8) 0.3894(14) 0.7018(6) 0.040(3) Uani 1 1 d . . . . .
H1 H 0.621935 0.362973 0.742983 0.048 Uiso 1 1 calc R U . . .
C2 C 0.2933(7) 0.6895(10) 0.1769(5) 0.031(3) Uani 1 1 d . . . . .
C3 C 0.3842(7) 0.5742(10) 0.2416(5) 0.025(2) Uani 1 1 d . . . . .
C5 C 0.8508(8) 0.9830(13) 0.9907(6) 0.044(3) Uani 1 1 d . . . . .
H5 H 0.873569 1.032444 1.022442 0.053 Uiso 1 1 calc R U . . .
C6 C 0.8216(8) 0.8334(12) 0.9355(7) 0.039(3) Uani 1 1 d . . . . .
H6 H 0.818740 0.754110 0.920102 0.047 Uiso 1 1 calc R U . . .
C7 C 0.7344(7) 0.9214(11) 0.8551(5) 0.029(3) Uani 1 1 d . . . . .
C8 C 0.6951(7) 0.8187(10) 0.8356(5) 0.031(2) Uani 1 1 d . . . . .
C9 C 0.6415(6) 0.8163(10) 0.7825(5) 0.029(2) Uani 1 1 d . . . . .
C10 C 0.6300(7) 0.9222(12) 0.7476(6) 0.031(3) Uani 1 1 d . . . . .
C11 C 0.6693(8) 1.0224(11) 0.7688(6) 0.037(3) Uani 1 1 d . . . . .
H11 H 0.661033 1.095249 0.746858 0.044 Uiso 1 1 calc R U . . .
C12 C 0.7199(8) 1.0214(10) 0.8204(6) 0.031(3) Uani 1 1 d . . . . .
H12 H 0.745392 1.093060 0.832048 0.038 Uiso 1 1 calc R U . . .
C13 C 0.4857(8) 0.9926(13) 0.6320(6) 0.046(3) Uani 1 1 d . . . . .
H13 H 0.449607 1.042121 0.610416 0.055 Uiso 1 1 calc R U . . .
C14 C 0.5311(8) 1.0283(13) 0.6825(6) 0.047(3) Uani 1 1 d . . . . .
H14 H 0.532362 1.103814 0.702674 0.056 Uiso 1 1 calc R U . . .
C15 C 0.5534(8) 0.8425(12) 0.6566(6) 0.033(3) Uani 1 1 d . . . . .
H15 H 0.574991 0.765129 0.656468 0.040 Uiso 1 1 calc R U . . .
C16 C 0.5469(7) 0.5793(10) 0.5713(6) 0.030(3) Uani 1 1 d . . . . .
C17 C 0.6028(7) 0.5013(10) 0.6084(5) 0.025(2) Uani 1 1 d . . . . .
C18 C 0.5838(7) 0.4632(11) 0.6690(6) 0.030(3) Uani 1 1 d . . . . .
H18 H 0.537617 0.487474 0.687104 0.036 Uiso 1 1 calc R U . . .
C19 C 0.7011(7) 0.3535(10) 0.6760(6) 0.029(3) Uani 1 1 d . . . . .
H19 H 0.733748 0.300451 0.698938 0.035 Uiso 1 1 calc R U . . .
C20 C 0.7209(6) 0.3927(10) 0.6186(6) 0.025(3) Uani 1 1 d . . . . .
C21 C 0.6722(7) 0.4669(9) 0.5828(6) 0.023(2) Uani 1 1 d . . . . .
H21 H 0.685785 0.493325 0.541934 0.028 Uiso 1 1 calc R U . . .
C22 C 0.4808(6) 0.9037(10) 0.4092(5) 0.024(2) Uani 1 1 d . . . . .
C23 C 0.4299(6) 0.9918(9) 0.3762(5) 0.020(2) Uani 1 1 d . . . . .
C24 C 0.3570(6) 1.0168(9) 0.3966(5) 0.020(2) Uani 1 1 d . . . . .
H24 H 0.337844 0.975002 0.431811 0.024 Uiso 1 1 calc R U . . .
C25 C 0.7953(7) 0.3595(11) 0.5930(6) 0.026(3) Uani 1 1 d . . . . .
C26 C 0.4554(7) 1.0504(11) 0.3237(6) 0.033(3) Uani 1 1 d . . . . .
H26 H 0.504982 1.032937 0.309716 0.039 Uiso 1 1 calc R U . . .
C27 C 0.4116(7) 1.1349(13) 0.2898(6) 0.037(3) Uani 1 1 d . . . . .
H27 H 0.429541 1.171279 0.252525 0.044 Uiso 1 1 calc R U . . .
C28 C 0.3406(7) 1.1632(11) 0.3133(5) 0.028(3) Uani 1 1 d . . . . .
H28 H 0.311087 1.224269 0.293526 0.033 Uiso 1 1 calc R U . . .
C29 C 0.3120(7) 1.1028(9) 0.3658(5) 0.021(2) Uani 1 1 d . . . . .
C30 C 0.8007(8) 1.0217(12) 0.9433(6) 0.039(3) Uani 1 1 d . . . . .
H30 H 0.782056 1.100117 0.936579 0.047 Uiso 1 1 calc R U . . .
C31 C 0.4395(7) 0.4702(11) 0.3355(5) 0.037(3) Uani 1 1 d . . . . .
H31 H 0.412512 0.397250 0.331467 0.045 Uiso 1 1 calc R U . . .
C32 C 0.4904(7) 0.5002(13) 0.3824(6) 0.040(3) Uani 1 1 d . . . . .
H32 H 0.505257 0.450870 0.417173 0.048 Uiso 1 1 calc R U . . .
C33 C 0.2340(7) 1.1389(11) 0.3892(5) 0.025(3) Uani 1 1 d . . . . .
C34 C 0.4826(7) 0.6518(11) 0.3198(5) 0.026(3) Uani 1 1 d . . . . .
H34 H 0.489331 0.728086 0.301440 0.031 Uiso 1 1 calc R U . . .
C35 C 0.1358(8) 0.5438(13) 0.0174(6) 0.047(4) Uani 1 1 d . . . . .
H35 H 0.099087 0.499815 -0.006791 0.057 Uiso 1 1 calc R U . . .
C36 C 0.1785(7) 0.4992(12) 0.0666(6) 0.038(3) Uani 1 1 d . . . . .
H36 H 0.178803 0.420147 0.082559 0.045 Uiso 1 1 calc R U . . .
C38 C 0.2035(7) 0.6866(11) 0.0507(6) 0.026(3) Uani 1 1 d . . . . .
H38 H 0.225466 0.763503 0.055126 0.031 Uiso 1 1 calc R U . . .
C39 C 0.3484(7) 0.6818(10) 0.2281(5) 0.029(2) Uani 1 1 d . . . . .
C40 C 0.2784(7) 0.5904(11) 0.1394(5) 0.028(3) Uani 1 1 d . . . . .
C41 C 0.3153(8) 0.4881(11) 0.1525(6) 0.030(3) Uani 1 1 d . . . . .
H41 H 0.305525 0.419857 0.127044 0.036 Uiso 1 1 calc R U . . .
C42 C 0.3698(7) 0.4810(12) 0.2051(6) 0.029(3) Uani 1 1 d . . . . .
H42 H 0.395665 0.408235 0.213463 0.035 Uiso 1 1 calc R U . . .
 
loop_
 _atom_site_aniso_label
 _atom_site_aniso_U_11
 _atom_site_aniso_U_22
 _atom_site_aniso_U_33
 _atom_site_aniso_U_23
 _atom_site_aniso_U_13
 _atom_site_aniso_U_12
Cd1 0.0136(4) 0.0395(4) 0.0229(4) 0.0013(4) -0.0012(3) 0.0088(4)
Cd3 0.0179(5) 0.0482(5) 0.0262(5) 0.0088(4) -0.0005(3) 0.0124(4)
S1 0.053(2) 0.0365(16) 0.058(2) -0.0125(16) -0.0210(16) 0.0148(16)
S3 0.0396(19) 0.0381(16) 0.057(2) 0.0130(16) -0.0184(15) -0.0148(15)
O2 0.038(6) 0.059(6) 0.034(5) 0.024(5) 0.006(4) 0.021(5)
O3 0.030(6) 0.036(5) 0.052(7) 0.011(4) 0.014(5) 0.015(4)
O4 0.018(5) 0.083(7) 0.033(5) 0.020(5) 0.003(4) 0.017(5)
O5 0.027(5) 0.075(7) 0.038(5) 0.029(5) -0.003(4) 0.009(5)
O6 0.021(5) 0.034(4) 0.039(5) 0.004(4) 0.004(4) 0.012(4)
O7 0.022(6) 0.036(5) 0.053(7) 0.011(4) 0.002(5) 0.017(4)
O8 0.034(6) 0.074(7) 0.057(7) 0.035(6) 0.027(5) 0.031(5)
O10 0.027(6) 0.069(7) 0.033(5) 0.004(5) 0.000(4) 0.025(5)
N1 0.024(6) 0.045(6) 0.057(7) 0.007(5) -0.009(5) -0.008(5)
N2 0.043(7) 0.040(6) 0.034(6) -0.007(5) -0.001(5) -0.011(5)
N3 0.028(6) 0.049(7) 0.038(6) 0.001(5) 0.004(5) 0.003(5)
N4 0.021(5) 0.037(5) 0.031(5) 0.007(4) 0.007(4) 0.002(4)
N5 0.030(6) 0.040(6) 0.047(6) 0.005(5) -0.005(5) -0.008(5)
N6 0.018(5) 0.036(5) 0.025(5) 0.004(4) -0.002(4) 0.005(4)
N7 0.035(6) 0.046(6) 0.037(6) -0.014(5) -0.009(5) 0.007(5)
N8 0.031(6) 0.042(6) 0.040(6) -0.004(5) -0.008(4) 0.010(5)
N9 0.031(6) 0.042(5) 0.024(5) -0.003(5) -0.003(4) 0.000(5)
N10 0.025(6) 0.040(6) 0.032(5) -0.004(5) 0.000(4) -0.005(4)
N11 0.021(6) 0.039(6) 0.038(6) 0.003(5) -0.007(4) -0.006(5)
N12 0.017(5) 0.036(5) 0.028(5) 0.003(4) 0.001(4) 0.008(4)
C1 0.027(7) 0.063(9) 0.032(6) 0.015(7) 0.002(5) 0.011(6)
C2 0.035(7) 0.035(6) 0.024(5) -0.003(5) 0.005(5) 0.007(5)
C3 0.018(6) 0.037(6) 0.020(5) -0.002(5) 0.002(4) -0.002(5)
C5 0.036(8) 0.061(9) 0.037(7) -0.010(7) 0.011(6) -0.021(7)
C6 0.032(8) 0.038(7) 0.047(8) -0.008(6) -0.005(6) -0.002(6)
C7 0.024(6) 0.041(6) 0.023(5) -0.009(5) 0.005(5) -0.007(5)
C8 0.029(6) 0.035(6) 0.029(6) 0.011(5) 0.002(5) 0.004(5)
C9 0.022(6) 0.033(6) 0.032(6) 0.001(5) 0.002(5) 0.003(5)
C10 0.015(6) 0.049(7) 0.029(6) 0.009(5) 0.011(5) 0.005(5)
C11 0.038(8) 0.031(6) 0.043(7) -0.003(6) 0.010(6) 0.001(6)
C12 0.041(8) 0.024(6) 0.030(6) -0.006(5) 0.002(5) -0.008(5)
C13 0.042(8) 0.057(8) 0.038(7) 0.017(7) 0.001(6) 0.015(7)
C14 0.039(8) 0.053(8) 0.048(7) 0.014(7) 0.010(6) 0.021(7)
C15 0.023(7) 0.041(7) 0.036(7) 0.004(6) 0.003(5) 0.004(6)
C16 0.019(7) 0.027(6) 0.043(7) 0.000(6) -0.002(5) 0.003(5)
C17 0.019(6) 0.029(6) 0.026(6) 0.001(5) -0.009(5) -0.002(5)
C18 0.023(6) 0.042(7) 0.026(6) 0.008(5) 0.002(5) 0.010(5)
C19 0.016(6) 0.037(6) 0.034(6) 0.011(5) -0.011(5) 0.009(5)
C20 0.009(6) 0.034(6) 0.032(7) -0.005(5) -0.001(5) 0.006(5)
C21 0.018(6) 0.024(5) 0.028(6) 0.000(5) 0.000(5) 0.001(4)
C22 0.017(6) 0.035(6) 0.019(6) 0.000(5) -0.008(4) 0.005(5)
C23 0.018(6) 0.021(5) 0.022(6) -0.003(5) 0.003(4) 0.009(5)
C24 0.019(6) 0.027(5) 0.012(5) -0.003(4) -0.004(4) 0.000(5)
C25 0.013(6) 0.033(6) 0.033(7) -0.002(5) -0.004(5) 0.004(5)
C26 0.017(6) 0.040(7) 0.042(7) -0.002(6) 0.013(5) 0.004(5)
C27 0.019(6) 0.052(7) 0.040(7) 0.017(6) 0.013(5) 0.006(6)
C28 0.020(6) 0.034(6) 0.029(6) -0.001(5) -0.001(5) 0.005(5)
C29 0.019(6) 0.022(5) 0.023(6) -0.001(5) -0.004(5) -0.001(5)
C30 0.041(8) 0.040(7) 0.037(6) -0.003(6) 0.012(6) -0.002(6)
C31 0.039(8) 0.040(7) 0.033(6) 0.006(6) -0.003(5) -0.004(6)
C32 0.032(7) 0.058(9) 0.030(6) 0.008(6) -0.008(5) 0.003(6)
C33 0.017(6) 0.032(6) 0.026(6) -0.007(5) 0.001(5) 0.003(5)
C34 0.022(6) 0.035(6) 0.021(6) 0.003(5) 0.000(4) 0.004(5)
C35 0.026(7) 0.070(9) 0.044(7) 0.013(7) -0.012(6) -0.025(7)
C36 0.026(7) 0.047(7) 0.040(7) -0.002(6) -0.003(5) -0.013(6)
C38 0.019(6) 0.035(6) 0.025(6) -0.001(5) -0.001(5) -0.003(5)
C39 0.026(6) 0.035(6) 0.025(5) -0.003(5) -0.003(4) 0.002(5)
C40 0.022(6) 0.040(6) 0.021(5) 0.002(5) 0.000(4) 0.000(5)
C41 0.028(7) 0.035(6) 0.027(6) 0.003(5) 0.002(5) 0.007(5)
C42 0.022(6) 0.036(6) 0.030(6) 0.002(5) -0.005(5) 0.006(5)
 
_geom_special_details
;
 All esds (except the esd in the dihedral angle between two l.s. planes)
 are estimated using the full covariance matrix.  The cell esds are taken
 into account individually in the estimation of esds in distances, angles
 and torsion angles; correlations between esds in cell parameters are only
 used when they are defined by crystal symmetry.  An approximate (isotropic)
 treatment of cell esds is used for estimating esds involving l.s. planes.
;
 
loop_
 _geom_bond_atom_site_label_1
 _geom_bond_atom_site_label_2
 _geom_bond_distance
 _geom_bond_site_symmetry_2
 _geom_bond_publ_flag
Cd1 N11 2.259(11) 4_565 ?
Cd1 N12 2.261(11) . ?
Cd1 O5 2.299(9) . ?
Cd1 O6 2.303(8) . ?
Cd1 O7 2.348(11) 3_545 ?
Cd1 O8 2.424(9) 3_545 ?
Cd1 C33 2.711(12) 3_545 ?
Cd3 O10 2.260(9) . ?
Cd3 N3 2.261(12) . ?
Cd3 N2 2.274(13) 4_464 ?
Cd3 O2 2.280(9) . ?
Cd3 O3 2.345(11) 3_455 ?
Cd3 O4 2.493(9) 3_455 ?
Cd3 C25 2.760(12) 3_455 ?
S1 N8 1.594(11) . ?
S1 N7 1.602(11) . ?
S3 N1 1.561(11) . ?
S3 N5 1.612(11) . ?
O2 C22 1.226(14) . ?
O3 C25 1.306(15) . ?
O4 C25 1.228(15) . ?
O5 C16 1.250(16) . ?
O6 C22 1.262(14) . ?
O7 C33 1.231(15) . ?
O8 C33 1.233(15) . ?
O10 C16 1.252(15) . ?
N1 C8 1.393(15) . ?
N2 C6 1.308(17) . ?
N2 C5 1.341(19) . ?
N3 C15 1.310(18) . ?
N3 C13 1.359(18) . ?
N4 C15 1.337(16) . ?
N4 C14 1.397(16) . ?
N4 C10 1.414(16) . ?
N5 C9 1.311(15) . ?
N6 C31 1.357(15) . ?
N6 C34 1.388(16) . ?
N6 C3 1.420(15) . ?
N7 C39 1.357(15) . ?
N8 C2 1.375(15) . ?
N9 C38 1.331(16) . ?
N9 C36 1.383(16) . ?
N9 C40 1.452(15) . ?
N10 C6 1.334(17) . ?
N10 C30 1.339(16) . ?
N10 C7 1.410(15) . ?
N11 C38 1.290(16) . ?
N11 C35 1.345(17) . ?
N12 C34 1.307(15) . ?
N12 C32 1.390(17) . ?
C1 C19 1.377(17) . ?
C1 C18 1.381(18) . ?
C1 H1 0.9500 . ?
C2 C40 1.388(16) . ?
C2 C39 1.431(15) . ?
C3 C42 1.320(17) . ?
C3 C39 1.389(16) . ?
C5 C30 1.383(19) . ?
C5 H5 0.9500 . ?
C6 H6 0.9500 . ?
C7 C12 1.362(18) . ?
C7 C8 1.401(17) . ?
C8 C9 1.443(15) . ?
C9 C10 1.412(17) . ?
C10 C11 1.389(19) . ?
C11 C12 1.39(2) . ?
C11 H11 0.9500 . ?
C12 H12 0.9500 . ?
C13 C14 1.37(2) . ?
C13 H13 0.9500 . ?
C14 H14 0.9500 . ?
C15 H15 0.9500 . ?
C16 C17 1.517(17) . ?
C17 C18 1.401(16) . ?
C17 C21 1.406(17) . ?
C18 H18 0.9500 . ?
C19 C20 1.346(16) . ?
C19 H19 0.9500 . ?
C20 C21 1.401(16) . ?
C20 C25 1.480(16) . ?
C21 H21 0.9500 . ?
C22 C23 1.492(15) . ?
C23 C26 1.378(16) . ?
C23 C24 1.395(15) . ?
C24 C29 1.398(16) . ?
C24 H24 0.9500 . ?
C26 C27 1.405(18) . ?
C26 H26 0.9500 . ?
C27 C28 1.396(17) . ?
C27 H27 0.9500 . ?
C28 C29 1.407(16) . ?
C28 H28 0.9500 . ?
C29 C33 1.529(16) . ?
C30 H30 0.9500 . ?
C31 C32 1.358(17) . ?
C31 H31 0.9500 . ?
C32 H32 0.9500 . ?
C34 H34 0.9500 . ?
C35 C36 1.358(18) . ?
C35 H35 0.9500 . ?
C36 H36 0.9500 . ?
C38 H38 0.9500 . ?
C40 C41 1.346(17) . ?
C41 C42 1.445(19) . ?
C41 H41 0.9500 . ?
C42 H42 0.9500 . ?
 
loop_
 _geom_angle_atom_site_label_1
 _geom_angle_atom_site_label_2
 _geom_angle_atom_site_label_3
 _geom_angle
 _geom_angle_site_symmetry_1
 _geom_angle_site_symmetry_3
 _geom_angle_publ_flag
N11 Cd1 N12 163.7(4) 4_565 . ?
N11 Cd1 O5 86.5(4) 4_565 . ?
N12 Cd1 O5 85.7(4) . . ?
N11 Cd1 O6 90.4(4) 4_565 . ?
N12 Cd1 O6 83.7(3) . . ?
O5 Cd1 O6 129.9(3) . . ?
N11 Cd1 O7 98.1(4) 4_565 3_545 ?
N12 Cd1 O7 97.3(4) . 3_545 ?
O5 Cd1 O7 137.9(3) . 3_545 ?
O6 Cd1 O7 92.0(3) . 3_545 ?
N11 Cd1 O8 93.8(4) 4_565 3_545 ?
N12 Cd1 O8 99.6(4) . 3_545 ?
O5 Cd1 O8 84.0(3) . 3_545 ?
O6 Cd1 O8 146.0(3) . 3_545 ?
O7 Cd1 O8 54.0(3) 3_545 3_545 ?
N11 Cd1 C33 95.9(4) 4_565 3_545 ?
N12 Cd1 C33 100.3(3) . 3_545 ?
O5 Cd1 C33 111.1(4) . 3_545 ?
O6 Cd1 C33 119.0(3) . 3_545 ?
O7 Cd1 C33 27.0(3) 3_545 3_545 ?
O8 Cd1 C33 27.1(3) 3_545 3_545 ?
O10 Cd3 N3 83.1(4) . . ?
O10 Cd3 N2 91.4(4) . 4_464 ?
N3 Cd3 N2 174.5(4) . 4_464 ?
O10 Cd3 O2 129.0(3) . . ?
N3 Cd3 O2 96.3(4) . . ?
N2 Cd3 O2 87.0(4) 4_464 . ?
O10 Cd3 O3 93.8(3) . 3_455 ?
N3 Cd3 O3 88.3(4) . 3_455 ?
N2 Cd3 O3 92.4(4) 4_464 3_455 ?
O2 Cd3 O3 137.2(3) . 3_455 ?
O10 Cd3 O4 148.3(3) . 3_455 ?
N3 Cd3 O4 92.1(4) . 3_455 ?
N2 Cd3 O4 92.7(4) 4_464 3_455 ?
O2 Cd3 O4 82.7(3) . 3_455 ?
O3 Cd3 O4 54.6(3) 3_455 3_455 ?
O10 Cd3 C25 122.0(4) . 3_455 ?
N3 Cd3 C25 91.4(4) . 3_455 ?
N2 Cd3 C25 91.7(4) 4_464 3_455 ?
O2 Cd3 C25 109.0(3) . 3_455 ?
O3 Cd3 C25 28.2(3) 3_455 3_455 ?
O4 Cd3 C25 26.4(3) 3_455 3_455 ?
N8 S1 N7 101.2(5) . . ?
N1 S3 N5 101.1(5) . . ?
C22 O2 Cd3 173.6(9) . . ?
C25 O3 Cd3 93.9(8) . 3_545 ?
C25 O4 Cd3 89.0(7) . 3_545 ?
C16 O5 Cd1 156.9(10) . . ?
C22 O6 Cd1 109.8(7) . . ?
C33 O7 Cd1 93.1(8) . 3_455 ?
C33 O8 Cd1 89.5(7) . 3_455 ?
C16 O10 Cd3 112.3(8) . . ?
C8 N1 S3 107.9(9) . . ?
C6 N2 C5 104.9(12) . . ?
C6 N2 Cd3 123.8(9) . 4_565 ?
C5 N2 Cd3 131.0(10) . 4_565 ?
C15 N3 C13 105.2(12) . . ?
C15 N3 Cd3 127.9(10) . . ?
C13 N3 Cd3 126.2(10) . . ?
C15 N4 C14 107.0(11) . . ?
C15 N4 C10 128.6(11) . . ?
C14 N4 C10 124.4(11) . . ?
C9 N5 S3 107.3(8) . . ?
C31 N6 C34 107.0(9) . . ?
C31 N6 C3 126.0(11) . . ?
C34 N6 C3 126.8(10) . . ?
C39 N7 S1 107.4(8) . . ?
C2 N8 S1 106.8(8) . . ?
C38 N9 C36 107.0(10) . . ?
C38 N9 C40 127.8(10) . . ?
C36 N9 C40 125.1(10) . . ?
C6 N10 C30 107.5(10) . . ?
C6 N10 C7 127.3(11) . . ?
C30 N10 C7 125.2(11) . . ?
C38 N11 C35 106.2(11) . . ?
C38 N11 Cd1 127.2(9) . 4_464 ?
C35 N11 Cd1 126.6(9) . 4_464 ?
C34 N12 C32 106.4(10) . . ?
C34 N12 Cd1 125.9(8) . . ?
C32 N12 Cd1 127.7(8) . . ?
C19 C1 C18 121.3(12) . . ?
C19 C1 H1 119.3 . . ?
C18 C1 H1 119.3 . . ?
N8 C2 C40 128.0(11) . . ?
N8 C2 C39 112.4(10) . . ?
C40 C2 C39 119.6(10) . . ?
C42 C3 C39 119.6(11) . . ?
C42 C3 N6 120.5(11) . . ?
C39 C3 N6 119.9(10) . . ?
N2 C5 C30 110.2(12) . . ?
N2 C5 H5 124.9 . . ?
C30 C5 H5 124.9 . . ?
N2 C6 N10 112.3(12) . . ?
N2 C6 H6 123.8 . . ?
N10 C6 H6 123.8 . . ?
C12 C7 C8 116.2(11) . . ?
C12 C7 N10 120.8(11) . . ?
C8 C7 N10 123.0(11) . . ?
N1 C8 C7 127.1(11) . . ?
N1 C8 C9 109.6(11) . . ?
C7 C8 C9 123.2(11) . . ?
N5 C9 C10 127.8(11) . . ?
N5 C9 C8 114.1(11) . . ?
C10 C9 C8 118.1(11) . . ?
C11 C10 C9 117.0(11) . . ?
C11 C10 N4 121.8(12) . . ?
C9 C10 N4 121.0(12) . . ?
C12 C11 C10 123.3(12) . . ?
C12 C11 H11 118.4 . . ?
C10 C11 H11 118.4 . . ?
C7 C12 C11 122.3(12) . . ?
C7 C12 H12 118.9 . . ?
C11 C12 H12 118.9 . . ?
N3 C13 C14 111.2(12) . . ?
N3 C13 H13 124.4 . . ?
C14 C13 H13 124.4 . . ?
C13 C14 N4 104.0(12) . . ?
C13 C14 H14 128.0 . . ?
N4 C14 H14 128.0 . . ?
N3 C15 N4 112.6(12) . . ?
N3 C15 H15 123.7 . . ?
N4 C15 H15 123.7 . . ?
O5 C16 O10 124.2(12) . . ?
O5 C16 C17 119.2(11) . . ?
O10 C16 C17 116.6(12) . . ?
C18 C17 C21 120.2(11) . . ?
C18 C17 C16 118.6(11) . . ?
C21 C17 C16 121.2(11) . . ?
C1 C18 C17 118.4(12) . . ?
C1 C18 H18 120.8 . . ?
C17 C18 H18 120.8 . . ?
C20 C19 C1 120.7(11) . . ?
C20 C19 H19 119.7 . . ?
C1 C19 H19 119.7 . . ?
C19 C20 C21 120.7(11) . . ?
C19 C20 C25 120.3(11) . . ?
C21 C20 C25 119.0(11) . . ?
C20 C21 C17 118.7(11) . . ?
C20 C21 H21 120.7 . . ?
C17 C21 H21 120.7 . . ?
O2 C22 O6 125.2(11) . . ?
O2 C22 C23 118.0(10) . . ?
O6 C22 C23 116.7(10) . . ?
C26 C23 C24 118.6(10) . . ?
C26 C23 C22 119.2(10) . . ?
C24 C23 C22 122.2(10) . . ?
C23 C24 C29 120.6(10) . . ?
C23 C24 H24 119.7 . . ?
C29 C24 H24 119.7 . . ?
O4 C25 O3 122.4(11) . . ?
O4 C25 C20 122.3(11) . . ?
O3 C25 C20 115.4(11) . . ?
O4 C25 Cd3 64.6(7) . 3_545 ?
O3 C25 Cd3 58.0(7) . 3_545 ?
C20 C25 Cd3 171.6(9) . 3_545 ?
C23 C26 C27 123.1(11) . . ?
C23 C26 H26 118.4 . . ?
C27 C26 H26 118.4 . . ?
C28 C27 C26 117.1(11) . . ?
C28 C27 H27 121.4 . . ?
C26 C27 H27 121.4 . . ?
C27 C28 C29 121.2(11) . . ?
C27 C28 H28 119.4 . . ?
C29 C28 H28 119.4 . . ?
C24 C29 C28 119.3(11) . . ?
C24 C29 C33 122.3(10) . . ?
C28 C29 C33 118.3(10) . . ?
N10 C30 C5 105.1(12) . . ?
N10 C30 H30 127.4 . . ?
C5 C30 H30 127.4 . . ?
N6 C31 C32 107.0(12) . . ?
N6 C31 H31 126.5 . . ?
C32 C31 H31 126.5 . . ?
C31 C32 N12 109.3(11) . . ?
C31 C32 H32 125.4 . . ?
N12 C32 H32 125.4 . . ?
O7 C33 O8 123.2(12) . . ?
O7 C33 C29 117.9(11) . . ?
O8 C33 C29 118.8(11) . . ?
O7 C33 Cd1 59.9(7) . 3_455 ?
O8 C33 Cd1 63.4(6) . 3_455 ?
C29 C33 Cd1 175.4(8) . 3_455 ?
N12 C34 N6 110.3(10) . . ?
N12 C34 H34 124.8 . . ?
N6 C34 H34 124.8 . . ?
N11 C35 C36 110.6(11) . . ?
N11 C35 H35 124.7 . . ?
C36 C35 H35 124.7 . . ?
C35 C36 N9 104.3(12) . . ?
C35 C36 H36 127.9 . . ?
N9 C36 H36 127.9 . . ?
N11 C38 N9 112.0(11) . . ?
N11 C38 H38 124.0 . . ?
N9 C38 H38 124.0 . . ?
N7 C39 C3 127.7(10) . . ?
N7 C39 C2 112.3(10) . . ?
C3 C39 C2 120.0(10) . . ?
C41 C40 C2 119.1(11) . . ?
C41 C40 N9 120.1(11) . . ?
C2 C40 N9 120.7(10) . . ?
C40 C41 C42 120.7(11) . . ?
C40 C41 H41 119.7 . . ?
C42 C41 H41 119.7 . . ?
C3 C42 C41 121.0(11) . . ?
C3 C42 H42 119.5 . . ?
C41 C42 H42 119.5 . . ?
 
_refine_diff_density_max    2.315
_refine_diff_density_min   -0.746
_refine_diff_density_rms    0.164

_shelx_res_file
;
TITL pvl729_auto_a.res in Cc
    pvl729_auto_a.res
    created by SHELXL-2018/3 at 17:59:12 on 20-Sep-2021
REM Old TITL pvl729_auto in Cc
REM SHELXT solution in Cc: R1 0.122, Rweak 0.026, Alpha 0.017
REM <I/s>   0.962 for  224 systematic absences,  Orientation as input
REM Flack x =  0.242 ( 0.016 ) from  1523 Parsons' quotients
REM Formula found by SHELXT:  C41 N13 O7 S2 Cd2
CELL  0.71073  17.5960  11.2439  21.1217   90.000   91.830   90.000
ZERR    8.000   0.0007   0.0005   0.0008    0.000    0.003    0.000
LATT -7
SYMM X, -Y, 1/2+Z
SFAC C H N O S CD

UNIT 160 96 48 32 8 8
LIST 6 ! automatically inserted. Change 6 to 4 for CHECKCIF!!
ACTA
TEMP -123
L.S. 5 0   36
BOND $H
FMAP 2
PLAN 20

TWIN -1 0 0 0 -1 0 0 0 -1 2
WGHT    0.041200    0.609400
BASF   0.24694
FVAR       0.11744
CD1   6    0.600483    0.720450    0.432861    11.00000    0.01357    0.03948 =
         0.02289    0.00135   -0.00124    0.00879
CD3   6    0.428146    0.763827    0.549206    11.00000    0.01785    0.04822 =
         0.02622    0.00882   -0.00055    0.01245
S1    5    0.302356    0.881661    0.224620    11.00000    0.05278    0.03654 =
         0.05828   -0.01254   -0.02100    0.01476
S3    5    0.642646    0.623139    0.826317    11.00000    0.03960    0.03810 =
         0.05716    0.01295   -0.01843   -0.01479
O2    4    0.460077    0.861429    0.459270    11.00000    0.03763    0.05908 =
         0.03431    0.02354    0.00634    0.02055
O3    4    0.830064    0.271156    0.621684    11.00000    0.03013    0.03612 =
         0.05168    0.01070    0.01398    0.01545
O4    4    0.821799    0.410372    0.547199    11.00000    0.01840    0.08343 =
         0.03334    0.01978    0.00340    0.01719
O5    4    0.560045    0.605214    0.515181    11.00000    0.02719    0.07474 =
         0.03794    0.02887   -0.00338    0.00890
O6    4    0.543072    0.881235    0.383644    11.00000    0.02058    0.03435 =
         0.03887    0.00420    0.00428    0.01241
O7    4    0.200910    1.222086    0.362259    11.00000    0.02169    0.03636 =
         0.05255    0.01122    0.00227    0.01723
O8    4    0.207827    1.085280    0.434516    11.00000    0.03387    0.07446 =
         0.05651    0.03466    0.02692    0.03132
O10   4    0.489268    0.612725    0.599751    11.00000    0.02662    0.06869 =
         0.03317    0.00426   -0.00046    0.02533
N1    3    0.698450    0.706875    0.864033    11.00000    0.02435    0.04532 =
         0.05683    0.00722   -0.00868   -0.00849
N2    3    0.862700    0.865678    0.985242    11.00000    0.04293    0.04037 =
         0.03362   -0.00692   -0.00069   -0.01106
N3    3    0.499014    0.877130    0.616964    11.00000    0.02774    0.04945 =
         0.03759    0.00120    0.00372    0.00322
N4    3    0.575061    0.928074    0.697270    11.00000    0.02058    0.03656 =
         0.03060    0.00673    0.00680    0.00249
N5    3    0.610079    0.712066    0.772112    11.00000    0.02995    0.03980 =
         0.04718    0.00466   -0.00535   -0.00754
N6    3    0.434361    0.564296    0.295338    11.00000    0.01792    0.03625 =
         0.02535    0.00381   -0.00175    0.00479
N7    3    0.358128    0.787024    0.258682    11.00000    0.03538    0.04567 =
         0.03685   -0.01360   -0.00885    0.00744
N8    3    0.262972    0.801823    0.170530    11.00000    0.03068    0.04196 =
         0.03987   -0.00377   -0.00808    0.01045
N9    3    0.221268    0.594935    0.088217    11.00000    0.03086    0.04177 =
         0.02393   -0.00312   -0.00251   -0.00026
N10   3    0.784026    0.924574    0.908828    11.00000    0.02478    0.04016 =
         0.03181   -0.00378    0.00008   -0.00501
N11   3    0.152907    0.658764    0.007701    11.00000    0.02122    0.03882 =
         0.03795    0.00287   -0.00655   -0.00640
N12   3    0.517429    0.614337    0.371572    11.00000    0.01651    0.03587 =
         0.02779    0.00344    0.00069    0.00797
C1    1    0.633990    0.389439    0.701786    11.00000    0.02652    0.06257 =
         0.03223    0.01537    0.00231    0.01126
AFIX  43
H1    2    0.621935    0.362973    0.742983    11.00000   -1.20000
AFIX   0
C2    1    0.293275    0.689533    0.176899    11.00000    0.03483    0.03489 =
         0.02422   -0.00281    0.00478    0.00711
C3    1    0.384222    0.574192    0.241554    11.00000    0.01767    0.03662 =
         0.02038   -0.00206    0.00246   -0.00161
C5    1    0.850826    0.983023    0.990657    11.00000    0.03568    0.06105 =
         0.03660   -0.00997    0.01069   -0.02097
AFIX  43
H5    2    0.873569    1.032444    1.022442    11.00000   -1.20000
AFIX   0
C6    1    0.821566    0.833425    0.935496    11.00000    0.03156    0.03781 =
         0.04652   -0.00769   -0.00530   -0.00235
AFIX  43
H6    2    0.818740    0.754110    0.920102    11.00000   -1.20000
AFIX   0
C7    1    0.734427    0.921390    0.855073    11.00000    0.02358    0.04116 =
         0.02306   -0.00887    0.00452   -0.00745
C8    1    0.695107    0.818657    0.835625    11.00000    0.02940    0.03542 =
         0.02943    0.01102    0.00180    0.00443
C9    1    0.641511    0.816301    0.782495    11.00000    0.02182    0.03333 =
         0.03245    0.00093    0.00155    0.00259
C10   1    0.629951    0.922243    0.747574    11.00000    0.01469    0.04891 =
         0.02915    0.00927    0.01148    0.00496
C11   1    0.669266    1.022408    0.768812    11.00000    0.03777    0.03103 =
         0.04271   -0.00278    0.01014    0.00053
AFIX  43
H11   2    0.661033    1.095249    0.746858    11.00000   -1.20000
AFIX   0
C12   1    0.719919    1.021443    0.820433    11.00000    0.04096    0.02389 =
         0.02958   -0.00609    0.00173   -0.00752
AFIX  43
H12   2    0.745392    1.093060    0.832048    11.00000   -1.20000
AFIX   0
C13   1    0.485678    0.992605    0.632017    11.00000    0.04153    0.05698 =
         0.03835    0.01731    0.00129    0.01479
AFIX  43
H13   2    0.449607    1.042121    0.610416    11.00000   -1.20000
AFIX   0
C14   1    0.531095    1.028327    0.682465    11.00000    0.03922    0.05308 =
         0.04788    0.01443    0.01033    0.02087
AFIX  43
H14   2    0.532362    1.103814    0.702674    11.00000   -1.20000
AFIX   0
C15   1    0.553358    0.842536    0.656600    11.00000    0.02282    0.04080 =
         0.03618    0.00354    0.00337    0.00429
AFIX  43
H15   2    0.574991    0.765129    0.656468    11.00000   -1.20000
AFIX   0
C16   1    0.546874    0.579315    0.571328    11.00000    0.01939    0.02686 =
         0.04253   -0.00022   -0.00216    0.00326
C17   1    0.602805    0.501337    0.608364    11.00000    0.01858    0.02861 =
         0.02579    0.00107   -0.00914   -0.00238
C18   1    0.583847    0.463194    0.668990    11.00000    0.02277    0.04183 =
         0.02638    0.00760    0.00183    0.00981
AFIX  43
H18   2    0.537617    0.487474    0.687104    11.00000   -1.20000
AFIX   0
C19   1    0.701099    0.353476    0.675997    11.00000    0.01611    0.03653 =
         0.03383    0.01059   -0.01095    0.00901
AFIX  43
H19   2    0.733748    0.300451    0.698938    11.00000   -1.20000
AFIX   0
C20   1    0.720919    0.392664    0.618631    11.00000    0.00859    0.03393 =
         0.03169   -0.00476   -0.00065    0.00645
C21   1    0.672191    0.466854    0.582758    11.00000    0.01752    0.02381 =
         0.02814    0.00017    0.00034    0.00132
AFIX  43
H21   2    0.685785    0.493325    0.541934    11.00000   -1.20000
AFIX   0
C22   1    0.480791    0.903730    0.409169    11.00000    0.01707    0.03459 =
         0.01925   -0.00018   -0.00778    0.00523
C23   1    0.429933    0.991754    0.376177    11.00000    0.01763    0.02128 =
         0.02203   -0.00340    0.00338    0.00906
C24   1    0.357037    1.016780    0.396643    11.00000    0.01913    0.02715 =
         0.01220   -0.00305   -0.00398    0.00009
AFIX  43
H24   2    0.337844    0.975002    0.431811    11.00000   -1.20000
AFIX   0
C25   1    0.795255    0.359494    0.592964    11.00000    0.01254    0.03302 =
         0.03260   -0.00161   -0.00423    0.00420
C26   1    0.455426    1.050443    0.323677    11.00000    0.01694    0.04019 =
         0.04171   -0.00230    0.01250    0.00402
AFIX  43
H26   2    0.504982    1.032937    0.309716    11.00000   -1.20000
AFIX   0
C27   1    0.411618    1.134943    0.289812    11.00000    0.01938    0.05155 =
         0.04017    0.01700    0.01289    0.00589
AFIX  43
H27   2    0.429541    1.171279    0.252525    11.00000   -1.20000
AFIX   0
C28   1    0.340617    1.163197    0.313324    11.00000    0.01972    0.03393 =
         0.02878   -0.00088   -0.00053    0.00515
AFIX  43
H28   2    0.311087    1.224269    0.293526    11.00000   -1.20000
AFIX   0
C29   1    0.312000    1.102829    0.365828    11.00000    0.01885    0.02156 =
         0.02323   -0.00067   -0.00386   -0.00128
C30   1    0.800670    1.021657    0.943258    11.00000    0.04149    0.03992 =
         0.03682   -0.00297    0.01220   -0.00200
AFIX  43
H30   2    0.782056    1.100117    0.936579    11.00000   -1.20000
AFIX   0
C31   1    0.439463    0.470214    0.335459    11.00000    0.03891    0.03988 =
         0.03260    0.00590   -0.00274   -0.00385
AFIX  43
H31   2    0.412512    0.397250    0.331467    11.00000   -1.20000
AFIX   0
C32   1    0.490409    0.500159    0.382403    11.00000    0.03210    0.05818 =
         0.02972    0.00761   -0.00828    0.00343
AFIX  43
H32   2    0.505257    0.450870    0.417173    11.00000   -1.20000
AFIX   0
C33   1    0.233983    1.138938    0.389203    11.00000    0.01687    0.03225 =
         0.02602   -0.00717    0.00079    0.00313
C34   1    0.482599    0.651806    0.319772    11.00000    0.02234    0.03471 =
         0.02050    0.00261    0.00002    0.00447
AFIX  43
H34   2    0.489331    0.728086    0.301440    11.00000   -1.20000
AFIX   0
C35   1    0.135844    0.543751    0.017407    11.00000    0.02634    0.06979 =
         0.04427    0.01285   -0.01227   -0.02505
AFIX  43
H35   2    0.099087    0.499815   -0.006791    11.00000   -1.20000
AFIX   0
C36   1    0.178462    0.499150    0.066609    11.00000    0.02625    0.04744 =
         0.03974   -0.00183   -0.00274   -0.01291
AFIX  43
H36   2    0.178803    0.420147    0.082559    11.00000   -1.20000
AFIX   0
C38   1    0.203501    0.686647    0.050725    11.00000    0.01880    0.03495 =
         0.02491   -0.00128   -0.00066   -0.00252
AFIX  43
H38   2    0.225466    0.763503    0.055126    11.00000   -1.20000
AFIX   0
C39   1    0.348352    0.681755    0.228091    11.00000    0.02649    0.03465 =
         0.02499   -0.00329   -0.00341    0.00177
C40   1    0.278356    0.590390    0.139365    11.00000    0.02189    0.03956 =
         0.02132    0.00232    0.00032   -0.00022
C41   1    0.315344    0.488089    0.152540    11.00000    0.02780    0.03528 =
         0.02735    0.00270    0.00196    0.00742
AFIX  43
H41   2    0.305525    0.419857    0.127044    11.00000   -1.20000
AFIX   0
C42   1    0.369826    0.481004    0.205064    11.00000    0.02164    0.03568 =
         0.02968    0.00230   -0.00484    0.00619
AFIX  43
H42   2    0.395665    0.408235    0.213463    11.00000   -1.20000
AFIX   0
HKLF 4




REM  pvl729_auto_a.res in Cc
REM wR2 = 0.1469, GooF = S = 2.340, Restrained GooF = 2.339 for all data
REM R1 = 0.0473 for 5946 Fo > 4sig(Fo) and 0.0490 for all 6159 data
REM 578 parameters refined using 2 restraints

END

WGHT      0.0974     21.4608

REM Highest difference peak  2.315,  deepest hole -0.746,  1-sigma level  0.164
Q1    1   0.3697  1.1774  0.5501  11.00000  0.05    2.31
Q2    1   0.4329  1.1997  0.5114  11.00000  0.05    1.90
Q3    1   0.4589  1.2678  0.6343  11.00000  0.05    1.72
Q4    1   0.4818  1.2637  0.5394  11.00000  0.05    1.65
Q5    1   0.6616  0.6748  0.9338  11.00000  0.05    1.61
Q6    1   0.4980  1.2620  0.5867  11.00000  0.05    1.60
Q7    1   0.5090  0.2251  0.4704  11.00000  0.05    1.55
Q8    1   0.4668  1.2370  0.5305  11.00000  0.05    1.51
Q9    1   0.5471  0.2337  0.4424  11.00000  0.05    1.47
Q10   1   0.5847  0.2616  0.4772  11.00000  0.05    1.38
Q11   1   0.5707  0.7733  0.8505  11.00000  0.05    1.33
Q12   1   0.5337  0.2320  0.4005  11.00000  0.05    1.02
Q13   1   0.4228  0.8414  0.5679  11.00000  0.05    0.65
Q14   1   0.5993  0.6369  0.4475  11.00000  0.05    0.61
Q15   1   0.6105  0.6399  0.4221  11.00000  0.05    0.61
Q16   1   0.8987  1.2529  0.9654  11.00000  0.05    0.58
Q17   1   0.3284  0.6706  0.3211  11.00000  0.05    0.57
Q18   1   0.4198  0.6832  0.5690  11.00000  0.05    0.54
Q19   1   0.6104  0.7915  0.4139  11.00000  0.05    0.53
Q20   1   0.2001  1.1892  0.3523  11.00000  0.05    0.49
;
_shelx_res_checksum   95195

_shelx_hkl_file
;
 -22   0   5   -0.03    1.27
 -22   0   6    6.89    1.81
 -22   0   7    1.65    1.38
 -22   0   8   58.56    4.12
 -22   0   9    2.60    1.44
 -22   0  10  121.69    6.05
 -22   0  11    2.91    1.70
 -22   0  12   56.09    4.01
 -22  -2   4   53.45    4.02
 -22  -2   5    7.29    1.90
 -22  -2   6   10.36    2.10
 -22  -2   7   26.65    2.90
 -22  -2   8   55.29    4.00
 -22  -2   9    0.14    1.18
 -22  -2  10   76.79    4.66
 -22  -2  11    3.19    1.60
 -22  -4   8   12.81    2.24
 -22  -4   9   11.88    2.16
 -21   1  -4    5.37    1.75
 -21  -1  -4    7.98    2.20
 -21   1  -3   71.00    4.61
 -21  -1  -3   73.55    4.76
 -21   1  -2    2.66    1.48
 -21  -1  -2    2.10    1.45
 -21  -1  -1   11.34    2.33
 -21   1  -1   12.26    2.34
 -21  -1   0    8.36    1.85
 -21   1   0    4.44    1.61
 -21   1   1   75.47    4.66
 -21  -1   1   73.29    4.59
 -21   1   2    7.24    1.91
 -21  -1   2    3.29    1.52
 -21   1   3  163.10    6.84
 -21  -1   3  160.19    6.83
 -21   1   4    0.58    1.31
 -21  -1   4    0.15    1.33
 -21  -1   5  150.39    6.51
 -21   1   5  145.83    6.45
 -21  -1   6    1.05    1.34
 -21   1   6   -1.31    1.32
 -21  -1   7    1.71    1.27
 -21   1   7    1.95    1.24
 -21  -1   8    2.27    1.37
 -21   1   8    6.33    1.75
 -21   1   9   38.78    3.38
 -21  -1   9   39.37    3.25
 -21  -1  10   -0.20    1.25
 -21   1  10    0.80    1.33
 -21  -1  11  116.67    5.52
 -21   1  11  116.40    5.68
 -21   1  12    0.59    1.36
 -21  -1  12    2.25    1.35
 -21  -1  13   56.38    3.82
 -21   1  13   59.07    3.99
 -21   1  14    4.54    1.57
 -21  -3  -2   44.21    3.76
 -21  -3  -1    8.17    2.17
 -21   3   0   15.47    2.49
 -21  -3   0   11.87    2.22
 -21   3   1  104.38    5.59
 -21  -3   1  110.39    5.74
 -21  -3   2   19.98    2.67
 -21   3   2   17.26    2.47
 -21  -3   3  132.06    6.21
 -21   3   3  136.39    6.39
 -21   3   4    1.82    1.49
 -21  -3   4    3.70    1.57
 -21  -3   5   34.51    3.27
 -21   3   5   30.48    3.17
 -21  -3   6   20.72    2.51
 -21   3   6   23.34    2.82
 -21  -3   7   12.07    2.10
 -21   3   7   14.40    2.33
 -21  -3   8   25.65    2.77
 -21   3   8   23.70    2.78
 -21   3   9   15.17    2.32
 -21  -3   9   17.30    2.36
 -21  -3  10   22.24    2.56
 -21  -3  11   63.96    4.05
 -21  -5   3   31.20    3.22
 -21  -5   4   13.30    2.22
 -21  -5   5    4.81    1.71
 -21  -5   6   35.47    3.34
 -21  -5   7    4.85    1.63
 -21  -5   8   19.95    2.59
 -21  -5   9    6.83    1.68
 -21  -5  10   24.39    2.70
 -20   0  -9   -0.74    1.38
 -20   0  -8    3.52    1.77
 -20   0  -7   -0.70    1.22
 -20   0  -6   96.18    5.39
 -20   0  -5    1.07    1.32
 -20   0  -4  112.45    5.71
 -20   0  -3    1.41    1.35
 -20   0  -2  106.11    5.47
 -20   0  -1   -0.06    1.23
 -20   0   0   35.15    3.30
 -20   0   1    2.31    1.56
 -20   0   2  137.47    6.08
 -20   0   3    1.63    1.39
 -20   0   4  238.55    8.10
 -20   0   5    1.85    1.41
 -20   0   6  128.27    5.79
 -20   0   7   -0.15    1.18
 -20   0   8   28.74    2.81
 -20   0   9    2.68    1.38
 -20   0  10   26.78    2.74
 -20   0  11    0.26    1.10
 -20   0  12  160.31    6.30
 -20   0  13    1.73    1.31
 -20   0  14   97.65    4.85
 -20   2  -8    7.22    1.92
 -20  -2  -7   34.48    3.35
 -20   2  -7   33.03    3.45
 -20   2  -6   50.00    3.91
 -20  -2  -6   47.82    3.80
 -20  -2  -5   19.33    2.63
 -20   2  -5   21.12    2.86
 -20  -2  -4  130.68    6.14
 -20   2  -4  130.30    6.13
 -20  -2  -3   12.36    2.24
 -20   2  -3   11.69    2.13
 -20   2  -2   80.96    4.81
 -20  -2  -2   81.75    4.87
 -20  -2  -1   12.11    2.14
 -20   2  -1    9.49    2.00
 -20   2   0   23.85    2.72
 -20  -2   0   23.57    2.74
 -20  -2   1   15.78    2.29
 -20   2   1   17.34    2.34
 -20  -2   2   48.58    3.76
 -20   2   2   49.58    3.77
 -20  -2   3    3.10    1.47
 -20   2   3    1.50    1.18
 -20  -2   4  141.00    6.17
 -20   2   4  152.67    6.44
 -20   2   5    7.88    1.87
 -20  -2   5    5.49    1.68
 -20   2   6   70.38    4.44
 -20  -2   6   66.69    4.21
 -20  -2   7   13.25    2.05
 -20   2   7   14.15    2.17
 -20   2   8   15.55    2.28
 -20  -2   8   17.13    2.23
 -20  -2   9    7.37    1.66
 -20   2   9    7.97    1.76
 -20  -2  10    4.67    1.51
 -20   2  10    3.11    1.44
 -20   2  11   13.65    2.12
 -20  -2  11   17.30    2.28
 -20  -2  12   95.33    4.74
 -20   2  12   92.01    4.91
 -20  -2  13    3.31    1.38
 -20   2  13    5.49    1.55
 -20   2  14   99.84    5.07
 -20   2  15    5.17    1.58
 -20  -4  -5   30.06    3.23
 -20   4  -5   30.36    3.20
 -20   4  -4  134.14    6.34
 -20  -4  -4  139.31    6.62
 -20   4  -3    8.36    2.02
 -20  -4  -3    9.26    1.96
 -20  -4  -2  149.04    6.66
 -20   4  -2  145.98    6.69
 -20   4  -1   13.80    2.35
 -20  -4  -1   14.70    2.26
 -20   4   0    0.35    1.28
 -20  -4   0    1.02    1.23
 -20   4   1   32.12    3.14
 -20  -4   1   29.35    3.00
 -20   4   2   34.74    3.31
 -20  -4   2   35.01    3.18
 -20  -4   3   50.27    3.72
 -20   4   3   53.55    3.96
 -20   4   4   84.33    4.95
 -20  -4   4   80.09    4.70
 -20   4   5    7.82    1.97
 -20  -4   5    2.56    1.48
 -20  -4   6   60.02    4.02
 -20   4   6   68.00    4.43
 -20  -4   7    6.55    1.76
 -20   4   7    3.78    1.48
 -20  -4   8   -0.64    1.22
 -20   4   8    1.60    1.45
 -20   4   9   35.17    3.24
 -20  -4   9   35.89    3.06
 -20  -4  10   16.84    2.22
 -20   4  10   13.17    2.23
 -20   4  11   29.72    3.05
 -20  -4  11   26.32    2.60
 -20   4  12   24.96    2.76
 -20   4  13    4.64    1.56
 -20  -6   0   18.81    2.71
 -20  -6   1  161.33    7.01
 -20  -6   2   63.21    4.37
 -20  -6   3   20.76    2.67
 -20  -6   4   22.11    2.70
 -20  -6   5    5.83    1.76
 -20  -6   6   32.45    3.21
 -20  -6   7    8.71    1.95
 -20  -6   8    8.33    1.83
 -20  -6   9   41.50    3.40
 -20  -6  10    4.52    1.60
 -19   1 -13   81.76    5.07
 -19   1 -12    1.20    1.43
 -19  -1 -12    0.18    1.28
 -19   1 -11  189.65    7.71
 -19  -1 -11  197.20    7.70
 -19   1 -10    1.08    1.24
 -19  -1 -10    0.04    1.20
 -19  -1  -9   62.13    4.30
 -19   1  -9   56.78    4.17
 -19  -1  -8   21.81    2.78
 -19   1  -8   22.43    2.71
 -19  -1  -7   11.75    2.13
 -19   1  -7   13.41    2.30
 -19   1  -6   29.93    3.02
 -19  -1  -6   31.01    3.05
 -19  -1  -5   38.33    3.34
 -19   1  -5   41.62    3.50
 -19   1  -4    1.99    1.43
 -19  -1  -4    2.29    1.57
 -19  -1  -3  167.79    6.78
 -19   1  -3  164.57    6.71
 -19  -1  -2    7.19    1.86
 -19   1  -2    9.13    1.95
 -19  -1  -1  184.86    7.07
 -19   1  -1  191.69    7.18
 -19  -1   0   28.66    2.91
 -19   1   0   28.82    2.86
 -19  -1   1   38.20    3.25
 -19   1   1   42.75    3.39
 -19  -1   2   39.71    3.22
 -19   1   2   44.00    3.40
 -19  -1   3   18.08    2.33
 -19   1   3   19.05    2.30
 -19  -1   4    4.83    1.53
 -19   1   4    2.31    1.36
 -19  -1   5  211.98    7.29
 -19   1   5  200.79    7.19
 -19   1   6    0.20    1.19
 -19  -1   6    1.85    1.23
 -19  -1   7  179.62    6.61
 -19   1   7  169.66    6.50
 -19  -1   8    5.87    1.60
 -19   1   8   10.35    1.95
 -19   1   9   61.94    3.95
 -19  -1   9   57.08    3.66
 -19   1  10    9.20    1.78
 -19  -1  10    9.78    1.70
 -19   1  11    4.58    1.37
 -19  -1  11    2.56    1.28
 -19   1  12   26.36    2.59
 -19  -1  12   24.77    2.49
 -19  -1  13   98.07    4.68
 -19   1  13   92.89    4.67
 -19   1  14    1.81    1.23
 -19  -1  14    2.39    1.25
 -19   1  15  152.20    5.95
 -19   3 -12   17.96    2.64
 -19   3 -11   86.48    5.12
 -19  -3 -10    5.90    1.98
 -19   3 -10    3.45    1.49
 -19  -3  -9  113.14    5.92
 -19   3  -9  110.10    5.65
 -19  -3  -8   66.70    4.57
 -19   3  -8   67.14    4.43
 -19   3  -7    7.03    1.82
 -19  -3  -7    8.61    1.87
 -19   3  -6   38.37    3.45
 -19  -3  -6   37.70    3.48
 -19   3  -5   71.00    4.47
 -19  -3  -5   66.41    4.45
 -19  -3  -4   21.23    2.63
 -19   3  -4   25.82    2.84
 -19   3  -3  146.63    6.38
 -19  -3  -3  150.20    6.45
 -19   3  -2    6.23    1.85
 -19  -3  -2    6.98    1.77
 -19   3  -1   88.81    4.93
 -19  -3  -1   88.53    4.85
 -19   3   0    2.21    1.44
 -19  -3   0    3.02    1.48
 -19   3   1   23.86    2.63
 -19  -3   1   22.89    2.60
 -19   3   2    6.83    1.70
 -19  -3   2    5.40    1.53
 -19  -3   3   38.63    3.23
 -19   3   3   40.62    3.35
 -19  -3   4   55.74    3.77
 -19   3   4   47.48    3.59
 -19  -3   5   71.11    4.29
 -19   3   5   69.24    4.28
 -19   3   6    9.73    1.89
 -19  -3   6    8.79    1.77
 -19   3   7   66.16    4.17
 -19  -3   7   65.35    4.01
 -19   3   8    2.16    1.36
 -19  -3   8    2.98    1.23
 -19  -3   9   22.55    2.42
 -19   3   9   31.39    2.91
 -19   3  10   24.28    2.59
 -19  -3  10   22.11    2.37
 -19  -3  11    1.74    1.15
 -19   3  11   -0.01    1.11
 -19  -3  12   32.41    2.73
 -19   3  12   25.00    2.64
 -19   3  13   30.15    2.88
 -19  -3  13   33.01    2.72
 -19   3  14   10.89    1.96
 -19   3  15   58.63    3.88
 -19   3  16   -0.30    1.20
 -19   5  -9   40.13    3.62
 -19   5  -8    2.50    1.46
 -19   5  -7   -0.10    1.29
 -19   5  -6   35.03    3.39
 -19  -5  -6   36.46    3.41
 -19   5  -5   34.32    3.29
 -19  -5  -5   35.07    3.43
 -19   5  -4   66.90    4.47
 -19  -5  -4   64.25    4.46
 -19  -5  -3  113.42    5.80
 -19   5  -3  114.07    5.75
 -19   5  -2   35.73    3.29
 -19  -5  -2   30.68    3.18
 -19  -5  -1  120.38    5.85
 -19   5  -1  118.65    5.81
 -19  -5   0   20.05    2.63
 -19   5   0   22.48    2.73
 -19   5   1    9.94    2.01
 -19  -5   1   10.90    2.08
 -19  -5   2   77.11    4.61
 -19   5   2   78.67    4.75
 -19  -5   3   44.31    3.51
 -19   5   3   50.02    3.80
 -19   5   4   64.34    4.27
 -19  -5   4   61.89    4.03
 -19   5   5   99.85    5.31
 -19  -5   5  102.30    5.10
 -19  -5   6    9.76    1.86
 -19   5   6   12.61    2.15
 -19  -5   7   47.52    3.45
 -19   5   7   41.63    3.55
 -19   5   8   20.74    2.64
 -19  -5   8   20.51    2.37
 -19   5   9   27.68    2.92
 -19  -5   9   26.74    2.64
 -19  -5  10   10.05    1.83
 -19   5  10    7.63    1.75
 -19  -5  11    4.35    1.38
 -19   5  11    4.72    1.50
 -19   5  12   35.93    3.28
 -19   5  13   26.22    2.87
 -19  -7   2   77.93    4.79
 -19  -7   3   46.98    3.74
 -19  -7   4   66.11    4.35
 -19  -7   5   16.86    2.43
 -19  -7   6    4.28    1.63
 -19  -7   7   22.00    2.60
 -19  -7   8   16.91    2.38
 -19  -7   9    3.51    1.46
 -18   0 -16   78.88    4.90
 -18   0 -15    1.62    1.39
 -18   0 -14    2.04    1.55
 -18   0 -13   -0.64    1.25
 -18   0 -12   80.75    4.89
 -18   0 -11    4.38    1.67
 -18   0 -10  229.48    8.12
 -18   0  -9    0.88    1.24
 -18   0  -8  257.92    8.54
 -18   0  -7   -0.04    1.25
 -18   0  -6   16.94    2.28
 -18   0  -5    0.92    1.21
 -18   0  -4    9.29    1.91
 -18   0  -3   -0.70    1.26
 -18   0  -2  139.35    5.90
 -18   0  -1   -0.12    1.06
 -18   0   0  374.95    9.97
 -18   0   1    2.16    1.26
 -18   0   2  196.52    6.89
 -18   0   3    1.45    1.25
 -18   0   4   31.40    2.80
 -18   0   5   -0.37    1.11
 -18   0   6  278.61    8.14
 -18   0   7    3.32    1.35
 -18   0   8  191.79    6.62
 -18   0   9    1.57    1.09
 -18   0  10   61.93    3.68
 -18   0  11    0.33    1.01
 -18   0  12    5.78    1.49
 -18   0  13    3.63    1.31
 -18   0  14   57.18    3.51
 -18   0  15    1.69    1.14
 -18   2 -16   56.46    4.18
 -18   2 -15    2.04    1.31
 -18  -2 -14    3.07    1.48
 -18   2 -14    4.96    1.73
 -18   2 -13   22.58    2.73
 -18  -2 -13   25.72    3.08
 -18   2 -12   37.18    3.45
 -18  -2 -12   42.96    3.68
 -18  -2 -11   65.71    4.45
 -18   2 -11   64.34    4.33
 -18   2 -10  182.35    7.18
 -18  -2 -10  190.30    7.42
 -18   2  -9   28.84    3.02
 -18  -2  -9   22.92    2.66
 -18  -2  -8  172.53    7.00
 -18   2  -8  181.77    7.06
 -18   2  -7   56.78    3.94
 -18  -2  -7   60.28    4.18
 -18  -2  -6   16.18    2.34
 -18   2  -6   14.21    2.23
 -18   2  -5   32.02    2.99
 -18  -2  -5   32.70    3.03
 -18   2  -4  124.00    5.68
 -18  -2  -4  126.81    5.73
 -18   2  -3   10.57    2.00
 -18  -2  -3    9.20    1.85
 -18   2  -2  185.36    6.88
 -18  -2  -2  197.19    7.04
 -18  -2  -1    9.68    1.88
 -18   2  -1   11.97    2.04
 -18   2   0  186.04    6.79
 -18  -2   0  178.23    6.56
 -18   2   1    5.19    1.48
 -18  -2   1    4.70    1.43
 -18   2   2  107.82    5.10
 -18  -2   2  101.57    4.93
 -18  -2   3   20.97    2.37
 -18   2   3   16.17    2.18
 -18   2   4   33.51    2.88
 -18  -2   4   39.25    3.10
 -18   2   5   64.84    3.96
 -18  -2   5   64.86    3.94
 -18   2   6  122.76    5.38
 -18  -2   6  120.81    5.25
 -18   2   7   21.00    2.39
 -18  -2   7   19.85    2.30
 -18  -2   8  149.66    5.76
 -18   2   8  142.93    5.81
 -18  -2   9    8.23    1.63
 -18   2   9    8.62    1.74
 -18   2  10   58.22    3.71
 -18  -2  10   57.42    3.50
 -18   2  11   10.19    1.85
 -18  -2  11    8.22    1.55
 -18   2  12    4.37    1.37
 -18  -2  12    6.39    1.48
 -18   2  13   33.84    2.88
 -18  -2  13   36.60    2.77
 -18   2  14   67.47    3.96
 -18  -2  14   77.57    3.90
 -18   2  15   16.45    2.13
 -18   2  16   95.61    4.67
 -18   4 -15    3.96    1.68
 -18   4 -14    7.20    1.89
 -18   4 -13   35.83    3.30
 -18   4 -12   63.16    4.24
 -18   4 -11   29.55    2.97
 -18  -4 -11   31.05    3.36
 -18  -4 -10  114.65    5.92
 -18   4 -10  109.68    5.68
 -18  -4  -9    8.09    2.05
 -18   4  -9    6.22    1.58
 -18   4  -8    9.33    1.86
 -18  -4  -8    5.13    1.58
 -18  -4  -7   16.45    2.44
 -18   4  -7   19.29    2.47
 -18  -4  -6   10.84    2.13
 -18   4  -6   12.67    2.25
 -18   4  -5   72.31    4.41
 -18  -4  -5   74.95    4.57
 -18   4  -4    8.34    1.94
 -18  -4  -4    8.83    1.99
 -18  -4  -3   65.37    4.24
 -18   4  -3   59.30    3.97
 -18  -4  -2  138.12    6.07
 -18   4  -2  128.79    5.90
 -18  -4  -1   14.45    2.27
 -18   4  -1   17.70    2.39
 -18  -4   0  144.60    6.20
 -18   4   0  150.59    6.38
 -18  -4   1   34.53    3.00
 -18   4   1   32.04    2.97
 -18   4   2    6.48    1.65
 -18  -4   2    6.58    1.63
 -18   4   3   66.35    4.16
 -18  -4   3   68.88    4.07
 -18  -4   4    6.47    1.63
 -18   4   4    4.98    1.54
 -18   4   5   22.66    2.51
 -18  -4   5   25.14    2.52
 -18   4   6   85.65    4.67
 -18  -4   6   87.11    4.48
 -18   4   7   12.38    2.21
 -18  -4   7    8.36    1.62
 -18   4   8  118.85    5.51
 -18  -4   8  109.36    4.99
 -18  -4   9   13.54    1.96
 -18   4   9   12.49    2.05
 -18   4  10   30.96    2.87
 -18  -4  10   28.41    2.56
 -18   4  11   25.32    2.67
 -18  -4  11   33.17    2.76
 -18  -4  12   14.29    1.87
 -18   4  12    7.66    1.72
 -18   4  13   22.59    2.49
 -18  -4  13   25.65    2.33
 -18   4  14   24.70    2.60
 -18   4  15    5.70    1.61
 -18   6 -11   10.92    2.05
 -18   6 -10   34.31    3.29
 -18   6  -9   21.87    2.67
 -18   6  -8   52.06    3.93
 -18   6  -7   20.83    2.78
 -18   6  -6    3.15    1.55
 -18   6  -5   72.53    4.55
 -18   6  -4   25.26    2.84
 -18   6  -3   60.41    4.15
 -18   6  -2   55.39    4.00
 -18   6  -1    9.65    2.04
 -18   6   0   43.00    3.56
 -18   6   1   31.30    3.19
 -18  -6   2   23.35    2.72
 -18   6   2   22.92    2.71
 -18   6   3  115.97    5.64
 -18  -6   3  118.27    5.56
 -18  -6   4   19.46    2.39
 -18   6   4   17.13    2.40
 -18  -6   5   57.65    3.90
 -18   6   5   61.12    4.15
 -18  -6   6   81.61    4.51
 -18   6   6   89.12    4.98
 -18   6   7   10.61    1.98
 -18  -6   7   13.35    1.99
 -18   6   8   47.70    3.77
 -18  -6   8   49.26    3.45
 -18  -6   9    7.09    1.63
 -18   6   9    4.48    1.51
 -18  -6  10   10.89    1.80
 -18   6  10    9.12    1.96
 -18  -6  11   38.99    2.99
 -18   6  11   34.01    3.20
 -18  -8   6   21.89    2.54
 -18  -8   7    3.39    1.42
 -18  -8   8   -1.32    1.27
 -18  -8   9   10.83    1.94
 -17   1 -19   53.67    4.03
 -17   1 -18    5.73    1.77
 -17  -1 -18    7.18    1.95
 -17  -1 -17   84.64    4.99
 -17   1 -17   84.78    4.94
 -17  -1 -16    6.05    1.74
 -17   1 -16    4.86    1.55
 -17  -1 -15   68.17    4.43
 -17   1 -15   73.45    4.47
 -17   1 -14    3.02    1.39
 -17  -1 -14    4.50    1.65
 -17   1 -13   29.78    2.92
 -17  -1 -13   28.77    2.96
 -17   1 -12    8.87    1.88
 -17  -1 -12    7.47    1.82
 -17  -1 -11   17.93    2.41
 -17   1 -11   20.94    2.57
 -17  -1 -10   26.32    2.78
 -17   1 -10   26.79    2.86
 -17  -1  -9  292.47    8.96
 -17   1  -9  291.00    8.94
 -17  -1  -8   14.59    2.21
 -17   1  -8   16.92    2.37
 -17  -1  -7  152.33    6.23
 -17   1  -7  145.50    6.07
 -17  -1  -6   53.20    3.65
 -17   1  -6   53.71    3.70
 -17  -1  -5   49.61    3.57
 -17   1  -5   53.00    3.63
 -17  -1  -4   11.39    3.88
 -17   1  -4    3.18    1.39
 -17   1  -3   20.49    2.34
 -17  -1  -3   20.29    2.36
 -17   1  -2    2.67    1.39
 -17  -1  -2    2.50    1.26
 -17   1  -1  218.65    7.22
 -17  -1  -1  226.04    7.28
 -17  -1   0    2.58    1.39
 -17   1   0    3.73    1.58
 -17   1   1  392.19    9.92
 -17  -1   1  388.49    9.87
 -17  -1   2    8.93    1.74
 -17   1   2   11.39    1.88
 -17   1   3   91.55    4.49
 -17  -1   3   93.71    4.53
 -17  -1   4    7.24    1.45
 -17   1   4    8.09    1.79
 -17   1   5    3.79    1.36
 -17  -1   5    3.05    1.24
 -17   1   6   14.28    2.00
 -17  -1   6   14.75    1.96
 -17  -1   7  127.99    5.17
 -17   1   7  133.53    5.37
 -17   1   8   30.84    2.69
 -17  -1   8   26.09    2.45
 -17  -1   9  179.82    6.09
 -17   1   9  188.02    6.44
 -17  -1  10    2.09    1.11
 -17   1  10    2.23    1.14
 -17   1  11   65.27    3.68
 -17  -1  11   72.33    3.73
 -17   1  12    8.96    1.56
 -17  -1  12    8.81    1.52
 -17   1  13   -0.05    1.02
 -17  -1  13    1.30    0.91
 -17  -1  14    2.26    1.03
 -17   1  14    2.72    1.48
 -17  -1  15   12.51    1.67
 -17   1  15   13.33    1.83
 -17   1  16   22.46    2.18
 -17   3 -18    9.45    1.94
 -17   3 -17  113.91    5.61
 -17   3 -16    4.45    1.50
 -17  -3 -15   77.61    4.94
 -17   3 -15   70.06    4.41
 -17  -3 -14    4.60    1.68
 -17   3 -14    3.49    1.43
 -17   3 -13    0.48    1.22
 -17  -3 -13    0.25    1.19
 -17   3 -12   11.73    2.08
 -17  -3 -12   12.04    2.18
 -17  -3 -11   79.13    4.74
 -17   3 -11   74.31    4.46
 -17  -3 -10   30.12    2.95
 -17   3 -10   31.02    2.94
 -17  -3  -9   99.11    5.20
 -17   3  -9  108.88    5.31
 -17   3  -8   16.52    2.29
 -17  -3  -8   20.46    2.55
 -17   3  -7  126.00    5.64
 -17  -3  -7  125.46    5.80
 -17  -3  -6  102.11    5.15
 -17   3  -6   95.95    4.86
 -17   3  -5   18.58    2.36
 -17  -3  -5   19.96    2.49
 -17   3  -4   10.50    1.92
 -17  -3  -4    6.04    1.59
 -17  -3  -3   70.07    4.14
 -17   3  -3   66.99    4.02
 -17   3  -2   34.21    2.97
 -17  -3  -2   39.56    3.13
 -17   3  -1   98.38    4.88
 -17  -3  -1  103.88    4.96
 -17   3   0    7.92    1.69
 -17  -3   0    8.01    1.71
 -17  -3   1  160.52    6.11
 -17   3   1  160.83    6.17
 -17  -3   2   30.04    2.70
 -17   3   2   41.55    3.14
 -17   3   3   81.99    4.32
 -17  -3   3   77.92    4.11
 -17  -3   4   59.50    3.58
 -17   3   4   64.27    3.87
 -17   3   5   19.84    2.27
 -17  -3   5   16.99    2.08
 -17   3   6   41.14    3.15
 -17  -3   6   45.80    3.16
 -17   3   7  107.89    4.97
 -17  -3   7  108.26    4.76
 -17  -3   8   17.56    2.12
 -17   3   8   14.62    2.00
 -17  -3   9  148.01    5.47
 -17   3   9  144.21    5.76
 -17   3  10    4.57    1.44
 -17  -3  10    9.91    1.71
 -17   3  11  105.18    4.90
 -17  -3  11  108.83    4.58
 -17  -3  12   17.37    1.92
 -17   3  12   18.28    2.27
 -17   3  13    3.93    1.34
 -17  -3  13    1.78    1.05
 -17  -3  14    6.71    1.34
 -17   3  14    4.44    1.33
 -17   3  15   45.86    3.30
 -17   5 -17   60.43    4.27
 -17   5 -16    9.35    2.00
 -17   5 -15   22.85    2.60
 -17   5 -14   49.76    3.82
 -17   5 -13   11.34    2.09
 -17   5 -12   38.14    3.31
 -17   5 -11   44.49    3.55
 -17   5 -10   56.33    3.90
 -17   5  -9   70.14    4.36
 -17   5  -8    8.19    1.71
 -17   5  -7  100.47    5.22
 -17   5  -6   11.05    2.04
 -17   5  -5    6.94    1.78
 -17   5  -4  128.43    5.80
 -17   5  -3   26.61    2.86
 -17   5  -2   82.58    4.62
 -17   5  -1   53.02    3.70
 -17   5   0   45.72    3.46
 -17  -5   1   83.92    4.49
 -17   5   1   84.33    4.60
 -17   5   2   13.59    2.07
 -17  -5   2   18.02    2.28
 -17   5   3   55.25    3.76
 -17  -5   3   54.10    3.63
 -17   5   4   48.52    3.55
 -17  -5   4   50.73    3.48
 -17   5   5   12.78    1.99
 -17  -5   5   14.12    2.00
 -17  -5   6   52.13    3.40
 -17   5   6   46.49    3.44
 -17   5   7   42.92    3.36
 -17  -5   7   51.31    3.34
 -17   5   8   19.43    2.56
 -17  -5   8   20.63    2.22
 -17  -5   9   76.94    3.97
 -17   5   9   74.93    4.37
 -17  -5  10   12.02    1.79
 -17   5  10   11.85    2.07
 -17  -5  11   71.04    3.77
 -17   5  11   67.87    4.18
 -17   5  12   24.51    2.62
 -17  -5  12   23.97    2.24
 -17   5  13    0.01    1.10
 -17   7 -14   30.51    3.17
 -17   7 -13    2.29    1.44
 -17   7 -12   73.74    4.57
 -17   7 -11   27.80    2.99
 -17   7 -10   36.73    3.34
 -17   7  -9   56.14    4.02
 -17   7  -8    7.59    1.85
 -17   7  -7   27.00    2.85
 -17   7  -6    4.82    1.74
 -17   7  -5   35.52    3.24
 -17   7  -4   23.42    2.59
 -17   7  -3   25.66    2.80
 -17   7  -2   82.07    4.78
 -17   7  -1   44.15    3.61
 -17   7   0   45.31    3.56
 -17   7   1   51.17    3.79
 -17   7   2    4.62    1.57
 -17   7   3   65.34    4.35
 -17   7   4   66.27    4.31
 -17   7   5    5.47    1.67
 -17   7   6   84.83    4.88
 -17  -7   6   82.82    4.43
 -17   7   7   67.47    4.37
 -17  -7   7   66.27    3.94
 -17   7   8   19.26    2.48
 -17  -7   8   18.45    2.16
 -17  -7   9   17.16    2.14
 -17   7   9   18.17    2.44
 -17  -7  10    9.66    1.78
 -16   0 -20    5.09    1.69
 -16   0 -19    1.93    1.54
 -16   0 -18   30.73    2.98
 -16   0 -17    1.20    1.26
 -16   0 -16   99.22    5.13
 -16   0 -15    2.33    1.48
 -16   0 -14   87.75    4.75
 -16   0 -13    1.44    1.27
 -16   0 -12   83.53    4.55
 -16   0 -11    1.65    1.25
 -16   0 -10   18.65    2.32
 -16   0  -9    0.29    1.27
 -16   0  -8  113.34    5.10
 -16   0  -7    0.74    1.33
 -16   0  -6  848.54   16.05
 -16   0  -5    2.41    1.43
 -16   0  -4  148.89    5.77
 -16   0  -3    1.00    1.15
 -16   0  -2    3.12    1.23
 -16   0  -1    0.40    1.11
 -16   0   0  224.84    7.03
 -16   0   1    1.15    1.13
 -16   0   2  427.36   10.01
 -16   0   3   -0.04    0.98
 -16   0   4  186.97    6.20
 -16   0   5    0.50    0.93
 -16   0   6    1.88    1.04
 -16   0   7    1.10    1.06
 -16   0   8   38.64    2.78
 -16   0   9    0.23    0.94
 -16   0  10  102.03    4.34
 -16   0  11    2.53    1.16
 -16   0  12   96.29    4.22
 -16   0  13    1.02    1.02
 -16   0  14   12.68    1.61
 -16   0  15    0.74    0.91
 -16   0  16    1.69    0.99
 -16   2 -20    4.41    1.61
 -16   2 -19   12.24    2.03
 -16  -2 -19   10.20    2.03
 -16   2 -18   33.90    3.08
 -16  -2 -18   34.24    3.32
 -16   2 -17    1.23    1.26
 -16  -2 -17    2.60    1.46
 -16   2 -16  118.05    5.55
 -16  -2 -16  117.67    5.83
 -16  -2 -15    8.89    1.81
 -16   2 -15    9.55    1.85
 -16   2 -14  140.79    5.97
 -16  -2 -14  148.81    6.41
 -16   2 -13    2.30    1.19
 -16  -2 -13    5.04    1.61
 -16  -2 -12   25.39    2.74
 -16   2 -12   29.47    2.77
 -16   2 -11    9.92    1.64
 -16  -2 -11   10.15    1.94
 -16  -2 -10   38.51    3.23
 -16   2 -10   39.06    3.10
 -16  -2  -9   49.63    3.59
 -16   2  -9   48.57    3.46
 -16  -2  -8  225.52    7.56
 -16   2  -8  219.00    7.30
 -16   2  -7    2.14    1.30
 -16  -2  -7    5.22    1.73
 -16   2  -6  175.46    6.42
 -16  -2  -6  177.45    6.55
 -16   2  -5   19.56    2.37
 -16  -2  -5   19.36    2.29
 -16  -2  -4   16.00    2.21
 -16   2  -4   13.93    2.00
 -16   2  -3   25.51    2.46
 -16  -2  -3   24.38    2.48
 -16   2  -2    5.45    1.51
 -16  -2  -2    3.79    1.29
 -16  -2  -1    5.08    1.39
 -16   2  -1    4.78    1.38
 -16   2   0   69.74    3.87
 -16  -2   0   69.63    3.82
 -16  -2   1   25.49    2.41
 -16   2   1   28.31    2.56
 -16   2   2  207.69    6.73
 -16  -2   2  206.61    6.57
 -16   2   3    5.39    1.49
 -16  -2   3    6.11    1.52
 -16  -2   4  287.43    7.83
 -16   2   4  280.22    7.90
 -16   2   5   24.31    2.33
 -16  -2   5   25.16    2.35
 -16  -2   6    5.60    1.38
 -16   2   6    6.30    1.38
 -16   2   7   73.78    3.89
 -16  -2   7   69.15    3.64
 -16   2   8  131.00    5.17
 -16  -2   8  137.43    5.08
 -16  -2   9   30.54    2.45
 -16   2   9   28.00    2.45
 -16   2  10  228.36    6.96
 -16  -2  10  226.93    6.61
 -16   2  11    1.19    0.96
 -16  -2  11    3.50    1.18
 -16  -2  12   61.93    3.29
 -16   2  12   56.78    3.41
 -16  -2  13    2.92    1.06
 -16   2  13    1.87    1.07
 -16   2  14   62.95    3.54
 -16  -2  14   61.96    3.22
 -16  -2  15   11.90    1.52
 -16   2  15   14.73    2.29
 -16   2  16    6.88    1.42
 -16   4 -18   38.30    3.27
 -16   4 -17   22.35    2.56
 -16   4 -16   40.18    3.26
 -16   4 -15   17.34    2.22
 -16   4 -14   74.21    4.37
 -16   4 -13    2.53    1.32
 -16   4 -12   17.00    2.30
 -16   4 -11   34.16    3.00
 -16   4 -10   21.83    2.44
 -16   4  -9   55.95    3.78
 -16   4  -8  167.93    6.42
 -16   4  -7    8.47    1.69
 -16   4  -6   95.18    4.76
 -16   4  -5   56.12    3.68
 -16   4  -4   37.30    2.99
 -16   4  -3   29.63    2.72
 -16   4  -2   12.09    1.92
 -16   4  -1  106.51    4.99
 -16  -4   0  117.66    5.14
 -16   4   0  117.26    5.68
 -16  -4   1    8.94    1.64
 -16   4   1   12.94    2.02
 -16  -4   2  109.10    4.85
 -16   4   2  112.20    5.01
 -16  -4   3   16.35    2.04
 -16   4   3   15.72    2.06
 -16  -4   4  127.75    5.13
 -16   4   4  117.53    5.17
 -16  -4   5   41.86    2.91
 -16   4   5   41.16    3.11
 -16  -4   6    1.23    1.04
 -16   4   6    0.41    1.07
 -16   4   7   76.66    4.12
 -16  -4   7   80.41    3.92
 -16   4   8   82.80    4.33
 -16  -4   8   82.51    3.94
 -16  -4   9   24.33    2.24
 -16   4   9   24.02    2.42
 -16   4  10  148.74    5.79
 -16  -4  10  156.27    5.45
 -16  -4  11    4.31    1.27
 -16   4  11    1.09    1.17
 -16  -4  12  131.36    4.81
 -16   4  12  116.01    5.17
 -16  -4  13    6.25    1.33
 -16   4  13    4.95    1.56
 -16  -4  14    8.97    1.45
 -16   4  14    6.53    1.56
 -16   6 -17   44.55    3.50
 -16   6 -16   32.62    3.00
 -16   6 -15   22.25    2.62
 -16   6 -14   39.57    3.30
 -16   6 -13   11.88    1.97
 -16   6 -12    2.66    1.44
 -16   6 -11   40.36    3.31
 -16   6 -10   28.27    2.79
 -16   6  -9   65.38    4.09
 -16   6  -8   90.03    4.79
 -16   6  -7   38.77    3.24
 -16   6  -6   62.72    4.00
 -16   6  -5   34.73    3.05
 -16   6  -4   58.25    3.91
 -16   6  -3   95.24    4.96
 -16   6  -2   15.00    2.13
 -16   6  -1   80.23    4.51
 -16   6   0   18.81    2.32
 -16   6   1   77.55    4.43
 -16   6   2   87.02    4.66
 -16   6   3   42.95    3.36
 -16   6   4   58.75    3.86
 -16   6   5   88.52    4.71
 -16   6   6    3.55    1.38
 -16  -6   6    5.46    1.43
 -16  -6   7   28.76    2.54
 -16   6   7   30.07    2.84
 -16  -6   8   51.74    3.29
 -16   6   8   51.69    3.67
 -16   6   9   14.71    2.30
 -16  -6   9   14.77    1.91
 -16  -6  10   48.23    3.06
 -16   6  10   43.75    3.34
 -16  -6  11   10.74    1.61
 -16   6  11    7.99    1.76
 -16  -6  12   25.29    2.18
 -16   8 -14   -0.75    1.28
 -16   8 -13   19.07    2.51
 -16   8 -12   14.90    2.24
 -16   8 -11   48.95    3.77
 -16   8 -10   14.54    2.32
 -16   8  -9   53.88    3.90
 -16   8  -8   11.56    2.12
 -16   8  -7    3.19    1.62
 -16   8  -6   58.54    4.05
 -16   8  -5   20.26    2.56
 -16   8  -4    1.71    1.22
 -16   8  -3   73.80    4.51
 -16   8  -2   11.76    2.13
 -16   8  -1   34.73    3.19
 -16   8   0   81.37    4.75
 -16   8   1   41.55    3.49
 -16   8   2   33.05    3.06
 -16   8   3   11.80    2.11
 -16   8   4    3.85    1.43
 -16   8   5   38.78    3.38
 -16   8   6   22.26    2.66
 -16  -8   9   40.54    3.01
 -16  -8  10    8.18    1.59
 -15  -1 -21  113.30    5.65
 -15  -1 -20    2.35    1.51
 -15   1 -20   -0.11    1.19
 -15  -1 -19   14.73    2.27
 -15   1 -19   21.53    2.55
 -15  -1 -18    6.98    1.79
 -15   1 -18    6.93    1.62
 -15  -1 -17   36.62    3.26
 -15   1 -17   40.48    3.28
 -15  -1 -16    2.93    1.30
 -15   1 -16    4.04    1.32
 -15  -1 -15   96.34    4.97
 -15   1 -15   94.11    4.78
 -15   1 -14    5.47    1.61
 -15  -1 -14    5.90    1.64
 -15   1 -13  201.47    7.05
 -15  -1 -13  209.31    7.27
 -15  -1 -12    4.27    1.46
 -15   1 -12    3.79    1.36
 -15  -1 -11  117.38    5.28
 -15   1 -11  121.51    5.29
 -15   1 -10   22.63    2.36
 -15  -1 -10   25.11    2.55
 -15   1  -9    9.82    1.69
 -15  -1  -9    9.99    1.78
 -15  -1  -8   23.40    2.44
 -15   1  -8   24.21    2.41
 -15  -1  -7  159.27    5.95
 -15   1  -7  160.00    5.93
 -15   1  -6   67.27    3.79
 -15  -1  -6   69.18    3.87
 -15  -1  -5  329.27    8.72
 -15   1  -5  327.20    8.68
 -15   1  -4   14.01    1.94
 -15  -1  -4   13.92    1.97
 -15  -1  -3  434.20   10.06
 -15   1  -3  423.31   10.04
 -15  -1  -2   36.08    2.77
 -15   1  -2   36.19    2.75
 -15  -1  -1    7.28    1.46
 -15   1  -1    5.97    1.31
 -15  -1   0   -0.91    1.22
 -15   1   0    2.00    1.15
 -15  -1   1  141.28    5.21
 -15   1   1  143.67    5.30
 -15  -1   2   20.29    2.10
 -15   1   2   18.10    2.00
 -15   1   3  385.09    9.16
 -15  -1   3  404.06    9.28
 -15  -1   4   20.41    2.15
 -15   1   4   20.00    2.14
 -15  -1   5  208.81    6.29
 -15   1   5  200.91    6.24
 -15  -1   6   23.03    2.11
 -15   1   6   23.72    2.19
 -15   1   7   46.54    2.92
 -15  -1   7   45.17    2.83
 -15   1   8    1.42    1.02
 -15  -1   8    1.05    0.99
 -15   1   9   28.94    2.38
 -15  -1   9   35.23    2.47
 -15  -1  10    3.25    1.08
 -15   1  10    2.74    1.05
 -15   1  11  143.17    5.10
 -15  -1  11  137.09    4.81
 -15  -1  12    0.97    0.98
 -15   1  12    0.64    0.88
 -15  -1  13  131.12    4.63
 -15   1  13  125.24    4.74
 -15   1  14    2.12    0.99
 -15  -1  14    1.09    0.93
 -15   1  15   73.48    3.56
 -15  -1  15   78.48    3.49
 -15  -1  16    3.70    0.97
 -15   1  16    3.31    1.07
 -15   1  17    1.16    0.94
 -15  -3 -20    4.79    1.62
 -15   3 -19    4.78    1.33
 -15  -3 -19    7.29    1.99
 -15   3 -18   19.31    2.27
 -15   3 -17    4.03    1.49
 -15   3 -16   22.12    2.41
 -15   3 -15  133.01    5.69
 -15   3 -14   26.58    2.63
 -15   3 -13  130.02    5.52
 -15   3 -12    2.94    1.24
 -15   3 -11   66.70    3.93
 -15   3 -10   37.85    3.02
 -15   3  -9    4.81    1.54
 -15   3  -8   77.33    4.16
 -15   3  -7  191.66    6.55
 -15   3  -6   87.00    4.35
 -15   3  -5  241.69    7.32
 -15   3  -4   16.73    2.09
 -15   3  -3   66.23    3.76
 -15   3  -2    4.22    1.41
 -15  -3  -2    7.31    1.45
 -15  -3  -1    2.52    1.28
 -15   3  -1    2.53    1.18
 -15   3   0   47.37    3.16
 -15  -3   0   51.14    3.25
 -15   3   1   45.58    3.08
 -15  -3   1   52.46    3.25
 -15   3   2   44.96    3.02
 -15  -3   2   49.00    3.14
 -15   3   3  284.44    7.87
 -15  -3   3  292.18    7.78
 -15  -3   4   17.05    1.94
 -15   3   4   16.66    2.04
 -15   3   5  242.00    7.17
 -15  -3   5  248.54    6.95
 -15   3   6   48.62    3.13
 -15  -3   6   53.60    3.12
 -15  -3   7   48.69    2.94
 -15   3   7   46.98    3.10
 -15  -3   8   37.76    2.60
 -15   3   8   40.19    2.91
 -15  -3   9   85.40    3.82
 -15   3   9   75.27    3.87
 -15  -3  10   84.59    3.73
 -15   3  10   75.36    3.88
 -15   3  11  249.52    7.28
 -15  -3  11  256.36    6.78
 -15  -3  12    7.23    1.30
 -15   3  12    9.54    1.63
 -15  -3  13  218.36    5.98
 -15   3  13  214.81    6.74
 -15   3  14   24.10    2.33
 -15  -3  14   30.66    2.15
 -15   3  15   27.96    2.40
 -15  -3  15   29.64    2.10
 -15   5 -18   27.23    2.72
 -15   5 -17    5.86    1.60
 -15   5 -16   27.52    2.71
 -15   5 -15   66.14    4.02
 -15   5 -14   27.95    2.64
 -15   5 -13   52.76    3.58
 -15   5 -12   12.65    1.92
 -15   5 -11   17.82    2.22
 -15   5 -10   64.78    3.90
 -15   5  -9    7.72    1.71
 -15   5  -8  121.61    5.36
 -15   5  -7  117.92    5.25
 -15   5  -6   36.72    3.02
 -15   5  -5  178.88    6.47
 -15   5  -4    0.77    1.07
 -15   5  -3    2.26    1.11
 -15   5  -2  238.13    7.46
 -15   5  -1   15.19    2.14
 -15   5   0  114.46    5.03
 -15   5   1   62.07    3.69
 -15   5   2   43.53    3.15
 -15   5   3   79.05    4.19
 -15   5   4    4.93    1.45
 -15   5   5  154.31    5.89
 -15  -5   5  155.08    5.56
 -15  -5   6   63.05    3.48
 -15   5   6   59.48    3.65
 -15  -5   7   12.22    1.82
 -15   5   7   12.28    1.93
 -15  -5   8  102.88    4.35
 -15   5   8   94.61    4.60
 -15   5   9   39.33    3.06
 -15  -5   9   37.70    2.64
 -15  -5  10   24.68    2.14
 -15   5  10   25.39    2.53
 -15  -5  11   89.95    3.90
 -15   5  11   88.87    4.49
 -15  -5  12   12.00    1.56
 -15   5  12    9.66    1.72
 -15  -5  13   42.29    2.57
 -15   7 -16   25.95    2.74
 -15   7 -15   26.22    2.77
 -15   7 -14   11.14    2.00
 -15   7 -13   28.76    2.80
 -15   7 -12    9.03    1.84
 -15   7 -11    2.81    1.55
 -15   7 -10   47.30    3.46
 -15   7  -9   17.68    2.34
 -15   7  -8  118.80    5.52
 -15   7  -7   53.96    3.71
 -15   7  -6   28.57    2.76
 -15   7  -5   20.22    2.35
 -15   7  -4   42.76    3.41
 -15   7  -3   28.59    2.81
 -15   7  -2   40.38    3.21
 -15   7  -1   39.28    3.18
 -15   7   0   91.13    4.78
 -15   7   1   34.25    2.95
 -15   7   2   58.93    3.81
 -15   7   3   62.51    3.93
 -15   7   4   20.47    2.41
 -15   7   5   19.46    2.34
 -15   7   6   28.53    2.82
 -15   7   7    1.90    1.45
 -15   7   8  105.79    5.18
 -15  -7   9   23.14    2.22
 -15  -7  10   65.85    3.54
 -15  -7  11   32.12    2.47
 -15   9 -14    2.28    1.33
 -15   9 -13    5.60    1.69
 -15   9 -12   13.65    2.24
 -15   9 -11    8.49    1.92
 -15   9 -10   35.26    3.21
 -15   9  -9   16.65    2.44
 -15   9  -8   44.28    3.56
 -15   9  -7   12.60    2.17
 -15   9  -6   24.87    2.80
 -15   9  -5    2.15    1.40
 -15   9  -4    8.23    1.81
 -15   9  -3   26.66    2.90
 -15   9  -2   14.69    2.30
 -15   9  -1    9.40    2.13
 -15   9   0   66.01    4.33
 -15   9   1   24.22    2.74
 -14   0 -21    2.52    1.49
 -14   0 -20  107.15    5.16
 -14   0 -19    1.93    1.26
 -14   0 -18   68.38    4.05
 -14   0 -17    0.51    1.15
 -14   0 -16    4.01    1.34
 -14   0 -15    1.13    1.22
 -14   0 -14  204.74    6.89
 -14   0 -13   -0.90    1.00
 -14   0 -12  239.10    7.40
 -14   0 -11    0.78    1.11
 -14   0 -10   24.42    2.39
 -14   0  -9   -0.54    1.14
 -14   0  -8   38.02    2.82
 -14   0  -7    0.03    0.97
 -14   0  -6  191.68    6.18
 -14   0  -5    0.16    1.00
 -14   0  -4  621.69   12.24
 -14   0  -3    0.40    0.96
 -14   0  -2  182.81    5.91
 -14   0  -1    0.68    1.06
 -14   0   0  132.90    4.97
 -14   0   1    0.76    0.96
 -14   0   2   82.84    3.81
 -14   0   3    1.84    1.11
 -14   0   4  290.37    7.35
 -14   0   5    1.09    1.02
 -14   0   6  395.15    8.78
 -14   0   7    0.73    0.88
 -14   0   8   62.09    3.15
 -14   0   9    0.53    0.85
 -14   0  10   14.52    1.65
 -14   0  11    0.22    0.79
 -14   0  12  137.88    4.66
 -14   0  13    1.71    0.94
 -14   0  14  197.74    5.64
 -14   0  15    1.06    0.85
 -14   0  16   55.28    2.85
 -14   0  17    0.03    0.75
 -14  -2 -22   58.52    4.13
 -14  -2 -21    9.75    2.00
 -14  -2 -20  109.67    5.50
 -14   2 -20  123.68    5.41
 -14   2 -19    4.95    1.66
 -14  -2 -19    2.19    1.37
 -14   2 -18   21.45    2.41
 -14  -2 -18   20.19    2.54
 -14   2 -17    8.55    1.63
 -14  -2 -17   12.01    1.98
 -14  -2 -16   17.68    2.31
 -14   2 -16   15.89    2.11
 -14  -2 -15    5.80    1.52
 -14   2 -15    8.01    1.66
 -14   2 -14   94.59    4.57
 -14   2 -13    6.22    1.49
 -14   2 -12  149.35    5.69
 -14   2 -11  125.45    5.17
 -14   2 -10  192.94    6.46
 -14   2  -9   28.50    2.49
 -14   2  -8   21.09    2.16
 -14   2  -7    2.98    1.10
 -14   2  -6   89.66    4.19
 -14  -2  -6   92.56    4.36
 -14  -2  -5    9.53    1.68
 -14   2  -5   10.53    1.77
 -14  -2  -4  648.77   12.80
 -14   2  -4  646.45   12.73
 -14   2  -3  220.39    6.66
 -14  -2  -3  219.66    6.68
 -14  -2  -2  586.67   11.84
 -14   2  -2  586.59   11.84
 -14   2  -1   29.27    2.44
 -14  -2  -1   29.11    2.45
 -14   2   0    3.90    1.38
 -14  -2   0    0.20    1.04
 -14   2   1   32.59    2.50
 -14  -2   1   33.80    2.47
 -14   2   2   54.48    3.15
 -14  -2   2   55.75    3.10
 -14  -2   3   36.29    2.55
 -14   2   3   32.93    2.50
 -14   2   4  317.31    7.94
 -14  -2   4  326.49    7.82
 -14   2   5    1.50    1.02
 -14  -2   5    1.06    1.01
 -14   2   6  462.21    9.96
 -14  -2   6  469.24    9.71
 -14   2   7   18.79    1.94
 -14  -2   7   20.93    1.95
 -14   2   8   24.04    2.10
 -14  -2   8   24.89    2.04
 -14  -2   9   47.05    2.72
 -14   2   9   46.64    2.87
 -14   2  10   73.65    3.60
 -14  -2  10   77.96    3.41
 -14  -2  11    2.60    0.99
 -14   2  11    2.62    1.12
 -14  -2  12  147.04    4.69
 -14   2  12  143.04    5.04
 -14   2  13    3.11    1.10
 -14  -2  13    5.65    1.18
 -14   2  14  175.16    5.67
 -14  -2  14  186.72    5.23
 -14   2  15   14.46    1.73
 -14  -2  15   16.24    1.57
 -14  -2  16   90.51    3.40
 -14   4 -19    2.03    1.16
 -14  -4 -18   12.02    2.25
 -14   4 -18   11.75    1.80
 -14  -4 -17   75.67    4.69
 -14   4 -17   67.63    4.03
 -14   4 -16   12.66    1.89
 -14  -4 -16   16.46    2.36
 -14   4 -15   30.91    2.65
 -14   4 -14   56.79    3.59
 -14   4 -13   30.65    2.74
 -14   4 -12  209.84    6.89
 -14   4 -11    6.52    1.54
 -14   4 -10  130.04    5.25
 -14   4  -9   61.79    3.61
 -14   4  -8   12.40    1.93
 -14   4  -7  147.84    5.56
 -14   4  -6  296.78    8.11
 -14   4  -5   96.58    4.44
 -14   4  -4  178.55    6.11
 -14   4  -3   67.93    3.72
 -14   4  -2   36.02    2.76
 -14   4  -1  106.66    4.64
 -14   4   0   17.15    2.04
 -14   4   1   55.68    3.34
 -14   4   2   10.72    1.71
 -14   4   3   69.74    3.66
 -14  -4   4  112.96    4.48
 -14   4   4  112.25    4.70
 -14   4   5   21.87    2.21
 -14  -4   5   30.97    2.39
 -14  -4   6  290.39    7.39
 -14   4   6  273.61    7.65
 -14  -4   7   60.35    3.21
 -14   4   7   52.80    3.29
 -14   4   8  194.35    6.29
 -14  -4   8  194.62    5.75
 -14  -4   9   59.18    3.06
 -14   4   9   53.47    3.28
 -14  -4  10   67.47    3.22
 -14   4  10   60.45    3.44
 -14  -4  11   37.19    2.40
 -14   4  11   31.46    2.63
 -14  -4  12  225.10    5.92
 -14   4  12  214.93    6.75
 -14   4  13   20.47    2.16
 -14  -4  13   24.24    1.89
 -14  -4  14   69.59    3.01
 -14   6 -17   42.66    3.23
 -14   6 -16    3.25    1.25
 -14  -6 -15   61.09    4.29
 -14   6 -15   52.36    3.45
 -14   6 -14   48.61    3.37
 -14  -6 -14   52.08    3.92
 -14   6 -13   23.22    2.46
 -14  -6 -13   25.12    2.80
 -14   6 -12   24.42    2.46
 -14  -6 -12   28.99    2.91
 -14  -6 -11    3.90    1.59
 -14   6 -11    3.18    1.37
 -14   6 -10   25.69    2.50
 -14   6  -9   36.67    2.95
 -14   6  -8    5.42    1.47
 -14   6  -7  159.83    6.00
 -14   6  -6   45.10    3.23
 -14   6  -5   40.85    3.06
 -14   6  -4   36.17    2.92
 -14   6  -3  115.17    5.10
 -14   6  -2   45.35    3.20
 -14   6  -1   38.81    2.97
 -14   6   0    3.29    1.29
 -14   6   1  140.31    5.61
 -14   6   2  114.71    5.05
 -14   6   3   36.25    2.90
 -14   6   4   68.90    3.91
 -14   6   5   19.42    2.23
 -14   6   6    4.05    1.23
 -14   6   7    5.30    1.44
 -14  -6   8   33.35    2.50
 -14   6   8   33.14    2.82
 -14   6   9  176.75    6.39
 -14  -6   9  182.37    5.69
 -14  -6  10    6.32    1.33
 -14  -6  11   83.61    3.63
 -14  -6  12   36.67    2.38
 -14  -6  13    9.99    1.40
 -14   8 -15   56.66    3.76
 -14   8 -14   37.75    3.10
 -14   8 -13   20.27    2.41
 -14   8 -12    3.90    1.34
 -14  -8 -12    6.83    1.87
 -14   8 -11    9.26    1.80
 -14  -8 -11   10.76    2.10
 -14   8 -10   12.43    1.97
 -14  -8 -10   16.57    2.43
 -14   8  -9   16.12    2.13
 -14  -8  -9   17.86    2.45
 -14   8  -8    5.09    1.53
 -14   8  -7  111.19    5.27
 -14   8  -6   14.73    2.06
 -14   8  -5   37.25    3.15
 -14   8  -4   43.16    3.29
 -14   8  -3    3.44    1.19
 -14   8  -2    6.62    1.57
 -14   8  -1   23.03    2.51
 -14   8   0   12.46    2.04
 -14   8   1  137.59    5.91
 -14   8   2   17.13    2.29
 -14   8   3   62.24    4.01
 -14   8   4   41.34    3.29
 -14  -8  11   52.11    3.09
 -14 -10  -8   40.40    3.62
 -13  -1 -22    6.37    1.66
 -13  -1 -21   72.12    4.19
 -13   1 -21   72.94    4.14
 -13  -1 -20    1.53    1.35
 -13   1 -20    1.77    1.20
 -13   1 -19  140.59    5.65
 -13  -1 -19  140.21    5.82
 -13  -1 -18   10.37    1.84
 -13   1 -18    7.28    1.93
 -13  -1 -17   88.74    4.60
 -13   1 -17   91.22    4.46
 -13   1 -16    0.12    0.98
 -13  -1 -16    1.02    1.15
 -13  -1 -15    0.46    1.18
 -13   1 -15    1.16    1.21
 -13   1 -14   13.40    1.90
 -13  -1 -14   14.80    1.94
 -13  -1 -13   82.05    4.19
 -13   1 -13   81.38    4.12
 -13  -1 -12   20.52    2.32
 -13   1 -12   18.54    2.04
 -13  -1 -11  234.23    7.10
 -13   1 -11  224.45    6.79
 -13   1 -10    3.05    1.36
 -13  -1 -10    5.15    1.47
 -13  -1  -9  117.79    4.80
 -13   1  -9  118.87    4.73
 -13  -1  -8    8.22    1.50
 -13   1  -8    7.41    1.44
 -13   1  -7    7.74    1.47
 -13  -1  -7    7.13    1.47
 -13   1  -6   19.66    2.05
 -13  -1  -6   17.03    1.90
 -13   1  -5  168.98    5.59
 -13  -1  -5  176.33    5.72
 -13  -1  -4    7.32    1.47
 -13   1  -4   10.09    1.56
 -13  -1  -3  376.20    8.71
 -13   1  -3  369.76    8.63
 -13  -1  -2    3.54    1.20
 -13   1  -2    1.68    1.18
 -13   1  -1  497.41   10.28
 -13  -1  -1  509.32   10.30
 -13   1   0   13.38    1.72
 -13  -1   0   12.87    1.64
 -13   1   1   17.63    1.83
 -13  -1   1   17.41    1.82
 -13   1   2   18.70    1.87
 -13  -1   2   16.21    1.73
 -13   1   3   78.21    3.53
 -13  -1   3   78.80    3.50
 -13   1   4   12.24    1.57
 -13  -1   4    8.67    1.35
 -13  -1   5  255.29    6.53
 -13   1   5  254.75    6.58
 -13   1   6    2.63    1.05
 -13  -1   6    3.53    1.07
 -13  -1   7  436.53    8.86
 -13   1   7  421.67    8.98
 -13  -1   8   17.98    1.72
 -13   1   8   15.15    1.64
 -13  -1   9   89.73    3.58
 -13   1   9   89.00    3.68
 -13   1  10    2.90    0.96
 -13  -1  10    2.19    0.96
 -13   1  11    0.58    0.83
 -13  -1  11    0.84    0.77
 -13  -1  12   13.18    1.47
 -13   1  12   12.12    1.48
 -13  -1  13  103.89    3.72
 -13   1  13  106.10    4.01
 -13  -1  14    5.26    1.04
 -13   1  14    6.48    1.17
 -13   1  15  234.19    6.14
 -13  -1  15  232.80    5.75
 -13  -1  16   18.20    1.56
 -13   1  16   15.29    1.63
 -13  -1  17   57.63    2.61
 -13  -3 -20   16.86    2.41
 -13   3 -19   85.81    4.25
 -13  -3 -19   93.66    5.16
 -13  -3 -18    3.87    1.50
 -13   3 -18    3.94    1.33
 -13   3 -17   47.70    3.20
 -13  -3 -17   46.14    3.57
 -13  -3 -16   41.96    3.34
 -13   3 -16   36.32    2.82
 -13   3 -15    6.93    1.49
 -13  -3 -15    8.97    1.79
 -13  -3 -14   65.41    3.98
 -13   3 -14   65.70    3.63
 -13   3 -13  102.72    4.65
 -13   3 -12   22.72    2.24
 -13   3 -11  233.92    6.91
 -13   3 -10   11.56    1.70
 -13   3  -9  299.68    7.96
 -13   3  -8   48.73    3.09
 -13   3  -7   12.99    1.80
 -13   3  -6   13.06    1.71
 -13   3  -5   18.28    2.00
 -13   3  -4   57.44    3.23
 -13   3  -3  530.81   10.89
 -13   3  -2   16.88    1.95
 -13   3  -1  202.60    6.12
 -13   3   0    2.72    1.23
 -13   3   1  214.44    6.32
 -13   3   2   77.78    3.66
 -13  -3   2   80.24    3.63
 -13  -3   3   26.66    2.13
 -13   3   3   28.09    2.33
 -13  -3   4  136.41    4.66
 -13   3   4  125.54    4.70
 -13   3   5  225.51    6.42
 -13  -3   5  235.39    6.27
 -13  -3   6   55.54    2.92
 -13   3   6   54.74    3.09
 -13   3   7  368.50    8.54
 -13  -3   7  377.73    8.11
 -13  -3   8   99.89    3.81
 -13   3   8   96.75    4.09
 -13  -3   9  196.60    5.45
 -13   3   9  186.81    5.82
 -13  -3  10   16.02    1.61
 -13   3  10   12.71    1.65
 -13   3  11    9.50    1.48
 -13  -3  11   10.45    1.34
 -13   3  12    9.89    1.52
 -13  -3  12   10.29    1.31
 -13   3  13  178.71    5.73
 -13  -3  13  192.00    5.07
 -13  -3  14    5.92    1.07
 -13   3  14    4.49    1.22
 -13  -3  15  106.58    3.51
 -13  -3  16   26.26    1.70
 -13  -5 -18   39.18    3.63
 -13   5 -18   37.92    2.89
 -13   5 -17   48.43    3.23
 -13  -5 -17   52.92    4.05
 -13   5 -16   27.09    2.51
 -13  -5 -16   27.24    2.92
 -13   5 -15    0.48    0.96
 -13  -5 -15    3.17    1.52
 -13  -5 -14   34.57    3.18
 -13   5 -14   28.30    2.52
 -13   5 -13   75.26    4.06
 -13  -5 -13   89.73    4.77
 -13   5 -12   53.87    3.40
 -13  -5 -12   59.15    3.90
 -13  -5 -11  165.42    6.35
 -13   5 -11  150.27    5.64
 -13   5 -10   50.20    3.28
 -13  -5 -10   53.87    4.59
 -13  -5  -9   95.88    4.65
 -13   5  -9   88.03    4.25
 -13   5  -8  107.04    4.70
 -13   5  -7   64.77    3.67
 -13   5  -6  101.29    4.54
 -13   5  -5   91.00    4.27
 -13   5  -4   99.57    4.46
 -13   5  -3  231.41    6.92
 -13   5  -2   13.81    1.82
 -13   5  -1   34.92    2.69
 -13   5   0  185.62    6.10
 -13   5   1   28.54    2.45
 -13   5   2    8.79    1.61
 -13   5   3   13.45    1.81
 -13   5   4   38.94    2.78
 -13   5   5   96.35    4.34
 -13   5   6   67.17    3.62
 -13   5   7  128.84    5.04
 -13  -5   7  140.95    4.76
 -13  -5   8   19.92    1.82
 -13   5   8   18.58    2.04
 -13  -5   9   46.00    2.68
 -13   5   9   35.55    2.74
 -13   5  10  175.08    5.99
 -13  -5  10  178.68    5.23
 -13  -5  11    6.99    1.19
 -13   5  11    6.50    1.46
 -13  -5  12  176.10    5.01
 -13  -5  13   98.59    3.57
 -13  -5  14   35.73    2.10
 -13   7 -16   28.77    2.58
 -13  -7 -15   13.50    2.41
 -13   7 -15    9.84    1.75
 -13   7 -14   44.70    3.21
 -13  -7 -14   48.35    3.87
 -13  -7 -13   12.58    2.21
 -13   7 -13   13.50    1.93
 -13   7 -12   33.36    2.89
 -13  -7 -12   41.76    3.57
 -13   7 -11   61.15    3.66
 -13  -7 -11   71.32    4.35
 -13   7 -10    4.85    1.45
 -13  -7 -10    5.11    1.62
 -13   7  -9   25.70    2.57
 -13  -7  -9   26.12    2.65
 -13   7  -8   29.36    2.63
 -13  -7  -8   30.71    2.89
 -13   7  -7   31.39    2.70
 -13  -7  -7   34.34    2.98
 -13   7  -6  159.05    5.97
 -13   7  -5   40.59    3.05
 -13   7  -4   74.35    4.08
 -13   7  -3   27.40    2.58
 -13   7  -2   12.05    1.83
 -13   7  -1  105.19    4.83
 -13   7   0  112.90    5.01
 -13   7   1   12.30    1.93
 -13   7   2  100.47    4.74
 -13   7   3   31.93    2.81
 -13   7   4   81.47    4.28
 -13   7   5   32.72    2.81
 -13   7   6    2.79    1.22
 -13  -7  11   34.52    2.38
 -13  -7  12   58.32    2.95
 -13   9 -14   47.41    3.44
 -13   9 -13   12.01    2.00
 -13   9 -12   17.61    2.20
 -13  -9 -11   13.80    2.44
 -13   9 -11   10.59    1.91
 -13  -9 -10    4.96    1.88
 -13   9 -10   -0.76    1.10
 -13  -9  -9    2.14    1.24
 -13   9  -9    2.01    1.36
 -13  -9  -8   53.38    3.84
 -13   9  -8   45.33    3.37
 -13   9  -7   17.33    2.38
 -13  -9  -7   20.42    2.60
 -13  -9  -6  102.28    5.09
 -13   9  -6   91.01    4.81
 -13   9  -5   33.10    2.95
 -13   9  -4   93.86    4.82
 -13   9  -3   22.88    2.54
 -13   9  -2    7.61    1.81
 -13   9  -1   13.28    1.99
 -13 -11  -7   16.69    2.39
 -13 -11  -6   54.50    3.99
 -12   0 -21    0.94    1.16
 -12   0 -20   70.73    3.91
 -12   0 -19    0.44    0.96
 -12   0 -18  152.73    5.74
 -12   0 -17    0.21    0.96
 -12   0 -16  258.95    7.47
 -12   0 -15   -0.83    0.95
 -12   0 -14   47.77    3.10
 -12   0 -13    2.75    1.21
 -12   0 -12  124.36    4.88
 -12   0 -11    1.25    1.08
 -12   0 -10  140.62    5.11
 -12   0  -9    0.56    1.02
 -12   0  -8  298.28    7.58
 -12   0  -7    1.69    1.15
 -12   0  -6  186.43    5.66
 -12   0  -5    0.89    1.00
 -12   0  -4  105.85    4.15
 -12   0  -3    1.31    1.01
 -12   0  -2  664.68   11.91
 -12   0  -1    2.20    1.04
 -12   0   0  211.41    5.81
 -12   0   1    0.79    0.90
 -12   0   2   86.04    3.57
 -12   0   3    0.19    0.82
 -12   0   4   71.73    3.16
 -12   0   5    0.62    0.86
 -12   0   6  162.63    4.83
 -12   0   7   -0.29    0.77
 -12   0   8  530.82    9.80
 -12   0   9    2.52    1.02
 -12   0  10  211.41    5.51
 -12   0  11   -0.01    0.73
 -12   0  12   12.22    1.38
 -12   0  13    0.34    0.70
 -12   0  14  123.55    3.99
 -12   0  15   -0.94    0.78
 -12   0  16  313.90    6.74
 -12  -2 -22    1.07    1.35
 -12  -2 -22    0.21    1.14
 -12  -2 -21    5.19    1.71
 -12  -2 -21    3.96    1.27
 -12   2 -20   39.16    2.85
 -12  -2 -20   44.97    3.55
 -12   2 -19   22.36    2.18
 -12  -2 -19   27.26    2.76
 -12  -2 -18  156.52    6.28
 -12   2 -18  139.34    5.34
 -12   2 -17    3.28    1.21
 -12  -2 -17    0.02    1.15
 -12  -2 -16  116.66    5.22
 -12   2 -16  115.69    4.78
 -12  -2 -15   12.56    1.97
 -12   2 -15   11.44    1.69
 -12   2 -14    1.51    1.12
 -12  -2 -14    1.03    1.14
 -12   2 -13   45.30    2.98
 -12   2 -12   71.47    3.60
 -12   2 -11   40.75    2.72
 -12   2 -10  205.54    6.24
 -12   2  -9   54.31    3.14
 -12   2  -8  323.74    7.94
 -12   2  -7   28.87    2.28
 -12   2  -6  122.52    4.56
 -12   2  -5   21.93    1.97
 -12   2  -4   79.83    3.59
 -12   2  -3    9.54    1.41
 -12   2  -2  307.45    7.45
 -12   2  -1   43.95    2.70
 -12  -2   0  530.24   10.26
 -12   2   0  526.89   10.29
 -12  -2   1   72.76    3.31
 -12   2   1   70.66    3.31
 -12   2   2  120.11    4.34
 -12  -2   2  124.87    4.33
 -12   2   3   78.57    3.44
 -12  -2   3   87.04    3.53
 -12  -2   4    4.50    1.12
 -12   2   4    6.03    1.24
 -12   2   5   38.76    2.42
 -12  -2   5   40.41    2.37
 -12  -2   6  142.19    4.43
 -12   2   6  144.60    4.75
 -12  -2   7    9.54    1.34
 -12   2   7    8.39    1.31
 -12   2   8  298.96    7.10
 -12  -2   8  300.72    6.78
 -12  -2   9   18.68    1.63
 -12   2   9   16.94    1.76
 -12  -2  10  622.34   10.56
 -12   2  10  588.99   11.01
 -12  -2  11   81.71    3.14
 -12   2  11   81.82    3.49
 -12   2  12    6.26    1.19
 -12  -2  12    6.06    1.02
 -12   2  13   20.66    1.81
 -12  -2  13   21.48    1.61
 -12  -2  14   77.85    2.91
 -12   2  14   77.45    3.39
 -12  -2  15    2.10    0.79
 -12  -2  16  135.93    3.76
 -12  -2  17    1.13    0.71
 -12  -4 -20   18.35    2.53
 -12   4 -19    6.00    1.35
 -12  -4 -19    7.71    1.95
 -12   4 -18  135.15    5.17
 -12  -4 -18  150.11    6.46
 -12   4 -17   15.51    1.90
 -12  -4 -17   17.74    2.43
 -12  -4 -16   37.16    3.16
 -12   4 -16   33.86    2.64
 -12  -4 -15   36.30    3.15
 -12   4 -15   33.84    2.59
 -12   4 -14    3.83    1.20
 -12  -4 -14    4.03    1.52
 -12   4 -13   89.09    4.06
 -12  -4 -13   94.76    4.75
 -12   4 -12   53.42    3.16
 -12  -4 -12   57.88    3.62
 -12  -4 -11   38.26    3.00
 -12   4 -11   35.22    2.60
 -12   4 -10  248.10    6.94
 -12  -4 -10  256.02    7.55
 -12   4  -9   53.15    3.19
 -12  -4  -9   57.08    3.52
 -12   4  -8  121.80    4.73
 -12   4  -7   25.76    2.26
 -12   4  -6  123.72    4.70
 -12   4  -5  156.34    5.32
 -12   4  -4    5.56    1.42
 -12   4  -3   39.15    2.66
 -12   4  -2  299.21    7.55
 -12   4  -1   42.85    2.80
 -12   4   0  944.28   15.78
 -12   4   1   31.82    2.42
 -12   4   2   20.86    1.96
 -12   4   3  119.10    4.49
 -12   4   4   13.07    1.64
 -12   4   5   68.62    3.40
 -12   4   6  184.95    5.74
 -12  -4   6  192.91    5.39
 -12   4   7   89.20    3.91
 -12  -4   7   94.56    3.63
 -12  -4   8  201.70    5.40
 -12   4   8  188.21    5.83
 -12  -4   9   34.12    2.14
 -12   4   9   33.33    2.43
 -12  -4  10   28.20    1.92
 -12   4  10   27.01    2.22
 -12   4  11  120.07    4.64
 -12  -4  11  129.62    4.05
 -12   4  12   10.94    1.54
 -12  -4  12    9.80    1.24
 -12  -4  13   84.87    3.09
 -12  -4  14   30.07    1.78
 -12  -4  15   30.84    1.72
 -12   6 -17   10.68    1.64
 -12  -6 -17   14.18    2.38
 -12   6 -16    2.69    1.08
 -12  -6 -16    3.25    1.65
 -12   6 -15   43.16    2.98
 -12  -6 -15   48.66    3.77
 -12   6 -14   14.02    1.86
 -12  -6 -14   15.03    2.29
 -12   6 -13   70.61    3.76
 -12  -6 -13   83.27    4.66
 -12  -6 -12   43.57    3.38
 -12   6 -12   37.23    2.78
 -12  -6 -11  100.98    4.99
 -12   6 -11   97.78    4.38
 -12  -6 -10  123.91    5.43
 -12   6 -10  110.79    4.68
 -12   6  -9   33.01    2.66
 -12  -6  -9   36.00    2.98
 -12   6  -8  220.54    6.71
 -12  -6  -8  227.51    7.22
 -12   6  -7   46.20    3.07
 -12  -6  -7   50.71    3.33
 -12  -6  -6   27.10    2.48
 -12   6  -6   24.47    2.24
 -12   6  -5  148.46    5.43
 -12   6  -4   44.27    2.97
 -12   6  -3  306.74    8.07
 -12   6  -2  175.53    5.87
 -12   6  -1   12.39    1.80
 -12   6   0   21.41    2.13
 -12   6   1   23.21    2.20
 -12   6   2    6.06    1.42
 -12   6   3  116.92    4.78
 -12   6   4    7.98    1.49
 -12   6   5   73.85    3.82
 -12   6   6   49.24    3.13
 -12   6   7   23.02    2.25
 -12   6   8   80.96    4.03
 -12  -6  10   45.09    2.53
 -12  -6  11   33.02    2.18
 -12  -6  12   23.59    1.80
 -12  -6  13  151.57    4.34
 -12  -6  14   82.66    3.04
 -12   8 -15   16.02    1.95
 -12   8 -14   10.26    1.77
 -12  -8 -14   17.65    2.64
 -12   8 -13   45.37    3.14
 -12  -8 -13   53.80    4.05
 -12   8 -12   26.86    2.50
 -12  -8 -12   39.53    3.36
 -12  -8 -11   50.86    3.72
 -12   8 -11   43.70    3.13
 -12   8 -10   14.47    1.97
 -12  -8 -10   12.47    1.97
 -12   8  -9   24.40    2.41
 -12  -8  -9   23.98    2.63
 -12   8  -8   24.67    2.45
 -12  -8  -8   24.00    2.62
 -12   8  -7   42.61    3.11
 -12  -8  -7   43.93    3.31
 -12   8  -6   18.30    2.22
 -12  -8  -6   18.97    2.29
 -12   8  -5  127.74    5.36
 -12  -8  -5  131.66    5.44
 -12   8  -4   79.34    4.21
 -12   8  -3  113.76    5.04
 -12   8  -2   79.81    4.21
 -12   8  -1   11.85    1.90
 -12   8   0   17.62    2.13
 -12   8   1   25.42    2.50
 -12   8   2   37.64    3.04
 -12 -10 -11   33.13    3.29
 -12 -10 -10    6.46    1.89
 -12 -10  -9   11.29    2.13
 -12 -10  -8    0.89    1.27
 -12 -10  -7   23.53    2.79
 -12 -10  -6   21.24    2.59
 -12 -10  -5   56.55    3.81
 -12 -10  -4   29.36    2.81
 -12 -12  -6   31.02    3.21
 -12 -12  -5   33.63    3.27
 -11  -1 -25   79.12    4.89
 -11  -1 -24    0.68    1.36
 -11  -1 -23   54.91    3.91
 -11  -1 -22   -0.40    1.04
 -11  -1 -22   -1.56    1.17
 -11   1 -21    3.22    1.15
 -11  -1 -21    0.94    1.23
 -11  -1 -21   -0.35    1.01
 -11  -1 -20    8.23    1.84
 -11   1 -20    4.78    1.30
 -11  -1 -20    2.46    1.12
 -11  -1 -19   59.41    3.55
 -11  -1 -19   62.02    3.83
 -11   1 -19   62.03    3.45
 -11   1 -18    2.74    1.13
 -11  -1 -18    4.17    1.38
 -11  -1 -18    3.03    1.26
 -11  -1 -17  305.79    8.50
 -11   1 -17  287.37    7.63
 -11  -1 -17  298.78    8.07
 -11   1 -16   10.57    1.63
 -11  -1 -16   11.30    1.73
 -11   1 -15  240.74    6.78
 -11  -1 -15  252.66    7.38
 -11  -1 -14  162.23    5.69
 -11   1 -14  152.96    5.25
 -11   1 -13   21.70    2.05
 -11   1 -12    7.93    1.37
 -11   1 -11   41.63    2.63
 -11   1 -10   18.66    1.86
 -11   1  -9  447.79    9.31
 -11   1  -8   25.63    2.10
 -11   1  -7  585.52   10.90
 -11   1  -6   14.39    1.70
 -11   1  -5  308.64    7.22
 -11   1  -4    5.51    1.18
 -11  -1  -4    5.53    1.27
 -11  -1  -3   31.93    2.25
 -11   1  -3   32.99    2.31
 -11   1  -2   41.21    2.50
 -11  -1  -2   43.62    2.58
 -11  -1  -1  453.85    8.92
 -11   1  -1  443.11    8.94
 -11  -1   0    2.50    0.91
 -11   1   0    2.15    1.05
 -11  -1   1  539.93    9.79
 -11   1   1  509.30    9.62
 -11   1   2    2.53    1.03
 -11  -1   2    2.96    1.08
 -11   1   3  172.23    4.91
 -11  -1   3  178.66    4.89
 -11  -1   4  108.97    3.71
 -11   1   4  109.59    3.82
 -11   1   5    4.80    1.06
 -11  -1   5    3.09    0.94
 -11  -1   6   28.12    1.90
 -11   1   6   32.05    2.05
 -11  -1   7  146.50    4.24
 -11   1   7  134.51    4.22
 -11   1   8    7.12    1.19
 -11  -1   8    7.35    1.12
 -11  -1   9  644.48   10.60
 -11   1   9  625.60   10.85
 -11  -1  10    9.76    1.22
 -11   1  10   12.98    1.43
 -11   1  11  746.10   12.14
 -11  -1  11  735.95   11.64
 -11  -1  12   94.54    3.23
 -11   1  12   87.60    3.36
 -11  -1  13   10.26    1.17
 -11   1  13   10.20    1.27
 -11  -1  14   19.92    1.49
 -11   1  14   16.32    1.51
 -11  -1  15  157.50    4.12
 -11  -1  16    7.62    0.99
 -11  -3 -22    1.40    1.41
 -11  -3 -21   13.29    2.28
 -11  -3 -20   21.60    2.63
 -11   3 -20   23.60    2.11
 -11   3 -19   31.60    2.42
 -11  -3 -19   35.48    3.20
 -11   3 -18   19.00    1.93
 -11  -3 -18   20.34    2.42
 -11   3 -17   65.17    3.41
 -11  -3 -17   74.97    4.30
 -11   3 -16   21.88    2.04
 -11  -3 -16   23.10    2.54
 -11   3 -15  226.81    6.50
 -11  -3 -15  240.16    7.53
 -11   3 -14   43.25    2.78
 -11  -3 -14   45.34    3.27
 -11   3 -13   81.73    3.77
 -11  -3 -13   83.96    4.25
 -11   3 -12   73.60    3.51
 -11  -3 -12   77.56    4.05
 -11  -3 -11   91.13    4.27
 -11   3 -11   85.47    3.78
 -11   3 -10   18.22    1.88
 -11  -3 -10   14.60    1.83
 -11   3  -9  149.31    4.96
 -11  -3  -9  155.30    5.36
 -11  -3  -8   43.24    2.82
 -11   3  -8   43.30    2.72
 -11   3  -7  490.10    9.90
 -11   3  -6  113.67    4.26
 -11   3  -5  117.83    4.33
 -11   3  -4  257.42    6.57
 -11   3  -3    8.69    1.45
 -11   3  -2  118.97    4.25
 -11   3  -1  416.79    8.72
 -11   3   0   18.33    1.87
 -11   3   1  535.40   10.16
 -11   3   2    5.53    1.22
 -11   3   3  538.85   10.24
 -11   3   4  109.74    4.03
 -11  -3   5   12.43    1.39
 -11   3   5   11.81    1.54
 -11  -3   6   51.83    2.57
 -11   3   6   47.75    2.65
 -11  -3   7  128.69    4.00
 -11   3   7  125.49    4.33
 -11  -3   8   57.22    2.58
 -11   3   8   48.86    2.70
 -11  -3   9  282.30    6.15
 -11   3   9  273.35    6.75
 -11  -3  10   27.26    1.77
 -11   3  10   22.11    1.89
 -11   3  11   31.49    2.20
 -11  -3  11   39.95    2.07
 -11  -3  12   58.40    2.45
 -11   3  12   53.67    2.86
 -11  -3  13  122.79    3.53
 -11  -3  14  207.93    4.70
 -11  -3  15   18.58    1.29
 -11  -3  16   13.49    1.07
 -11  -5 -20   18.01    2.56
 -11  -5 -19   36.40    3.34
 -11   5 -18   63.46    3.33
 -11  -5 -18   76.87    4.66
 -11  -5 -17   82.26    4.75
 -11   5 -17   75.95    3.67
 -11   5 -16    6.19    1.38
 -11  -5 -16    5.17    1.72
 -11  -5 -15   57.51    3.81
 -11   5 -15   50.49    3.00
 -11  -5 -14   33.83    3.04
 -11   5 -14   28.72    2.30
 -11  -5 -13    8.09    1.82
 -11   5 -13    6.58    1.40
 -11   5 -12  128.37    4.80
 -11  -5 -12  135.84    5.62
 -11   5 -11   47.79    3.00
 -11  -5 -11   52.45    3.45
 -11   5 -10  130.38    4.84
 -11  -5 -10  133.49    5.33
 -11  -5  -9  173.49    6.02
 -11   5  -9  168.92    5.52
 -11   5  -8   87.70    3.93
 -11  -5  -8  102.37    4.52
 -11  -5  -7   42.01    2.91
 -11   5  -7   38.70    2.66
 -11   5  -6   68.22    3.44
 -11  -5  -6   66.13    3.49
 -11   5  -5   63.10    3.26
 -11  -5  -5   60.22    3.32
 -11   5  -4   47.03    2.86
 -11   5  -3    6.25    1.32
 -11   5  -2  102.73    4.14
 -11   5  -1  244.98    6.68
 -11   5   0  270.67    7.08
 -11   5   1  354.15    8.25
 -11   5   2   34.76    2.49
 -11   5   3  147.13    5.08
 -11   5   4   68.97    3.46
 -11   5   5    9.61    1.46
 -11   5   6  152.82    5.16
 -11   5   7   93.30    4.01
 -11   5   8   68.25    3.49
 -11   5   9  174.04    5.65
 -11  -5   9  179.04    4.88
 -11  -5  10   38.66    2.20
 -11  -5  11   53.75    2.48
 -11  -5  12   51.32    2.34
 -11  -5  13    3.37    0.80
 -11  -5  14   60.90    2.38
 -11  -5  15   24.95    1.42
 -11  -7 -17   57.39    4.20
 -11   7 -16    1.86    1.07
 -11  -7 -16    3.11    1.67
 -11   7 -15   10.60    1.60
 -11  -7 -15   14.72    2.28
 -11   7 -14   30.24    2.50
 -11  -7 -14   29.46    2.99
 -11   7 -13    9.88    1.60
 -11  -7 -13    8.58    1.91
 -11   7 -12   55.23    3.26
 -11  -7 -12   58.97    3.89
 -11   7 -11   13.01    1.74
 -11  -7 -11   13.77    2.05
 -11  -7 -10   95.11    4.80
 -11   7 -10   82.76    4.03
 -11   7  -9   58.83    3.37
 -11  -7  -9   67.64    3.94
 -11   7  -8   28.91    2.45
 -11  -7  -8   35.35    2.93
 -11   7  -7   18.44    2.00
 -11  -7  -7   24.25    2.39
 -11  -7  -6   20.77    2.27
 -11   7  -6   18.24    1.99
 -11  -7  -5   55.26    3.38
 -11   7  -5   49.66    3.14
 -11   7  -4  125.93    4.98
 -11  -7  -4  121.52    4.86
 -11   7  -3   14.76    1.92
 -11  -7  -3   16.65    1.98
 -11   7  -2  297.55    7.94
 -11   7  -1  109.47    4.63
 -11   7   0   50.68    3.21
 -11   7   1   44.48    3.00
 -11   7   2  197.16    6.36
 -11   7   3   20.98    2.17
 -11   7   4   28.65    2.47
 -11  -7  12  118.58    3.89
 -11  -7  13   33.51    1.99
 -11  -9 -14   41.93    3.65
 -11  -9 -13   18.04    2.60
 -11  -9 -12   64.59    4.29
 -11  -9 -11   12.97    2.18
 -11  -9 -10   18.82    2.43
 -11   9 -10   16.67    2.11
 -11   9  -9    6.10    1.40
 -11  -9  -9    9.04    1.97
 -11   9  -8    8.29    1.65
 -11  -9  -8    8.44    1.77
 -11  -9  -7    7.19    1.59
 -11  -9  -6   25.89    2.59
 -11  -9  -5   38.81    3.09
 -11  -9  -4   83.53    4.25
 -11  -9  -3   44.65    3.14
 -11 -11 -10   28.12    3.10
 -11 -11  -9   10.00    2.19
 -11 -11  -8    3.30    1.44
 -11 -11  -7    9.79    1.91
 -11 -11  -6    2.74    1.52
 -11 -11  -5   11.61    2.05
 -11 -11  -4   48.39    3.44
 -11 -11  -3   21.42    2.48
 -11 -13  -5    3.27    1.59
 -11 -13  -4   20.12    2.55
 -10   0 -25    1.05    1.27
 -10   0 -24  111.04    5.33
 -10   0 -23   -0.54    1.10
 -10   0 -22   53.73    3.59
 -10   0 -21   -1.57    1.01
 -10   0 -21    0.60    1.10
 -10   0 -20   11.84    1.62
 -10   0 -20   12.57    2.03
 -10   0 -19    1.27    1.01
 -10   0 -19    2.00    1.29
 -10   0 -18   51.14    3.26
 -10   0 -18   43.84    2.87
 -10   0 -17    1.92    1.03
 -10   0 -17   -0.61    0.97
 -10   0 -16  249.72    6.89
 -10   0 -16  252.48    7.17
 -10   0 -15    0.60    1.17
 -10   0 -15    2.32    1.18
 -10   0 -14  299.42    7.50
 -10   0 -13    1.47    1.02
 -10   0 -12   11.61    1.54
 -10   0 -11    0.32    0.94
 -10   0 -10   76.37    3.42
 -10   0  -9    0.46    0.80
 -10   0  -8  335.51    7.57
 -10   0  -7    1.40    1.03
 -10   0  -6 1202.14   17.81
 -10   0  -5    0.51    0.95
 -10   0  -4 1416.52   20.04
 -10   0  -3    0.10    0.88
 -10   0  -2   43.53    2.40
 -10   0  -1    0.63    0.88
 -10   0   0  559.63    9.81
 -10   0   1    0.01    0.81
 -10   0   2  252.93    5.86
 -10   0   3    1.48    0.91
 -10   0   4  455.84    8.39
 -10   0   5    0.68    0.79
 -10   0   6   89.87    3.17
 -10   0   7   -0.54    0.66
 -10   0   8   57.38    2.49
 -10   0   9    0.63    0.72
 -10   0  10  520.67    8.98
 -10   0  11    0.58    0.70
 -10   0  12  931.60   13.65
 -10   0  13    1.42    0.77
 -10   0  14  109.47    3.38
 -10  -2 -24   68.84    4.45
 -10  -2 -23    5.16    1.66
 -10  -2 -22   56.11    3.89
 -10  -2 -21    0.88    1.13
 -10   2 -20   12.29    1.59
 -10  -2 -20   11.71    2.07
 -10  -2 -19   29.40    2.82
 -10   2 -19   27.45    2.19
 -10   2 -18   11.73    1.55
 -10  -2 -18   12.20    1.90
 -10   2 -17   44.98    2.77
 -10  -2 -17   51.27    3.40
 -10  -2 -16  118.87    5.04
 -10   2 -16  119.87    4.47
 -10   2 -15   58.04    3.07
 -10  -2 -15   66.82    3.72
 -10  -2 -14  357.20    8.86
 -10   2 -14  349.11    8.04
 -10  -2 -13    1.17    1.08
 -10   2 -13    2.43    0.97
 -10  -2 -12  119.80    4.73
 -10   2 -12  119.98    4.36
 -10   2 -11   22.01    1.94
 -10  -2 -11   25.14    2.24
 -10   2 -10   13.83    1.58
 -10  -2 -10   16.98    1.78
 -10   2  -9   39.35    2.49
 -10  -2  -9   43.27    2.69
 -10  -2  -8  396.01    8.56
 -10   2  -8  385.79    8.25
 -10   2  -7   72.56    3.23
 -10   2  -6  379.61    8.04
 -10   2  -5   55.64    2.84
 -10   2  -4  151.27    4.61
 -10   2  -3  280.23    6.55
 -10   2  -2   42.43    2.41
 -10   2  -1  193.19    5.22
 -10   2   0  357.83    7.48
 -10   2   1   11.62    1.44
 -10   2   2 1049.04   15.62
 -10   2   3  139.65    4.30
 -10  -2   3  146.07    4.24
 -10  -2   4  209.71    5.15
 -10   2   4  197.30    5.16
 -10  -2   5   83.30    3.04
 -10   2   5   76.21    3.11
 -10  -2   6   59.57    2.53
 -10   2   6   57.37    2.69
 -10  -2   7   34.90    1.94
 -10   2   7   37.05    2.16
 -10   2   8   55.74    2.64
 -10  -2   8   55.93    2.42
 -10  -2   9   25.61    1.64
 -10   2   9   24.79    1.80
 -10   2  10  153.13    4.47
 -10  -2  10  153.61    4.02
 -10  -2  11  110.36    3.27
 -10   2  11  107.69    3.71
 -10   2  12  345.15    7.29
 -10  -2  12  353.33    6.52
 -10   2  13   82.01    3.22
 -10  -2  13   84.52    2.74
 -10  -2  14   20.46    1.34
 -10  -2  15   16.82    1.20
 -10  -2  16   11.70    0.95
 -10  -4 -22  135.21    6.39
 -10  -4 -21   18.39    2.51
 -10  -4 -20   15.15    2.31
 -10  -4 -19   13.71    2.20
 -10   4 -19   10.34    1.44
 -10   4 -18   22.54    1.99
 -10  -4 -18   21.37    2.51
 -10   4 -17   17.31    1.76
 -10  -4 -17   23.66    2.59
 -10  -4 -16  204.00    7.04
 -10   4 -16  199.46    5.82
 -10   4 -15    7.12    1.34
 -10  -4 -15    7.66    1.88
 -10  -4 -14  121.93    5.20
 -10   4 -14  120.65    4.39
 -10   4 -13   10.82    1.49
 -10  -4 -13   12.55    1.87
 -10  -4 -12   47.61    3.19
 -10   4 -12   47.22    2.74
 -10   4 -11  140.17    4.76
 -10  -4 -11  155.73    5.61
 -10  -4 -10   70.89    3.70
 -10   4 -10   63.93    3.15
 -10   4  -9  133.92    4.60
 -10  -4  -9  147.90    5.22
 -10   4  -8  221.29    6.05
 -10  -4  -8  238.98    6.66
 -10   4  -7   11.28    1.47
 -10  -4  -7   11.29    1.64
 -10   4  -6   69.51    3.21
 -10  -4  -6   70.12    3.40
 -10   4  -5   34.64    2.35
 -10  -4  -5   32.07    2.28
 -10   4  -4   97.66    3.81
 -10   4  -3   52.54    2.78
 -10   4  -2    5.01    1.21
 -10   4  -1  178.79    5.25
 -10   4   0  123.63    4.28
 -10   4   1   49.21    2.69
 -10   4   2  832.12   13.74
 -10   4   3   88.08    3.60
 -10   4   4  154.82    4.83
 -10   4   5   21.99    1.94
 -10   4   6   59.23    2.98
 -10   4   7  109.51    4.05
 -10   4   8   80.60    3.49
 -10  -4   8   86.30    3.10
 -10   4   9   32.80    2.29
 -10  -4   9   35.06    1.97
 -10  -4  10  155.61    4.09
 -10   4  10  143.24    4.75
 -10  -4  11    5.40    0.91
 -10  -4  12   95.83    3.00
 -10  -4  13   43.72    1.92
 -10  -4  14   61.71    2.16
 -10  -4  15   82.48    2.37
 -10  -4  16    3.20    0.57
 -10  -6 -19   59.04    4.23
 -10  -6 -18   16.78    2.43
 -10   6 -17   27.11    2.16
 -10  -6 -17   29.11    2.93
 -10  -6 -16   48.23    3.65
 -10   6 -16   44.65    2.75
 -10  -6 -15   42.98    3.39
 -10   6 -15   35.41    2.48
 -10   6 -14   99.61    4.10
 -10  -6 -14  109.28    5.19
 -10  -6 -13   32.52    2.92
 -10   6 -13   29.54    2.27
 -10   6 -12   24.42    2.18
 -10  -6 -12   27.24    2.71
 -10   6 -11  185.38    5.73
 -10  -6 -11  197.86    6.71
 -10   6 -10   20.54    1.98
 -10  -6 -10   22.22    2.37
 -10   6  -9   91.05    3.94
 -10  -6  -9   94.27    4.44
 -10  -6  -8   33.52    2.64
 -10   6  -8   34.50    2.49
 -10   6  -7   12.76    1.64
 -10  -6  -7   16.52    2.00
 -10  -6  -6  196.84    6.11
 -10   6  -6  184.24    5.70
 -10   6  -5   53.78    3.05
 -10  -6  -5   52.20    3.14
 -10   6  -4   92.13    3.95
 -10  -6  -4   98.41    4.14
 -10   6  -3  108.78    4.30
 -10  -6  -3  112.15    4.30
 -10   6  -2   13.21    1.66
 -10   6  -1   78.07    3.64
 -10   6   0  141.46    4.93
 -10   6   1   80.53    3.70
 -10   6   2  280.04    7.23
 -10   6   3   80.10    3.74
 -10   6   4  227.15    6.48
 -10   6   5  242.60    6.74
 -10   6   6   13.72    1.78
 -10  -6  12   87.46    3.06
 -10  -6  13   51.45    2.20
 -10  -6  14   13.62    1.15
 -10  -8 -16   13.06    2.37
 -10   8 -16   12.78    1.66
 -10  -8 -15    6.43    1.80
 -10   8 -15    4.73    1.26
 -10   8 -14   28.91    2.34
 -10  -8 -14   26.84    2.80
 -10   8 -13   16.84    1.89
 -10  -8 -13   15.02    2.23
 -10  -8 -12    7.33    1.75
 -10   8 -12    7.29    1.35
 -10   8 -11   70.75    3.72
 -10  -8 -11   76.99    4.36
 -10   8 -10   15.23    1.90
 -10  -8 -10   16.16    2.16
 -10   8  -9   54.53    3.30
 -10  -8  -9   59.57    3.73
 -10  -8  -8   39.97    3.09
 -10   8  -8   33.63    2.66
 -10  -8  -7   50.82    3.39
 -10   8  -7   54.80    3.32
 -10   8  -6  102.18    4.48
 -10  -8  -6  106.36    4.73
 -10   8  -5   16.79    1.98
 -10  -8  -5   18.53    2.05
 -10   8  -4   11.22    1.78
 -10  -8  -4   14.09    1.95
 -10   8  -3  161.23    5.77
 -10  -8  -3  181.75    5.89
 -10   8  -2   58.17    3.50
 -10  -8  -2   63.83    3.43
 -10   8  -1  233.62    7.04
 -10 -10 -13   16.98    2.55
 -10 -10 -12   10.30    1.99
 -10 -10 -11   39.82    3.45
 -10 -10 -10   23.87    2.75
 -10 -10  -9   47.92    3.61
 -10 -10  -8   28.69    2.81
 -10 -10  -7   32.64    3.01
 -10 -10  -6    1.42    1.30
 -10 -10  -5   16.31    2.14
 -10 -10  -4    4.17    1.38
 -10 -10  -3   14.05    1.99
 -10 -10  -2   27.40    2.42
 -10 -10  -1   99.72    4.42
 -10 -12  -9   34.98    3.31
 -10 -12  -8    3.08    1.61
 -10 -12  -7    4.09    1.77
 -10 -12  -6    3.28    1.54
 -10 -12  -5   15.67    2.28
 -10 -12  -4   25.12    2.72
 -10 -12  -3   40.94    3.17
 -10 -12  -2   12.55    1.99
  -9  -1 -26   -0.33    1.29
  -9  -1 -25   35.39    3.22
  -9  -1 -24    2.33    1.41
  -9   1 -23   76.50    4.12
  -9  -1 -23   82.43    4.57
  -9  -1 -22    4.03    1.25
  -9   1 -22    2.52    1.08
  -9  -1 -22    3.63    1.46
  -9  -1 -21   85.69    4.03
  -9   1 -21   87.89    4.25
  -9  -1 -21   84.11    4.45
  -9   1 -21   84.63    3.74
  -9   1 -20    3.11    1.08
  -9   1 -20    4.65    1.37
  -9  -1 -20    3.46    1.36
  -9   1 -19   45.22    2.94
  -9  -1 -19   42.38    3.10
  -9   1 -19   41.88    2.59
  -9   1 -18   22.19    1.91
  -9  -1 -18   24.55    2.32
  -9   1 -18   24.09    2.18
  -9  -1 -17    9.67    1.69
  -9   1 -17    8.40    1.35
  -9   1 -17    9.40    1.54
  -9   1 -16    9.49    1.40
  -9  -1 -16   11.07    1.75
  -9   1 -15  195.93    5.56
  -9  -1 -15  193.67    6.12
  -9   1 -14   26.77    2.04
  -9  -1 -14   30.23    2.43
  -9   1 -13  212.49    5.75
  -9  -1 -13  218.58    6.28
  -9   1 -12    7.33    1.28
  -9  -1 -12    6.95    1.38
  -9   1 -11  484.28    9.32
  -9  -1 -11  488.71    9.84
  -9   1 -10    6.74    1.20
  -9  -1 -10    7.61    1.30
  -9   1  -9    5.78    1.18
  -9  -1  -9    8.45    1.35
  -9   1  -8    5.11    1.12
  -9  -1  -8    5.09    1.13
  -9   1  -7  568.67   10.10
  -9   1  -6   28.88    1.96
  -9   1  -5 1174.20   16.93
  -9   1  -4  226.06    5.53
  -9   1  -3  574.16    9.92
  -9   1  -2   58.76    2.66
  -9   1  -1  223.72    5.41
  -9   1   0  184.71    4.80
  -9  -1   0  180.69    4.69
  -9   1   1  362.47    7.15
  -9  -1   1  377.56    7.19
  -9  -1   2   10.93    1.30
  -9   1   2    9.56    1.22
  -9  -1   3  937.51   13.64
  -9   1   3  936.05   13.80
  -9  -1   4   10.43    1.18
  -9   1   4    9.84    1.19
  -9  -1   5  179.65    4.39
  -9   1   5  177.21    4.50
  -9   1   6  118.28    3.56
  -9  -1   6  118.60    3.47
  -9  -1   7  398.47    7.15
  -9   1   7  402.66    7.47
  -9  -1   8   96.70    3.00
  -9   1   8   92.60    3.13
  -9   1   9   46.42    2.18
  -9  -1   9   45.14    2.01
  -9  -1  10    0.70    0.68
  -9   1  10    0.81    0.68
  -9  -1  11  322.56    6.03
  -9   1  11  318.32    6.40
  -9  -1  12   80.47    2.61
  -9   1  12   80.81    2.90
  -9   1  13  327.51    6.53
  -9  -1  13  326.78    5.96
  -9  -1  14   48.55    1.95
  -9  -3 -24   35.65    3.39
  -9  -3 -23  135.30    6.17
  -9  -3 -22    2.10    1.31
  -9  -3 -21   92.25    4.89
  -9   3 -20    8.69    1.24
  -9  -3 -20    5.18    1.48
  -9  -3 -19   22.95    2.43
  -9   3 -19   23.62    1.91
  -9  -3 -18   22.93    2.43
  -9   3 -18   24.80    1.97
  -9   3 -17   20.14    1.78
  -9  -3 -17   25.79    2.55
  -9  -3 -16    6.39    1.54
  -9   3 -16    4.73    1.12
  -9   3 -15  227.35    5.99
  -9  -3 -15  229.09    7.02
  -9  -3 -14   94.03    4.34
  -9   3 -14   94.87    3.70
  -9   3 -13  409.88    8.45
  -9  -3 -13  415.95    9.56
  -9   3 -12   12.47    1.52
  -9  -3 -12   11.08    1.72
  -9   3 -11    1.53    0.91
  -9  -3 -11    0.64    0.93
  -9   3 -10   17.46    1.65
  -9  -3 -10   19.36    1.91
  -9   3  -9    2.19    0.91
  -9  -3  -9    3.13    1.21
  -9   3  -8   37.84    2.28
  -9  -3  -8   40.00    2.57
  -9  -3  -7   62.00    3.05
  -9   3  -7   58.30    2.76
  -9   3  -6   10.72    1.38
  -9  -3  -6    8.32    1.36
  -9   3  -5  191.32    5.15
  -9  -3  -5  197.18    5.39
  -9   3  -4   18.31    1.64
  -9  -3  -4   18.82    1.76
  -9   3  -3  274.93    6.29
  -9   3  -2   73.71    3.06
  -9   3  -1   71.61    3.04
  -9   3   0  230.85    5.62
  -9   3   1  183.18    4.95
  -9   3   2   39.57    2.25
  -9   3   3  378.74    7.61
  -9   3   4    1.08    0.84
  -9   3   5  685.67   11.37
  -9   3   6  152.30    4.44
  -9   3   7    1.75    0.86
  -9  -3   7    2.01    0.74
  -9  -3   8   73.98    2.62
  -9   3   8   71.36    2.99
  -9  -3   9   65.98    2.40
  -9   3   9   62.86    2.86
  -9  -3  10   59.74    2.27
  -9   3  10   60.91    2.80
  -9  -3  11  164.76    3.82
  -9   3  11  150.01    4.54
  -9  -3  12    3.36    0.69
  -9  -3  13  253.72    4.76
  -9  -3  14   54.79    1.87
  -9  -3  15   65.61    1.89
  -9  -5 -21   71.26    4.55
  -9  -5 -20    2.98    1.32
  -9  -5 -19   16.34    2.24
  -9  -5 -18   19.84    2.54
  -9   5 -18   17.32    1.64
  -9   5 -17    7.19    1.19
  -9  -5 -17   11.35    2.01
  -9   5 -16   65.60    3.10
  -9  -5 -16   74.62    4.27
  -9  -5 -15   68.00    3.96
  -9   5 -15   64.00    3.05
  -9   5 -14   19.16    1.75
  -9  -5 -14   20.65    2.41
  -9  -5 -13  231.91    7.15
  -9   5 -13  223.22    5.95
  -9   5 -12   63.29    3.09
  -9  -5 -12   64.61    3.72
  -9  -5 -11  130.08    5.09
  -9   5 -11  136.65    4.54
  -9  -5 -10    9.17    1.57
  -9   5 -10   10.02    1.33
  -9  -5  -9   67.25    3.49
  -9   5  -9   64.77    3.05
  -9   5  -8  141.41    4.58
  -9  -5  -8  147.69    5.15
  -9   5  -7   38.61    2.55
  -9  -5  -7   39.56    2.62
  -9   5  -6   54.44    2.88
  -9  -5  -6   63.85    3.24
  -9   5  -5  241.19    6.19
  -9  -5  -5  254.35    6.56
  -9  -5  -4   14.88    1.76
  -9   5  -4   15.06    1.64
  -9  -5  -3  274.88    6.66
  -9   5  -3  268.26    6.60
  -9  -5  -2   88.41    3.51
  -9   5  -2   84.98    3.53
  -9   5  -1    8.31    1.37
  -9   5   0  174.16    5.15
  -9   5   1   92.03    3.68
  -9   5   2  177.14    5.21
  -9   5   3  429.04    8.82
  -9   5   4   15.57    1.68
  -9   5   5  344.78    7.75
  -9   5   6   67.36    3.20
  -9   5   7    5.99    1.22
  -9  -5  11  163.64    4.04
  -9  -5  12   29.60    1.58
  -9  -5  13  132.95    3.29
  -9  -5  14   55.10    1.89
  -9  -5  15  104.20    2.37
  -9  -7 -19   11.49    2.28
  -9  -7 -18   58.80    4.19
  -9  -7 -17    5.13    1.61
  -9   7 -17    3.13    1.06
  -9   7 -16   82.87    3.64
  -9  -7 -16   80.91    4.65
  -9   7 -15   90.25    3.86
  -9  -7 -15   98.62    5.04
  -9  -7 -14   72.83    4.28
  -9   7 -14   68.67    3.35
  -9  -7 -13   47.20    3.47
  -9   7 -13   41.33    2.64
  -9  -7 -12   25.59    2.60
  -9   7 -12   26.18    2.14
  -9   7 -11   38.66    2.61
  -9  -7 -11   40.45    3.15
  -9   7 -10  310.77    7.64
  -9  -7 -10  330.16    8.72
  -9   7  -9   32.52    2.46
  -9  -7  -9   35.20    2.83
  -9   7  -8  126.28    4.68
  -9  -7  -8  135.16    5.21
  -9   7  -7   82.28    3.74
  -9  -7  -7   89.04    4.10
  -9   7  -6   75.29    3.61
  -9  -7  -6   87.17    4.01
  -9  -7  -5  153.02    5.24
  -9   7  -5  136.74    4.91
  -9  -7  -4    3.37    1.16
  -9   7  -4    2.33    1.16
  -9  -7  -3   85.34    3.76
  -9   7  -3   84.14    3.82
  -9  -7  -2   93.29    3.86
  -9   7  -2   84.15    3.85
  -9   7  -1   11.27    1.66
  -9  -7  -1   11.47    1.50
  -9   7   0  148.46    5.15
  -9   7   1   23.53    2.13
  -9  -7  14   28.84    1.55
  -9  -9 -15   22.99    2.78
  -9  -9 -14   39.35    3.43
  -9  -9 -13    5.77    1.84
  -9  -9 -12   86.91    4.76
  -9  -9 -11   10.89    1.95
  -9  -9 -10   40.54    3.20
  -9  -9  -9   14.71    2.09
  -9  -9  -8   77.46    4.18
  -9  -9  -7   64.90    3.77
  -9  -9  -6   76.75    3.99
  -9  -9  -5   18.37    2.15
  -9  -9  -4   15.16    1.88
  -9  -9  -3   58.79    3.39
  -9  -9  -2   79.62    3.79
  -9  -9  -1   24.78    2.18
  -9  -9   0  185.91    5.65
  -9 -11 -12    7.08    1.87
  -9 -11 -11   22.74    2.85
  -9 -11 -10   40.86    3.44
  -9 -11  -9   16.77    2.36
  -9 -11  -8   62.81    4.03
  -9 -11  -7   18.52    2.32
  -9 -11  -6    8.15    2.03
  -9 -11  -5    4.29    1.59
  -9 -11  -4    3.59    1.35
  -9 -11  -3    2.37    1.34
  -9 -11  -2   75.29    3.96
  -9 -11  -1   42.09    2.94
  -9 -11   0   81.61    3.94
  -9 -13  -7    5.37    1.72
  -9 -13  -6    3.80    1.73
  -9 -13  -5    8.30    1.84
  -9 -13  -4    7.66    1.88
  -9 -13  -3   11.64    2.04
  -9 -13  -2   10.71    1.92
  -9 -13  -1   13.70    2.01
  -8   0 -25    0.61    1.21
  -8   0 -24    9.88    1.84
  -8   0 -23    0.98    1.34
  -8   0 -22  163.33    6.18
  -8   0 -21   -0.34    0.82
  -8   0 -21    0.48    1.22
  -8   0 -20   92.59    3.88
  -8   0 -20   99.05    4.50
  -8   0 -19    1.32    0.90
  -8   0 -19   -0.29    1.03
  -8   0 -18  165.00    5.59
  -8   0 -18  159.59    5.09
  -8   0 -17    1.23    0.96
  -8   0 -17    0.10    0.92
  -8   0 -16    5.99    1.20
  -8   0 -16    7.44    1.47
  -8   0 -15   -0.23    0.89
  -8   0 -14   17.79    1.74
  -8   0 -13    0.42    0.88
  -8   0 -12  671.68   11.82
  -8   0 -11    1.10    0.96
  -8   0 -10  840.46   13.41
  -8   0  -9   -0.03    0.75
  -8   0  -6  690.23   11.17
  -8   0  -5   -0.31    0.84
  -8   0  -4  505.83    8.82
  -8   0  -3    0.93    0.88
  -8   0  -2 1353.55   18.31
  -8   0  -1   -0.09    0.87
  -8   0   0  699.68   10.82
  -8   0   1   -0.85    0.78
  -8   0   2   25.15    1.66
  -8   0   3    1.58    0.81
  -8   0   4 1229.63   16.51
  -8   0   5    0.33    0.70
  -8   0   6 1227.90   16.39
  -8   0   7    0.46    0.67
  -8   0   8  680.96   10.15
  -8   0   9    0.62    0.63
  -8   0  10   14.64    1.17
  -8   0  11    0.61    0.77
  -8   0  12  142.32    3.55
  -8   0  13   -0.53    0.51
  -8  -2 -26   26.28    2.93
  -8  -2 -25   31.04    3.08
  -8  -2 -24    5.42    1.70
  -8  -2 -23   21.98    2.59
  -8  -2 -22   79.83    4.45
  -8  -2 -21    3.46    1.45
  -8  -2 -20  188.57    6.59
  -8   2 -20  181.81    5.14
  -8   2 -19   33.72    2.18
  -8  -2 -19   38.21    2.94
  -8   2 -18   52.94    2.71
  -8  -2 -18   56.14    3.43
  -8   2 -17   62.66    2.91
  -8  -2 -17   67.47    3.65
  -8   2 -16    2.10    0.91
  -8  -2 -16    2.65    1.19
  -8   2 -15   79.42    3.25
  -8  -2 -15   79.10    3.82
  -8   2 -14  186.33    5.12
  -8  -2 -14  194.79    5.95
  -8  -2 -13   21.97    2.08
  -8   2 -13   20.27    1.69
  -8   2 -12  501.96    9.26
  -8  -2 -12  499.39   10.04
  -8   2 -11  164.68    4.66
  -8  -2 -11  168.68    5.21
  -8  -2 -10  238.86    6.21
  -8   2 -10  239.42    5.72
  -8  -2  -9    3.73    1.06
  -8   2  -9    5.44    1.09
  -8   2  -8   12.52    1.33
  -8  -2  -8   13.92    1.53
  -8   2  -7   69.59    2.85
  -8  -2  -7   71.21    3.08
  -8  -2  -6  183.73    5.01
  -8   2  -6  183.95    4.78
  -8  -2  -5   49.37    2.49
  -8   2  -5   52.38    2.46
  -8   2  -4  349.13    6.95
  -8   2  -3   27.36    1.87
  -8   2  -2  711.00   11.23
  -8   2  -1   51.87    2.42
  -8   2   0  151.61    4.13
  -8   2   1  299.80    6.17
  -8   2   2  133.85    3.82
  -8   2   3  110.64    3.40
  -8   2   4  510.49    8.82
  -8   2   5   61.60    2.54
  -8  -2   5   65.42    2.41
  -8   2   6  958.16   13.95
  -8  -2   6  975.22   13.41
  -8   2   7  156.38    4.14
  -8  -2   7  156.70    3.72
  -8  -2   8   57.57    2.12
  -8   2   8   57.30    2.43
  -8  -2   9  336.41    5.91
  -8   2   9  329.25    6.55
  -8  -2  10   34.78    1.58
  -8   2  10   32.11    1.84
  -8   2  11   40.07    2.08
  -8  -2  11   44.07    1.72
  -8  -2  12  143.28    3.23
  -8  -2  13   40.51    1.57
  -8  -2  14  422.71    6.37
  -8  -4 -23   23.10    2.70
  -8  -4 -22   24.52    2.83
  -8  -4 -21   28.68    2.98
  -8  -4 -20  106.46    5.21
  -8   4 -19    6.83    1.10
  -8  -4 -19    7.39    1.73
  -8  -4 -18   56.64    3.72
  -8   4 -18   62.95    2.85
  -8  -4 -17   36.17    2.95
  -8   4 -17   39.23    2.25
  -8  -4 -16   -0.02    1.17
  -8   4 -16    1.39    0.80
  -8   4 -15   88.64    3.36
  -8  -4 -15   88.84    4.31
  -8   4 -14  141.64    4.36
  -8  -4 -14  153.82    5.54
  -8   4 -13    8.12    1.23
  -8  -4 -13    8.63    1.66
  -8  -4 -12  106.34    4.38
  -8   4 -12   99.85    3.61
  -8   4 -11  100.27    3.59
  -8  -4 -11  102.73    4.23
  -8   4 -10  305.32    6.77
  -8  -4 -10  327.86    7.89
  -8   4  -9  261.63    6.12
  -8  -4  -9  273.75    6.91
  -8   4  -8   16.93    1.56
  -8  -4  -8   16.12    1.77
  -8   4  -7  101.58    3.58
  -8  -4  -7  109.70    4.02
  -8  -4  -6  124.31    4.23
  -8   4  -6  116.94    3.86
  -8   4  -5   72.72    3.03
  -8  -4  -5   78.89    3.35
  -8   4  -4  185.67    4.98
  -8  -4  -4  191.85    5.19
  -8   4  -3   37.05    2.19
  -8  -4  -3   37.78    2.25
  -8   4  -2  356.43    7.34
  -8  -4  -2  366.40    7.37
  -8   4  -1   72.71    3.04
  -8   4   0  228.09    5.62
  -8   4   1  382.60    7.69
  -8   4   2  170.02    4.74
  -8   4   3  125.68    4.04
  -8   4   4  808.34   12.84
  -8   4   5   23.64    1.83
  -8   4   6  115.66    3.90
  -8   4   7   76.19    3.14
  -8   4   8   16.07    1.57
  -8  -4  10   23.92    1.38
  -8  -4  11   59.82    2.04
  -8  -4  12  117.84    2.88
  -8  -4  13   21.14    1.09
  -8  -4  14  317.72    4.88
  -8  -4  15   12.99    0.60
  -8  -6 -21   22.88    2.89
  -8  -6 -20   32.13    3.17
  -8  -6 -19    2.71    1.48
  -8  -6 -18   24.60    2.74
  -8   6 -17   23.09    1.77
  -8  -6 -17   22.67    2.56
  -8  -6 -16   11.47    1.94
  -8   6 -16   11.06    1.40
  -8  -6 -15   98.94    4.80
  -8   6 -15   95.28    3.63
  -8  -6 -14   47.19    3.34
  -8   6 -14   47.55    2.58
  -8   6 -13  125.98    4.28
  -8  -6 -13  131.04    5.39
  -8   6 -12  390.25    8.22
  -8  -6 -12  391.68    9.61
  -8  -6 -11   58.80    3.55
  -8   6 -11   60.62    2.94
  -8   6 -10    7.07    1.12
  -8  -6 -10    7.23    1.58
  -8  -6  -9   71.74    3.61
  -8   6  -9   67.89    3.12
  -8   6  -8   18.83    1.84
  -8  -6  -8   19.46    2.05
  -8  -6  -7  204.91    6.01
  -8   6  -7  196.42    5.51
  -8   6  -6  100.56    3.96
  -8  -6  -6  107.21    4.19
  -8   6  -5  119.15    4.20
  -8  -6  -5  130.80    4.55
  -8  -6  -4  173.17    5.16
  -8   6  -4  156.92    4.92
  -8   6  -3  184.92    5.37
  -8  -6  -3  196.27    5.54
  -8  -6  -2   99.83    3.73
  -8   6  -2   94.37    3.76
  -8  -6  -1   57.48    2.82
  -8   6  -1   57.15    2.91
  -8  -6   0   38.29    2.23
  -8   6   0   35.28    2.35
  -8   6   1  236.49    6.23
  -8   6   2   28.11    2.13
  -8   6   3  135.37    4.59
  -8  -6  13   44.03    1.77
  -8  -6  14  156.62    3.26
  -8  -6  15   27.04    1.03
  -8  -8 -18   13.44    2.36
  -8  -8 -17   61.51    4.28
  -8  -8 -16   33.19    3.21
  -8  -8 -15  107.84    5.36
  -8  -8 -14    4.97    1.64
  -8  -8 -13   14.98    2.18
  -8  -8 -12   39.16    3.16
  -8  -8 -11   21.58    2.38
  -8  -8 -10   29.64    2.73
  -8  -8  -9  202.31    6.67
  -8  -8  -8   64.60    3.70
  -8  -8  -7  107.09    4.59
  -8  -8  -6   66.87    3.57
  -8  -8  -5   85.34    3.93
  -8  -8  -4  140.61    4.95
  -8  -8  -3   21.77    2.02
  -8  -8  -2   44.66    2.73
  -8  -8  -1   20.88    1.88
  -8  -8   0   20.15    1.79
  -8  -8   1   71.38    3.62
  -8 -10 -14   31.78    3.12
  -8 -10 -13    5.06    1.68
  -8 -10 -12    1.90    1.48
  -8 -10 -11    6.53    1.71
  -8 -10 -10    4.83    1.63
  -8 -10  -9   46.73    3.44
  -8 -10  -8   10.07    1.88
  -8 -10  -7   74.58    4.09
  -8 -10  -6   14.82    2.03
  -8 -10  -5   45.09    3.12
  -8 -10  -4    3.14    1.33
  -8 -10  -3   14.15    1.81
  -8 -10  -2    5.14    1.39
  -8 -10  -1   74.69    3.63
  -8 -10   0   33.35    2.46
  -8 -10   1  157.40    5.06
  -8 -12 -10   11.28    2.09
  -8 -12  -9   21.26    2.66
  -8 -12  -8   21.21    2.61
  -8 -12  -7   20.88    2.50
  -8 -12  -6    3.03    1.30
  -8 -12  -5    8.11    1.66
  -8 -12  -4    3.12    1.31
  -8 -12  -3    2.52    1.24
  -8 -12  -2   15.21    2.00
  -8 -12  -1   11.88    1.80
  -8 -12   0    8.73    1.61
  -8 -12   1   51.75    3.08
  -8 -14  -6    3.62    1.77
  -8 -14  -5    5.76    1.86
  -7  -1 -27   75.10    4.63
  -7  -1 -26    0.68    1.21
  -7  -1 -25   43.15    3.32
  -7  -1 -24    7.00    1.66
  -7   1 -24    7.13    1.49
  -7  -1 -23    0.44    1.16
  -7   1 -23    2.38    1.37
  -7   1 -22   58.49    3.36
  -7  -1 -22   57.86    3.64
  -7   1 -21   96.15    3.59
  -7  -1 -21   99.43    4.62
  -7   1 -21   99.48    4.30
  -7  -1 -20    7.79    1.58
  -7   1 -20    6.49    1.08
  -7   1 -20    8.54    1.52
  -7   1 -19  307.19    6.81
  -7   1 -19  309.04    7.64
  -7  -1 -19  300.43    7.97
  -7   1 -18  163.16    4.71
  -7  -1 -18  165.68    5.64
  -7   1 -18  161.68    5.23
  -7   1 -17   67.67    2.93
  -7   1 -17   64.76    3.18
  -7  -1 -17   68.07    3.45
  -7   1 -16    2.65    0.86
  -7   1 -16    3.87    1.04
  -7  -1 -16    1.92    1.03
  -7  -1 -15   17.36    1.80
  -7   1 -15   17.70    1.55
  -7   1 -15   19.27    1.75
  -7   1 -14    4.44    0.95
  -7   1 -14    2.34    0.96
  -7  -1 -14    2.66    0.98
  -7   1 -13  219.66    5.58
  -7   1 -13  216.00    5.33
  -7  -1 -13  215.12    5.84
  -7   1 -12   50.16    2.40
  -7   1 -12   48.98    2.46
  -7  -1 -12   50.11    2.66
  -7   1 -11  522.95    9.35
  -7   1 -11  532.23    9.23
  -7  -1 -11  532.69    9.85
  -7   1 -10   28.30    1.85
  -7  -1 -10   26.70    1.95
  -7   1  -9 1005.51   14.63
  -7  -1  -9 1029.73   15.28
  -7   1  -8  219.42    5.13
  -7  -1  -8  229.18    5.49
  -7   1  -7  193.20    4.66
  -7  -1  -7  193.02    4.88
  -7   1  -6  149.26    3.99
  -7  -1  -6  150.48    4.17
  -7  -1  -5  282.73    5.91
  -7   1  -5  278.52    5.72
  -7   1  -4  165.75    4.13
  -7   1  -3  997.59   13.94
  -7   1  -2   53.32    2.29
  -7   1  -1  894.82   12.78
  -7   1   0    3.05    0.98
  -7   1   1  659.35   10.01
  -7  -1   2   58.01    2.21
  -7   1   2   59.84    2.33
  -7   1   3    3.44    0.84
  -7  -1   3    3.47    0.87
  -7   1   4   64.55    2.35
  -7  -1   4   62.71    2.22
  -7  -1   5 1401.26   17.71
  -7   1   5 1388.37   18.01
  -7   1   6  263.66    5.22
  -7  -1   6  263.11    4.96
  -7   1   7 1589.10   20.25
  -7  -1   7 1601.81   19.81
  -7  -1   8  439.25    6.93
  -7   1   8  440.23    7.34
  -7  -1   9  661.70    9.40
  -7   1   9  666.23    9.95
  -7  -1  10   42.84    1.67
  -7   1  10   46.63    1.98
  -7  -1  11   17.65    1.07
  -7   1  11   18.39    1.27
  -7  -1  12   48.39    1.69
  -7  -1  13  127.69    2.86
  -7  -3 -25   19.40    2.52
  -7  -3 -24    9.87    1.99
  -7  -3 -23    4.82    1.41
  -7  -3 -22   50.55    3.58
  -7  -3 -21  114.03    5.27
  -7  -3 -20    8.75    1.75
  -7   3 -20    9.76    1.14
  -7   3 -19  104.43    3.48
  -7  -3 -19  101.07    4.74
  -7  -3 -18    4.09    1.56
  -7   3 -18    1.91    0.78
  -7   3 -17  159.76    4.41
  -7  -3 -17  161.00    5.78
  -7   3 -16   55.54    2.51
  -7  -3 -16   47.74    3.06
  -7   3 -15    7.05    1.02
  -7  -3 -15    4.81    1.24
  -7   3 -14   47.66    2.34
  -7  -3 -14   50.54    3.02
  -7   3 -13   86.22    3.12
  -7  -3 -13   88.99    3.89
  -7  -3 -12  172.98    5.38
  -7   3 -12  168.31    4.53
  -7  -3 -11  934.97   15.14
  -7   3 -11  921.90   13.77
  -7   3 -10   20.87    1.65
  -7  -3 -10   22.11    2.04
  -7   3  -9  151.12    4.15
  -7  -3  -9  151.70    4.71
  -7   3  -8   31.04    1.82
  -7  -3  -8   32.26    2.14
  -7  -3  -7    9.06    1.29
  -7   3  -7    9.30    1.17
  -7   3  -6   71.38    2.74
  -7  -3  -6   75.64    3.12
  -7   3  -5   55.49    2.43
  -7  -3  -5   58.67    2.68
  -7  -3  -4   80.92    3.07
  -7   3  -4   78.09    2.88
  -7   3  -3  851.42   12.68
  -7  -3  -3  854.91   12.90
  -7   3  -2   86.71    3.03
  -7  -3  -2   89.66    3.10
  -7   3  -1 1061.13   15.03
  -7   3   0   86.42    3.04
  -7   3   1   84.04    2.98
  -7   3   2  111.66    3.43
  -7   3   3  129.28    3.76
  -7   3   4  109.07    3.40
  -7   3   5  531.86    9.00
  -7   3   6   20.20    1.52
  -7   3   7  168.42    4.41
  -7  -3   8  173.16    3.71
  -7   3   8  166.02    4.42
  -7  -3   9  172.48    3.62
  -7  -3  10  154.79    3.28
  -7  -3  11   26.34    1.19
  -7  -3  12   19.53    0.96
  -7  -3  13  123.41    2.42
  -7  -5 -23    3.04    1.54
  -7  -5 -22   32.33    3.19
  -7  -5 -21   55.25    4.03
  -7  -5 -20   39.94    3.32
  -7  -5 -19   51.99    3.69
  -7  -5 -18    6.14    1.64
  -7   5 -18    5.78    0.97
  -7   5 -17   64.19    2.71
  -7  -5 -17   64.71    3.89
  -7   5 -16   39.48    2.14
  -7  -5 -16   47.19    3.23
  -7  -5 -15   14.65    2.04
  -7   5 -15   14.24    1.37
  -7   5 -14  134.20    4.09
  -7  -5 -14  141.88    5.39
  -7   5 -13   77.70    3.05
  -7  -5 -13   76.33    3.83
  -7   5 -12  153.95    4.43
  -7  -5 -12  160.39    5.52
  -7  -5 -11  119.87    4.65
  -7   5 -11  116.67    3.81
  -7   5 -10   68.06    2.89
  -7  -5 -10   74.20    3.61
  -7   5  -9  103.51    3.58
  -7  -5  -9  115.12    4.35
  -7  -5  -8  308.78    7.34
  -7   5  -8  295.93    6.54
  -7   5  -7   86.25    3.28
  -7  -5  -7   80.13    3.50
  -7  -5  -6  174.66    5.10
  -7   5  -6  166.41    4.64
  -7   5  -5   24.53    1.80
  -7  -5  -5   27.39    1.98
  -7   5  -4   66.89    2.86
  -7  -5  -4   69.50    3.02
  -7  -5  -3  248.49    5.89
  -7   5  -3  245.98    5.84
  -7  -5  -2   20.15    1.67
  -7   5  -2   19.36    1.65
  -7   5  -1  170.98    4.79
  -7  -5  -1  177.28    4.67
  -7  -5   0  520.03    8.96
  -7   5   0  501.95    9.29
  -7   5   1  291.46    6.55
  -7   5   2  316.50    6.91
  -7   5   3    9.87    1.33
  -7   5   4  226.58    5.72
  -7  -5  12  105.64    2.60
  -7  -5  13   54.52    1.62
  -7  -5  14   25.57    0.87
  -7  -7 -20   35.25    3.34
  -7  -7 -19   38.44    3.41
  -7  -7 -18    4.82    1.55
  -7  -7 -17    7.43    1.66
  -7  -7 -16   27.73    2.79
  -7  -7 -15    5.26    1.65
  -7   7 -14   93.25    3.55
  -7  -7 -14   94.49    4.69
  -7  -7 -13   19.00    2.21
  -7   7 -13   16.80    1.60
  -7  -7 -12   26.79    2.53
  -7   7 -12   28.18    2.05
  -7  -7 -11   23.28    2.34
  -7   7 -11   22.73    1.87
  -7  -7 -10   12.20    1.81
  -7   7 -10   12.64    1.47
  -7  -7  -9  201.87    6.29
  -7   7  -9  193.98    5.49
  -7   7  -8  152.53    4.82
  -7  -7  -8  161.63    5.47
  -7  -7  -7   26.74    2.35
  -7   7  -7   23.23    1.99
  -7   7  -6  194.10    5.50
  -7  -7  -6  200.23    5.87
  -7  -7  -5  142.69    4.77
  -7   7  -5  131.40    4.49
  -7  -7  -4  101.00    3.91
  -7   7  -4   92.90    3.75
  -7  -7  -3   86.69    3.55
  -7   7  -3   81.09    3.49
  -7  -7  -2   45.90    2.57
  -7  -7  -1  134.66    4.28
  -7  -7   0   41.85    2.30
  -7  -7   1   32.73    2.04
  -7  -9 -17    9.76    2.22
  -7  -9 -16   56.85    4.09
  -7  -9 -15   21.52    2.58
  -7  -9 -14   17.05    2.35
  -7  -9 -13   39.61    3.25
  -7  -9 -12   96.75    4.86
  -7  -9 -11    6.04    1.70
  -7  -9 -10    8.26    1.72
  -7  -9  -9   16.11    2.06
  -7  -9  -8   54.62    3.45
  -7  -9  -7   34.46    2.78
  -7  -9  -6  216.30    6.62
  -7  -9  -5   33.13    2.61
  -7  -9  -4   91.57    4.05
  -7  -9  -3   21.91    2.08
  -7  -9  -2   20.98    1.89
  -7  -9  -1   10.55    1.50
  -7  -9   0   63.54    3.08
  -7  -9   1    5.33    1.11
  -7  -9   2   62.80    2.88
  -7 -11 -13   10.66    2.09
  -7 -11 -12   32.80    3.13
  -7 -11 -11   15.42    2.32
  -7 -11 -10    8.93    1.86
  -7 -11  -9   26.82    2.69
  -7 -11  -8   30.02    2.82
  -7 -11  -7   13.62    2.01
  -7 -11  -6   24.37    2.43
  -7 -11  -5   14.18    1.90
  -7 -11  -4   32.66    2.67
  -7 -11  -3    2.92    1.19
  -7 -11  -2   16.94    1.98
  -7 -11  -1    6.47    1.38
  -7 -11   0   23.91    2.18
  -7 -11   1   49.70    2.88
  -7 -11   2   80.35    3.51
  -7 -13  -9    5.12    1.72
  -7 -13  -8   20.26    2.57
  -7 -13  -7   21.39    2.60
  -7 -13  -6   16.65    2.31
  -7 -13  -5    6.90    1.66
  -7 -13  -4    6.89    1.62
  -7 -13  -3    5.10    1.58
  -7 -13  -2    2.58    1.17
  -7 -13  -1    0.29    1.04
  -6   0 -26   44.72    3.32
  -6   0 -25   -0.17    1.20
  -6   0 -24   77.20    4.10
  -6   0 -23    0.03    1.12
  -6   0 -22   75.23    3.86
  -6   0 -21    0.02    1.00
  -6   0 -21    2.02    0.87
  -6   0 -20  114.07    3.92
  -6   0 -20  123.36    4.75
  -6   0 -19   -0.56    0.73
  -6   0 -19    2.03    1.18
  -6   0 -18  167.02    5.34
  -6   0 -17    1.25    0.97
  -6   0 -16  229.75    6.09
  -6   0 -15    1.29    0.94
  -6   0 -14   36.51    2.30
  -6   0 -13    1.01    0.87
  -6   0 -12   95.92    3.47
  -6   0 -11    0.65    0.77
  -6   0 -10 1311.67   18.14
  -6   0  -9    0.09    0.79
  -6   0  -8  976.79   14.03
  -6   0  -7   -0.27    0.79
  -6   0  -6   68.76    2.53
  -6   0  -2  376.14    6.49
  -6   0  -1    0.64    0.89
  -6   0   0  467.36    7.42
  -6   0   1    0.51    0.83
  -6   0   2  237.87    4.59
  -6   0   3   -0.32    0.75
  -6   0   4  146.26    3.31
  -6   0   5   -0.07    0.62
  -6   0   6  831.23   11.19
  -6   0   7    0.27    0.55
  -6   0   8 1452.29   17.97
  -6   0   9    1.76    0.64
  -6   0  10  178.49    3.65
  -6   0  11    0.43    0.44
  -6  -2 -27   11.49    2.27
  -6  -2 -26   99.17    5.25
  -6  -2 -25    1.13    1.32
  -6  -2 -24   51.42    3.64
  -6   2 -23    8.59    1.51
  -6  -2 -23    3.58    1.40
  -6   2 -22    1.57    1.07
  -6  -2 -22    0.78    1.08
  -6  -2 -21    8.43    1.71
  -6   2 -21   12.75    1.63
  -6   2 -20  109.22    3.45
  -6   2 -20  109.28    4.15
  -6  -2 -20  105.27    4.73
  -6  -2 -19    2.85    1.24
  -6   2 -19    3.65    0.81
  -6   2 -19    5.56    1.20
  -6   2 -18  187.35    4.74
  -6  -2 -18  188.12    6.14
  -6   2 -18  204.74    5.57
  -6   2 -17   67.36    3.06
  -6  -2 -17   70.97    3.67
  -6   2 -17   68.96    2.69
  -6   2 -16  137.40    4.27
  -6   2 -16  133.55    3.87
  -6  -2 -16  140.32    4.98
  -6  -2 -15    3.25    1.24
  -6   2 -15    1.66    0.70
  -6   2 -15    1.92    0.87
  -6   2 -14   59.60    2.46
  -6   2 -14   62.71    2.65
  -6  -2 -14   59.34    3.10
  -6   2 -13   43.66    2.09
  -6   2 -13   39.19    2.06
  -6  -2 -13   38.82    2.42
  -6   2 -12   76.51    2.76
  -6  -2 -12   85.82    3.50
  -6   2 -11   25.05    1.61
  -6  -2 -11   21.94    1.79
  -6   2 -10  443.91    7.73
  -6  -2 -10  438.93    8.56
  -6  -2  -9  231.81    5.66
  -6   2  -9  231.00    5.04
  -6   2  -8  740.40   11.06
  -6  -2  -8  732.68   11.75
  -6  -2  -7   31.00    1.98
  -6   2  -7   30.62    1.74
  -6   2  -6  232.85    4.99
  -6  -2  -6  236.51    5.33
  -6   2  -5  134.41    3.57
  -6  -2  -5  135.55    3.83
  -6   2  -4  194.25    4.40
  -6  -2  -4  205.48    4.72
  -6   2  -3  256.86    5.21
  -6  -2  -3  258.04    5.38
  -6   2  -2  707.04   10.43
  -6  -2  -2  706.63   10.51
  -6   2  -1  210.98    4.54
  -6   2   0  867.26   12.20
  -6   2   1  100.08    2.96
  -6   2   2 1001.22   13.69
  -6   2   3   52.61    2.13
  -6   2   4   90.55    2.77
  -6   2   5   21.21    1.43
  -6   2   6  679.66   10.26
  -6  -2   6  705.55    9.61
  -6   2   7   78.53    2.61
  -6  -2   7   82.09    2.23
  -6  -2   8 1333.73   16.27
  -6   2   8 1305.99   17.38
  -6  -2   9    7.56    0.75
  -6   2   9    6.95    0.93
  -6  -2  10  221.48    3.78
  -6  -2  11   46.77    1.41
  -6  -2  12    0.96    0.34
  -6  -4 -24   20.84    2.57
  -6  -4 -23   15.33    2.29
  -6  -4 -22    9.87    1.88
  -6  -4 -21   56.15    3.80
  -6  -4 -20   40.72    3.13
  -6  -4 -19   21.27    2.47
  -6   4 -19   23.93    1.52
  -6   4 -18  196.46    4.60
  -6  -4 -18  193.27    6.57
  -6  -4 -17   18.15    2.14
  -6   4 -17   18.96    1.40
  -6   4 -16  154.66    4.07
  -6  -4 -16  160.99    5.70
  -6   4 -15   88.34    3.00
  -6  -4 -15   92.03    4.14
  -6  -4 -14   10.69    1.69
  -6   4 -14    8.40    1.06
  -6   4 -13  150.45    4.04
  -6  -4 -13  143.70    5.04
  -6  -4 -12   96.93    4.00
  -6   4 -12   99.40    3.23
  -6   4 -11   54.36    2.37
  -6  -4 -11   52.07    2.90
  -6   4 -10  144.47    3.95
  -6  -4 -10  146.54    4.75
  -6   4  -9   22.37    1.58
  -6  -4  -9   21.79    1.98
  -6  -4  -8  880.77   13.94
  -6   4  -8  861.34   12.82
  -6  -4  -7   35.73    2.26
  -6   4  -7   32.09    1.87
  -6  -4  -6    9.50    1.36
  -6   4  -6    8.89    1.09
  -6  -4  -5  196.53    5.01
  -6   4  -5  187.96    4.62
  -6  -4  -4   26.01    1.81
  -6   4  -4   28.85    1.80
  -6  -4  -3  168.74    4.38
  -6   4  -3  166.30    4.30
  -6   4  -2  278.96    5.90
  -6  -4  -2  285.98    5.89
  -6  -4  -1  122.82    3.53
  -6   4  -1  127.23    3.72
  -6  -4   0  534.99    8.65
  -6   4   0  520.27    8.93
  -6   4   1   19.62    1.59
  -6   4   2  550.24    9.31
  -6   4   3  452.63    8.18
  -6   4   4   92.76    3.23
  -6   4   5  265.42    5.82
  -6  -4  11  147.62    2.88
  -6  -4  12   20.98    0.87
  -6  -4  13   68.43    1.28
  -6  -6 -22    8.94    2.04
  -6  -6 -21   65.10    4.31
  -6  -6 -20   30.05    3.03
  -6  -6 -19   17.30    2.28
  -6  -6 -18   58.62    3.86
  -6  -6 -17   33.09    2.84
  -6   6 -17   29.17    1.75
  -6   6 -16   74.72    2.85
  -6  -6 -16   72.92    4.08
  -6  -6 -15   58.22    3.62
  -6   6 -15   55.95    2.48
  -6   6 -14   70.62    2.84
  -6  -6 -14   70.62    3.88
  -6  -6 -13  153.37    5.57
  -6   6 -13  143.27    4.18
  -6  -6 -12   13.50    1.87
  -6   6 -12   12.44    1.32
  -6  -6 -11  169.39    5.64
  -6   6 -11  165.98    4.57
  -6   6 -10  162.19    4.55
  -6  -6 -10  166.58    5.46
  -6  -6  -9   21.01    2.02
  -6   6  -9   19.18    1.64
  -6   6  -8  252.84    5.97
  -6  -6  -8  269.65    6.82
  -6  -6  -7   74.07    3.39
  -6   6  -7   71.17    2.96
  -6  -6  -6   50.74    2.77
  -6   6  -6   45.34    2.40
  -6  -6  -5  138.41    4.47
  -6   6  -5  139.80    4.24
  -6  -6  -4   78.05    3.22
  -6   6  -4   76.13    3.15
  -6  -6  -3   86.58    3.31
  -6   6  -3   85.33    3.33
  -6   6  -2   87.30    3.36
  -6  -6  -2   91.42    3.27
  -6  -6  -1  187.83    4.80
  -6   6  -1  185.50    5.10
  -6  -6   0  399.33    7.51
  -6  -6   1   58.66    2.47
  -6  -6   2   75.73    2.70
  -6  -6  14   18.71    0.77
  -6  -6  14   19.55    0.76
  -6  -8 -19   12.88    2.23
  -6  -8 -18   33.58    3.21
  -6  -8 -17   11.88    2.08
  -6  -8 -16   28.36    2.84
  -6  -8 -15   19.19    2.36
  -6  -8 -14    5.37    1.40
  -6  -8 -13   43.79    3.26
  -6  -8 -12   14.05    2.02
  -6  -8 -11   82.91    4.21
  -6  -8 -10  158.64    5.69
  -6  -8  -9   83.99    4.07
  -6  -8  -8    4.18    1.20
  -6  -8  -7   50.00    3.00
  -6  -8  -6   43.06    2.77
  -6  -8  -5  208.97    6.04
  -6  -8  -4   40.42    2.57
  -6  -8  -3  128.53    4.40
  -6  -8  -2   26.67    2.02
  -6  -8  -1   40.28    2.34
  -6  -8   0   37.72    2.22
  -6  -8   1   90.29    3.36
  -6  -8   2   60.48    2.65
  -6  -8   3  233.80    5.31
  -6 -10 -16   14.39    2.36
  -6 -10 -15   41.60    3.49
  -6 -10 -14   22.43    2.69
  -6 -10 -13   84.88    4.77
  -6 -10 -12   52.57    3.74
  -6 -10 -11   49.00    3.55
  -6 -10 -10   31.74    2.83
  -6 -10  -9   13.29    1.98
  -6 -10  -8    3.86    1.49
  -6 -10  -7   68.12    3.79
  -6 -10  -6   30.24    2.56
  -6 -10  -5  140.31    5.22
  -6 -10  -4   33.98    2.63
  -6 -10  -3   34.67    2.51
  -6 -10  -2   19.58    1.93
  -6 -10  -1   25.95    2.08
  -6 -10   0   17.16    1.70
  -6 -10   1   16.77    1.67
  -6 -10   2    3.14    1.02
  -6 -10   3   68.89    2.92
  -6 -12 -12   29.50    3.09
  -6 -12 -11   33.27    3.17
  -6 -12 -10    1.53    1.41
  -6 -12  -9    5.14    1.45
  -6 -12  -8    4.48    1.52
  -6 -12  -7   12.99    2.06
  -6 -12  -6   15.28    2.11
  -6 -12  -5   16.89    2.13
  -6 -12  -4   10.07    1.71
  -6 -12  -3   34.15    2.67
  -6 -12  -2   13.77    1.83
  -6 -12  -1   12.61    1.74
  -6 -12   0    6.54    1.28
  -6 -12   1    7.49    1.36
  -6 -12   2    7.32    1.36
  -6 -12   3   63.19    2.99
  -6 -14  -7    1.92    1.45
  -6 -14  -6    9.55    2.03
  -6 -14  -5   12.09    2.04
  -6 -14  -4   15.66    2.20
  -5  -1 -27   26.95    2.79
  -5  -1 -26    4.28    1.50
  -5  -1 -25   91.69    4.65
  -5   1 -24    0.92    1.08
  -5  -1 -24    2.99    1.41
  -5   1 -23  105.79    4.48
  -5  -1 -23  105.82    4.82
  -5  -1 -22   -0.39    1.02
  -5   1 -22    0.37    0.88
  -5   1 -21   21.21    1.50
  -5   1 -21   24.21    2.12
  -5  -1 -21   26.02    2.38
  -5  -1 -20    3.03    1.08
  -5   1 -20    5.72    0.89
  -5   1 -20    4.67    1.11
  -5  -1 -19    6.56    1.40
  -5   1 -19    4.46    0.85
  -5   1 -19    4.39    1.23
  -5  -1 -18   13.18    1.70
  -5   1 -18   12.09    1.18
  -5   1 -18   14.66    1.60
  -5   1 -17  337.11    6.56
  -5  -1 -17  341.26    7.96
  -5   1 -17  338.40    7.40
  -5  -1 -16   35.54    2.37
  -5   1 -16   33.12    1.81
  -5   1 -16   31.18    2.10
  -5  -1 -15  366.81    7.99
  -5   1 -15  374.20    6.91
  -5   1 -15  368.76    7.51
  -5   1 -14   31.55    1.73
  -5   1 -14   29.48    1.89
  -5  -1 -14   34.32    2.24
  -5   1 -13  113.32    3.59
  -5  -1 -13  115.82    3.94
  -5   1 -13  113.31    3.29
  -5   1 -12   11.80    1.10
  -5  -1 -12   10.69    1.37
  -5   1 -12   11.66    1.19
  -5   1 -11   35.26    1.89
  -5   1 -11   36.06    1.80
  -5  -1 -11   37.05    2.12
  -5   1 -10  102.51    3.18
  -5   1 -10   99.81    2.96
  -5  -1 -10  104.11    3.41
  -5   1  -9  804.07   11.46
  -5   1  -9  795.37   11.61
  -5  -1  -9  787.99   12.08
  -5   1  -8  344.24    6.15
  -5   1  -8  339.55    6.20
  -5  -1  -8  341.24    6.59
  -5   1  -7  404.15    6.80
  -5   1  -7  403.59    6.80
  -5  -1  -7  406.81    7.21
  -5   1  -6    8.72    1.02
  -5  -1  -6    6.83    1.07
  -5   1  -5  239.60    4.66
  -5  -1  -5  245.88    4.96
  -5   1  -4  106.68    2.83
  -5  -1  -4  103.51    2.98
  -5  -1  -3   40.99    1.85
  -5   1  -3   38.38    1.72
  -5   1  -2   39.21    1.71
  -5   1  -1  249.27    4.65
  -5   1   0   90.56    2.53
  -5   1   1  700.31    9.80
  -5   1   2  540.49    7.90
  -5   1   3 1360.32   16.96
  -5  -1   3 1364.35   16.72
  -5  -1   4  717.29    9.61
  -5   1   4  725.64    9.95
  -5  -1   5  430.68    6.29
  -5   1   5  430.81    6.66
  -5  -1   6    6.04    0.71
  -5   1   6    5.30    0.80
  -5  -1   7  469.64    6.59
  -5   1   7  464.93    7.12
  -5  -1   8   33.32    1.21
  -5   1   8   30.71    1.43
  -5  -1   9  646.70    8.46
  -5  -1  10   11.96    0.74
  -5  -3 -26   15.29    2.44
  -5  -3 -25   61.29    4.11
  -5  -3 -24    5.16    1.73
  -5  -3 -23   68.94    4.16
  -5  -3 -22   11.53    1.90
  -5  -3 -21    6.27    1.59
  -5   3 -21    6.47    1.15
  -5   3 -20   68.45    2.98
  -5  -3 -20   72.81    3.99
  -5   3 -19  156.33    4.53
  -5  -3 -19  148.21    5.61
  -5   3 -19  154.52    3.71
  -5   3 -18   93.99    3.31
  -5  -3 -18   86.94    4.18
  -5   3 -18   92.37    2.81
  -5   3 -17  171.68    4.05
  -5   3 -17  171.89    4.52
  -5  -3 -17  176.39    5.80
  -5  -3 -16   19.66    1.96
  -5   3 -16   21.27    1.36
  -5   3 -15   46.90    1.97
  -5  -3 -15   46.40    2.80
  -5   3 -14   50.58    2.07
  -5  -3 -14   48.04    2.83
  -5   3 -13  141.98    3.60
  -5  -3 -13  137.91    4.65
  -5  -3 -12   40.97    2.50
  -5   3 -12   39.54    1.81
  -5  -3 -11   10.50    1.38
  -5   3 -11    9.47    0.95
  -5   3 -10   77.55    2.58
  -5  -3 -10   81.81    3.31
  -5  -3  -9  434.08    8.34
  -5   3  -9  432.21    7.26
  -5  -3  -8    2.62    1.11
  -5   3  -8    2.80    0.84
  -5   3  -7  663.64    9.96
  -5  -3  -7  677.70   10.87
  -5   3  -6   56.20    2.22
  -5  -3  -6   55.24    2.53
  -5   3  -5 1369.03   17.86
  -5  -3  -5 1414.74   18.62
  -5   3  -4  307.44    5.74
  -5  -3  -4  310.65    6.09
  -5   3  -3   31.60    1.71
  -5  -3  -3   28.84    1.72
  -5   3  -2  468.80    7.64
  -5  -3  -2  466.32    7.72
  -5  -3  -1  809.35   11.37
  -5   3  -1  787.16   11.38
  -5  -3   0   38.08    1.75
  -5   3   0   38.18    1.87
  -5   3   1 1492.07   19.12
  -5   3   2  120.86    3.33
  -5   3   3  491.99    8.04
  -5   3   4   86.38    2.81
  -5   3   5   73.26    2.57
  -5  -3   9 1017.21   12.45
  -5  -3  10   81.50    1.77
  -5  -3  11  116.91    1.99
  -5  -5 -24    5.53    1.75
  -5  -5 -23   28.92    2.89
  -5  -5 -22   30.82    3.03
  -5  -5 -21    3.08    1.51
  -5  -5 -20   60.17    3.86
  -5  -5 -19   67.75    4.04
  -5   5 -18   74.80    2.46
  -5  -5 -18   77.29    4.20
  -5   5 -17   66.12    2.36
  -5  -5 -17   67.17    3.83
  -5  -5 -16   23.19    2.41
  -5   5 -16   17.16    1.28
  -5  -5 -15  226.37    6.76
  -5   5 -15  211.86    4.71
  -5  -5 -14   21.55    2.13
  -5   5 -14   21.86    1.45
  -5  -5 -13    9.84    1.58
  -5   5 -13   10.23    1.06
  -5   5 -12  209.27    4.78
  -5  -5 -12  228.28    6.37
  -5  -5 -11    4.33    1.35
  -5   5 -11    3.44    0.83
  -5   5 -10  114.58    3.39
  -5  -5 -10  120.66    4.36
  -5   5  -9  267.04    5.62
  -5  -5  -9  279.68    6.78
  -5  -5  -8  231.39    5.97
  -5   5  -8  227.26    5.13
  -5  -5  -7  577.41   10.25
  -5   5  -7  562.85    9.34
  -5   5  -6  434.29    7.84
  -5  -5  -6  455.39    8.57
  -5   5  -5  154.75    4.16
  -5  -5  -5  164.01    4.55
  -5   5  -4  128.49    3.74
  -5  -5  -4  132.27    3.94
  -5  -5  -3   96.55    3.23
  -5   5  -3   88.50    3.12
  -5  -5  -2   62.16    2.54
  -5   5  -2   65.18    2.69
  -5   5  -1  419.41    7.77
  -5  -5  -1  422.61    7.44
  -5  -5   0  160.41    3.94
  -5   5   0  149.32    4.19
  -5  -5   1  382.60    6.69
  -5  -5   2   29.58    1.57
  -5  -7 -21    4.92    1.77
  -5  -7 -20   49.25    3.80
  -5  -7 -19   24.12    2.76
  -5  -7 -18   76.55    4.48
  -5  -7 -17   98.27    4.88
  -5  -7 -16   15.22    2.07
  -5  -7 -15   55.36    3.58
  -5  -7 -14  105.31    4.77
  -5  -7 -13   20.85    2.22
  -5  -7 -12   26.73    2.44
  -5  -7 -11   75.92    3.80
  -5  -7 -10   78.70    3.79
  -5  -7  -9   28.15    2.28
  -5  -7  -8  186.38    5.66
  -5  -7  -7   63.59    3.17
  -5  -7  -6   99.76    3.87
  -5  -7  -5    8.08    1.27
  -5  -7  -4  143.36    4.47
  -5  -7  -3   30.55    2.05
  -5  -7  -2  169.44    4.67
  -5  -7  -1   28.90    1.90
  -5  -7   0   12.44    1.28
  -5  -7   1   55.37    2.37
  -5  -7   2  115.63    3.43
  -5  -7   3   95.28    2.98
  -5  -7  13   10.78    0.87
  -5  -7  14   49.79    1.49
  -5  -9 -18   11.94    2.20
  -5  -9 -17    1.19    1.33
  -5  -9 -16    3.58    1.54
  -5  -9 -15    5.41    1.52
  -5  -9 -14   14.20    2.09
  -5  -9 -13   18.82    2.35
  -5  -9 -12   95.69    4.67
  -5  -9 -11   32.21    2.81
  -5  -9 -10  163.09    5.93
  -5  -9  -9   13.24    1.98
  -5  -9  -8   15.51    1.97
  -5  -9  -7  128.65    4.89
  -5  -9  -6   44.98    2.89
  -5  -9  -5   28.62    2.30
  -5  -9  -4  180.14    5.52
  -5  -9  -3   51.82    2.90
  -5  -9  -2  104.30    3.93
  -5  -9  -1   50.83    2.68
  -5  -9   0   58.01    2.80
  -5  -9   1   28.14    1.90
  -5  -9   2    7.28    1.10
  -5  -9   3  165.33    4.34
  -5  -9   4  116.51    3.44
  -5 -11 -14   32.57    3.19
  -5 -11 -13   21.98    2.69
  -5 -11 -12   51.07    3.74
  -5 -11 -11    8.00    1.73
  -5 -11 -10   43.26    3.34
  -5 -11  -9   14.60    2.14
  -5 -11  -8    2.63    1.10
  -5 -11  -7   16.48    2.05
  -5 -11  -6   38.42    2.95
  -5 -11  -5   37.70    2.85
  -5 -11  -4  103.45    4.47
  -5 -11  -3   40.22    2.77
  -5 -11  -2   77.62    3.67
  -5 -11  -1   16.91    1.84
  -5 -11   0    9.42    1.41
  -5 -11   1   23.47    1.87
  -5 -11   2    2.42    1.00
  -5 -11   3   53.59    2.64
  -5 -11   4   67.64    2.79
  -5 -13 -10   12.06    2.17
  -5 -13  -9    1.16    1.33
  -5 -13  -8    2.71    1.39
  -5 -13  -7    1.58    1.25
  -5 -13  -6   17.46    2.26
  -5 -13  -5   11.29    1.81
  -5 -13  -4   13.76    2.00
  -5 -13  -3   13.77    1.90
  -5 -13  -2   17.03    2.02
  -5 -13  -1    8.14    1.52
  -5 -13   0    8.62    1.49
  -4   0 -26   26.21    2.53
  -4   0 -25    0.41    1.35
  -4   0 -24  130.72    5.20
  -4   0 -23    1.59    1.14
  -4   0 -22  263.12    7.30
  -4   0 -21    1.30    0.69
  -4   0 -21    0.24    1.04
  -4   0 -20   18.21    1.90
  -4   0 -19    0.40    0.89
  -4   0 -18   57.97    2.96
  -4   0 -17    0.50    0.79
  -4   0 -16  161.00    4.75
  -4   0 -15    2.18    0.98
  -4   0 -14  867.52   13.38
  -4   0 -13    0.39    0.79
  -4   0 -12  251.76    5.59
  -4   0 -11   -0.03    0.74
  -4   0 -10    5.44    1.06
  -4   0  -9    0.31    0.70
  -4   0  -8  186.22    4.17
  -4   0  -7    0.77    0.77
  -4   0  -6  671.66    9.65
  -4   0  -5    0.88    0.79
  -4   0  -4  314.21    5.34
  -4   0  -1   -0.05    0.70
  -4   0   0  327.04    5.11
  -4   0   1    0.46    0.64
  -4   0   2  311.12    4.83
  -4   0   3    0.26    0.61
  -4   0   4 9999.00  109.76
  -4   0   5    0.08    0.54
  -4   0   6  130.34    2.59
  -4   0   7    0.09    0.45
  -4   0   8  417.81    5.94
  -4  -2 -27   10.55    2.01
  -4  -2 -26    8.37    1.85
  -4  -2 -25    7.67    1.69
  -4  -2 -24   95.99    4.80
  -4  -2 -23    1.04    1.38
  -4   2 -23   -0.82    0.81
  -4   2 -22  122.72    4.37
  -4  -2 -22  123.52    5.21
  -4  -2 -21   11.88    1.81
  -4   2 -21   13.20    1.54
  -4   2 -20   92.16    2.63
  -4   2 -20   97.20    3.68
  -4  -2 -20   95.09    4.29
  -4  -2 -19   14.43    1.74
  -4   2 -19   13.93    1.46
  -4   2 -19   14.69    1.08
  -4   2 -18   15.56    1.13
  -4  -2 -18   15.06    1.81
  -4   2 -18   15.87    1.53
  -4   2 -17   58.59    2.12
  -4  -2 -17   60.07    3.16
  -4   2 -17   61.45    2.67
  -4   2 -16  292.18    5.47
  -4   2 -16  301.35    6.30
  -4  -2 -16  301.63    7.32
  -4   2 -15   71.41    2.37
  -4  -2 -15   79.44    3.51
  -4   2 -15   75.61    2.81
  -4   2 -14  507.37    7.99
  -4  -2 -14  509.94    9.75
  -4   2 -14  514.39    8.61
  -4   2 -13   11.87    1.01
  -4  -2 -13   15.06    1.58
  -4   2 -13   12.78    1.17
  -4   2 -12  181.69    3.96
  -4   2 -12  190.94    4.30
  -4  -2 -12  178.93    4.96
  -4  -2 -11    7.84    1.18
  -4   2 -11    6.76    0.82
  -4   2 -11   10.17    1.02
  -4  -2 -10    3.97    1.06
  -4   2 -10    2.05    0.60
  -4   2 -10    3.10    0.74
  -4   2  -9   27.50    1.40
  -4   2  -9   25.05    1.35
  -4  -2  -9   24.82    1.75
  -4   2  -8  449.77    7.02
  -4  -2  -8  446.84    7.92
  -4  -2  -7   67.85    2.65
  -4   2  -7   67.37    2.18
  -4   2  -6 1970.68   23.67
  -4  -2  -6 1965.24   24.50
  -4   2  -5  383.97    6.21
  -4  -2  -5  388.38    6.71
  -4  -2  -4  385.82    6.54
  -4   2  -4  385.99    6.16
  -4  -2  -3   27.55    1.59
  -4   2  -3   27.34    1.41
  -4   2  -2   90.66    2.47
  -4  -2  -2   93.50    2.61
  -4   2  -1  252.47    4.49
  -4  -2  -1  237.31    4.48
  -4  -2   0  368.79    5.85
  -4   2   0  380.05    6.02
  -4   2   1  194.89    3.87
  -4   2   2 1656.80   20.19
  -4   2   3  524.33    7.76
  -4   2   4  298.33    5.19
  -4   2   5  540.07    8.05
  -4   2   6  704.20    9.94
  -4  -2   7   32.98    1.07
  -4  -2   8  102.91    1.93
  -4  -2   9    2.77    0.34
  -4  -4 -25   24.24    2.75
  -4  -4 -24   70.57    4.37
  -4  -4 -23    6.86    1.77
  -4  -4 -22   76.54    4.39
  -4  -4 -21   16.16    2.25
  -4  -4 -20    8.45    1.71
  -4  -4 -19   95.86    4.47
  -4   4 -18   61.69    1.94
  -4  -4 -18   68.81    3.79
  -4  -4 -17   88.01    4.17
  -4   4 -17   93.14    2.53
  -4  -4 -16  116.33    4.67
  -4   4 -16  120.29    2.97
  -4  -4 -15  111.76    4.49
  -4   4 -15  113.66    2.93
  -4   4 -14   90.64    2.61
  -4  -4 -14   88.92    3.90
  -4  -4 -13  171.20    5.31
  -4   4 -13  163.81    3.71
  -4  -4 -12  122.68    4.37
  -4   4 -12  128.45    3.22
  -4  -4 -11  117.43    4.14
  -4   4 -11  115.32    3.06
  -4  -4 -10   54.63    2.79
  -4   4 -10   51.33    1.99
  -4  -4  -9  397.08    7.91
  -4   4  -9  381.34    6.56
  -4  -4  -8   71.51    2.96
  -4   4  -8   69.08    2.34
  -4   4  -7  153.63    3.70
  -4  -4  -7  162.64    4.47
  -4   4  -6 2628.72   31.55
  -4  -4  -6 2657.56   32.59
  -4   4  -5   43.71    2.02
  -4  -4  -5   43.50    2.32
  -4   4  -4 1149.75   15.46
  -4  -4  -4 1178.53   15.97
  -4   4  -3  395.23    6.90
  -4  -4  -3  410.64    7.13
  -4   4  -2   67.27    2.50
  -4  -4  -2   78.11    2.62
  -4   4  -1  222.44    4.79
  -4  -4  -1  221.07    4.55
  -4   4   0  683.45   10.36
  -4  -4   0  695.23    9.88
  -4  -4   1  226.21    4.34
  -4   4   1  216.05    4.77
  -4  -4   2  541.20    7.90
  -4  -4  11   13.30    0.54
  -4  -6 -23   12.86    2.31
  -4  -6 -22   22.65    2.63
  -4  -6 -21   18.68    2.45
  -4  -6 -20   12.79    2.11
  -4  -6 -19  169.02    6.47
  -4  -6 -18   44.55    3.36
  -4  -6 -17   52.87    3.49
  -4  -6 -16  196.34    6.61
  -4  -6 -15   12.60    1.87
  -4  -6 -14   28.33    2.41
  -4  -6 -13   13.40    1.80
  -4  -6 -12   23.13    2.12
  -4  -6 -11  121.77    4.55
  -4  -6 -10   69.31    3.37
  -4  -6  -9  252.37    6.49
  -4  -6  -8  140.34    4.59
  -4  -6  -7   18.00    1.66
  -4  -6  -6   26.76    1.96
  -4  -6  -5  131.73    4.09
  -4  -6  -4   24.63    1.76
  -4  -6  -3  432.40    7.98
  -4  -6  -2   80.78    2.93
  -4  -6  -1  246.90    5.29
  -4  -6   0   10.19    1.13
  -4  -6   1   81.65    2.63
  -4  -6   2   71.89    2.39
  -4  -6   3   26.91    1.40
  -4  -6  12   43.35    1.45
  -4  -6  13   14.11    0.69
  -4  -8 -20    6.17    1.78
  -4  -8 -19   50.99    3.88
  -4  -8 -18   15.03    2.23
  -4  -8 -17   44.20    3.49
  -4  -8 -16    4.00    1.46
  -4  -8 -15   11.16    1.98
  -4  -8 -14  115.52    5.13
  -4  -8 -13   27.12    2.55
  -4  -8 -12   29.17    2.63
  -4  -8 -11  108.97    4.65
  -4  -8 -10   17.52    2.03
  -4  -8  -9  143.80    5.16
  -4  -8  -8  195.02    5.94
  -4  -8  -7   63.07    3.24
  -4  -8  -6    0.99    0.97
  -4  -8  -5   13.59    1.55
  -4  -8  -4   26.52    2.00
  -4  -8  -3  113.84    3.94
  -4  -8  -2   15.85    1.56
  -4  -8  -1  121.81    3.86
  -4  -8   0   15.52    1.45
  -4  -8   1   55.17    2.39
  -4  -8   2   96.31    3.07
  -4  -8   3   36.69    1.82
  -4  -8   4   21.44    1.38
  -4  -8  11    9.42    1.07
  -4  -8  12    9.16    0.96
  -4  -8  13   50.43    1.97
  -4 -10 -16    9.47    2.00
  -4 -10 -15   13.72    2.18
  -4 -10 -14    1.50    1.19
  -4 -10 -13    4.79    1.57
  -4 -10 -12   16.62    2.20
  -4 -10 -11   71.13    4.09
  -4 -10 -10   27.50    2.61
  -4 -10  -9   73.26    3.98
  -4 -10  -8   13.24    1.92
  -4 -10  -7   20.99    2.16
  -4 -10  -6    4.83    1.36
  -4 -10  -5   55.25    3.16
  -4 -10  -4   25.43    2.15
  -4 -10  -3   64.48    3.24
  -4 -10  -2   25.88    2.09
  -4 -10  -1   96.28    3.76
  -4 -10   0   42.62    2.44
  -4 -10   1   78.57    3.17
  -4 -10   2    9.61    1.24
  -4 -10   3   94.91    3.24
  -4 -10   4    5.39    0.96
  -4 -10   9   20.75    1.77
  -4 -10  10    4.00    1.04
  -4 -12 -13   20.64    2.72
  -4 -12 -12   29.41    3.15
  -4 -12 -11   21.29    2.60
  -4 -12 -10   18.87    2.52
  -4 -12  -9   37.96    3.17
  -4 -12  -8    2.49    1.29
  -4 -12  -7    4.50    1.37
  -4 -12  -6    4.77    1.45
  -4 -12  -5    7.51    1.54
  -4 -12  -4   22.71    2.26
  -4 -12  -3   65.90    3.53
  -4 -12  -2   24.74    2.23
  -4 -12  -1   13.28    1.71
  -4 -12   0   15.78    1.76
  -4 -12   1    4.24    1.15
  -4 -12   2    2.38    0.92
  -4 -12   3   12.12    1.40
  -4 -14  -8    7.56    1.88
  -4 -14  -7    2.24    1.43
  -4 -14  -6   18.10    2.37
  -4 -14  -5    3.45    1.44
  -4 -14  -4    5.64    1.52
  -3  -1 -27    8.27    1.69
  -3  -1 -26    4.73    1.46
  -3  -1 -25   22.96    2.52
  -3   1 -25   24.11    2.25
  -3  -1 -24    5.75    1.55
  -3   1 -24    5.52    1.29
  -3  -1 -23  157.20    5.75
  -3   1 -23  163.30    5.39
  -3   1 -22    3.90    1.21
  -3  -1 -22    6.04    1.51
  -3   1 -21  119.34    4.37
  -3  -1 -21  115.10    4.69
  -3  -1 -20    3.54    1.11
  -3   1 -20    2.98    0.93
  -3   1 -20    3.13    0.62
  -3   1 -19   42.18    1.75
  -3   1 -19   42.98    2.46
  -3  -1 -19   43.72    2.72
  -3   1 -18    9.88    1.30
  -3  -1 -18   10.06    1.43
  -3   1 -18   10.31    0.93
  -3   1 -17    2.30    0.89
  -3  -1 -17    1.76    1.00
  -3   1 -17    1.26    0.56
  -3   1 -16   15.52    1.12
  -3   1 -16   12.26    1.36
  -3  -1 -16   13.17    1.55
  -3  -1 -15  485.23    9.19
  -3   1 -15  475.49    7.49
  -3   1 -15  485.74    8.57
  -3   1 -14   32.43    1.52
  -3  -1 -14   32.93    2.14
  -3   1 -14   32.51    1.84
  -3   1 -13  697.66    9.89
  -3  -1 -13  706.96   11.46
  -3   1 -13  710.27   10.78
  -3  -1 -12   16.86    1.55
  -3   1 -12   17.32    1.33
  -3   1 -12   16.93    1.10
  -3   1 -11  475.95    7.16
  -3  -1 -11  480.03    8.35
  -3   1 -11  471.41    7.73
  -3  -1 -10  103.25    3.23
  -3   1 -10   96.03    2.48
  -3   1 -10   96.83    2.78
  -3   1  -9   55.32    1.79
  -3   1  -9   52.91    1.97
  -3  -1  -9   55.17    2.23
  -3   1  -8   28.37    1.28
  -3   1  -8   27.84    1.40
  -3  -1  -8   29.17    1.62
  -3   1  -7  239.50    4.18
  -3   1  -7  236.02    4.32
  -3  -1  -7  243.68    4.80
  -3  -1  -6  150.45    3.45
  -3   1  -6  147.54    2.99
  -3   1  -6  142.65    3.02
  -3   1  -5 1407.71   16.90
  -3   1  -5 1399.90   16.97
  -3  -1  -5 1403.93   17.49
  -3   1  -4  244.08    4.01
  -3  -1  -4  234.54    4.34
  -3  -1  -3   31.15    1.37
  -3   1  -3   34.08    1.27
  -3   1  -2  128.64    2.56
  -3  -1  -2  120.42    2.66
  -3   1  -1   74.81    1.86
  -3  -1  -1   75.14    1.94
  -3   1   0  111.89    2.33
  -3   1   1  135.11    2.63
  -3   1   2  288.92    4.48
  -3   1   3 3163.68   35.85
  -3  -1   4 1585.56   18.37
  -3   1   4 1621.35   18.90
  -3   1   5 1015.49   12.55
  -3  -1   5 1007.11   11.87
  -3  -1   6  434.84    5.50
  -3  -1   7  249.78    3.41
  -3  -3 -27    1.88    1.51
  -3  -3 -26   14.67    2.20
  -3  -3 -25    7.12    1.72
  -3  -3 -24    7.57    1.70
  -3  -3 -23   44.10    3.32
  -3  -3 -22    6.60    1.56
  -3   3 -22    5.40    1.08
  -3   3 -21  189.88    5.03
  -3  -3 -21  180.66    6.33
  -3  -3 -20   35.35    2.80
  -3   3 -20   33.42    1.96
  -3  -3 -19  130.90    5.09
  -3   3 -19  122.45    2.42
  -3   3 -19  129.22    3.83
  -3   3 -18    0.85    0.70
  -3  -3 -18    0.92    1.08
  -3   3 -18    0.89    0.39
  -3   3 -17    0.43    0.38
  -3  -3 -17    0.44    0.98
  -3   3 -17   -0.03    0.58
  -3  -3 -16   24.86    2.14
  -3   3 -16   26.07    1.18
  -3   3 -16   25.22    1.56
  -3  -3 -15  261.77    6.77
  -3   3 -15  259.30    4.51
  -3   3 -15  270.02    5.31
  -3  -3 -14  114.13    4.17
  -3   3 -14  111.87    3.01
  -3   3 -14  110.98    2.63
  -3  -3 -13  265.33    6.56
  -3   3 -13  275.99    5.05
  -3   3 -13  273.57    4.72
  -3  -3 -12   57.45    2.81
  -3   3 -12   54.91    1.89
  -3   3 -12   58.38    1.84
  -3   3 -11  154.16    3.24
  -3  -3 -11  147.45    4.45
  -3   3 -11  149.51    3.20
  -3  -3 -10   44.53    2.35
  -3   3 -10   43.20    1.60
  -3  -3  -9   97.75    3.37
  -3   3  -9   96.47    2.45
  -3  -3  -8  317.79    6.40
  -3   3  -8  314.20    5.25
  -3  -3  -7  468.45    8.05
  -3   3  -7  456.82    6.92
  -3  -3  -6  113.90    3.37
  -3   3  -6  115.58    2.80
  -3  -3  -5 1761.34   21.97
  -3   3  -5 1733.72   21.06
  -3  -3  -4  628.98    9.41
  -3   3  -4  628.27    8.86
  -3   3  -3 1665.09   20.32
  -3  -3  -3 1675.76   20.67
  -3   3  -2  661.37    9.32
  -3  -3  -2  657.86    9.37
  -3  -3  -1   37.07    1.59
  -3   3  -1   37.16    1.69
  -3   3   0   59.12    2.09
  -3  -3   0   59.70    1.88
  -3   3   1  499.65    7.68
  -3  -3   1  509.61    7.12
  -3  -3   2  101.24    2.27
  -3   3   8  238.90    5.31
  -3   3   9   12.81    1.34
  -3   3  10  273.05    6.03
  -3   3  11  502.07    9.13
  -3   3  12   50.38    2.54
  -3   3  13  351.18    7.58
  -3   3  14   33.05    2.23
  -3  -5 -24   36.69    3.27
  -3  -5 -23   53.46    3.89
  -3  -5 -22   18.70    2.40
  -3  -5 -21   91.63    4.74
  -3  -5 -20   16.82    2.15
  -3  -5 -19   51.15    3.46
  -3  -5 -18  193.61    6.56
  -3  -5 -17   84.34    4.20
  -3  -5 -16  332.51    8.49
  -3  -5 -15   30.71    2.52
  -3  -5 -14   78.22    3.71
  -3  -5 -13  120.28    4.50
  -3  -5 -12   66.98    3.26
  -3  -5 -11  114.70    4.13
  -3  -5 -10   57.86    2.87
  -3  -5  -9    6.27    1.19
  -3  -5  -8   53.94    2.62
  -3  -5  -7  265.45    6.06
  -3  -5  -6  554.50    9.55
  -3  -5  -5   68.78    2.78
  -3  -5  -4  101.18    3.27
  -3  -5  -3 1415.99   18.62
  -3  -5  -2    9.65    1.21
  -3  -5  -1   13.63    1.18
  -3  -5   0  446.54    7.13
  -3  -5   1  249.08    4.63
  -3  -5   2  252.93    4.51
  -3  -5   3  128.69    2.85
  -3   5   7  230.60    5.52
  -3   5   8  305.81    6.70
  -3   5   9   59.04    2.80
  -3   5  10  303.97    6.84
  -3  -5  10  264.88    4.37
  -3   5  11  269.73    6.52
  -3  -5  11  237.32    3.75
  -3  -5  12   32.78    0.87
  -3  -7 -22    2.78    1.54
  -3  -7 -21    5.89    1.74
  -3  -7 -20   21.47    2.53
  -3  -7 -19   14.85    2.26
  -3  -7 -18   90.76    4.76
  -3  -7 -17    5.16    1.54
  -3  -7 -16   57.36    3.61
  -3  -7 -15   31.70    2.74
  -3  -7 -14   19.54    2.09
  -3  -7 -13   99.49    4.43
  -3  -7 -12   14.31    1.83
  -3  -7 -11   72.94    3.61
  -3  -7 -10  140.38    4.92
  -3  -7  -9   34.54    2.50
  -3  -7  -8  153.64    4.95
  -3  -7  -7   31.74    2.27
  -3  -7  -6  241.78    6.05
  -3  -7  -5  290.69    6.61
  -3  -7  -4   28.44    1.98
  -3  -7  -3   37.97    2.14
  -3  -7  -2  474.03    8.44
  -3  -7  -1   66.03    2.63
  -3  -7   0  216.76    4.83
  -3  -7   1   34.61    1.80
  -3  -7   2   56.18    2.14
  -3  -7   3  117.00    3.01
  -3  -7   4   24.75    1.31
  -3  -7   5  132.87    2.90
  -3   7   8  163.78    5.10
  -3  -7  10   44.49    1.90
  -3  -7  11   11.51    0.98
  -3  -7  12   16.10    1.08
  -3  -7  13   74.62    2.09
  -3  -7  14   82.98    1.93
  -3  -9 -18   51.13    3.88
  -3  -9 -17   12.86    2.19
  -3  -9 -16   30.61    2.94
  -3  -9 -15   20.40    2.44
  -3  -9 -14   39.66    3.20
  -3  -9 -13   36.22    2.95
  -3  -9 -12   19.83    2.25
  -3  -9 -11   12.92    1.79
  -3  -9 -10   74.20    3.90
  -3  -9  -9   33.96    2.66
  -3  -9  -8  142.10    5.14
  -3  -9  -7    3.07    1.34
  -3  -9  -6   14.06    1.63
  -3  -9  -5   28.79    2.13
  -3  -9  -4    5.03    1.16
  -3  -9  -3   19.39    1.80
  -3  -9  -2  135.22    4.32
  -3  -9  -1   54.24    2.66
  -3  -9   0  198.29    5.06
  -3  -9   1   35.42    2.03
  -3  -9   2   42.80    2.08
  -3  -9   3   20.31    1.42
  -3  -9   4   15.93    1.22
  -3  -9   5  120.96    3.10
  -3  -9   9   25.49    1.82
  -3  -9  10   38.10    2.15
  -3  -9  11   17.49    1.48
  -3  -9  12   15.19    1.31
  -3 -11 -15   10.47    2.23
  -3 -11 -14    9.97    2.00
  -3 -11 -13   -0.14    1.20
  -3 -11 -12    3.77    1.23
  -3 -11 -11   10.63    1.93
  -3 -11 -10   20.13    2.34
  -3 -11  -9   10.03    1.78
  -3 -11  -8   63.87    3.73
  -3 -11  -7   13.24    1.88
  -3 -11  -6   40.60    2.89
  -3 -11  -5    5.98    1.43
  -3 -11  -4    3.32    1.18
  -3 -11  -3   14.85    1.79
  -3 -11  -2   59.75    3.11
  -3 -11  -1   42.03    2.57
  -3 -11   0   43.03    2.51
  -3 -11   1   10.17    1.39
  -3 -11   2   22.14    1.75
  -3 -11   3   62.60    2.68
  -3 -11   4   30.53    1.78
  -3 -11   5   37.65    1.86
  -3 -13 -11    6.97    1.87
  -3 -13 -10   16.24    2.42
  -3 -13  -9   21.77    2.61
  -3 -13  -8   15.36    2.14
  -3 -13  -7   13.54    2.08
  -3 -13  -6   22.45    2.42
  -3 -13  -5    8.76    1.70
  -3 -13  -4    2.21    1.21
  -3 -13  -3    6.69    1.51
  -3 -13  -2   24.95    2.37
  -3 -13  -1   26.91    2.31
  -3 -13   0   27.64    2.24
  -2   0 -26   21.09    2.23
  -2   0 -25    0.04    0.97
  -2   0 -24   13.73    1.80
  -2   0 -23   -0.55    0.94
  -2   0 -22   45.50    2.88
  -2   0 -21   -0.23    0.91
  -2   0 -20  228.95    6.22
  -2   0 -19    1.57    0.90
  -2   0 -18  103.11    3.82
  -2   0 -17   -1.10    0.84
  -2   0 -16   53.28    2.57
  -2   0 -15    0.39    0.79
  -2   0 -14  370.35    7.18
  -2   0 -13    2.97    1.01
  -2   0 -12 2007.11   25.17
  -2   0 -11    2.77    0.95
  -2   0 -10   88.09    2.71
  -2   0  -9    0.57    0.69
  -2   0  -8   30.83    1.50
  -2   0  -7    0.24    0.69
  -2   0  -6  276.37    4.62
  -2   0  -5    0.16    0.61
  -2   0  -4  726.46    9.28
  -2   0  -3   -0.11    0.52
  -2   0  -2 1818.24   20.78
  -2   0   0   50.24    1.19
  -2   0   1   -0.12    0.32
  -2   0   2   35.30    0.97
  -2   0   3    0.78    0.36
  -2   0   4  731.14    8.71
  -2   0   5    0.73    0.38
  -2   0  10   43.08    1.83
  -2   0  11    0.10    0.57
  -2   0  12  871.20   12.52
  -2   0  13    1.38    0.77
  -2   0  14  344.95    6.78
  -2  -2 -28   52.71    3.87
  -2  -2 -27    3.72    1.45
  -2  -2 -26   22.28    2.56
  -2  -2 -25   18.86    2.29
  -2  -2 -24    6.12    1.50
  -2  -2 -23    4.87    1.38
  -2   2 -23    5.00    1.08
  -2  -2 -22   88.79    4.30
  -2   2 -22   95.44    3.68
  -2  -2 -21    4.39    1.52
  -2   2 -21    4.44    1.07
  -2  -2 -20  225.95    6.68
  -2   2 -20  226.28    5.64
  -2   2 -19   14.44    1.41
  -2  -2 -19   15.66    1.86
  -2   2 -19   14.97    0.72
  -2   2 -18  131.36    2.53
  -2  -2 -18  134.80    4.77
  -2   2 -18  137.81    4.00
  -2   2 -17    4.49    0.87
  -2   2 -17    4.62    0.50
  -2  -2 -17    2.69    0.96
  -2   2 -16    7.17    0.95
  -2   2 -16    7.16    0.61
  -2  -2 -16    8.12    1.26
  -2   2 -15   72.07    1.84
  -2  -2 -15   71.38    3.13
  -2   2 -15   69.68    2.51
  -2   2 -14  193.30    3.43
  -2  -2 -14  181.09    5.08
  -2   2 -14  193.78    4.32
  -2   2 -13  112.15    2.42
  -2  -2 -13  112.94    3.80
  -2   2 -13  113.93    3.06
  -2   2 -12  240.61    4.02
  -2  -2 -12  253.16    5.81
  -2   2 -12  250.99    4.73
  -2   2 -11   42.09    1.41
  -2  -2 -11   46.17    2.34
  -2   2 -11   43.57    1.70
  -2  -2 -10  578.90    9.51
  -2   2 -10  557.28    7.60
  -2   2 -10  570.85    8.07
  -2   2  -9  104.93    2.28
  -2  -2  -9  112.43    3.36
  -2   2  -9  103.78    2.44
  -2   2  -8  170.07    3.07
  -2  -2  -8  179.63    4.23
  -2   2  -8  170.07    3.16
  -2  -2  -7  154.02    3.75
  -2   2  -7  148.65    2.80
  -2   2  -7  151.14    2.80
  -2   2  -6   17.13    0.89
  -2   2  -6   17.54    0.83
  -2  -2  -6   17.66    1.35
  -2  -2  -5  399.48    6.56
  -2   2  -5  414.71    5.78
  -2  -2  -4 2132.66   25.73
  -2   2  -4 2200.05   25.01
  -2  -2  -3 1746.05   20.82
  -2   2  -3 1732.24   20.26
  -2  -2  -2 4396.07   49.32
  -2   2  -2 4392.83   49.07
  -2  -2  -1    3.60    0.69
  -2   2  -1    4.80    0.74
  -2  -2   0   91.34    2.02
  -2   2   0   91.91    2.16
  -2  -2   1   50.08    1.33
  -2   2   1   50.99    1.61
  -2   2   4  676.62    9.33
  -2   2   5  440.36    6.87
  -2   2   6 1058.62   14.00
  -2   2   7    7.87    1.01
  -2   2   8  364.37    6.52
  -2   2   9   88.29    2.90
  -2   2  10   48.45    2.22
  -2   2  11  340.07    6.74
  -2   2  12  226.08    5.39
  -2   2  13   23.18    1.73
  -2   2  14  658.38   11.25
  -2   2  15    0.97    0.92
  -2   2  16   71.51    3.25
  -2  -4 -26   12.13    2.14
  -2  -4 -25   15.55    2.31
  -2  -4 -24    2.34    1.36
  -2  -4 -23   15.51    2.25
  -2  -4 -22   66.97    4.01
  -2  -4 -21   15.08    2.12
  -2   4 -20  198.22    4.50
  -2  -4 -20  203.56    6.75
  -2  -4 -19    8.87    1.71
  -2   4 -19    7.97    0.89
  -2  -4 -18   85.97    4.04
  -2   4 -18   94.29    2.74
  -2  -4 -17   16.29    1.84
  -2   4 -17   16.31    1.10
  -2  -4 -16   56.15    3.18
  -2   4 -16   55.55    1.89
  -2  -4 -15   21.32    2.00
  -2  -4 -14  168.73    5.28
  -2  -4 -13   16.73    1.77
  -2  -4 -12  247.70    6.25
  -2   4 -11   45.19    1.53
  -2  -4 -11   49.65    2.66
  -2  -4 -10  217.29    5.50
  -2   4 -10  211.27    3.87
  -2  -4  -9    9.19    1.35
  -2   4  -9    8.84    0.79
  -2  -4  -8   12.13    1.38
  -2   4  -8   11.21    0.87
  -2  -4  -7  130.29    3.80
  -2   4  -7  130.96    2.97
  -2  -4  -6  169.52    4.26
  -2  -4  -5   87.35    2.92
  -2  -4  -4  481.55    7.87
  -2  -4  -3  590.46    8.88
  -2  -4  -2  352.95    5.95
  -2  -4  -1   72.09    2.21
  -2  -4   0  246.50    4.36
  -2  -4   1  185.42    3.45
  -2  -4   2   97.97    2.19
  -2   4   3  176.86    3.89
  -2  -4   3  176.16    3.00
  -2   4   4  191.51    4.25
  -2   4   5   93.49    2.92
  -2   4   7  307.69    6.26
  -2   4   8  279.57    6.03
  -2   4   9   47.41    2.35
  -2  -4   9   40.83    1.17
  -2   4  10   49.36    2.47
  -2  -4  10   42.39    1.04
  -2   4  11  155.87    4.65
  -2   4  12  152.27    4.71
  -2   4  13   23.39    1.99
  -2  -6 -23   61.40    4.29
  -2  -6 -22   40.27    3.46
  -2  -6 -21   40.19    3.24
  -2  -6 -20   65.08    4.09
  -2  -6 -19    7.57    1.72
  -2  -6 -18   54.33    3.54
  -2  -6 -17  154.85    5.78
  -2  -6 -16   26.00    2.50
  -2  -6 -15  143.96    5.38
  -2  -6 -14  109.63    4.56
  -2  -6 -13   50.03    3.07
  -2  -6 -12   56.48    3.13
  -2  -6 -11  114.26    4.34
  -2  -6 -10   57.04    2.99
  -2  -6  -9   98.42    3.78
  -2  -6  -8   28.68    2.07
  -2  -6  -7  241.21    5.92
  -2  -6  -6   60.23    2.73
  -2  -6  -5  110.20    3.65
  -2  -6  -4  725.77   11.40
  -2  -6  -3  325.40    6.37
  -2  -6  -2  376.54    6.79
  -2  -6  -1  162.43    3.92
  -2  -6   0   78.09    2.53
  -2  -6   1  326.73    5.68
  -2  -6   2   81.43    2.33
  -2   6   3  182.56    4.42
  -2  -6   3  174.30    3.48
  -2   6   4  185.93    4.63
  -2  -6   4  182.33    3.37
  -2   6   5   20.03    1.62
  -2  -6   5   18.68    0.89
  -2   6   6  154.39    4.41
  -2   6   7  156.88    4.60
  -2   6   8  307.84    6.95
  -2   6   9  251.90    6.21
  -2  -6   9  221.22    4.45
  -2   6  10   39.94    2.48
  -2  -6  10   32.06    1.43
  -2  -6  11   86.98    2.27
  -2  -6  12   81.70    2.04
  -2  -6  13    6.25    0.53
  -2  -8 -20   17.54    2.47
  -2  -8 -19   14.24    2.26
  -2  -8 -18    8.82    1.91
  -2  -8 -17   70.28    4.21
  -2  -8 -16   12.91    2.07
  -2  -8 -15  111.09    4.95
  -2  -8 -14   57.34    3.58
  -2  -8 -13   58.34    3.47
  -2  -8 -12  101.76    4.49
  -2  -8 -11   20.08    2.11
  -2  -8 -10   52.36    3.13
  -2  -8  -9  114.51    4.49
  -2  -8  -8   28.36    2.29
  -2  -8  -7  168.28    5.26
  -2  -8  -6   72.05    3.30
  -2  -8  -5   93.18    3.60
  -2  -8  -4    3.24    1.02
  -2  -8  -3   17.94    1.58
  -2  -8  -2  140.09    4.14
  -2  -8  -1  274.63    5.94
  -2  -8   0   67.87    2.67
  -2  -8   1  279.21    5.66
  -2  -8   2   31.47    1.68
  -2  -8   3   65.60    2.26
  -2   8   4   75.19    3.12
  -2  -8   4   72.96    2.26
  -2  -8   5   71.95    2.06
  -2   8   5   74.55    3.21
  -2   8   6   37.23    2.37
  -2  -8   8   29.84    1.82
  -2  -8   9  192.49    4.77
  -2  -8  10   29.23    1.74
  -2  -8  11   41.53    1.96
  -2  -8  12   20.17    1.35
  -2  -8  13    9.13    0.93
  -2 -10 -17   28.62    3.02
  -2 -10 -16   32.09    3.15
  -2 -10 -15   85.74    4.82
  -2 -10 -14   15.75    2.24
  -2 -10 -13   13.82    2.05
  -2 -10 -12    3.65    1.54
  -2 -10 -11   -0.01    1.09
  -2 -10 -10   10.86    1.78
  -2 -10  -9   87.51    4.22
  -2 -10  -8   34.27    2.66
  -2 -10  -7   80.68    3.91
  -2 -10  -6   23.26    2.21
  -2 -10  -5  169.51    5.45
  -2 -10  -4   52.68    2.93
  -2 -10  -3    7.90    1.33
  -2 -10  -2    6.29    1.21
  -2 -10  -1    7.59    1.23
  -2 -10   0   46.16    2.44
  -2 -10   1  145.20    4.25
  -2 -10   2   42.95    2.20
  -2 -10   3  112.46    3.39
  -2 -10   4   33.69    1.74
  -2 -10   5   24.48    1.37
  -2 -10   6   23.01    1.20
  -2 -10   8   44.94    2.57
  -2 -10   9   82.27    3.44
  -2 -10  10   37.83    2.38
  -2 -12 -13   12.42    2.15
  -2 -12 -12    2.90    1.53
  -2 -12 -11    2.67    1.50
  -2 -12 -10   10.49    1.82
  -2 -12  -9    8.09    1.81
  -2 -12  -8   35.10    2.93
  -2 -12  -7   50.69    3.38
  -2 -12  -6   16.91    2.15
  -2 -12  -5   38.84    2.84
  -2 -12  -4   12.43    1.82
  -2 -12  -3    3.22    1.16
  -2 -12  -2   24.25    2.18
  -2 -12  -1   30.23    2.31
  -2 -12   0   35.72    2.42
  -2 -12   1   67.84    3.10
  -2 -12   2   30.24    2.09
  -2 -12   3   35.62    2.09
  -2 -14  -9   12.41    2.32
  -2 -14  -8   20.56    2.65
  -2 -14  -7   17.65    2.37
  -2 -14  -6   19.66    2.54
  -2 -14  -5    9.75    1.83
  -2 -14  -4    9.58    1.82
  -2 -14  -3   -0.59    1.17
  -1  -1 -27   88.04    4.59
  -1  -1 -26    3.34    1.39
  -1  -1 -25   34.99    2.97
  -1   1 -25   35.68    2.60
  -1   1 -24    2.59    1.05
  -1  -1 -24    4.46    1.79
  -1   1 -23   10.42    1.44
  -1  -1 -23   10.45    1.65
  -1   1 -22    9.25    1.41
  -1  -1 -22    7.16    1.32
  -1  -1 -21   58.38    3.24
  -1   1 -21   67.55    3.13
  -1  -1 -20   40.85    2.71
  -1   1 -20   32.48    1.10
  -1   1 -20   38.11    2.30
  -1  -1 -19  199.97    5.74
  -1   1 -19  188.01    3.31
  -1   1 -19  206.95    5.36
  -1   1 -18    6.61    1.10
  -1   1 -18    6.31    0.61
  -1  -1 -18    5.35    1.16
  -1   1 -17  270.69    5.97
  -1  -1 -17  263.20    6.41
  -1   1 -17  251.09    4.18
  -1   1 -16   11.33    0.76
  -1   1 -16   12.10    1.25
  -1  -1 -16   13.19    1.45
  -1   1 -15    1.50    0.65
  -1   1 -15    1.46    0.41
  -1  -1 -15    2.06    0.84
  -1   1 -14    3.44    0.78
  -1  -1 -14    3.53    0.91
  -1   1 -13  410.34    7.05
  -1  -1 -13  402.20    7.66
  -1   1 -12   35.31    1.70
  -1  -1 -12   33.39    1.93
  -1   1 -11  327.20    5.69
  -1  -1 -11  326.34    6.30
  -1   1 -10   18.68    1.16
  -1  -1 -10   17.86    1.41
  -1   1  -9  831.46   10.94
  -1  -1  -9  819.06   11.69
  -1   1  -8  135.72    2.85
  -1  -1  -8  140.27    3.38
  -1   1  -7  300.89    4.59
  -1   1  -7  292.63    4.13
  -1  -1  -7  300.39    5.23
  -1   1  -6  149.11    2.43
  -1  -1  -6  155.67    3.31
  -1   1  -6  150.65    2.71
  -1   1  -5  197.93    2.90
  -1  -1  -5  198.54    3.69
  -1   1  -5  200.50    3.10
  -1  -1  -4   93.61    2.19
  -1   1  -4   87.54    1.67
  -1   1  -4   93.16    1.66
  -1   1  -3 2463.99   27.35
  -1  -1  -3 2466.87   27.97
  -1   1  -3 2450.43   27.27
  -1  -1  -2   14.54    0.76
  -1   1  -2   15.79    0.61
  -1  -1  -1 1263.76   14.59
  -1   1  -1 1270.91   14.46
  -1  -1   0    4.30    0.36
  -1   1   0    4.50    0.40
  -1   1   1 2301.44   25.78
  -1   1   2   18.18    0.79
  -1   1   3   85.36    1.88
  -1   1   4  105.79    2.30
  -1   1   5  819.08   10.60
  -1   1   6   58.40    1.87
  -1  -1   6   59.12    1.49
  -1   1   7  649.08    9.09
  -1  -1   7  635.20    8.36
  -1   1   8   47.53    1.87
  -1  -1   8   41.06    1.46
  -1   1   9  270.35    5.19
  -1  -1   9  271.04    4.61
  -1   1  10   37.83    1.82
  -1  -1  10   36.42    1.52
  -1   1  11  105.13    3.14
  -1  -1  11  101.16    2.73
  -1  -1  12  151.97    3.60
  -1   1  12  154.39    4.04
  -1  -1  13  197.17    4.37
  -1   1  13  204.79    4.94
  -1  -1  14   98.16    3.02
  -1   1  14  100.98    3.43
  -1  -1  15  610.18    9.92
  -1   1  15  645.12   10.80
  -1  -1  16   16.39    1.41
  -1   1  16   16.63    1.61
  -1   1  17  316.33    7.14
  -1  -1  17  305.32    6.46
  -1   1  18   49.37    2.73
  -1  -3 -27   69.45    4.42
  -1  -3 -26    9.39    1.88
  -1  -3 -25   40.40    3.28
  -1  -3 -24   18.14    2.29
  -1  -3 -23    4.38    1.46
  -1  -3 -22    6.02    1.45
  -1   3 -22    6.17    1.02
  -1  -3 -21   72.25    3.90
  -1   3 -21   78.36    2.96
  -1  -3 -20   73.32    3.76
  -1   3 -20   75.15    2.81
  -1  -3 -19  118.60    4.73
  -1   3 -19  117.38    3.46
  -1   3 -18   14.30    1.22
  -1  -3 -18   16.29    1.87
  -1   3 -17  312.08    5.89
  -1  -3 -17  314.10    7.70
  -1   3 -16   68.01    2.35
  -1  -3 -16   68.18    3.30
  -1  -3 -15   44.39    2.62
  -1   3 -15   48.39    1.86
  -1  -3 -14   24.48    1.98
  -1   3 -14   23.62    1.25
  -1   3 -13   14.77    0.95
  -1  -3 -13   12.80    1.47
  -1  -3 -12   54.31    2.67
  -1   3 -12   53.01    1.66
  -1  -3 -11  639.01   10.65
  -1   3 -11  632.12    7.89
  -1   3 -11  632.33    8.37
  -1  -3 -10   17.74    1.65
  -1   3 -10   15.56    0.81
  -1   3 -10   19.18    0.82
  -1   3  -9  736.61    9.21
  -1  -3  -9  754.01   11.50
  -1   3  -9  740.41    9.10
  -1   3  -8   92.56    1.97
  -1  -3  -8   96.03    3.11
  -1  -3  -7  207.45    4.62
  -1   3  -7  204.92    3.38
  -1  -3  -6   26.78    1.60
  -1  -3  -5  138.62    3.42
  -1  -3  -4   68.86    2.25
  -1  -3  -3  206.80    4.01
  -1  -3  -2  321.91    5.20
  -1  -3  -1  156.54    3.05
  -1  -3   0  865.03   10.83
  -1   3   0  868.61   10.79
  -1  -3   1   16.91    0.86
  -1   3   1   16.38    0.99
  -1   3   2   80.53    2.15
  -1  -3   2   77.04    1.60
  -1   3   3   48.36    1.73
  -1  -3   3   47.69    1.04
  -1   3   4  128.37    3.08
  -1   3   5  227.14    4.52
  -1   3   6   13.74    1.22
  -1  -3   6   12.37    0.67
  -1  -3   7  388.71    5.10
  -1   3   7  402.32    6.95
  -1  -3   8   38.63    0.93
  -1   3   8   49.12    2.18
  -1   3   9 1192.61   16.46
  -1   3  10  205.55    4.99
  -1   3  11   37.31    2.10
  -1   3  12  151.94    4.43
  -1   3  13  121.15    4.02
  -1   3  14   24.17    1.85
  -1   3  15  175.17    5.22
  -1  -5 -25    7.32    1.95
  -1  -5 -24   26.12    2.86
  -1  -5 -23    2.96    1.53
  -1  -5 -22   34.50    3.00
  -1  -5 -21   45.87    3.34
  -1  -5 -20   11.75    1.89
  -1  -5 -19  150.50    5.79
  -1  -5 -18   56.42    3.43
  -1  -5 -17   37.90    2.76
  -1  -5 -16   29.41    2.42
  -1  -5 -15   57.26    3.24
  -1  -5 -14   81.47    3.72
  -1  -5 -13   53.94    2.97
  -1  -5 -12  128.03    4.48
  -1  -5 -11  432.78    8.82
  -1  -5 -10   18.34    1.79
  -1  -5  -9  118.86    3.96
  -1  -5  -8   80.68    3.14
  -1  -5  -7  110.62    3.58
  -1  -5  -6  281.61    5.99
  -1  -5  -5  186.21    4.55
  -1  -5  -4  887.49   12.75
  -1  -5  -3  298.34    5.70
  -1  -5  -2   38.61    1.82
  -1  -5  -1  303.59    5.40
  -1   5   0    9.66    0.89
  -1  -5   0    9.54    0.93
  -1  -5   1    6.01    0.79
  -1   5   1    6.44    0.84
  -1   5   2  330.02    5.88
  -1  -5   2  327.72    5.08
  -1   5   3   49.10    2.07
  -1  -5   3   46.48    1.39
  -1   5   4  205.21    4.59
  -1  -5   4  202.15    3.18
  -1   5   5  168.59    4.24
  -1  -5   5  171.94    2.53
  -1   5   6  169.93    4.39
  -1   5   7  900.14   13.16
  -1  -5   7  832.38   11.41
  -1   5   8   29.57    2.01
  -1  -5   8   24.30    1.21
  -1   5   9  316.29    6.80
  -1  -5   9  296.32    4.89
  -1   5  10   84.01    3.35
  -1  -5  10   79.33    2.01
  -1  -5  11    7.95    0.63
  -1   5  11    7.46    1.22
  -1  -5  12  109.82    2.04
  -1  -7 -22   45.01    3.72
  -1  -7 -21   36.73    3.25
  -1  -7 -20   53.67    3.79
  -1  -7 -19   22.79    2.54
  -1  -7 -18   30.02    2.79
  -1  -7 -17   61.00    3.78
  -1  -7 -16   69.08    3.94
  -1  -7 -15   39.83    3.08
  -1  -7 -14  404.05    9.59
  -1  -7 -13  146.16    5.33
  -1  -7 -12   54.91    3.23
  -1  -7 -11   17.13    1.84
  -1  -7 -10   20.10    1.87
  -1  -7  -9   57.75    3.00
  -1  -7  -8   65.05    3.10
  -1  -7  -7   31.40    2.16
  -1  -7  -6  207.44    5.43
  -1  -7  -5    7.22    1.26
  -1  -7  -4  113.20    3.68
  -1  -7  -3  143.29    4.05
  -1  -7  -2   27.38    1.79
  -1  -7  -1  199.04    4.63
  -1  -7   0   76.43    2.64
  -1   7   0   72.57    2.51
  -1  -7   1  180.70    4.01
  -1   7   1  183.39    4.39
  -1   7   2  388.48    7.24
  -1  -7   2  388.19    6.41
  -1  -7   3   66.18    2.07
  -1   7   3   65.44    2.71
  -1  -7   4  264.19    4.49
  -1   7   4  263.70    5.97
  -1   7   5  187.06    5.01
  -1  -7   5  193.06    3.35
  -1   7   6  206.96    5.37
  -1  -7   6  194.52    3.06
  -1  -7   6  189.41    4.64
  -1   7   7  130.92    4.30
  -1  -7   7  124.50    3.59
  -1   7   8   60.74    3.02
  -1  -7   8   59.42    2.38
  -1  -7   9  112.28    3.23
  -1  -7  10  115.29    3.20
  -1  -7  11   12.84    1.08
  -1  -7  12  121.06    3.06
  -1  -7  13   54.33    1.84
  -1  -7  14   58.87    1.75
  -1  -9 -19   -0.47    1.24
  -1  -9 -18    3.01    1.36
  -1  -9 -17   15.72    2.30
  -1  -9 -16   73.36    4.37
  -1  -9 -15   18.89    2.46
  -1  -9 -14   87.65    4.55
  -1  -9 -13   17.47    2.21
  -1  -9 -12   39.09    2.96
  -1  -9 -11   52.71    3.32
  -1  -9 -10   24.28    2.27
  -1  -9  -9   38.66    2.73
  -1  -9  -8   36.32    2.60
  -1  -9  -7   18.63    1.96
  -1  -9  -6  144.77    4.90
  -1  -9  -5   13.48    1.69
  -1  -9  -4   53.21    2.79
  -1  -9  -3   55.02    2.80
  -1  -9  -2   67.48    2.95
  -1  -9  -1  119.65    3.79
  -1  -9   0  258.03    5.78
  -1  -9   1   63.21    2.56
  -1  -9   2   76.48    2.69
  -1   9   2   76.23    3.09
  -1   9   3   22.78    1.82
  -1  -9   3   23.04    1.47
  -1   9   4   91.03    3.63
  -1  -9   4   89.55    2.64
  -1  -9   5   13.84    1.48
  -1  -9   5   16.05    1.07
  -1  -9   6   11.22    1.33
  -1  -9   6   13.65    0.85
  -1  -9   7    4.32    0.93
  -1  -9   8   13.63    1.36
  -1  -9   9   17.61    1.54
  -1  -9  10  134.13    4.12
  -1  -9  11   27.65    1.84
  -1  -9  12  192.21    4.83
  -1 -11 -15   14.08    2.31
  -1 -11 -14   30.49    2.95
  -1 -11 -13   13.73    2.10
  -1 -11 -12   37.13    3.16
  -1 -11 -11    1.19    1.16
  -1 -11 -10    3.57    1.36
  -1 -11  -9    4.34    1.37
  -1 -11  -8   21.29    2.24
  -1 -11  -7   20.73    2.19
  -1 -11  -6   53.95    3.24
  -1 -11  -5   45.81    2.94
  -1 -11  -4   51.79    3.04
  -1 -11  -3   16.37    1.80
  -1 -11  -2   40.42    2.57
  -1 -11  -1    2.61    1.00
  -1 -11   0  108.89    3.89
  -1 -11   1   25.13    1.89
  -1 -11   2   56.54    2.59
  -1 -11   3   23.34    1.62
  -1 -11   4   31.29    1.75
  -1 -11   5   22.45    1.38
  -1 -13 -11    0.99    1.30
  -1 -13 -10    1.76    1.42
  -1 -13  -9   10.97    1.99
  -1 -13  -8   11.92    1.99
  -1 -13  -7   22.18    2.49
  -1 -13  -6   21.11    2.34
  -1 -13  -5   16.86    2.10
  -1 -13  -4   20.36    2.22
  -1 -13  -3    8.89    1.61
  -1 -13  -2    0.67    0.95
  -1 -13  -1    1.46    0.95
  -1 -13   0    1.66    1.02
   0   0 -26  125.04    5.10
   0   0 -25    0.90    0.96
   0   0 -24   53.54    3.19
   0   0 -23   -0.24    0.91
   0   0 -22   12.23    1.61
   0   0 -21    0.46    0.86
   0   0 -20   46.35    2.63
   0   0 -20   45.48    1.57
   0   0 -19    3.89    1.01
   0   0 -18  453.74    8.90
   0   0 -17    1.77    0.87
   0   0 -16  395.48    7.72
   0   0 -15    0.31    0.77
   0   0 -14    9.76    1.17
   0   0 -13    0.68    0.66
   0   0 -12   79.28    2.66
   0   0 -11    0.78    0.69
   0   0 -10  556.28    8.43
   0   0  -9    0.26    0.64
   0   0  -7    0.61    0.69
   0   0  -6  446.99    6.31
   0   0  -5    1.44    0.56
   0   0  -4  305.51    4.27
   0   0  -3    0.58    0.35
   0   0  -2  440.57    5.28
   0   0   3    0.31    0.29
   0   0   4  302.88    4.23
   0   0   5    0.84    0.47
   0   0   6  442.12    6.23
   0   0   7    0.68    0.55
   0   0   8  785.63   10.52
   0   0   9    1.34    0.64
   0   0  10  559.81    8.42
   0   0  11    1.31    0.65
   0   0  12   78.97    2.61
   0   0  13    1.00    0.61
   0   0  14   10.20    1.12
   0   0  15   -0.02    0.66
   0   0  16  410.18    7.89
   0   0  17    3.56    1.00
   0   0  18  457.19    8.90
   0   0  19    4.33    1.08
   0  -2 -28   30.77    3.03
   0  -2 -27    9.37    1.94
   0  -2 -26   90.10    4.68
   0  -2 -25   16.35    2.12
   0  -2 -24   94.48    4.59
   0   2 -23   19.90    1.75
   0  -2 -23   17.80    2.14
   0   2 -22    3.36    0.91
   0  -2 -22    5.06    1.37
   0  -2 -21   45.49    2.95
   0   2 -21   49.01    2.51
   0  -2 -20   31.60    2.45
   0   2 -20   34.16    2.04
   0   2 -19    3.04    0.83
   0  -2 -19    3.61    1.13
   0   2 -18  230.10    5.28
   0  -2 -18  230.89    6.35
   0   2 -17   54.79    2.33
   0  -2 -17   55.56    2.97
   0   2 -16  401.87    7.12
   0  -2 -16  396.60    8.37
   0   2 -15   88.43    2.75
   0  -2 -15   84.85    3.43
   0   2 -14   76.95    2.43
   0  -2 -14   82.50    3.23
   0   2 -13  148.99    3.35
   0  -2 -13  151.17    4.36
   0   2 -12  164.10    3.45
   0  -2 -12  161.30    4.38
   0  -2 -11   10.31    1.32
   0   2 -11   12.15    0.95
   0   2 -10  868.80   11.09
   0  -2 -10  857.80   12.64
   0   2  -9   40.39    1.34
   0  -2  -9   37.53    1.91
   0   2  -8  747.86    9.30
   0  -2  -8  750.20   10.85
   0  -2  -7   72.34    2.38
   0   2  -7   70.70    1.49
   0   2  -6  192.87    2.72
   0  -2  -6  193.20    3.97
   0  -2  -5    8.83    1.00
   0  -2  -4  220.17    3.96
   0  -2  -3  386.62    5.73
   0  -2  -2  760.89    9.59
   0   2  -1  625.13    7.40
   0  -2  -1  630.34    7.90
   0   2   0  310.18    4.18
   0  -2   0  307.41    4.17
   0  -2   1  622.15    7.36
   0   2   1  625.68    7.85
   0   2   2  737.62    9.31
   0   2   3  386.08    5.60
   0  -2   3  378.79    5.01
   0   2   4  218.00    3.92
   0  -2   4  222.68    3.14
   0  -2   5   10.54    0.55
   0   2   5   12.63    1.00
   0  -2   6  199.29    2.76
   0  -2   6  197.23    2.75
   0   2   6  195.37    3.98
   0   2   7   72.65    2.35
   0  -2   7   74.29    1.53
   0   2   8  737.99   10.67
   0  -2   8  729.63    9.10
   0  -2   9   38.78    1.29
   0   2   9   37.67    1.86
   0  -2  10  871.96   11.13
   0   2  10  873.12   12.67
   0  -2  11   10.79    0.89
   0   2  11    9.73    1.17
   0  -2  12  158.14    3.38
   0   2  12  163.08    4.35
   0  -2  13  146.17    3.38
   0   2  13  151.69    4.31
   0  -2  14   81.89    2.52
   0   2  14   86.48    3.28
   0  -2  15   80.82    2.61
   0   2  15   84.61    3.36
   0  -2  16  390.96    7.04
   0   2  16  406.37    8.37
   0  -2  17   51.99    2.28
   0  -2  18  230.84    5.26
   0  -4 -26   43.04    3.52
   0  -4 -25    8.49    1.73
   0  -4 -24   37.92    3.15
   0  -4 -23   25.81    2.62
   0  -4 -22    2.66    1.46
   0  -4 -21   49.51    3.36
   0  -4 -20   41.04    3.02
   0   4 -20   36.38    1.70
   0  -4 -19  103.57    4.57
   0   4 -19  100.41    2.78
   0  -4 -18  140.57    5.21
   0   4 -18  141.73    3.28
   0  -4 -17    3.58    1.22
   0   4 -17    2.31    0.53
   0  -4 -16  169.82    5.49
   0   4 -16  164.61    3.31
   0  -4 -15   25.42    2.14
   0   4 -15   24.28    1.08
   0  -4 -14  122.26    4.38
   0   4 -14  123.62    2.45
   0  -4 -13   80.89    3.46
   0   4 -13   84.62    1.79
   0  -4 -12   76.10    3.21
   0   4 -12   70.69    1.44
   0  -4 -11  104.72    3.70
   0  -4 -10  400.43    7.85
   0  -4  -9  138.21    4.08
   0  -4  -8  665.36   10.63
   0  -4  -7  145.52    3.92
   0  -4  -6  145.32    3.78
   0  -4  -5   94.10    2.88
   0  -4  -4    4.86    0.98
   0   4  -3  220.22    3.24
   0  -4  -3  219.13    4.38
   0   4  -2  480.28    6.42
   0  -4  -2  491.42    7.35
   0  -4  -1   52.65    1.78
   0   4  -1   49.05    1.49
   0  -4   0  188.12    3.45
   0   4   0  183.63    3.43
   0   4   1   49.80    1.70
   0  -4   1   50.70    1.52
   0  -4   2  495.43    6.52
   0   4   2  495.28    7.43
   0  -4   3  216.56    3.21
   0   4   3  226.24    4.38
   0  -4   4    3.61    0.32
   0   4   4    3.64    0.78
   0  -4   4    3.16    0.55
   0   4   5  100.37    2.94
   0  -4   5   97.00    2.40
   0  -4   6  134.16    2.84
   0   4   6  139.27    3.65
   0   4   7  149.86    3.95
   0  -4   7  143.09    2.88
   0   4   8  667.35   10.44
   0  -4   8  635.57    8.48
   0  -4   9  126.35    2.52
   0   4   9  141.83    4.04
   0  -4  10  401.47    5.59
   0   4  10  427.14    8.02
   0   4  11  114.24    3.84
   0   4  12   74.09    3.15
   0   4  13   90.49    3.60
   0  -6 -23   22.83    2.65
   0  -6 -22    8.85    1.95
   0  -6 -21   58.45    3.93
   0  -6 -20   21.74    2.44
   0  -6 -19   38.68    3.07
   0  -6 -18   30.34    2.68
   0  -6 -17   -1.12    1.18
   0  -6 -16   90.38    4.26
   0  -6 -15   37.67    2.74
   0  -6 -14   56.27    3.21
   0  -6 -13   49.64    2.92
   0  -6 -12   55.41    3.08
   0  -6 -11  239.09    6.34
   0  -6 -10  164.07    4.99
   0  -6  -9  120.36    4.13
   0  -6  -8   80.72    3.26
   0  -6  -7   67.50    2.92
   0  -6  -6  299.70    6.41
   0  -6  -5  333.66    6.70
   0  -6  -4   35.91    2.02
   0   6  -3  248.77    4.22
   0  -6  -3  248.31    5.26
   0  -6  -2  159.89    3.91
   0   6  -2  154.29    3.27
   0   6  -1  107.25    2.78
   0  -6  -1  110.87    3.06
   0   6   0  220.28    4.45
   0  -6   0  225.81    4.47
   0  -6   1  108.80    2.80
   0   6   1  111.92    3.09
   0  -6   2  158.77    3.32
   0   6   2  157.45    3.90
   0  -6   3  247.81    4.21
   0   6   3  249.62    5.30
   0  -6   4   30.82    1.13
   0   6   4   29.99    1.81
   0  -6   4   29.46    1.69
   0  -6   5  323.91    6.19
   0   6   5  340.96    6.72
   0  -6   5  329.24    4.57
   0   6   6  299.63    6.36
   0  -6   6  282.01    5.58
   0   6   7   77.59    3.07
   0  -6   7   66.01    2.34
   0   6   8   86.87    3.36
   0  -6   8   81.91    2.55
   0   6   9  130.18    4.28
   0  -6   9  120.09    3.09
   0   6  10  167.17    5.03
   0  -6  10  158.76    3.56
   0  -6  11  220.81    4.24
   0  -6  12   52.97    1.76
   0  -6  13   50.62    1.60
   0  -8 -21   71.87    4.61
   0  -8 -20    5.07    1.63
   0  -8 -19   16.99    2.33
   0  -8 -18   60.52    3.95
   0  -8 -17    6.14    1.75
   0  -8 -16    3.78    1.53
   0  -8 -15   55.48    3.60
   0  -8 -14   26.31    2.62
   0  -8 -13  338.02    8.73
   0  -8 -12   87.43    4.17
   0  -8 -11  117.93    4.72
   0  -8 -10   10.58    1.65
   0  -8  -9   16.55    1.83
   0  -8  -8    2.68    1.05
   0  -8  -7   24.10    1.97
   0  -8  -6   28.39    2.09
   0  -8  -5  128.36    4.23
   0  -8  -4   36.52    2.27
   0  -8  -3  260.89    6.01
   0  -8  -2   71.26    2.86
   0   8  -2   67.55    2.35
   0   8  -1   53.69    2.18
   0  -8  -1   55.68    2.41
   0  -8   0  283.39    5.78
   0   8   0  276.58    5.74
   0  -8   1   58.02    2.31
   0   8   1   54.67    2.41
   0  -8   2   70.08    2.42
   0   8   2   68.59    2.82
   0  -8   3  252.00    4.77
   0   8   3  253.15    5.91
   0  -8   3  255.88    6.16
   0  -8   4   40.22    1.61
   0   8   4   42.37    2.37
   0  -8   4   39.98    2.28
   0   8   5  126.14    4.20
   0  -8   5  128.38    4.08
   0  -8   5  129.09    2.78
   0   8   6   30.52    2.13
   0  -8   6   29.28    1.05
   0  -8   6   29.46    1.90
   0  -8   7   26.70    1.75
   0  -8   8    2.09    0.66
   0  -8   9   19.77    1.50
   0  -8  10    8.38    1.06
   0  -8  11  110.47    3.40
   0  -8  12   81.79    2.82
   0  -8  13  305.99    5.89
   0  -8  14   20.97    1.34
   0 -10 -17    5.41    1.62
   0 -10 -16    4.77    1.58
   0 -10 -15   23.22    2.58
   0 -10 -14   25.61    2.69
   0 -10 -13   87.67    4.59
   0 -10 -12   10.79    1.85
   0 -10 -11    8.87    1.70
   0 -10 -10    2.55    1.17
   0 -10  -9   15.74    1.96
   0 -10  -8   25.78    2.27
   0 -10  -7   12.79    1.75
   0 -10  -6   11.09    1.60
   0 -10  -5   52.83    2.96
   0 -10  -4   59.23    3.11
   0 -10  -3  248.29    6.37
   0 -10  -2   15.58    1.67
   0 -10  -1   24.69    1.88
   0  10   0   21.70    1.65
   0 -10   0   22.17    1.70
   0 -10   1   22.53    1.64
   0  10   1   21.16    1.70
   0 -10   2   15.89    1.41
   0  10   2   15.12    1.54
   0 -10   3  248.32    5.27
   0  10   3  238.60    6.27
   0 -10   4   54.66    2.15
   0 -10   5   60.45    2.11
   0 -10   6   12.68    0.91
   0 -10   7    7.36    0.61
   0 -10   9   14.33    1.55
   0 -10  10    3.60    1.01
   0 -12 -13   14.40    2.34
   0 -12 -12   17.62    2.40
   0 -12 -11   18.70    2.30
   0 -12 -10    4.57    1.53
   0 -12  -9    6.51    1.51
   0 -12  -8    9.01    1.78
   0 -12  -7   22.53    2.37
   0 -12  -6    8.73    1.64
   0 -12  -5   33.00    2.61
   0 -12  -4   14.24    1.81
   0 -12  -3   25.30    2.18
   0 -12  -2   30.18    2.33
   0 -12  -1   39.67    2.50
   0 -12   0    3.90    1.14
   0 -12   1   43.82    2.48
   0 -12   2   28.21    1.94
   0 -12   3   24.80    1.74
   0 -14  -9    1.46    1.35
   0 -14  -8   -0.53    1.33
   0 -14  -7    1.10    1.16
   0 -14  -6   14.95    2.10
   0 -14  -5    6.42    1.55
   0 -14  -4   13.62    2.02
   0 -14  -3   18.01    2.14
   1  -1 -27   14.34    2.06
   1  -1 -26    3.97    1.43
   1   1 -25  127.33    4.79
   1  -1 -25  120.06    5.14
   1   1 -24    5.61    1.27
   1  -1 -24    2.13    1.71
   1   1 -23  118.64    4.39
   1  -1 -23  110.04    4.63
   1   1 -22   16.13    1.72
   1  -1 -22   16.41    1.91
   1   1 -21   30.00    2.10
   1  -1 -21   30.00    2.42
   1   1 -20    2.53    0.88
   1  -1 -20    2.31    1.08
   1  -1 -20    2.95    0.57
   1   1 -19   48.12    2.49
   1  -1 -19   50.22    2.82
   1  -1 -19   47.18    1.85
   1   1 -18   47.34    2.42
   1  -1 -18   46.23    1.83
   1  -1 -18   48.86    2.75
   1   1 -17  315.35    6.55
   1  -1 -17  307.20    7.07
   1   1 -16   16.44    1.40
   1  -1 -16   15.74    1.59
   1   1 -15  595.22    9.53
   1  -1 -15  579.94   10.12
   1   1 -14   96.79    2.99
   1  -1 -14   96.39    3.34
   1   1 -13  195.67    4.29
   1  -1 -13  195.16    4.78
   1   1 -12  152.25    3.55
   1  -1 -12  150.65    4.00
   1   1 -11   97.58    2.64
   1  -1 -11   97.36    3.03
   1  -1 -10   36.64    1.79
   1   1 -10   35.20    1.46
   1   1  -9  267.84    4.52
   1  -1  -9  268.32    5.13
   1   1  -8   40.26    1.41
   1  -1  -8   39.31    1.75
   1   1  -7  635.68    8.22
   1  -1  -7  631.13    8.97
   1  -1  -6   55.68    1.83
   1   1  -6   57.56    1.45
   1  -1  -5  769.55   10.13
   1   1  -5  781.06    9.35
   1   1  -4  102.17    1.72
   1  -1  -4   99.01    2.25
   1  -1  -3   85.07    1.89
   1  -1  -2   17.91    0.81
   1  -1  -1 2295.69   25.60
   1  -1  -1 2280.39   25.67
   1   1   0    3.80    0.33
   1  -1   0    1.03    0.28
   1   1   1 1186.56   13.38
   1  -1   1 1130.67   13.27
   1  -1   2   15.76    0.58
   1   1   2   14.12    0.71
   1  -1   3 2413.42   26.76
   1   1   3 2394.37   27.37
   1  -1   3 2402.32   26.64
   1  -1   4   82.15    1.56
   1   1   4   88.99    2.08
   1  -1   5  192.99    2.99
   1   1   5  191.89    3.53
   1  -1   6  143.21    2.61
   1   1   6  146.94    3.12
   1  -1   7  292.95    4.50
   1   1   7  293.05    5.10
   1  -1   8  130.73    2.75
   1   1   8  136.01    3.27
   1  -1   9  809.51   10.71
   1   1   9  819.10   11.49
   1   1  10   15.40    1.21
   1  -1  10   14.87    0.99
   1   1  11  313.49    5.99
   1  -1  11  308.82    5.40
   1   1  12   30.42    1.74
   1  -1  12   30.90    1.53
   1   1  13  404.55    7.51
   1  -1  13  394.05    6.85
   1   1  14    4.12    0.88
   1  -1  14    4.36    0.77
   1  -1  15    2.21    0.74
   1   1  15    1.76    0.74
   1   1  16   11.94    1.33
   1  -1  16   10.92    1.13
   1   1  17  271.44    6.51
   1  -1  17  273.20    5.98
   1  -1  18    5.45    0.94
   1  -1  19  204.90    5.35
   1  -1  20   39.80    2.39
   1  -1  21   64.36    3.10
   1  -3 -27   24.41    2.75
   1  -3 -26    4.95    1.51
   1  -3 -25   67.76    4.09
   1  -3 -24   14.24    2.05
   1  -3 -23   51.65    3.46
   1   3 -22    3.61    0.82
   1  -3 -22    3.40    1.40
   1   3 -21    6.24    0.96
   1  -3 -21    4.74    1.29
   1  -3 -20   41.75    2.86
   1  -3 -20   41.24    2.29
   1   3 -20   43.57    2.11
   1  -3 -19   53.29    3.16
   1   3 -19   56.39    2.30
   1   3 -18   67.27    2.43
   1  -3 -18   70.75    3.50
   1   3 -17  179.08    4.05
   1  -3 -17  172.61    5.45
   1   3 -16   34.35    1.63
   1  -3 -16   34.13    2.36
   1   3 -15  174.00    3.67
   1  -3 -15  167.88    5.09
   1   3 -14   23.50    1.19
   1  -3 -14   21.87    1.86
   1   3 -13  110.38    2.57
   1  -3 -13  114.33    3.88
   1   3 -12  147.77    2.91
   1  -3 -12  145.47    4.31
   1   3 -11   35.08    1.19
   1  -3 -11   34.42    2.02
   1   3 -10  195.50    3.13
   1  -3 -10  191.26    4.77
   1   3  -9 1134.20   13.18
   1  -3  -9 1122.07   15.70
   1   3  -8   44.09    1.00
   1  -3  -8   42.56    2.09
   1  -3  -7  377.81    6.72
   1  -3  -6   11.30    1.23
   1  -3  -5  218.88    4.44
   1  -3  -4  122.59    3.00
   1  -3  -3   47.25    1.75
   1   3  -3   44.18    0.97
   1  -3  -2   84.24    2.22
   1   3  -2   81.35    1.61
   1  -3  -1   18.55    1.07
   1   3  -1   16.54    0.80
   1  -3   0  858.81   10.60
   1   3   0  845.13   10.59
   1   3   1  150.84    2.92
   1  -3   1  151.22    2.62
   1  -3   1  152.65    3.08
   1  -3   2  323.67    5.07
   1   3   2  317.25    5.09
   1  -3   2  319.99    4.34
   1  -3   3  195.93    2.75
   1  -3   3  190.23    3.47
   1   3   3  196.18    3.78
   1  -3   4   64.70    1.75
   1   3   4   62.85    2.07
   1   3   5  135.51    3.28
   1  -3   5  134.50    2.67
   1   3   6   22.75    1.41
   1  -3   6   22.58    1.00
   1   3   7  204.08    4.47
   1  -3   7  202.96    3.38
   1  -3   7  196.34    2.69
   1  -3   8   86.52    1.56
   1   3   8   92.93    2.93
   1  -3   8   81.11    1.89
   1   3   9  742.30   11.20
   1  -3   9  724.64    8.89
   1   3  10   19.06    1.48
   1  -3  10   16.94    0.80
   1   3  11  624.61   10.33
   1  -3  11  612.22    8.10
   1   3  12   55.04    2.61
   1  -3  12   53.40    1.64
   1  -3  13   16.36    0.97
   1   3  13   18.73    1.57
   1  -3  14   22.63    1.20
   1   3  14   24.42    1.87
   1  -3  15   47.76    1.82
   1  -3  16   67.35    2.25
   1  -3  17  308.46    5.77
   1  -3  18   13.77    1.18
   1  -5 -25   51.16    3.91
   1  -5 -24    3.90    1.47
   1  -5 -23   50.01    3.64
   1  -5 -22   38.02    3.13
   1  -5 -21   10.54    1.94
   1  -5 -20   67.40    3.91
   1  -5 -19    2.55    1.23
   1  -5 -18    5.22    1.54
   1  -5 -17  110.92    4.64
   1  -5 -16   43.87    2.92
   1  -5 -15  206.52    6.13
   1  -5 -14   47.86    2.84
   1  -5 -13   93.35    3.83
   1  -5 -12  121.65    4.27
   1  -5 -11    8.44    1.34
   1  -5 -10   79.87    3.28
   1  -5  -9  315.37    6.82
   1  -5  -8   29.52    2.03
   1  -5  -7  855.35   12.94
   1  -5  -6  168.81    4.35
   1   5  -5  164.24    2.43
   1  -5  -5  169.56    4.21
   1   5  -4  194.37    3.08
   1  -5  -4  202.01    4.51
   1   5  -3   42.74    1.32
   1  -5  -3   46.53    2.03
   1   5  -2  311.60    4.88
   1  -5  -2  320.41    5.68
   1   5  -1    6.63    0.73
   1  -5  -1    6.70    0.91
   1   5   0    9.37    0.86
   1  -5   0    9.31    0.94
   1   5   1  288.48    5.15
   1  -5   1  295.38    4.86
   1   5   2   36.58    1.68
   1  -5   2   35.35    1.79
   1  -5   2   33.54    1.31
   1   5   3  286.88    5.47
   1  -5   3  291.41    5.50
   1  -5   3  285.94    4.36
   1   5   4  850.23   12.13
   1  -5   4  843.99   10.23
   1  -5   4  838.29   11.83
   1   5   5  176.78    4.26
   1  -5   5  169.60    2.55
   1  -5   5  164.83    3.79
   1   5   6  273.36    5.75
   1  -5   6  269.27    5.03
   1   5   7  112.76    3.51
   1  -5   7  103.77    2.75
   1   5   8   71.58    2.89
   1  -5   8   67.16    2.13
   1  -5   9  116.75    2.84
   1   5   9  123.20    3.93
   1  -5  10   17.18    1.06
   1   5  10   16.35    1.57
   1  -5  11  418.47    6.40
   1   5  11  433.83    8.67
   1  -5  12  119.58    2.66
   1  -7 -22   26.47    2.90
   1  -7 -21    3.14    1.49
   1  -7 -20   23.54    2.61
   1  -7 -19    4.67    1.56
   1  -7 -18   64.86    3.95
   1  -7 -17   20.32    2.36
   1  -7 -16   42.44    3.10
   1  -7 -15  102.21    4.62
   1  -7 -14   60.12    3.46
   1  -7 -13   54.28    3.22
   1  -7 -12  120.98    4.62
   1  -7 -11   15.80    1.82
   1  -7 -10  119.38    4.40
   1  -7  -9  114.94    4.20
   1  -7  -8   66.91    3.12
   1  -7  -7  129.88    4.24
   1  -7  -6  196.46    5.22
   1  -7  -5  189.62    4.97
   1   7  -4  247.51    4.30
   1  -7  -4  253.40    5.71
   1   7  -3   58.59    1.94
   1  -7  -3   65.50    2.66
   1  -7  -2  383.81    7.05
   1   7  -2  372.25    6.27
   1  -7  -1  192.69    4.43
   1   7  -1  185.82    4.10
   1  -7   0   73.19    2.53
   1   7   0   71.30    2.47
   1  -7   1  195.09    5.05
   1  -7   1  187.62    4.11
   1   7   1  183.06    4.34
   1  -7   2   27.41    1.42
   1   7   2   27.61    1.71
   1  -7   2   26.95    1.87
   1  -7   3  131.63    3.01
   1   7   3  132.85    3.82
   1  -7   3  134.99    4.02
   1  -7   4  108.21    2.53
   1   7   4  107.15    3.52
   1  -7   4  105.80    3.52
   1  -7   5    5.25    0.60
   1   7   5    7.21    1.14
   1  -7   5    6.74    1.05
   1  -7   6  205.61    3.18
   1   7   6  208.91    5.39
   1  -7   6  202.20    4.93
   1   7   7   29.59    2.04
   1  -7   7   30.29    1.76
   1   7   8   58.19    2.88
   1  -7   8   58.54    2.39
   1  -7   9   49.45    2.15
   1  -7  10   21.15    1.41
   1  -7  11   20.83    1.36
   1  -7  12   56.30    2.18
   1  -7  13  134.96    3.40
   1  -7  14  384.68    6.37
   1  -9 -19   22.27    2.83
   1  -9 -18   74.98    4.57
   1  -9 -17   21.77    2.54
   1  -9 -16    1.01    1.23
   1  -9 -15    4.51    1.43
   1  -9 -14   23.41    2.43
   1  -9 -13   24.89    2.52
   1  -9 -12  207.13    6.76
   1  -9 -11   33.74    2.77
   1  -9 -10  150.57    5.42
   1  -9  -9   22.89    2.32
   1  -9  -8   11.65    1.65
   1  -9  -7    5.64    1.29
   1  -9  -6   12.24    1.58
   1  -9  -5   14.31    1.60
   1  -9  -4   87.96    3.54
   1   9  -3   22.11    1.40
   1  -9  -3   23.59    1.92
   1  -9  -2   77.05    3.12
   1   9  -2   76.54    2.67
   1  -9  -1   54.17    2.57
   1   9  -1   53.01    2.34
   1   9   0  252.56    5.70
   1  -9   0  261.40    5.79
   1   9   1  119.62    3.82
   1  -9   1  129.22    3.69
   1   9   2   64.57    2.84
   1  -9   2   68.53    2.52
   1   9   3   48.28    2.54
   1  -9   3   51.60    2.07
   1  -9   4   57.23    2.05
   1  -9   4   55.92    2.88
   1   9   4   55.76    2.83
   1  -9   5    9.15    0.90
   1  -9   5    9.54    1.27
   1  -9   6  136.09    4.52
   1  -9   6  141.70    2.89
   1  -9   7   13.81    0.67
   1  -9   7   15.52    1.56
   1  -9   8   26.26    1.88
   1  -9   9   36.69    2.19
   1  -9  10   21.93    1.72
   1  -9  11   54.01    2.57
   1  -9  12   39.29    2.16
   1 -11 -15    6.34    1.86
   1 -11 -14   14.81    2.21
   1 -11 -13   14.62    2.21
   1 -11 -12   33.75    3.10
   1 -11 -11   28.73    2.78
   1 -11 -10   43.99    3.27
   1 -11  -9   15.01    2.10
   1 -11  -8   19.67    2.19
   1 -11  -7    8.72    1.60
   1 -11  -6    3.70    1.26
   1 -11  -5   25.10    2.21
   1 -11  -4   30.21    2.36
   1 -11  -3   19.78    1.89
   1 -11  -2   54.53    2.92
   1 -11  -1   24.50    2.02
   1 -11   0  118.14    4.03
   1  11   0  102.99    3.80
   1 -11   1    3.79    1.08
   1  11   1    2.15    0.94
   1 -11   2   34.65    2.03
   1 -11   3   18.08    1.47
   1 -11   4   51.82    2.20
   1 -11   5   39.87    1.84
   1 -13 -11   12.12    2.19
   1 -13 -10    6.65    1.68
   1 -13  -9    5.56    1.73
   1 -13  -8   13.30    2.07
   1 -13  -7    2.61    1.30
   1 -13  -6    8.91    1.71
   1 -13  -5    9.34    1.75
   1 -13  -4   11.61    1.80
   1 -13  -3   26.55    2.40
   1 -13  -2   39.32    2.68
   1 -13  -1   13.14    1.69
   1 -13   0    2.04    1.11
   2   0 -26   16.57    2.02
   2   0 -25    2.45    1.17
   2   0 -24   76.89    3.80
   2   0 -23    1.19    1.16
   2   0 -22  316.46    7.77
   2   0 -21    1.11    0.98
   2   0 -20   80.15    1.83
   2   0 -20  110.87    4.04
   2   0 -19    0.57    0.34
   2   0 -19    0.51    0.79
   2   0 -18    8.58    0.64
   2   0 -18    8.80    1.25
   2   0 -17    0.44    0.78
   2   0 -17    0.80    0.36
   2   0 -16  334.70    6.91
   2   0 -16  321.67    4.94
   2   0 -15    0.50    0.71
   2   0 -15    1.38    0.40
   2   0 -14  350.71    6.74
   2   0 -14  346.50    5.13
   2   0 -13   -0.79    0.68
   2   0 -13    1.27    0.38
   2   0 -12  850.71   10.56
   2   0 -12  846.36   12.21
   2   0 -11    0.00    0.64
   2   0 -11    1.18    0.40
   2   0 -10   43.04    1.81
   2   0 -10   43.31    1.24
   2   0  -9    0.24    0.69
   2   0  -9    0.60    0.35
   2   0  -8  487.91    7.37
   2   0  -8  494.79    6.36
   2   0  -7    0.23    0.33
   2   0  -7    0.29    0.66
   2   0  -6  368.97    5.56
   2   0  -6  362.65    4.82
   2   0  -5    1.18    0.38
   2   0  -5    0.65    0.59
   2   0  -4  745.02    8.87
   2   0  -3    0.35    0.32
   2   0  -2   40.74    1.01
   2   0  -1    0.42    0.30
   2   0   1    0.09    0.32
   2   0   2 1786.64   20.42
   2   0   3   -0.01    0.45
   2   0   4  718.15    9.17
   2   0   5    0.43    0.52
   2   0   6  269.10    4.53
   2   0   7    0.74    0.61
   2   0   8   26.70    1.35
   2   0   9    0.20    0.57
   2   0  10   79.44    2.49
   2   0  11    0.63    0.53
   2   0  12 1955.16   24.47
   2   0  13   -0.09    0.54
   2   0  14  351.97    6.79
   2   0  15   -0.37    0.67
   2   0  16   50.73    2.44
   2   0  17    0.79    0.71
   2   0  18  100.28    3.68
   2   0  19   -0.36    0.71
   2  -2 -28    0.91    1.33
   2  -2 -27   -1.29    1.29
   2  -2 -26   24.64    2.57
   2  -2 -25    2.21    1.27
   2  -2 -24   60.02    3.69
   2   2 -23   27.98    2.04
   2  -2 -23   24.68    2.41
   2   2 -22  103.04    3.74
   2  -2 -22   95.63    4.42
   2   2 -21    7.27    1.16
   2  -2 -21    6.71    1.68
   2   2 -20   27.21    1.84
   2  -2 -20   26.19    2.26
   2  -2 -20   29.32    1.67
   2   2 -19   30.51    1.90
   2  -2 -19   33.89    2.46
   2  -2 -19   29.62    1.67
   2   2 -18   45.86    2.19
   2  -2 -18   46.71    2.75
   2  -2 -18   47.04    2.09
   2  -2 -17    6.00    1.18
   2   2 -17    5.64    0.92
   2  -2 -17    7.03    0.90
   2   2 -16   69.98    2.53
   2  -2 -16   68.72    3.09
   2  -2 -16   68.40    2.46
   2  -2 -15    2.04    0.92
   2  -2 -15    3.03    0.67
   2   2 -15    1.09    0.55
   2   2 -14  612.10    9.23
   2  -2 -14  629.97    9.45
   2  -2 -14  608.77   10.61
   2   2 -13   19.45    1.20
   2  -2 -13   20.20    1.62
   2   2 -12  208.28    4.05
   2  -2 -12  213.46    5.13
   2  -2 -11  314.88    6.34
   2   2 -11  312.27    5.15
   2  -2 -10   44.74    2.09
   2   2 -10   43.50    1.47
   2  -2  -9   78.90    2.70
   2   2  -9   79.97    1.96
   2  -2  -8  338.99    6.15
   2   2  -8  335.61    4.91
   2   2  -7    7.68    0.60
   2  -2  -7    7.58    1.04
   2  -2  -6  949.38   12.76
   2  -2  -5  435.77    6.54
   2  -2  -5  431.74    6.81
   2  -2  -4  678.95    9.50
   2  -2  -4  706.72    9.39
   2  -2  -3   73.91    2.12
   2  -2  -3   79.48    2.09
   2  -2  -2  294.21    4.63
   2   2  -2  280.17    4.02
   2  -2  -2  292.92    4.64
   2   2  -1   46.70    1.27
   2  -2  -1   48.68    1.52
   2  -2   0   88.44    2.10
   2   2   0   87.34    1.93
   2  -2   1    3.93    0.64
   2   2   1    3.37    0.64
   2  -2   2 4362.65   48.45
   2   2   2 4309.43   48.74
   2  -2   3 1723.90   20.05
   2   2   3 1702.21   20.54
   2  -2   4 2141.79   24.39
   2   2   4 2102.06   25.11
   2  -2   4 2108.53   23.96
   2  -2   5  404.74    5.74
   2   2   5  406.99    6.48
   2  -2   5  401.31    5.37
   2   2   6   13.74    1.10
   2  -2   6   14.64    0.85
   2  -2   6   14.24    0.76
   2  -2   7  145.55    2.71
   2   2   7  149.48    3.60
   2  -2   8  167.74    3.10
   2   2   8  177.09    4.07
   2  -2   9  103.90    2.40
   2   2   9  110.26    3.22
   2   2  10  556.42    9.07
   2  -2  10  536.56    7.68
   2  -2  11   36.70    1.51
   2   2  11   41.45    2.08
   2  -2  12  247.22    4.64
   2   2  12  253.36    5.71
   2   2  13  108.59    3.61
   2  -2  13  101.68    2.78
   2   2  14  182.83    4.90
   2  -2  14  177.35    4.01
   2   2  15   70.64    3.05
   2  -2  15   67.48    2.41
   2   2  16    8.50    1.25
   2  -2  16    6.59    0.89
   2  -2  17    4.05    0.77
   2  -2  18  127.85    3.79
   2  -2  19   13.57    1.37
   2  -2  20  223.92    5.53
   2  -2  21    5.19    1.14
   2  -4 -26   10.45    1.89
   2  -4 -25    8.83    1.84
   2  -4 -24  145.81    6.10
   2  -4 -23    1.70    1.38
   2  -4 -22   24.91    2.47
   2  -4 -21   15.93    2.08
   2   4 -20    4.98    0.75
   2  -4 -20    4.05    1.29
   2  -4 -20    5.32    1.09
   2  -4 -19   42.63    2.95
   2  -4 -19   43.66    2.43
   2   4 -19   42.32    1.75
   2  -4 -18   14.04    1.80
   2  -4 -18   15.56    1.52
   2   4 -18   13.96    1.01
   2   4 -17   48.06    1.73
   2  -4 -17   45.50    2.42
   2  -4 -17   49.83    2.99
   2   4 -16   67.06    1.99
   2  -4 -16   68.12    3.42
   2   4 -15   39.88    1.41
   2  -4 -15   43.08    2.70
   2   4 -14  386.52    5.58
   2  -4 -14  388.13    8.38
   2   4 -13   22.78    0.91
   2  -4 -13   21.27    1.86
   2   4 -12  140.65    2.43
   2  -4 -12  139.69    4.43
   2   4 -11  146.43    2.33
   2  -4 -11  143.35    4.36
   2   4 -10   44.67    0.98
   2  -4 -10   49.37    2.43
   2  -4  -9   46.59    2.35
   2  -4  -8  261.94    5.72
   2  -4  -7  281.12    5.82
   2   4  -6  995.12   11.35
   2  -4  -6 1014.02   13.98
   2   4  -5   89.66    1.61
   2  -4  -5   88.70    2.83
   2   4  -4  174.37    2.76
   2  -4  -4  171.94    3.98
   2   4  -3  167.15    2.86
   2  -4  -3  168.80    3.80
   2   4  -2   96.43    2.13
   2  -4  -2   94.17    2.65
   2  -4  -2   99.35    2.89
   2   4  -1  180.98    3.36
   2  -4  -1  182.63    3.73
   2  -4  -1  190.96    4.14
   2  -4   0  243.42    4.80
   2   4   0  241.21    4.21
   2  -4   0  235.54    4.27
   2  -4   1   74.94    2.04
   2   4   1   75.30    2.19
   2  -4   1   80.21    2.44
   2  -4   2  353.62    5.24
   2   4   2  351.81    5.87
   2  -4   2  352.74    6.05
   2   4   3  571.57    8.63
   2  -4   3  581.38    7.53
   2  -4   3  571.39    8.51
   2  -4   4  466.43    6.08
   2   4   4  460.48    7.52
   2  -4   4  449.83    7.13
   2   4   5   87.12    2.79
   2  -4   5   87.11    2.45
   2  -4   6  159.90    3.41
   2  -4   6  157.91    2.49
   2   4   6  165.18    4.06
   2  -4   7  126.83    2.93
   2  -4   7  123.74    2.02
   2   4   7  130.82    3.70
   2  -4   8   11.09    0.52
   2  -4   8    9.98    0.78
   2   4   8   11.13    1.16
   2  -4   9    7.26    0.68
   2  -4   9    9.78    0.50
   2   4   9   10.21    1.18
   2   4  10  209.54    5.24
   2  -4  10  195.78    3.76
   2  -4  10  196.53    2.99
   2   4  11   41.73    2.33
   2  -4  11   40.86    1.16
   2   4  12  241.96    5.98
   2  -4  12  237.19    3.73
   2   4  13   15.13    1.61
   2  -4  13   16.17    0.88
   2  -4  14  160.80    3.13
   2  -4  15   19.99    1.09
   2  -4  16   57.33    1.89
   2  -4  17   13.90    1.03
   2  -4  18   84.46    2.52
   2  -6 -23    8.16    2.06
   2  -6 -22   48.63    3.59
   2  -6 -21   28.52    2.81
   2  -6 -20   10.64    1.90
   2  -6 -19   71.83    4.07
   2  -6 -18    5.16    1.56
   2  -6 -17  101.10    4.58
   2  -6 -16   94.52    4.36
   2  -6 -15   10.70    1.65
   2  -6 -14  111.16    4.47
   2  -6 -13    9.22    1.54
   2  -6 -12   78.49    3.55
   2  -6 -11   89.11    3.68
   2  -6 -10   33.23    2.25
   2  -6  -9  235.12    5.95
   2  -6  -8  286.95    6.55
   2  -6  -7  146.93    4.36
   2   6  -6  142.47    2.35
   2  -6  -6  152.70    4.29
   2   6  -5   16.55    0.81
   2  -6  -5   17.64    1.56
   2  -6  -4  176.41    4.41
   2   6  -4  166.72    3.10
   2  -6  -3  181.55    4.35
   2   6  -3  168.51    3.33
   2   6  -2   74.74    2.18
   2  -6  -2   79.83    2.71
   2  -6  -2   83.22    3.10
   2   6  -1  302.51    5.38
   2  -6  -1  312.95    5.79
   2  -6  -1  327.47    6.63
   2   6   0   75.18    2.40
   2  -6   0   73.41    2.39
   2  -6   0   79.67    2.97
   2   6   1  151.47    3.70
   2  -6   1  153.38    3.45
   2  -6   1  157.19    4.25
   2   6   2  374.77    6.78
   2  -6   2  377.69    6.02
   2  -6   2  385.91    7.23
   2   6   3  308.24    6.15
   2  -6   3  313.60    5.08
   2  -6   3  316.37    6.35
   2  -6   4  685.58    9.01
   2   6   4  685.18   10.80
   2  -6   4  685.24   10.71
   2   6   5  104.67    3.44
   2  -6   5   98.45    3.16
   2  -6   5  102.96    2.14
   2   6   6   56.95    2.56
   2  -6   6   56.48    2.29
   2  -6   6   57.47    1.35
   2   6   7  230.78    5.54
   2  -6   7  215.64    2.99
   2  -6   7  235.27    4.97
   2  -6   8   25.14    1.46
   2   6   8   29.53    1.95
   2  -6   9   90.99    2.81
   2   6   9   89.89    3.49
   2  -6  10   54.06    2.09
   2  -6  11  108.10    3.01
   2  -6  12   46.27    1.83
   2  -6  13   45.89    1.81
   2  -8 -20   13.93    2.25
   2  -8 -19   37.05    3.24
   2  -8 -18   11.21    2.05
   2  -8 -17   73.35    4.26
   2  -8 -16   53.88    3.58
   2  -8 -15   13.75    2.02
   2  -8 -14    3.97    1.23
   2  -8 -13   10.90    1.68
   2  -8 -12   22.48    2.20
   2  -8 -11   46.90    2.97
   2  -8 -10   30.34    2.43
   2  -8  -9  201.03    5.93
   2  -8  -8   33.66    2.36
   2  -8  -7   48.74    2.72
   2  -8  -6   36.79    2.29
   2   8  -5   69.92    2.01
   2  -8  -5   74.07    3.17
   2  -8  -4   68.29    2.96
   2   8  -4   68.55    2.14
   2  -8  -3   60.38    2.69
   2   8  -3   57.88    2.07
   2  -8  -2   36.97    2.41
   2   8  -2   30.82    1.61
   2  -8  -2   34.30    2.03
   2   8  -1  259.26    5.37
   2  -8  -1  273.84    5.79
   2  -8  -1  273.08    6.74
   2   8   0   63.07    2.51
   2  -8   0   70.21    2.68
   2  -8   0   67.00    3.17
   2  -8   1  273.55    6.64
   2   8   1  260.46    5.70
   2  -8   1  264.96    5.39
   2   8   2  133.65    3.97
   2  -8   2  133.88    3.47
   2  -8   2  141.77    4.51
   2   8   3   19.57    1.59
   2  -8   3   19.51    1.26
   2  -8   3   15.86    1.55
   2  -8   4    5.82    0.75
   2   8   4    5.00    1.07
   2  -8   4    4.39    0.97
   2   8   5   90.70    3.51
   2  -8   5   88.08    2.34
   2  -8   5   87.68    3.37
   2  -8   6   66.85    1.81
   2   8   6   63.34    3.06
   2  -8   6   65.08    2.91
   2  -8   7  159.49    2.65
   2  -8   7  153.96    4.52
   2  -8   8   25.11    1.80
   2  -8   9  104.69    3.56
   2  -8  10   51.00    2.40
   2  -8  11   16.61    1.36
   2  -8  12   87.82    3.08
   2  -8  13   62.23    2.54
   2  -8  14   48.08    2.12
   2 -10 -17   40.55    3.47
   2 -10 -16    4.95    1.66
   2 -10 -15   32.48    2.98
   2 -10 -14    7.53    1.81
   2 -10 -13   41.97    3.23
   2 -10 -12   26.63    2.69
   2 -10 -11  158.71    5.95
   2 -10 -10   50.95    3.37
   2 -10  -9   88.52    4.19
   2 -10  -8   46.34    3.02
   2 -10  -7   11.01    1.65
   2 -10  -6   22.06    2.02
   2 -10  -5   25.42    2.17
   2  10  -4   28.75    1.54
   2 -10  -4   31.73    2.29
   2 -10  -3  109.79    4.03
   2  10  -3  107.84    3.27
   2  10  -2   39.01    2.06
   2 -10  -2   42.84    2.51
   2  10  -1  134.19    4.04
   2 -10  -1  147.00    4.47
   2  10   0   45.35    2.35
   2 -10   0   44.61    2.39
   2  10   1    8.36    1.18
   2 -10   1    8.11    1.15
   2 -10   2    3.96    0.90
   2  10   2    4.15    0.96
   2 -10   3    9.46    1.07
   2 -10   4   50.98    2.09
   2 -10   5  174.06    3.88
   2 -10   6   20.94    1.21
   2 -10   7   76.07    1.88
   2 -12 -13    3.53    1.60
   2 -12 -12    9.78    1.88
   2 -12 -11   29.77    2.89
   2 -12 -10   22.80    2.61
   2 -12  -9   23.08    2.51
   2 -12  -8   20.44    2.29
   2 -12  -7   10.98    1.79
   2 -12  -6    3.76    1.29
   2 -12  -5   -1.23    1.14
   2 -12  -4    2.38    1.09
   2 -12  -3   34.40    2.53
   2 -12  -2   27.93    2.28
   2 -12  -1   68.09    3.31
   2 -12   0   33.32    2.33
   2 -12   1   32.12    2.17
   2 -12   2   24.23    1.86
   2 -12   3    2.41    0.92
   2 -14  -9   22.84    2.88
   2 -14  -8    8.56    1.86
   2 -14  -7    2.19    1.39
   2 -14  -6    1.40    1.27
   2 -14  -5    4.36    1.45
   2 -14  -4    2.96    1.21
   2 -14  -3    5.96    1.46
   3  -1 -27   21.60    2.40
   3  -1 -26    1.17    1.20
   3   1 -25    1.21    1.02
   3  -1 -25    0.79    1.40
   3   1 -24   11.95    1.58
   3  -1 -24    8.99    1.94
   3   1 -23  134.15    4.71
   3  -1 -23  126.50    4.99
   3   1 -22    4.19    1.16
   3  -1 -22    2.17    1.13
   3   1 -21  236.94    6.14
   3  -1 -21  238.74    6.70
   3  -1 -20   16.55    1.80
   3   1 -20   18.10    1.66
   3   1 -19  138.73    4.28
   3  -1 -19  140.24    4.70
   3  -1 -19  131.59    3.19
   3  -1 -18    0.82    0.48
   3   1 -18    2.31    0.86
   3  -1 -18    0.36    0.82
   3   1 -17   14.94    1.37
   3  -1 -17   10.75    1.39
   3  -1 -17   11.45    0.92
   3  -1 -16    1.55    0.49
   3   1 -16    0.44    0.62
   3  -1 -16    2.54    0.98
   3   1 -15  136.48    3.79
   3  -1 -15  143.45    3.25
   3  -1 -15  139.02    4.23
   3   1 -14   10.16    1.05
   3  -1 -14    9.79    1.22
   3  -1 -14   14.51    1.00
   3   1 -13  485.41    8.01
   3  -1 -13  491.91    8.67
   3  -1 -13  494.62    7.38
   3  -1 -12    7.60    1.14
   3   1 -12    6.83    0.87
   3  -1 -12    8.96    0.80
   3  -1 -11  717.74   11.03
   3   1 -11  719.50   10.35
   3  -1 -11  735.59    9.89
   3  -1 -10    5.30    0.66
   3  -1 -10    5.49    0.97
   3   1 -10    6.27    0.80
   3  -1  -9  134.08    3.48
   3  -1  -9  143.27    2.97
   3   1  -9  137.15    3.10
   3   1  -8  145.40    3.17
   3  -1  -8  156.65    3.09
   3  -1  -8  152.75    3.64
   3  -1  -7  231.47    4.59
   3   1  -7  232.67    4.07
   3  -1  -7  232.25    4.01
   3  -1  -6  414.33    6.67
   3  -1  -6  423.09    6.13
   3  -1  -5 1051.39   12.94
   3  -1  -5 1034.81   13.42
   3  -1  -4 1671.60   19.73
   3  -1  -3 3159.34   35.77
   3  -1  -2  276.71    4.35
   3  -1  -1  125.44    2.54
   3  -1   0  111.61    2.32
   3   1   0  103.84    2.25
   3  -1   1   77.08    1.87
   3   1   1   72.17    1.85
   3  -1   2  119.80    2.46
   3   1   2  122.28    2.57
   3  -1   3   32.09    1.24
   3  -1   3   30.51    1.14
   3   1   3   31.61    1.30
   3   1   4  237.32    4.24
   3  -1   4  233.65    3.88
   3   1   5 1374.28   17.10
   3  -1   5 1372.14   16.53
   3   1   6  141.27    3.32
   3  -1   6  139.57    2.94
   3  -1   7  238.44    4.27
   3   1   7  237.52    4.70
   3  -1   8   28.40    1.36
   3   1   8   29.11    1.58
   3  -1   9   50.83    1.83
   3   1   9   54.52    2.16
   3  -1  10   95.33    2.70
   3   1  10   93.51    2.96
   3  -1  11  464.01    7.55
   3   1  11  474.74    8.14
   3  -1  12   12.85    1.08
   3   1  12   12.74    1.20
   3  -1  13  683.44   10.42
   3   1  13  700.50   11.15
   3  -1  14   30.06    1.72
   3   1  14   34.30    2.01
   3  -1  15  465.43    8.26
   3   1  15  482.88    8.96
   3   1  16   12.54    1.33
   3  -1  16   11.04    1.13
   3   1  17    1.91    0.83
   3  -1  17    0.97    0.67
   3  -1  18   10.26    1.28
   3  -1  19   40.55    2.31
   3  -1  20    3.24    0.97
   3  -3 -27   14.78    2.29
   3  -3 -26    2.89    1.26
   3  -3 -25   15.71    2.22
   3  -3 -24   29.39    2.74
   3  -3 -23   55.14    3.63
   3   3 -22   36.19    2.05
   3  -3 -22   31.30    2.69
   3   3 -21  129.55    3.86
   3  -3 -21  121.99    5.04
   3  -3 -20    2.07    1.10
   3   3 -20    2.42    0.75
   3  -3 -20    3.64    0.89
   3   3 -19   30.80    1.74
   3  -3 -19   30.72    2.44
   3  -3 -19   29.55    1.86
   3  -3 -18   23.87    2.10
   3   3 -18   29.62    1.66
   3  -3 -18   31.30    1.89
   3  -3 -17   12.71    1.62
   3   3 -17   13.27    1.11
   3  -3 -17   10.83    1.16
   3   3 -16   32.07    1.59
   3  -3 -16   31.36    1.83
   3  -3 -16   30.97    2.28
   3   3 -15  279.99    5.16
   3  -3 -15  286.98    6.01
   3  -3 -15  282.72    6.81
   3   3 -14   33.26    1.49
   3  -3 -14   31.77    1.80
   3  -3 -14   30.62    2.18
   3  -3 -13  341.13    7.30
   3  -3 -13  338.91    6.51
   3   3 -13  327.13    5.45
   3   3 -12   45.22    1.56
   3  -3 -12   44.65    2.43
   3  -3 -12   46.80    2.09
   3  -3 -11  453.23    8.46
   3   3 -11  454.89    6.59
   3  -3 -11  472.90    7.96
   3  -3 -10  254.18    5.69
   3   3 -10  246.04    4.09
   3  -3 -10  266.11    5.35
   3   3  -9   12.05    0.73
   3  -3  -9   11.55    1.26
   3  -3  -9   14.62    1.21
   3  -3  -8  223.45    5.07
   3  -3  -8  234.21    4.84
   3  -3  -7  682.60   10.55
   3  -3  -7  703.34   10.29
   3  -3  -6   24.41    1.48
   3  -3  -6   19.94    1.46
   3  -3  -5  586.61    9.09
   3   3  -5  592.57    7.62
   3  -3  -5  604.75    9.00
   3  -3  -4   49.06    2.02
   3   3  -4   48.05    1.39
   3  -3  -4   48.98    1.93
   3   3  -3  358.25    5.21
   3  -3  -3  365.51    6.10
   3  -3  -3  366.13    6.15
   3  -3  -2  106.43    2.73
   3   3  -2  104.28    2.29
   3  -3  -2  106.79    2.85
   3  -3  -1  498.15    7.56
   3   3  -1  483.54    6.91
   3   3   0   52.50    1.73
   3  -3   0   58.11    2.01
   3   3   1   35.09    1.52
   3  -3   1   35.20    1.60
   3   3   2  647.67    9.27
   3  -3   2  664.45    9.28
   3  -3   3 1653.36   20.05
   3   3   3 1622.68   20.31
   3  -3   4  623.17    8.82
   3   3   4  621.39    9.29
   3  -3   5 1739.99   21.10
   3   3   5 1746.86   21.85
   3  -3   6  106.90    2.69
   3   3   6  109.91    3.18
   3  -3   6  105.20    2.25
   3  -3   7  457.81    6.97
   3   3   7  469.73    7.94
   3  -3   7  456.45    6.36
   3  -3   8  300.89    5.17
   3   3   8  314.43    6.18
   3  -3   8  293.69    4.65
   3  -3   9   94.24    2.23
   3   3   9   97.30    3.23
   3  -3  10   37.22    1.40
   3   3  10   40.11    2.12
   3  -3  11  142.58    3.06
   3   3  11  154.68    4.36
   3  -3  12   53.43    1.80
   3   3  12   56.22    2.66
   3   3  13  264.43    6.27
   3  -3  13  246.39    4.62
   3  -3  14  103.39    2.79
   3   3  14  110.71    3.97
   3  -3  15  246.24    4.82
   3  -3  16   24.85    1.46
   3  -3  17    0.40    0.55
   3  -3  18    0.14    0.59
   3  -3  19  120.79    3.61
   3  -5 -25    9.71    2.03
   3  -5 -24   40.26    3.41
   3  -5 -23   50.46    3.72
   3  -5 -22   15.59    2.22
   3  -5 -21   24.41    2.55
   3  -5 -20   25.11    2.52
   3  -5 -19   46.91    3.23
   3  -5 -18   58.52    3.48
   3   5 -18   53.28    1.49
   3   5 -17    2.28    0.41
   3  -5 -17    3.12    1.20
   3  -5 -16   56.75    3.23
   3  -5 -16   58.52    2.90
   3   5 -16   49.52    1.27
   3  -5 -15  104.79    3.88
   3  -5 -15  104.59    4.23
   3  -5 -14  143.00    4.44
   3  -5 -14  142.57    4.84
   3  -5 -13   96.28    3.63
   3  -5 -13   92.81    3.82
   3  -5 -12   39.90    2.32
   3  -5 -12   40.40    2.56
   3  -5 -11  243.46    6.24
   3  -5 -11  260.28    6.12
   3  -5 -10  278.36    6.60
   3  -5 -10  292.67    6.50
   3  -5  -9   53.56    2.64
   3  -5  -9   58.62    2.66
   3   5  -8  268.09    3.60
   3  -5  -8  286.31    6.24
   3  -5  -8  291.46    6.29
   3   5  -7  211.48    3.14
   3  -5  -7  212.13    5.19
   3  -5  -7  221.50    5.32
   3   5  -6   88.50    1.84
   3  -5  -6   90.65    3.19
   3  -5  -6   94.18    3.30
   3   5  -5  290.78    4.39
   3  -5  -5  289.04    6.01
   3  -5  -5  300.42    6.28
   3   5  -4   71.39    1.85
   3  -5  -4   72.21    2.70
   3  -5  -4   77.42    2.89
   3   5  -3  126.00    2.70
   3  -5  -3  122.51    3.41
   3  -5  -3  125.81    3.71
   3   5  -2  239.49    4.33
   3  -5  -2  243.93    5.00
   3  -5  -2  253.53    5.45
   3   5  -1  236.56    4.43
   3  -5  -1  242.78    5.28
   3  -5  -1  234.06    4.78
   3  -5   0  416.52    6.88
   3   5   0  430.69    6.85
   3  -5   0  432.45    7.60
   3  -5   1   11.94    1.06
   3   5   1   14.77    1.17
   3  -5   1   15.05    1.32
   3  -5   2   10.83    1.16
   3   5   2    8.34    1.02
   3  -5   2    8.92    0.90
   3   5   3 1364.81   18.00
   3  -5   3 1367.68   16.80
   3  -5   3 1374.56   18.11
   3  -5   4   95.17    2.28
   3   5   4   97.62    3.11
   3  -5   4   93.91    2.95
   3   5   5   65.22    2.59
   3  -5   5   60.56    2.35
   3  -5   6  534.87    8.55
   3   5   6  523.18    9.10
   3  -5   7  258.83    5.19
   3  -5   7  258.79    3.96
   3   5   7  264.72    5.91
   3  -5   8   48.32    2.01
   3  -5   8   47.71    1.26
   3   5   8   46.79    2.38
   3  -5   9    4.90    0.70
   3  -5   9    4.40    0.42
   3   5   9    7.60    1.23
   3  -5  10   61.48    2.19
   3  -5  10   54.38    1.29
   3   5  10   58.78    2.82
   3   5  11  115.81    4.10
   3  -5  11  112.02    3.00
   3  -5  11  111.46    1.99
   3  -5  12   67.31    1.46
   3  -5  12   71.75    2.33
   3  -5  13  101.53    1.97
   3  -5  14   81.56    1.80
   3  -5  15   30.40    1.09
   3  -5  16  318.52    4.85
   3  -5  17   77.66    1.99
   3  -7 -22    3.45    1.60
   3  -7 -21   75.07    4.56
   3  -7 -20    9.42    1.81
   3  -7 -19   21.68    2.45
   3  -7 -18   61.06    3.84
   3  -7 -17   26.70    2.63
   3  -7 -16   37.85    2.94
   3  -7 -15   12.83    1.82
   3  -7 -14   92.97    4.28
   3  -7 -13   77.45    3.79
   3  -7 -12   19.20    1.98
   3  -7 -11   11.47    1.54
   3  -7 -10   45.15    2.71
   3  -7  -9   26.25    2.12
   3  -7  -8  158.30    4.91
   3  -7  -7    3.29    1.13
   3   7  -7    1.69    0.35
   3  -7  -7    5.12    1.19
   3  -7  -6   79.63    3.24
   3   7  -6   74.78    1.85
   3  -7  -6   86.55    3.58
   3  -7  -5  128.97    4.05
   3   7  -5  120.81    2.67
   3  -7  -5  132.44    4.40
   3   7  -4   20.89    1.14
   3  -7  -4   20.25    1.69
   3  -7  -4   23.44    1.89
   3   7  -3  107.09    2.78
   3  -7  -3  107.53    3.48
   3  -7  -3  119.58    4.09
   3  -7  -2   51.07    2.30
   3  -7  -2   56.33    2.79
   3   7  -2   48.42    1.90
   3  -7  -1   34.64    1.89
   3  -7  -1   35.28    2.16
   3   7  -1   33.01    1.67
   3  -7   0  205.43    4.60
   3  -7   0  218.44    5.58
   3   7   0  205.24    4.62
   3  -7   1   63.65    2.35
   3  -7   1   67.56    2.96
   3   7   1   62.77    2.48
   3  -7   2  438.19    7.13
   3  -7   2  457.05    8.60
   3   7   2  433.60    7.91
   3  -7   3   33.68    1.56
   3  -7   3   34.13    2.10
   3   7   3   33.37    1.97
   3   7   4   23.88    1.78
   3  -7   4   27.24    1.33
   3  -7   4   26.08    1.86
   3   7   5  285.43    6.42
   3  -7   5  282.29    4.69
   3  -7   5  285.79    6.30
   3   7   6  235.48    5.86
   3  -7   6  229.84    3.87
   3  -7   6  232.90    5.55
   3   7   7   31.52    2.13
   3  -7   7   28.87    1.02
   3  -7   7   30.21    1.91
   3  -7   8  144.26    4.10
   3  -7   8  144.41    2.40
   3  -7   8  142.17    2.32
   3  -7   9   29.81    1.82
   3  -7  10  137.57    3.92
   3  -7  11   63.15    2.52
   3  -7  12   13.87    1.23
   3  -7  13   93.68    3.01
   3  -7  14   18.54    1.33
   3  -9 -19    9.45    2.04
   3  -9 -18   41.78    3.43
   3  -9 -17   19.35    2.51
   3  -9 -16   55.06    3.79
   3  -9 -15    5.52    1.64
   3  -9 -14    2.73    1.25
   3  -9 -13   18.07    2.10
   3  -9 -12   16.03    2.01
   3  -9 -11   16.92    2.03
   3  -9 -10   40.45    2.82
   3  -9  -9   30.56    2.45
   3  -9  -8  158.45    5.33
   3  -9  -7   29.84    2.32
   3   9  -6  107.71    2.63
   3  -9  -6  110.13    4.19
   3  -9  -5  107.04    4.04
   3   9  -5  107.43    2.81
   3  -9  -4   14.38    1.63
   3   9  -4   13.25    1.09
   3   9  -3   20.24    1.36
   3  -9  -3   20.44    1.74
   3   9  -2   42.01    2.00
   3  -9  -2   43.29    2.37
   3   9  -1   34.18    1.90
   3  -9  -1   32.97    2.05
   3   9   0  187.95    4.84
   3  -9   0  191.92    4.84
   3   9   1   53.16    2.54
   3  -9   1   52.35    2.38
   3   9   2  125.58    4.07
   3  -9   2  129.37    3.63
   3   9   3   17.38    1.63
   3  -9   3   16.32    1.29
   3  -9   4    3.27    0.72
   3   9   4    4.53    0.98
   3  -9   5   26.16    1.40
   3  -9   6   12.99    1.56
   3  -9   6   13.83    0.98
   3  -9   7    2.25    0.92
   3  -9   7    1.72    0.46
   3  -9   8  130.62    2.28
   3  -9   8  143.17    4.64
   3  -9   9   28.73    2.08
   3  -9  10   62.83    2.95
   3  -9  11   13.53    1.42
   3  -9  12   17.70    1.58
   3 -11 -15   10.24    2.37
   3 -11 -14    8.73    1.95
   3 -11 -13    8.04    1.82
   3 -11 -12    7.67    1.77
   3 -11 -11   15.55    2.19
   3 -11 -10   88.08    4.46
   3 -11  -9   55.08    3.56
   3 -11  -8  117.58    4.97
   3 -11  -7    4.55    1.37
   3 -11  -6    7.50    1.48
   3 -11  -5   30.60    2.39
   3 -11  -4   30.69    2.41
   3 -11  -3   59.18    3.13
   3  11  -2   21.98    1.70
   3 -11  -2   24.18    2.01
   3  11  -1    8.41    1.21
   3 -11  -1    9.03    1.39
   3  11   0   40.70    2.41
   3 -11   0   40.51    2.38
   3 -11   1   40.88    2.37
   3 -11   2   59.28    2.69
   3 -11   3   16.99    1.45
   3 -11   4    5.66    0.96
   3 -11   5    7.37    0.94
   3 -13 -11    9.64    1.90
   3 -13 -10   20.91    2.57
   3 -13  -9    7.03    1.79
   3 -13  -8    4.79    1.43
   3 -13  -7   15.92    2.17
   3 -13  -6   13.60    1.97
   3 -13  -5    2.66    1.17
   3 -13  -4   14.00    1.87
   3 -13  -3    5.66    1.45
   3 -13  -2   12.54    1.68
   3 -13  -1   10.59    1.56
   3 -13   0   26.35    2.21
   4   0 -26   59.09    3.60
   4   0 -25    1.54    1.14
   4   0 -24   34.96    2.62
   4   0 -23   -0.44    0.91
   4   0 -22   62.24    3.29
   4   0 -21   -0.18    0.85
   4   0 -20  206.52    5.82
   4   0 -19   -0.31    0.77
   4   0 -19    0.47    0.33
   4   0 -18  143.45    2.79
   4   0 -18  168.93    4.84
   4   0 -17    0.79    0.37
   4   0 -17   -0.46    0.82
   4   0 -16   18.16    0.91
   4   0 -16   19.48    1.64
   4   0 -15    0.76    0.37
   4   0 -15    0.84    0.70
   4   0 -14   67.64    1.81
   4   0 -14   67.99    2.68
   4   0 -13    0.00    0.34
   4   0 -13   -0.36    0.66
   4   0 -12  367.73    5.50
   4   0 -12  376.14    6.90
   4   0 -11    1.25    0.44
   4   0 -11    0.76    0.79
   4   0 -10  802.93   11.45
   4   0 -10  781.50   10.13
   4   0  -9    1.04    0.43
   4   0  -9    0.68    0.73
   4   0  -8  392.27    5.74
   4   0  -8  414.44    6.74
   4   0  -7   -0.17    0.42
   4   0  -6  129.65    2.62
   4   0  -5    0.91    0.52
   4   0  -4 9381.66  103.13
   4   0  -3   -0.54    0.52
   4   0  -2  335.59    5.11
   4   0   2   42.98    1.52
   4   0   3    0.45    0.64
   4   0   4  317.41    5.24
   4   0   5    0.32    0.61
   4   0   6  655.62    9.43
   4   0   7   -0.05    0.62
   4   0   8  181.59    4.01
   4   0   9    0.38    0.60
   4   0  10    5.93    0.90
   4   0  11    0.79    0.66
   4   0  12  246.80    5.39
   4   0  13    0.24    0.58
   4   0  14  832.01   12.79
   4   0  15    0.54    0.68
   4   0  16  157.97    4.61
   4   0  17   -0.19    0.65
   4   0  18   54.88    2.76
   4  -2 -28   50.53    3.79
   4  -2 -27   -0.43    1.17
   4  -2 -26   28.01    2.71
   4  -2 -25   -0.49    1.22
   4  -2 -24    4.23    1.36
   4   2 -23    3.70    1.01
   4  -2 -23    2.90    1.33
   4   2 -22   84.41    3.41
   4  -2 -22   78.12    3.98
   4   2 -21   26.04    1.94
   4  -2 -21   27.44    2.43
   4   2 -20  301.79    6.64
   4  -2 -20  296.96    7.67
   4  -2 -19   11.14    1.12
   4   2 -19   14.18    1.38
   4  -2 -19   12.36    1.65
   4   2 -18  137.45    3.96
   4  -2 -18  142.13    4.82
   4  -2 -18  138.67    3.71
   4  -2 -17    1.60    0.58
   4   2 -17    3.02    0.75
   4  -2 -17    1.30    0.94
   4  -2 -16    1.35    0.58
   4   2 -16    0.04    0.58
   4  -2 -16    0.72    0.85
   4   2 -15   27.44    1.56
   4  -2 -15   31.63    2.13
   4  -2 -15   29.95    1.62
   4  -2 -14   54.12    2.66
   4   2 -14   52.24    2.08
   4  -2 -14   52.91    2.13
   4  -2 -13   27.31    1.95
   4   2 -13   23.67    1.41
   4  -2 -13   26.79    1.49
   4  -2 -12  596.82   10.22
   4   2 -12  598.18    8.98
   4  -2 -12  607.53    9.23
   4  -2 -11   34.55    2.01
   4  -2 -11   38.96    1.75
   4   2 -11   34.57    1.57
   4   2 -10  836.59   11.38
   4  -2 -10  844.29   12.68
   4  -2 -10  851.36   11.81
   4  -2  -9    4.68    0.80
   4  -2  -9    2.87    0.91
   4   2  -9    3.45    0.64
   4  -2  -8  102.93    3.18
   4  -2  -8  105.90    2.85
   4  -2  -7   33.80    1.84
   4  -2  -7   33.06    1.55
   4  -2  -6  708.72   10.58
   4  -2  -6  727.65   10.14
   4  -2  -5  547.31    8.05
   4  -2  -5  524.45    8.33
   4  -2  -4  309.52    5.35
   4  -2  -3  523.03    7.79
   4  -2  -2 1648.92   20.21
   4   2  -2 1656.25   19.70
   4  -2  -1  192.93    3.84
   4   2  -1  190.19    3.61
   4  -2   0  370.87    5.98
   4   2   0  373.51    5.82
   4  -2   1  250.00    4.54
   4   2   1  243.74    4.42
   4  -2   2   93.50    2.50
   4   2   2   91.64    2.50
   4  -2   3   27.67    1.36
   4   2   3   27.09    1.40
   4   2   4  379.15    6.37
   4  -2   4  375.08    6.06
   4   2   5  379.41    6.54
   4  -2   5  375.95    6.13
   4  -2   5  372.07    5.79
   4   2   6 1978.81   24.57
   4  -2   6 1980.47   23.86
   4  -2   6 1985.42   23.46
   4   2   7   64.29    2.48
   4  -2   7   64.97    2.01
   4   2   8  447.38    7.78
   4  -2   8  438.05    6.79
   4  -2   9   23.58    1.29
   4   2   9   25.79    1.67
   4  -2  10    2.59    0.66
   4   2  10    2.47    0.82
   4   2  11    7.62    1.07
   4  -2  11    6.47    0.82
   4  -2  12  172.10    3.96
   4   2  12  173.28    4.71
   4  -2  13   12.96    1.13
   4   2  13   11.86    1.33
   4  -2  14  487.92    8.19
   4   2  14  501.02    9.40
   4  -2  15   65.57    2.53
   4   2  15   72.90    3.23
   4  -2  16  281.23    5.90
   4  -2  17   59.12    2.52
   4  -2  18   15.27    1.42
   4  -2  19   13.66    1.32
   4  -2  20   87.70    3.37
   4  -4 -26   16.70    2.30
   4  -4 -25   36.86    3.21
   4  -4 -24   -1.20    1.24
   4  -4 -23   36.12    3.10
   4  -4 -22   79.16    4.29
   4  -4 -21    6.33    1.56
   4   4 -20   34.60    1.74
   4  -4 -20   36.77    2.88
   4  -4 -19    9.83    1.70
   4   4 -19   11.60    1.03
   4  -4 -19   10.26    1.29
   4  -4 -18   52.48    2.65
   4   4 -18   53.36    2.01
   4  -4 -18   50.50    3.12
   4   4 -17   67.68    2.19
   4  -4 -17   68.20    3.48
   4  -4 -17   67.90    2.99
   4  -4 -16   14.32    1.68
   4   4 -16   12.79    0.96
   4  -4 -16   15.41    1.48
   4   4 -15  147.74    3.21
   4  -4 -15  147.58    4.38
   4  -4 -15  140.14    4.86
   4  -4 -14   18.56    1.82
   4  -4 -14   20.54    1.61
   4   4 -14   19.06    1.04
   4   4 -13   26.17    1.19
   4  -4 -13   28.31    2.16
   4  -4 -13   28.22    1.89
   4  -4 -12  611.13   11.03
   4   4 -12  623.02    8.44
   4  -4 -12  638.88   10.57
   4  -4 -11   14.42    1.66
   4  -4 -11   16.25    1.44
   4   4 -11   11.80    0.80
   4  -4 -10  254.57    6.05
   4  -4 -10  261.05    5.76
   4   4 -10  251.66    4.12
   4  -4  -9  326.09    6.88
   4  -4  -9  329.34    6.63
   4  -4  -8    8.14    1.25
   4  -4  -8    8.92    1.14
   4   4  -7  347.18    5.19
   4  -4  -7  341.79    6.87
   4  -4  -7  349.77    6.78
   4   4  -6  147.18    2.88
   4  -4  -6  154.76    4.05
   4  -4  -6  147.80    4.06
   4  -4  -5    4.39    0.96
   4   4  -5    2.91    0.52
   4  -4  -5    6.93    1.04
   4  -4  -4  490.87    8.25
   4   4  -4  496.00    7.08
   4  -4  -4  507.19    8.42
   4   4  -3   71.72    2.03
   4  -4  -3   70.65    2.59
   4  -4  -3   72.73    2.55
   4  -4  -2  532.48    8.36
   4  -4  -2  528.60    8.67
   4   4  -2  534.24    7.73
   4   4  -1  216.92    4.23
   4  -4  -1  228.98    4.87
   4   4   0  660.57    9.62
   4  -4   0  688.94   10.24
   4   4   1  216.02    4.42
   4  -4   1  225.18    4.80
   4   4   2   71.09    2.48
   4  -4   2   69.83    2.49
   4  -4   3  405.87    6.93
   4   4   3  392.40    6.97
   4  -4   4 1166.36   15.59
   4   4   4 1176.27   15.95
   4  -4   5   38.68    1.88
   4   4   5   40.96    2.11
   4  -4   6 2620.46   31.51
   4   4   6 2641.96   32.37
   4  -4   7  152.73    3.72
   4   4   7  156.41    4.28
   4  -4   7  148.51    3.07
   4  -4   8   61.97    2.23
   4   4   8   63.15    2.72
   4  -4   8   61.85    1.80
   4  -4   9  376.11    6.55
   4   4   9  388.44    7.68
   4  -4   9  375.81    5.75
   4  -4  10   49.91    1.67
   4  -4  10   52.65    2.06
   4   4  10   52.13    2.59
   4  -4  11  112.95    2.66
   4   4  11  116.56    3.99
   4  -4  12  117.00    2.76
   4   4  12  120.61    4.17
   4  -4  13  156.20    3.34
   4  -4  14   83.74    2.38
   4  -4  15  104.59    2.78
   4  -4  16  106.83    2.87
   4  -4  17   82.14    2.60
   4  -4  18   58.63    2.22
   4  -6 -23   31.13    3.12
   4  -6 -22   14.15    2.13
   4  -6 -21    9.53    1.83
   4  -6 -20   83.98    4.49
   4  -6 -19   66.12    3.92
   4  -6 -18   43.35    3.15
   4  -6 -17   52.24    3.34
   4  -6 -16    8.56    1.62
   4  -6 -15  167.77    5.72
   4  -6 -14   52.57    3.12
   4  -6 -13   17.32    1.91
   4  -6 -12   44.64    2.75
   4  -6 -11   44.35    2.70
   4  -6 -11   48.66    2.71
   4  -6 -10  128.38    4.46
   4  -6 -10  140.14    4.61
   4  -6  -9  136.10    4.47
   4   6  -9  138.78    2.31
   4  -6  -9  153.47    4.74
   4   6  -8   77.91    1.74
   4  -6  -8   78.73    3.29
   4  -6  -8   80.89    3.36
   4   6  -7  339.22    5.03
   4  -6  -7  343.86    7.30
   4  -6  -7  349.27    7.51
   4  -6  -6    1.97    1.02
   4   6  -6    5.46    0.64
   4  -6  -6    6.03    1.39
   4   6  -5  136.96    2.94
   4  -6  -5  144.21    4.41
   4  -6  -5  140.07    4.14
   4   6  -4  130.39    2.99
   4  -6  -4  129.50    3.89
   4  -6  -4  145.26    4.37
   4   6  -3   30.09    1.43
   4  -6  -3   27.71    1.79
   4  -6  -3   29.26    1.94
   4   6  -2   71.34    2.30
   4  -6  -2   68.60    2.66
   4  -6  -2   74.08    3.05
   4   6  -1   83.61    2.61
   4  -6  -1   85.39    3.23
   4  -6  -1   82.15    2.81
   4  -6   0   10.57    1.14
   4   6   0   11.23    1.04
   4  -6   0   13.27    1.39
   4  -6   1  234.75    4.90
   4   6   1  236.37    5.06
   4  -6   1  244.76    5.71
   4  -6   2   80.91    2.58
   4   6   2   83.67    2.92
   4  -6   2   83.40    3.11
   4  -6   3  417.09    6.83
   4   6   3  419.98    7.72
   4  -6   3  427.17    7.95
   4   6   4   28.37    1.81
   4  -6   4   27.14    1.35
   4  -6   4   23.93    1.68
   4  -6   5  123.53    2.86
   4  -6   5  123.02    3.75
   4   6   5  123.61    3.85
   4  -6   6   27.38    1.73
   4  -6   6   26.52    1.20
   4   6   6   25.83    1.82
   4  -6   7   15.93    1.39
   4   6   7   15.80    1.48
   4  -6   8  136.82    3.90
   4  -6   8  135.49    2.74
   4   6   8  139.58    4.43
   4  -6   9  244.63    5.42
   4  -6   9  249.73    3.94
   4   6   9  251.05    6.34
   4  -6  10   68.17    2.63
   4  -6  10   65.09    1.58
   4  -6  11  123.88    3.57
   4  -6  11  119.47    2.19
   4  -6  12   20.80    1.46
   4  -6  12   19.91    0.74
   4  -6  13   11.00    0.51
   4  -6  13   14.20    1.22
   4  -6  14   21.58    0.66
   4  -8 -20    4.98    1.73
   4  -8 -19   -1.80    1.23
   4  -8 -18   13.28    2.09
   4  -8 -17   67.20    4.06
   4  -8 -16   17.02    2.19
   4  -8 -15   70.90    3.98
   4  -8 -14   23.01    2.34
   4  -8 -13   56.78    3.43
   4  -8 -12   11.55    1.71
   4  -8 -11   11.27    1.65
   4  -8 -10   42.52    2.78
   4  -8  -9   77.61    3.66
   4   8  -8   54.55    1.40
   4  -8  -8   62.39    3.21
   4  -8  -7  112.78    4.21
   4   8  -7  111.89    2.46
   4  -8  -6   77.24    3.40
   4   8  -6   69.94    2.03
   4   8  -5  155.52    3.45
   4  -8  -5  165.41    4.90
   4  -8  -4   18.12    1.69
   4   8  -4   17.36    1.17
   4  -8  -3   33.10    2.07
   4   8  -3   33.16    1.67
   4  -8  -2   93.67    3.31
   4   8  -2   90.36    2.89
   4  -8  -1   49.97    2.35
   4   8  -1   47.25    2.15
   4  -8   0   15.60    1.42
   4  -8   0   17.73    1.76
   4   8   0   14.74    1.30
   4  -8   1  118.65    3.50
   4  -8   1  122.62    4.31
   4   8   1  117.04    3.70
   4  -8   2   14.01    1.26
   4  -8   2   15.96    1.70
   4   8   2   16.89    1.50
   4  -8   3  108.39    3.09
   4  -8   3  107.89    4.01
   4   8   3  109.62    3.75
   4  -8   4   28.93    1.49
   4  -8   4   29.24    2.09
   4   8   4   26.17    1.92
   4  -8   5   11.15    0.91
   4  -8   5   13.40    1.50
   4   8   5   14.41    1.52
   4  -8   6    0.06    0.72
   4  -8   6    0.94    0.49
   4  -8   7   54.18    2.72
   4  -8   7   56.54    1.72
   4  -8   8  191.22    5.28
   4  -8   8  189.66    3.31
   4  -8   9  127.69    4.19
   4  -8   9  131.70    2.33
   4  -8   9  130.34    2.26
   4  -8  10   16.79    1.57
   4  -8  11   99.39    3.56
   4  -8  12   28.05    1.91
   4  -8  13   26.35    1.84
   4 -10 -17   23.65    2.70
   4 -10 -16   10.35    2.09
   4 -10 -15   43.88    3.42
   4 -10 -14    3.90    1.63
   4 -10 -13   52.40    3.56
   4 -10 -12    3.19    1.26
   4 -10 -11    3.65    1.29
   4 -10 -10    4.84    1.31
   4 -10  -9   20.23    2.12
   4 -10  -8   30.53    2.54
   4 -10  -7   80.00    3.86
   4  10  -6   27.04    1.42
   4 -10  -6   28.38    2.36
   4 -10  -5   46.81    2.82
   4  10  -5   48.09    1.98
   4  10  -4    6.60    0.93
   4 -10  -4    7.42    1.36
   4  10  -3   85.79    2.99
   4 -10  -3   89.60    3.71
   4 -10  -2   11.14    1.46
   4  10  -2    8.75    1.09
   4  10  -1   72.17    2.94
   4 -10  -1   68.62    3.03
   4  10   0   37.94    2.24
   4 -10   0   40.49    2.36
   4  10   1   87.39    3.45
   4 -10   1   86.52    3.25
   4  10   2   22.64    1.91
   4 -10   2   24.39    1.72
   4 -10   3   65.35    2.63
   4 -10   4   25.23    1.62
   4 -10   5   52.46    2.13
   4 -10   6    4.29    0.75
   4 -10   7   21.94    1.23
   4 -10   8    9.47    0.69
   4 -12 -13   16.18    2.40
   4 -12 -12    1.82    1.31
   4 -12 -11    2.11    1.29
   4 -12 -10    2.52    1.39
   4 -12  -9   50.90    3.47
   4 -12  -8   19.77    2.35
   4 -12  -7   44.52    3.18
   4 -12  -6   42.25    3.02
   4 -12  -5   25.44    2.40
   4 -12  -4    0.86    1.03
   4 -12  -3    8.69    1.45
   4 -12  -2    4.00    1.24
   4 -12  -1    4.80    1.28
   4 -12   0   14.04    1.66
   4 -12   1   14.76    1.62
   4 -12   2   26.15    1.95
   4 -12   3   65.70    2.87
   4 -14  -9    5.02    1.78
   4 -14  -8    9.89    2.02
   4 -14  -7   25.16    2.67
   4 -14  -6   17.25    2.32
   4 -14  -5    1.24    1.32
   4 -14  -4    6.44    1.59
   4 -14  -3    8.46    1.69
   5  -1 -27   44.97    3.38
   5  -1 -26   -2.21    1.25
   5  -1 -25   42.88    3.09
   5   1 -24    0.53    0.90
   5  -1 -24    1.25    1.17
   5  -1 -23    1.91    1.09
   5   1 -23    4.21    1.14
   5   1 -22    4.54    1.15
   5  -1 -22    5.81    1.29
   5   1 -21  164.87    5.08
   5  -1 -21  157.61    5.39
   5   1 -20   14.00    1.47
   5  -1 -20   15.37    1.79
   5  -1 -19  133.94    3.29
   5   1 -19  143.10    4.46
   5  -1 -19  140.92    4.78
   5  -1 -18    3.05    0.66
   5   1 -18    3.07    0.94
   5  -1 -18    3.27    1.10
   5   1 -17  156.95    4.48
   5  -1 -17  152.28    3.56
   5  -1 -17  156.75    4.84
   5   1 -16    0.36    0.63
   5  -1 -16    0.43    0.45
   5  -1 -16    1.53    0.95
   5  -1 -15   25.84    1.35
   5  -1 -15   27.71    1.93
   5   1 -15   25.46    1.72
   5  -1 -14    1.67    0.51
   5  -1 -14    1.30    0.80
   5   1 -14    1.84    0.72
   5  -1 -13   68.63    2.20
   5  -1 -13   65.92    2.79
   5   1 -13   66.09    2.54
   5  -1 -12    1.11    0.49
   5   1 -12    0.88    0.72
   5  -1 -12    1.60    0.81
   5  -1 -11  492.40    7.53
   5  -1 -11  479.36    8.58
   5   1 -11  495.08    8.13
   5  -1 -10   12.24    0.95
   5   1 -10   10.58    1.16
   5  -1 -10   10.57    1.23
   5  -1  -9  624.52    9.00
   5  -1  -9  624.82    9.96
   5  -1  -8   30.27    1.42
   5  -1  -8   30.52    1.80
   5  -1  -7  455.52    7.02
   5  -1  -6    5.86    0.79
   5  -1  -5  426.12    6.65
   5  -1  -4  698.50    9.69
   5  -1  -3 1369.86   17.11
   5  -1  -2  545.23    8.00
   5  -1  -1  686.67    9.56
   5  -1   0   90.27    2.49
   5  -1   1  258.93    4.73
   5   1   1  253.64    4.75
   5  -1   2   37.54    1.62
   5   1   2   37.14    1.62
   5   1   3   39.07    1.71
   5  -1   4   98.96    2.70
   5   1   4   99.79    2.85
   5  -1   5  245.42    4.63
   5   1   5  242.12    4.88
   5   1   6    7.52    0.94
   5  -1   6    5.91    0.78
   5   1   7  398.59    7.04
   5  -1   7  394.95    6.65
   5   1   8  332.50    6.33
   5  -1   8  322.88    5.92
   5  -1   9  785.25   11.46
   5   1   9  808.80   12.08
   5  -1  10   98.44    3.00
   5   1  10  104.00    3.34
   5  -1  11   38.55    1.91
   5   1  11   37.24    2.06
   5  -1  12    9.29    1.04
   5   1  12   10.51    1.21
   5  -1  13  104.16    3.35
   5   1  13  108.93    3.68
   5  -1  14   29.74    1.80
   5   1  14   28.13    1.94
   5  -1  15  368.08    7.35
   5   1  15  371.53    7.84
   5  -1  16   33.29    2.03
   5   1  16   28.56    2.06
   5  -1  17  314.23    6.88
   5  -1  18   13.54    1.47
   5  -1  19    4.05    0.99
   5  -3 -27   48.22    3.70
   5  -3 -26    5.58    1.72
   5  -3 -25   45.42    3.48
   5  -3 -24   15.53    2.09
   5  -3 -23    6.55    1.66
   5  -3 -22   19.62    2.24
   5  -3 -21   13.40    1.80
   5   3 -21   16.29    1.43
   5   3 -20    7.18    1.04
   5  -3 -20    5.33    1.31
   5   3 -19  232.03    5.24
   5  -3 -19  225.47    6.66
   5  -3 -19  220.88    5.45
   5  -3 -18   13.97    1.34
   5  -3 -18   17.48    1.93
   5   3 -18   16.36    1.32
   5  -3 -17  211.70    6.15
   5   3 -17  209.57    4.76
   5  -3 -17  207.13    5.14
   5   3 -16   17.77    1.31
   5  -3 -16   16.27    1.76
   5  -3 -16   17.67    1.45
   5  -3 -15   62.01    3.07
   5   3 -15   61.64    2.25
   5  -3 -15   64.38    2.65
   5  -3 -14   44.09    2.56
   5   3 -14   40.41    1.79
   5  -3 -14   48.66    2.26
   5  -3 -13  134.64    4.42
   5   3 -13  133.10    3.34
   5  -3 -13  139.74    3.92
   5  -3 -12    4.45    0.87
   5   3 -12    2.41    0.60
   5  -3 -12    4.67    1.10
   5   3 -11  118.55    2.98
   5  -3 -11  124.41    4.02
   5  -3 -11  123.84    3.61
   5  -3 -10   85.97    3.28
   5  -3 -10   88.12    2.99
   5  -3  -9  964.05   14.48
   5  -3  -9  983.94   13.93
   5  -3  -8   31.11    1.94
   5  -3  -8   30.24    1.75
   5  -3  -7  302.68    6.27
   5  -3  -7  302.46    5.91
   5  -3  -6  225.86    5.13
   5  -3  -6  229.39    4.93
   5  -3  -5   78.48    2.81
   5  -3  -5   77.82    2.64
   5   3  -4   75.33    2.19
   5  -3  -4   81.51    2.72
   5   3  -3  507.80    7.57
   5  -3  -3  506.28    8.26
   5  -3  -2  121.59    3.30
   5   3  -2  124.91    3.00
   5  -3  -1 1510.32   19.49
   5   3  -1 1529.52   18.93
   5  -3   0   39.87    1.85
   5   3   0   38.06    1.71
   5  -3   1  768.96   11.21
   5   3   1  783.07   11.01
   5  -3   2  467.64    7.69
   5   3   2  462.94    7.60
   5   3   3   29.19    1.65
   5  -3   3   30.97    1.69
   5   3   4  301.75    5.89
   5  -3   4  304.09    5.73
   5   3   5 1368.21   18.20
   5  -3   5 1369.35   17.79
   5   3   6   54.44    2.41
   5  -3   6   50.22    2.07
   5  -3   6   49.95    1.83
   5   3   7  673.08   10.81
   5  -3   7  686.43   10.20
   5  -3   7  670.56    9.55
   5  -3   8    1.96    0.76
   5   3   8    0.71    0.76
   5  -3   8    1.26    0.61
   5   3   9  438.76    8.33
   5  -3   9  444.13    7.03
   5   3  10   83.09    3.25
   5  -3  10   77.18    2.40
   5   3  11    8.38    1.19
   5  -3  11    9.16    0.95
   5  -3  12   37.21    1.75
   5   3  12   39.65    2.31
   5  -3  13  133.13    3.48
   5   3  13  140.03    4.52
   5  -3  14   43.70    1.94
   5  -3  15   41.48    1.95
   5  -3  16   18.11    1.35
   5  -3  17  157.53    4.18
   5  -3  18   86.74    3.08
   5  -3  19  138.49    4.01
   5  -5 -24   28.56    2.89
   5  -5 -23    9.89    2.12
   5  -5 -22   75.14    4.34
   5  -5 -21    5.67    1.53
   5  -5 -20   14.04    2.09
   5  -5 -19  164.47    6.01
   5   5 -18   28.47    1.31
   5  -5 -18   28.09    2.48
   5   5 -17   54.85    1.76
   5  -5 -17   56.73    3.35
   5   5 -16   66.89    1.92
   5  -5 -16   70.39    3.63
   5   5 -15    0.55    0.39
   5  -5 -15    1.66    1.05
   5  -5 -15    2.54    0.94
   5   5 -14   45.48    1.53
   5  -5 -14   45.84    2.83
   5  -5 -14   46.08    2.56
   5  -5 -13   48.14    2.81
   5   5 -13   46.92    1.50
   5  -5 -13   47.34    2.59
   5  -5 -12   88.48    3.73
   5  -5 -12   96.15    3.63
   5   5 -12   87.01    2.13
   5   5 -11  228.11    3.96
   5  -5 -11  238.87    6.24
   5   5 -11  239.12    4.08
   5  -5 -11  243.04    6.03
   5  -5 -10   50.14    2.73
   5   5 -10   43.28    1.48
   5  -5 -10   47.36    2.52
   5  -5  -9  112.84    3.95
   5   5  -9  118.65    2.61
   5  -5  -9  116.91    3.94
   5   5  -8  104.59    2.46
   5  -5  -8  104.96    3.79
   5  -5  -8  110.45    3.75
   5   5  -7   22.17    1.10
   5  -5  -7   21.04    1.76
   5  -5  -7   24.35    1.80
   5   5  -6  447.34    6.78
   5  -5  -6  471.85    8.66
   5  -5  -6  441.74    8.40
   5  -5  -5   11.16    1.43
   5   5  -5   13.31    1.00
   5  -5  -5   13.22    1.39
   5  -5  -4  164.09    4.38
   5  -5  -4  175.64    4.66
   5   5  -4  163.97    3.56
   5  -5  -3   79.45    2.92
   5  -5  -3   83.41    3.12
   5   5  -3   78.79    2.40
   5   5  -2   27.76    1.47
   5  -5  -2   30.50    1.82
   5  -5  -2   31.06    1.92
   5   5  -1  373.94    6.53
   5  -5  -1  376.09    6.82
   5  -5  -1  387.40    7.40
   5   5   0  144.98    3.66
   5  -5   0  154.49    4.25
   5   5   1  416.11    7.34
   5  -5   1  427.20    7.93
   5  -5   2   69.24    2.74
   5   5   2   67.71    2.61
   5  -5   3   87.98    3.11
   5   5   3   90.82    3.09
   5  -5   4  125.02    3.73
   5   5   4  129.78    3.83
   5  -5   5  157.69    4.19
   5   5   5  151.53    4.31
   5  -5   6  452.60    8.08
   5   5   6  449.09    8.48
   5  -5   7  563.81    9.45
   5   5   7  582.61   10.28
   5  -5   8  228.77    5.21
   5  -5   8  223.61    4.26
   5   5   8  230.52    5.82
   5  -5   9  262.26    5.60
   5   5   9  268.13    6.47
   5  -5   9  267.38    4.67
   5  -5  10  116.40    3.47
   5   5  10  121.06    4.24
   5  -5  10  112.60    2.72
   5  -5  11    2.00    0.57
   5  -5  11    2.99    0.85
   5  -5  12  208.63    4.00
   5  -5  13    8.67    0.81
   5  -5  14   18.06    1.11
   5  -5  15  205.75    4.05
   5  -5  16   18.87    1.17
   5  -5  17   60.75    2.04
   5  -7 -21    8.79    1.90
   5  -7 -20   41.87    3.38
   5  -7 -19   30.38    2.88
   5  -7 -18    7.94    1.72
   5  -7 -17   20.79    2.36
   5  -7 -16   37.21    2.90
   5  -7 -15   33.58    2.75
   5  -7 -14   53.78    3.32
   5  -7 -13   11.41    1.72
   5  -7 -12  148.42    5.29
   5  -7 -11   93.63    4.05
   5  -7 -10   22.47    2.09
   5   7 -10   18.94    0.74
   5  -7  -9  157.95    5.09
   5   7  -9  166.40    2.96
   5  -7  -8   84.50    3.58
   5   7  -8   88.41    2.15
   5  -7  -7   74.59    3.33
   5   7  -7   70.70    2.02
   5   7  -6  200.20    3.96
   5  -7  -6  204.45    5.56
   5   7  -5   39.42    1.67
   5  -7  -5   39.28    2.37
   5  -7  -5   41.41    2.59
   5   7  -4  182.46    4.04
   5  -7  -4  185.01    5.03
   5  -7  -4  199.75    5.61
   5   7  -3   92.75    2.83
   5  -7  -3   94.90    3.42
   5  -7  -3   98.88    3.85
   5   7  -2  108.78    3.20
   5  -7  -2  115.97    3.70
   5  -7  -2  117.21    4.16
   5   7  -1   48.04    2.14
   5  -7  -1   48.61    2.34
   5  -7  -1   50.75    2.69
   5  -7   0   15.20    1.58
   5   7   0   13.07    1.24
   5  -7   0   13.42    1.36
   5  -7   1   27.06    1.68
   5   7   1   29.33    1.81
   5  -7   1   28.13    2.03
   5  -7   2  156.58    4.01
   5   7   2  152.40    4.35
   5  -7   2  170.45    4.93
   5  -7   3   24.72    1.56
   5   7   3   22.39    1.72
   5  -7   3   27.22    1.99
   5  -7   4  140.93    3.54
   5   7   4  141.81    4.34
   5  -7   4  145.19    4.51
   5  -7   5    6.40    1.09
   5   7   5    7.61    1.29
   5  -7   5    5.98    0.86
   5  -7   6   98.13    3.60
   5  -7   6   98.21    2.69
   5   7   6   99.20    3.74
   5  -7   7   57.55    2.72
   5  -7   7   58.49    1.93
   5  -7   8  175.94    4.93
   5  -7   8  177.58    3.55
   5  -7   9   25.50    1.80
   5  -7   9   26.22    1.20
   5  -7   9   25.97    1.16
   5  -7  10   78.19    3.14
   5  -7  10   76.51    1.95
   5  -7  10   76.84    1.92
   5  -7  11   78.34    3.12
   5  -7  11   77.61    1.79
   5  -7  11   75.13    1.80
   5  -7  12   28.03    1.83
   5  -7  12   24.07    0.89
   5  -7  12   27.14    0.89
   5  -7  13   20.51    1.66
   5  -7  14  100.42    3.45
   5  -9 -18    8.46    2.04
   5  -9 -17   13.61    2.21
   5  -9 -16   48.67    3.54
   5  -9 -15   16.86    2.37
   5  -9 -14   76.14    4.22
   5  -9 -13    0.52    1.14
   5  -9 -12   39.14    2.94
   5  -9 -11   18.01    2.11
   5  -9 -10   44.07    3.02
   5   9  -9   25.04    0.90
   5  -9  -9   27.07    2.38
   5   9  -8  100.31    2.34
   5  -9  -8  103.70    4.33
   5  -9  -7   57.87    3.18
   5   9  -7   58.08    1.92
   5  -9  -6  158.03    5.16
   5   9  -6  149.81    3.47
   5   9  -5   17.57    1.27
   5  -9  -5   19.90    1.94
   5   9  -4  103.38    3.12
   5  -9  -4  106.56    4.02
   5  -9  -3  152.19    4.73
   5   9  -3  146.71    3.95
   5   9  -2    7.52    1.00
   5  -9  -2    7.85    1.23
   5  -9  -1   25.15    1.92
   5   9  -1   22.49    1.64
   5  -9   0   57.17    2.62
   5   9   0   59.31    2.69
   5  -9   1   51.36    2.45
   5   9   1   53.17    2.60
   5  -9   2  103.51    3.34
   5   9   2   98.58    3.69
   5  -9   3   45.00    2.14
   5   9   3   44.42    2.59
   5  -9   4  175.50    4.21
   5  -9   5   23.73    1.48
   5  -9   6   43.93    1.83
   5  -9   7  121.51    2.97
   5  -9   8   13.99    0.94
   5  -9   9   10.21    0.78
   5  -9   9   10.14    0.70
   5  -9  10  126.10    2.12
   5 -11 -15    9.99    2.18
   5 -11 -14   27.32    2.83
   5 -11 -13   19.83    2.57
   5 -11 -12   22.52    2.48
   5 -11 -11    7.06    1.71
   5 -11 -10    5.40    1.41
   5 -11  -9   -0.42    1.18
   5 -11  -8   14.69    1.90
   5 -11  -7   16.41    2.01
   5 -11  -6   83.61    4.03
   5 -11  -5   26.51    2.37
   5 -11  -4   62.91    3.36
   5 -11  -3   48.08    2.94
   5 -11  -2    0.97    0.86
   5 -11  -1   23.24    1.94
   5 -11   0   10.89    1.42
   5 -11   1   13.97    1.52
   5 -11   2   72.55    3.06
   5 -11   3   41.67    2.31
   5 -11   4   98.52    3.33
   5 -11   5   36.69    2.00
   5 -13 -10    0.47    1.18
   5 -13  -9    8.00    1.77
   5 -13  -8    5.06    1.49
   5 -13  -7   18.80    2.26
   5 -13  -6   55.92    3.63
   5 -13  -5   19.30    2.26
   5 -13  -4   19.35    2.18
   5 -13  -3   21.79    2.20
   5 -13  -2    1.93    1.01
   5 -13  -1    7.72    1.55
   5 -13   0    6.57    1.37
   6   0 -26   95.27    4.51
   6   0 -25   -0.33    0.98
   6   0 -24   75.59    3.84
   6   0 -23    1.31    1.00
   6   0 -22    2.64    1.15
   6   0 -21   -0.52    0.93
   6   0 -20   42.27    2.62
   6   0 -19    1.08    0.94
   6   0 -18  158.22    4.79
   6   0 -18  131.88    2.91
   6   0 -17    0.01    0.76
   6   0 -17    0.52    0.41
   6   0 -16  153.93    3.29
   6   0 -16  163.29    4.77
   6   0 -15    0.39    0.42
   6   0 -15    0.32    0.80
   6   0 -14   37.63    1.51
   6   0 -14   42.97    2.28
   6   0 -13    0.51    0.76
   6   0 -13    0.75    0.45
   6   0 -12   66.20    2.05
   6   0 -12   69.34    2.77
   6   0 -11    1.31    0.50
   6   0 -11   -0.79    0.72
   6   0 -10  184.73    4.54
   6   0 -10  178.06    3.68
   6   0  -9    0.99    0.56
   6   0  -8 1374.97   17.19
   6   0  -7    0.49    0.51
   6   0  -6  777.57   10.68
   6   0  -5    0.21    0.56
   6   0  -4  147.03    3.33
   6   0  -3    1.81    0.68
   6   0   2  360.35    6.25
   6   0   3    0.70    0.75
   6   0   4  108.43    3.07
   6   0   5    0.60    0.68
   6   0   6   70.80    2.54
   6   0   7   -0.16    0.62
   6   0   8  963.98   13.77
   6   0   9    0.55    0.75
   6   0  10 1289.28   17.73
   6   0  11    0.31    0.65
   6   0  12   93.07    3.31
   6   0  13    0.15    0.63
   6   0  14   35.43    2.17
   6   0  15   -0.91    0.67
   6   0  16  211.44    5.67
   6  -2 -27    8.07    1.89
   6  -2 -26   70.76    4.23
   6  -2 -25   -0.26    1.10
   6  -2 -24   68.84    3.96
   6   2 -23    3.05    0.98
   6  -2 -23    2.87    1.12
   6   2 -22    3.92    1.00
   6  -2 -22    3.58    1.26
   6  -2 -21   25.71    2.29
   6   2 -21   25.06    1.90
   6   2 -20   25.60    1.90
   6  -2 -20   25.36    2.28
   6  -2 -19    6.15    0.92
   6   2 -19    7.32    1.16
   6  -2 -19    5.51    1.28
   6  -2 -18  211.99    4.95
   6   2 -18  219.86    5.40
   6  -2 -18  219.91    6.28
   6  -2 -17   19.83    1.89
   6  -2 -17   20.41    1.45
   6   2 -17   21.30    1.59
   6  -2 -16  191.01    4.60
   6  -2 -16  193.71    5.63
   6   2 -16  192.65    4.83
   6  -2 -15   10.00    1.05
   6  -2 -15    7.53    1.27
   6   2 -15    8.11    1.02
   6  -2 -14   93.17    3.00
   6  -2 -14   95.19    3.66
   6   2 -14   93.66    3.08
   6  -2 -13   36.15    1.83
   6   2 -13   36.51    1.88
   6  -2 -13   35.90    2.26
   6  -2 -12    2.88    0.72
   6   2 -12    1.20    0.61
   6  -2 -12   -0.09    0.88
   6  -2 -11   45.98    2.03
   6  -2 -11   46.84    2.51
   6  -2 -10  202.35    4.56
   6  -2 -10  202.40    5.15
   6  -2  -9    8.87    1.01
   6  -2  -9    8.17    1.20
   6  -2  -8 1323.57   17.29
   6  -2  -8 1287.06   17.91
   6  -2  -7   84.70    2.72
   6  -2  -6  679.59   10.18
   6  -2  -5   24.21    1.47
   6  -2  -4   92.86    2.82
   6  -2  -3   54.88    2.17
   6  -2  -2  969.07   13.36
   6  -2  -1   97.17    2.93
   6   2  -1   94.12    2.73
   6  -2   0  876.71   12.39
   6  -2   1  206.86    4.48
   6   2   1  204.03    4.41
   6  -2   2  702.35   10.38
   6   2   2  699.66   10.40
   6  -2   3  261.42    5.20
   6   2   3  247.36    5.20
   6  -2   4  201.38    4.48
   6   2   4  194.82    4.51
   6  -2   5  139.06    3.63
   6  -2   5  134.00    3.37
   6   2   5  140.11    3.81
   6   2   6  236.80    5.28
   6  -2   6  240.61    4.86
   6   2   7   29.30    1.81
   6  -2   7   26.67    1.50
   6   2   8  740.94   11.55
   6  -2   8  718.45   10.73
   6   2   9  234.30    5.55
   6  -2   9  212.50    4.73
   6   2  10  443.77    8.41
   6  -2  10  424.66    7.48
   6  -2  11   19.10    1.40
   6   2  11   22.62    1.74
   6  -2  12   77.61    2.76
   6   2  12   79.89    3.27
   6  -2  13   40.87    2.10
   6   2  13   42.55    2.48
   6  -2  14   59.70    2.55
   6  -2  15    0.81    0.66
   6  -2  16  130.28    4.02
   6  -2  17   63.31    2.80
   6  -2  18  182.54    5.03
   6  -2  19    1.85    0.85
   6  -4 -25    4.41    1.53
   6  -4 -24   50.32    3.70
   6  -4 -23   30.96    2.89
   6  -4 -22   66.28    3.95
   6  -4 -21   43.45    3.21
   6   4 -20   13.24    1.20
   6  -4 -20   12.67    1.87
   6   4 -19   30.17    1.70
   6  -4 -19   27.66    2.52
   6  -4 -18  243.49    7.11
   6   4 -18  231.45    4.98
   6  -4 -18  233.87    6.05
   6   4 -17   15.57    1.23
   6  -4 -17   15.62    1.55
   6  -4 -17   12.47    1.76
   6  -4 -16  299.08    7.68
   6   4 -16  301.30    5.67
   6  -4 -16  305.44    6.93
   6  -4 -15   31.85    2.43
   6   4 -15   30.96    1.57
   6  -4 -15   33.55    2.14
   6  -4 -14   48.87    2.86
   6   4 -14   45.98    1.90
   6  -4 -14   51.88    2.60
   6   4 -13   75.62    2.43
   6  -4 -13   77.24    3.49
   6  -4 -13   83.13    3.25
   6   4 -12   21.65    1.27
   6  -4 -12   23.39    1.95
   6  -4 -12   22.12    1.68
   6  -4 -11  146.67    4.72
   6  -4 -11  155.68    4.48
   6  -4 -10  407.36    8.41
   6  -4 -10  421.66    8.10
   6  -4  -9   32.07    2.18
   6  -4  -9   34.85    2.04
   6  -4  -8   66.04    2.96
   6  -4  -8   72.85    2.89
   6  -4  -7   14.61    1.48
   6  -4  -7   14.86    1.36
   6   4  -7   14.04    1.02
   6  -4  -6  236.98    5.59
   6   4  -6  232.61    4.57
   6  -4  -6  237.04    5.49
   6   4  -5  270.88    5.09
   6  -4  -5  265.19    5.91
   6  -4  -5  274.49    5.97
   6   4  -4   95.11    2.73
   6  -4  -4   98.70    3.35
   6  -4  -3  458.50    8.22
   6   4  -3  445.50    7.30
   6  -4  -2  568.07    9.53
   6   4  -2  567.20    8.77
   6  -4  -1   17.39    1.48
   6   4  -1   20.55    1.38
   6  -4   0  528.84    9.00
   6   4   0  527.55    8.53
   6  -4   1  129.72    3.76
   6   4   1  129.08    3.55
   6  -4   2  289.10    6.05
   6   4   2  290.31    5.88
   6   4   3  163.11    4.25
   6  -4   3  169.24    4.34
   6   4   4   24.66    1.70
   6  -4   4   25.36    1.70
   6   4   5  193.56    4.87
   6  -4   5  199.75    4.81
   6  -4   6    8.73    1.12
   6   4   6    6.63    1.08
   6  -4   7   30.47    1.78
   6   4   7   31.65    2.03
   6  -4   7   28.93    1.50
   6  -4   8  862.74   12.90
   6   4   8  866.62   13.69
   6  -4   8  864.65   12.05
   6  -4   9   23.57    1.62
   6   4   9   24.25    1.93
   6  -4   9   21.55    1.34
   6   4  10  137.98    4.49
   6  -4  10  139.85    3.47
   6  -4  11   50.08    2.03
   6  -4  12   94.64    2.86
   6  -4  13  146.66    3.71
   6  -4  14    7.08    0.91
   6  -4  15   82.93    2.78
   6  -4  16  150.95    3.92
   6  -4  17   15.91    1.35
   6  -4  18  183.96    4.56
   6  -6 -22    1.78    1.19
   6  -6 -21   13.61    2.15
   6  -6 -20   32.46    2.91
   6  -6 -19   94.21    4.69
   6  -6 -18   22.61    2.40
   6  -6 -17   14.10    2.00
   6   6 -16   16.41    0.81
   6  -6 -16   17.37    2.08
   6  -6 -15   68.68    3.68
   6   6 -15   66.67    1.78
   6   6 -15   65.45    1.69
   6   6 -14   22.30    0.98
   6   6 -14   22.91    1.04
   6  -6 -14   23.91    2.21
   6  -6 -13  121.72    4.71
   6   6 -13  122.54    2.64
   6   6 -13  124.02    2.61
   6   6 -12   41.65    1.47
   6  -6 -12   44.56    2.85
   6   6 -12   38.75    1.41
   6  -6 -11   41.84    2.71
   6   6 -11   40.94    1.48
   6  -6 -10   47.31    2.79
   6   6 -10   48.48    1.66
   6  -6  -9   51.53    2.84
   6   6  -9   47.49    1.69
   6  -6  -9   49.48    2.77
   6  -6  -8  195.42    5.56
   6   6  -8  190.73    3.86
   6  -6  -8  196.37    5.58
   6  -6  -7  138.99    4.54
   6  -6  -7  146.40    4.70
   6   6  -7  141.10    3.28
   6  -6  -6   40.66    2.46
   6  -6  -6   33.22    2.23
   6   6  -6   34.99    1.59
   6  -6  -5  336.99    7.30
   6  -6  -5  357.82    7.72
   6   6  -5  340.12    6.03
   6   6  -4   27.90    1.54
   6  -6  -4   25.09    1.89
   6  -6  -4   26.78    2.00
   6   6  -3  139.05    3.61
   6  -6  -3  142.78    4.24
   6  -6  -3  147.07    4.58
   6   6  -2   74.39    2.62
   6  -6  -2   69.68    2.85
   6  -6  -2   71.81    3.13
   6   6  -1   60.25    2.39
   6  -6  -1   58.94    2.57
   6  -6  -1   58.56    2.84
   6   6   0  384.89    7.26
   6  -6   0  378.10    7.21
   6  -6   0  402.26    8.14
   6  -6   1  195.78    5.26
   6   6   1  187.71    4.77
   6  -6   2   90.86    3.45
   6   6   2   85.93    3.15
   6  -6   3   89.84    3.42
   6   6   3   88.51    3.26
   6  -6   4   73.47    3.09
   6   6   4   73.21    3.05
   6  -6   5  135.96    4.26
   6   6   5  141.04    4.40
   6  -6   6   47.92    2.46
   6   6   6   50.90    2.76
   6  -6   7   72.68    2.99
   6   6   7   75.76    3.28
   6  -6   8  268.18    6.17
   6  -6   8  253.56    4.92
   6  -6   9   22.18    1.73
   6  -6   9   22.45    1.30
   6  -6  10  160.02    4.52
   6  -6  10  156.12    3.50
   6  -6  11  161.34    4.57
   6  -6  11  164.61    3.56
   6  -6  12   13.38    0.99
   6  -6  12   15.98    1.51
   6  -6  13  140.08    3.18
   6  -6  14   66.32    2.07
   6  -6  15   52.57    1.78
   6  -8 -19   19.13    2.44
   6  -8 -18   11.96    2.02
   6  -8 -17   10.18    1.82
   6  -8 -16   16.28    2.21
   6  -8 -15   29.45    2.71
   6  -8 -14   12.55    1.88
   6  -8 -13   70.78    3.88
   6  -8 -12   35.49    2.76
   6  -8 -11  127.20    4.93
   6   8 -11  105.88    1.93
   6  -8 -10   40.11    2.79
   6   8 -10   40.49    1.30
   6  -8  -9   43.78    2.84
   6   8  -9   46.99    1.59
   6  -8  -8  125.55    4.65
   6   8  -8  125.44    2.94
   6  -8  -7   31.67    2.35
   6   8  -7   33.92    1.54
   6  -8  -6   54.93    2.97
   6   8  -6   50.66    1.98
   6   8  -5   95.98    2.89
   6  -8  -5   98.94    3.90
   6   8  -4   53.34    2.22
   6  -8  -4   55.99    2.91
   6   8  -3  225.64    5.08
   6  -8  -3  227.68    5.87
   6   8  -2   58.65    2.49
   6  -8  -2   61.67    2.92
   6   8  -1   75.13    2.93
   6  -8  -1   81.97    3.21
   6   8   0   36.02    2.08
   6  -8   0   38.55    2.22
   6   8   1   39.96    2.23
   6  -8   1   37.21    2.08
   6   8   2   21.96    1.72
   6  -8   2   20.45    1.58
   6  -8   3  116.80    3.57
   6   8   3  111.59    3.97
   6  -8   4   38.73    2.00
   6   8   4   38.61    2.45
   6  -8   5  199.63    4.58
   6  -8   6   41.15    1.92
   6  -8   7   49.65    2.76
   6  -8   7   47.85    1.95
   6  -8   8    4.03    1.16
   6  -8   8    3.90    0.74
   6  -8   9   76.79    2.28
   6  -8   9   75.61    3.38
   6  -8   9   79.77    2.38
   6  -8  10  153.73    3.20
   6  -8  10  155.85    4.94
   6  -8  10  150.44    3.23
   6  -8  11   77.64    3.39
   6  -8  11   77.96    2.03
   6  -8  11   80.24    2.01
   6  -8  12   15.57    1.61
   6  -8  12   12.44    0.70
   6  -8  13   44.43    2.54
   6 -10 -16    6.26    1.64
   6 -10 -15   29.10    2.84
   6 -10 -14   10.68    1.97
   6 -10 -13   38.50    3.19
   6 -10 -12   37.69    3.06
   6 -10 -11   83.22    4.33
   6 -10 -10    4.48    1.49
   6 -10  -9    8.49    1.61
   6 -10  -8   10.11    1.73
   6 -10  -7   36.14    2.70
   6 -10  -6   35.08    2.63
   6 -10  -5   78.44    3.75
   6  10  -5   73.69    2.66
   6  10  -4   40.76    2.11
   6 -10  -4   45.01    2.82
   6  10  -3   63.78    2.70
   6 -10  -3   65.74    3.26
   6  10  -2    3.27    0.88
   6 -10  -2    2.19    1.02
   6  10  -1   14.24    1.42
   6 -10  -1   13.61    1.48
   6  10   0   11.86    1.36
   6 -10   0   11.96    1.39
   6 -10   1   22.65    1.75
   6 -10   2   16.33    1.55
   6 -10   3   29.95    1.91
   6 -10   4   35.26    2.01
   6 -10   5  124.89    3.62
   6 -10   6   31.17    1.75
   6 -10   7   60.72    2.23
   6 -10   8    4.98    0.75
   6 -12 -12    7.08    1.81
   6 -12 -11   13.88    2.13
   6 -12 -10   15.14    2.16
   6 -12  -9   16.55    2.20
   6 -12  -8   49.14    3.43
   6 -12  -7    1.42    1.33
   6 -12  -6   12.78    1.83
   6 -12  -5   69.50    3.82
   6 -12  -4   39.43    2.89
   6 -12  -3   65.96    3.55
   6 -12  -2    5.59    1.42
   6 -12  -1    8.01    1.46
   6 -12   0    5.61    1.20
   6 -12   1   12.11    1.54
   6 -12   2   15.78    1.63
   6 -12   3   33.87    2.17
   6 -14  -8   -0.56    1.36
   6 -14  -7    7.19    1.78
   6 -14  -6   21.88    2.50
   6 -14  -5   18.68    2.27
   6 -14  -4    6.15    1.66
   7  -1 -27   25.55    2.68
   7  -1 -26    4.31    1.42
   7  -1 -25   72.35    4.06
   7   1 -24   10.74    1.62
   7  -1 -24    9.41    1.61
   7   1 -23   96.80    4.15
   7  -1 -23   85.79    4.22
   7   1 -22    5.97    1.19
   7  -1 -22    8.20    1.49
   7   1 -21   40.16    2.56
   7  -1 -21   37.95    2.70
   7   1 -20    3.82    1.09
   7  -1 -20    2.40    1.07
   7  -1 -19   50.08    2.93
   7   1 -19   51.46    2.74
   7  -1 -18   11.20    1.57
   7   1 -18   12.90    1.50
   7  -1 -18    9.86    1.00
   7  -1 -17  140.27    3.66
   7  -1 -17  149.74    4.90
   7   1 -17  145.47    4.49
   7   1 -16    3.71    1.00
   7  -1 -16    3.52    0.74
   7  -1 -16    2.71    1.06
   7  -1 -15  178.69    4.23
   7  -1 -15  188.85    5.35
   7   1 -15  182.24    4.92
   7  -1 -14    2.72    0.63
   7   1 -14    2.42    0.89
   7  -1 -14    2.69    1.35
   7  -1 -13  120.17    3.33
   7  -1 -13  122.31    4.09
   7   1 -13  126.35    3.84
   7  -1 -12   45.48    1.99
   7   1 -12   47.91    2.32
   7  -1 -12   45.90    2.46
   7  -1 -11   20.07    1.34
   7  -1 -11   20.69    1.71
   7  -1 -10   45.69    2.37
   7  -1 -10   42.60    1.91
   7  -1  -9  651.91    9.90
   7  -1  -8  431.05    7.34
   7  -1  -7 1565.97   20.05
   7  -1  -6  265.97    5.31
   7  -1  -5 1373.91   17.90
   7  -1  -4   60.84    2.28
   7  -1  -3    5.04    0.83
   7  -1  -2   53.79    2.17
   7  -1  -1  676.89   10.27
   7  -1   0    3.36    0.87
   7  -1   1  894.07   12.73
   7   1   1  885.75   12.71
   7   1   2   51.04    2.20
   7   1   3 1005.89   14.16
   7  -1   4  165.77    4.05
   7   1   4  162.02    4.15
   7  -1   5  285.35    5.75
   7   1   5  280.41    5.86
   7  -1   6  149.69    3.92
   7   1   6  142.02    3.98
   7  -1   7  192.16    4.59
   7   1   7  192.14    4.80
   7  -1   8  219.59    5.04
   7   1   8  218.08    5.27
   7   1   9 1006.52   14.91
   7  -1   9  997.75   14.45
   7   1  10   29.64    1.92
   7  -1  10   27.79    1.77
   7  -1  11  526.01    9.25
   7   1  11  527.99    9.64
   7  -1  12   46.44    2.33
   7   1  12   51.89    2.66
   7  -1  13  223.35    5.54
   7   1  13  220.49    5.80
   7  -1  14    2.23    0.86
   7   1  14    3.33    0.98
   7  -1  15   18.54    1.64
   7  -1  16    1.71    0.78
   7  -1  17   65.15    3.08
   7  -3 -26   30.95    3.04
   7  -3 -25   40.19    3.30
   7  -3 -24    2.34    1.35
   7  -3 -23   65.88    3.95
   7  -3 -22   11.12    1.76
   7   3 -21   57.95    2.74
   7  -3 -21   60.25    3.63
   7  -3 -20   70.47    3.81
   7   3 -20   68.92    2.92
   7  -3 -19    6.58    1.07
   7   3 -19    6.67    1.03
   7  -3 -19    5.11    1.22
   7  -3 -18   55.77    2.64
   7  -3 -18   56.92    3.29
   7   3 -18   57.29    2.55
   7  -3 -17  240.14    5.84
   7  -3 -17  250.79    6.93
   7   3 -17  244.46    5.56
   7  -3 -16   39.52    2.21
   7  -3 -16   41.95    2.77
   7   3 -16   40.59    2.09
   7   3 -15  465.22    8.17
   7  -3 -15  454.45    8.61
   7  -3 -15  462.65    9.68
   7  -3 -14   21.40    1.96
   7  -3 -14   22.67    1.66
   7   3 -14   21.03    1.51
   7  -3 -13  119.49    3.79
   7   3 -13  119.34    3.46
   7  -3 -13  124.06    4.42
   7  -3 -12   17.70    1.46
   7  -3 -12   18.74    1.78
   7  -3 -11   27.28    1.78
   7  -3 -11   24.99    1.96
   7  -3 -10  156.10    4.30
   7  -3 -10  157.43    4.75
   7  -3  -9  169.18    4.49
   7  -3  -9  164.78    4.81
   7  -3  -8  178.35    4.58
   7  -3  -8  167.45    4.76
   7  -3  -7  169.91    4.44
   7  -3  -6   19.32    1.47
   7  -3  -5  529.88    9.05
   7  -3  -4  107.63    3.41
   7  -3  -3  131.47    3.83
   7   3  -3  133.81    3.52
   7  -3  -2  112.38    3.53
   7   3  -2  118.08    3.32
   7  -3  -1   86.15    3.02
   7   3  -1   80.75    2.75
   7  -3   0   81.59    2.95
   7   3   0   83.73    2.82
   7  -3   1 1088.78   15.41
   7   3   1 1085.05   15.15
   7  -3   2   90.05    3.10
   7   3   2   86.56    3.01
   7  -3   3  826.36   12.44
   7   3   3  833.47   12.52
   7  -3   4   80.51    2.93
   7   3   4   81.31    2.99
   7  -3   5   62.72    2.59
   7   3   5   60.33    2.60
   7   3   6   76.05    3.00
   7  -3   6   75.26    2.84
   7  -3   6   70.04    2.53
   7   3   7    8.11    1.15
   7  -3   7    7.68    1.07
   7  -3   7    9.31    1.02
   7   3   8   32.03    2.03
   7  -3   8   30.85    1.70
   7   3   9  153.92    4.66
   7  -3   9  147.52    3.89
   7   3  10   17.85    1.67
   7  -3  10   18.39    1.39
   7   3  11  934.97   14.94
   7  -3  11  919.33   13.48
   7  -3  12  167.31    4.33
   7  -3  13   79.99    2.91
   7  -3  14   47.92    2.31
   7  -3  15    5.43    0.95
   7  -3  16   46.87    2.36
   7  -3  17  152.48    4.43
   7  -3  18    2.42    0.88
   7  -5 -23   53.10    3.86
   7  -5 -22    1.40    1.24
   7  -5 -21    7.24    1.63
   7  -5 -20   36.44    3.04
   7  -5 -19   -0.94    1.15
   7  -5 -18   67.89    3.86
   7   5 -18   62.04    2.24
   7  -5 -17   82.90    4.17
   7   5 -17   82.12    2.56
   7  -5 -16   27.69    2.44
   7   5 -16   28.27    1.50
   7  -5 -15  174.11    5.83
   7   5 -15  175.40    3.93
   7   5 -14   26.82    1.45
   7  -5 -14   23.40    2.21
   7   5 -13   54.09    2.04
   7  -5 -13   55.65    3.18
   7  -5 -12   98.98    4.16
   7  -5 -12  100.08    3.88
   7  -5 -11    8.85    1.26
   7  -5 -11   11.37    1.60
   7   5 -11   10.67    0.96
   7   5 -10  133.06    3.34
   7  -5 -10  126.01    4.51
   7  -5 -10  137.39    4.49
   7  -5  -9   18.70    1.81
   7   5  -9   18.83    1.23
   7  -5  -9   18.89    1.71
   7  -5  -8   18.95    1.81
   7   5  -8   17.10    1.23
   7  -5  -8   17.70    1.64
   7  -5  -7  248.67    6.28
   7   5  -7  251.07    5.02
   7  -5  -7  261.06    6.31
   7  -5  -6   14.57    1.53
   7  -5  -6   14.46    1.63
   7   5  -6   13.72    1.11
   7  -5  -5  153.40    4.58
   7   5  -5  158.42    3.86
   7  -5  -5  169.79    4.88
   7  -5  -4  249.53    6.03
   7  -5  -4  235.03    5.74
   7   5  -4  240.95    5.07
   7   5  -3   10.53    1.11
   7  -5  -3   13.43    1.46
   7  -5  -2  329.84    7.09
   7   5  -2  320.35    6.29
   7  -5  -1  297.04    6.68
   7   5  -1  295.37    6.05
   7  -5   0  511.53    9.40
   7   5   0  507.20    8.77
   7   5   1  180.91    4.65
   7  -5   1  181.79    4.96
   7  -5   2   18.29    1.59
   7   5   2   15.37    1.36
   7   5   3  257.99    5.95
   7  -5   3  255.91    6.08
   7  -5   4   71.18    2.97
   7   5   4   67.44    2.86
   7  -5   5   27.00    1.87
   7   5   5   27.82    1.97
   7  -5   6  171.28    4.78
   7   5   6  175.75    5.03
   7  -5   7   82.72    3.26
   7   5   7   82.20    3.45
   7  -5   8  301.62    6.59
   7   5   8  300.15    7.11
   7  -5   8  297.37    5.84
   7  -5   9  105.36    3.64
   7  -5   9  106.39    3.10
   7  -5  10   70.62    2.98
   7  -5  10   69.97    2.49
   7  -5  11  112.12    3.18
   7  -5  12  150.21    3.79
   7  -5  13   72.18    2.55
   7  -5  14  127.34    3.51
   7  -5  15   12.08    1.13
   7  -5  16   39.91    1.93
   7  -7 -21    6.37    1.86
   7  -7 -20   71.66    4.39
   7  -7 -19   16.69    2.25
   7  -7 -18   53.27    3.70
   7  -7 -17   10.29    1.90
   7  -7 -16    7.54    1.65
   7  -7 -15   10.58    1.73
   7   7 -14   31.53    1.14
   7  -7 -14   34.94    3.77
   7  -7 -13   18.66    2.06
   7   7 -13   18.84    0.97
   7   7 -13   18.64    0.98
   7  -7 -12  123.73    4.97
   7   7 -12  131.33    2.89
   7   7 -11    5.88    0.71
   7  -7 -11    4.98    1.41
   7  -7 -10   83.04    3.90
   7   7 -10   92.90    2.54
   7   7  -9   65.35    2.19
   7  -7  -9   63.56    3.34
   7   7  -8   50.07    1.96
   7  -7  -8   49.53    2.93
   7   7  -7  124.14    3.29
   7  -7  -7  118.81    4.41
   7   7  -6   75.15    2.57
   7  -7  -6   74.68    3.41
   7  -7  -5   69.63    3.23
   7   7  -5   66.91    2.48
   7   7  -4  250.02    5.34
   7  -7  -4  257.11    6.38
   7   7  -3   40.76    2.04
   7  -7  -3   45.67    2.58
   7   7  -2  302.37    6.33
   7  -7  -2  298.80    6.77
   7   7  -1   31.22    1.92
   7  -7  -1   31.99    2.10
   7  -7   0   36.19    2.16
   7   7   0   36.37    2.12
   7  -7   1  124.77    4.44
   7   7   1  128.73    4.08
   7  -7   1  121.74    3.84
   7  -7   2   38.44    2.46
   7   7   2   40.78    2.36
   7  -7   2   37.83    2.05
   7  -7   3   88.75    3.68
   7   7   3   83.19    3.41
   7  -7   4  101.13    3.96
   7   7   4  105.81    3.92
   7  -7   5  138.60    4.66
   7  -7   6  206.60    5.79
   7  -7   7   19.66    1.80
   7  -7   8  164.10    5.07
   7  -7   9  206.59    5.74
   7  -7   9  207.38    4.55
   7  -7  10   11.11    1.40
   7  -7  10   12.64    1.09
   7  -7  11   19.35    1.73
   7  -7  11   22.01    1.32
   7  -7  12   32.33    2.20
   7  -7  12   31.11    1.50
   7  -7  13   15.55    1.05
   7  -7  13   13.52    1.49
   7  -9 -17    1.93    1.40
   7  -9 -16    2.39    1.43
   7  -9 -15    6.35    1.68
   7  -9 -14   17.36    2.27
   7  -9 -13   18.08    2.29
   7  -9 -12   67.13    3.88
   7  -9 -11   19.93    2.26
   7  -9 -10   23.70    2.38
   7  -9  -9   57.55    3.41
   7  -9  -8   63.49    3.47
   7   9  -8   64.12    2.21
   7  -9  -7   20.95    2.08
   7   9  -7   19.18    1.32
   7  -9  -6   55.20    3.13
   7   9  -6   53.15    2.23
   7  -9  -5   66.66    3.40
   7   9  -5   61.12    2.49
   7  -9  -4  123.61    4.54
   7   9  -4  123.04    3.73
   7  -9  -3   25.69    2.18
   7   9  -3   25.31    1.77
   7  -9  -2   59.48    3.01
   7   9  -2   57.01    2.64
   7   9  -1    7.10    1.16
   7  -9  -1    5.75    1.20
   7   9   0   56.20    2.76
   7  -9   0   59.84    2.90
   7  -9   1   10.96    1.37
   7   9   1   10.70    1.40
   7  -9   2   23.72    1.80
   7  -9   3   19.90    1.68
   7  -9   4   83.62    3.11
   7  -9   5   30.21    1.91
   7  -9   6  206.41    4.86
   7  -9   7   29.90    1.74
   7  -9   8   53.65    2.15
   7  -9   9   12.18    0.99
   7  -9  10    5.37    0.69
   7 -11 -14    4.28    1.50
   7 -11 -13    2.66    1.46
   7 -11 -12   27.58    2.85
   7 -11 -11   23.62    2.61
   7 -11 -10   21.67    2.44
   7 -11  -9   25.02    2.59
   7 -11  -8   35.24    2.86
   7 -11  -7    8.51    1.70
   7 -11  -6    8.29    1.65
   7 -11  -5    5.15    1.44
   7 -11  -4   64.33    3.51
   7 -11  -3   20.81    2.12
   7 -11  -2   72.55    3.56
   7 -11  -1   48.23    2.90
   7 -11   0   21.42    1.95
   7 -11   1    7.30    1.30
   7 -11   2   17.93    1.71
   7 -11   3    6.41    1.12
   7 -11   4   30.30    1.96
   7 -11   5   13.35    1.38
   7 -13  -9    2.98    1.47
   7 -13  -8    3.43    1.51
   7 -13  -7    1.24    1.19
   7 -13  -6    0.79    1.13
   7 -13  -5    8.77    1.72
   7 -13  -4    8.85    1.66
   7 -13  -3   19.83    2.24
   7 -13  -2   41.89    2.91
   7 -13  -1   13.86    1.83
   8   0 -25   -1.39    1.22
   8   0 -24  121.14    5.03
   8   0 -23    1.49    1.10
   8   0 -22   94.53    4.27
   8   0 -21   -1.37    1.03
   8   0 -20   45.19    2.80
   8   0 -19    0.84    0.93
   8   0 -18    6.93    1.32
   8   0 -17    1.19    0.93
   8   0 -16  231.28    4.74
   8   0 -16  244.83    6.29
   8   0 -15   -0.33    0.80
   8   0 -15    1.64    0.61
   8   0 -14  100.93    2.95
   8   0 -14  109.41    3.92
   8   0 -13    0.09    0.45
   8   0 -13   -1.08    0.87
   8   0 -12  135.46    3.51
   8   0 -12  145.83    4.37
   8   0 -11    0.10    0.49
   8   0 -10   14.62    1.16
   8   0  -9    0.77    0.59
   8   0  -8  633.16    9.74
   8   0  -7    0.88    0.65
   8   0  -6 1185.72   15.98
   8   0   3    0.59    0.70
   8   0   4  508.47    8.82
   8   0   5   -0.51    0.77
   8   0   6  695.77   11.16
   8   0   7    0.12    0.73
   8   0   8   47.84    2.37
   8   0   9    0.59    0.71
   8   0  10  840.95   13.29
   8   0  11    0.99    0.77
   8   0  12  673.80   11.65
   8   0  13    0.87    0.84
   8   0  14   13.77    1.54
   8  -2 -27    2.85    1.57
   8  -2 -26    8.06    1.85
   8  -2 -25   20.98    2.40
   8  -2 -24   61.22    3.81
   8   2 -23    5.09    1.18
   8  -2 -23    6.42    1.51
   8   2 -22   76.86    3.48
   8  -2 -22   78.17    4.10
   8   2 -21    9.85    1.42
   8  -2 -21    8.94    1.60
   8  -2 -20   81.37    4.05
   8   2 -20   86.21    3.52
   8  -2 -19  108.88    4.51
   8   2 -19  105.98    3.93
   8  -2 -18    3.72    0.90
   8  -2 -18    6.39    1.40
   8   2 -18    4.46    1.09
   8   2 -17   12.56    1.43
   8  -2 -17   11.93    1.24
   8  -2 -17   13.17    1.69
   8   2 -16  219.26    5.53
   8  -2 -16  200.27    5.05
   8  -2 -16  220.07    6.28
   8  -2 -15   16.80    1.44
   8  -2 -15   18.35    1.83
   8   2 -15   17.89    1.58
   8   2 -14  416.80    7.98
   8  -2 -14  415.66    8.87
   8  -2 -14  401.39    7.73
   8   2 -13   38.11    2.10
   8  -2 -13   39.15    2.08
   8  -2 -13   37.85    2.44
   8  -2 -12  138.30    4.00
   8  -2 -12  141.77    4.60
   8  -2 -11   42.26    2.13
   8  -2 -11   38.10    2.36
   8  -2 -10   30.62    2.10
   8  -2 -10   33.73    1.88
   8  -2  -9  332.25    6.63
   8  -2  -8   60.83    2.50
   8  -2  -7  156.21    4.20
   8  -2  -6  996.78   14.45
   8  -2  -5   71.22    2.75
   8  -2  -4  494.58    8.63
   8  -2  -3  114.58    3.55
   8  -2  -2  136.93    3.90
   8  -2  -1  288.25    6.05
   8   2  -1  291.69    5.98
   8  -2   0  155.70    4.20
   8   2   0  164.19    4.27
   8  -2   1   53.94    2.44
   8   2   1   55.27    2.48
   8  -2   2  718.27   11.36
   8   2   2  712.45   11.25
   8  -2   3   24.21    1.73
   8   2   3   23.47    1.66
   8   2   4  374.94    7.35
   8  -2   5   51.85    2.35
   8   2   5   52.82    2.51
   8  -2   6  179.06    4.55
   8   2   6  183.52    4.89
   8  -2   7   69.65    2.74
   8   2   7   70.33    2.97
   8   2   8   12.34    1.36
   8  -2   8   15.13    1.34
   8  -2   9    5.47    0.92
   8   2   9    5.60    1.07
   8   2  10  240.01    6.09
   8  -2  10  238.74    5.59
   8   2  11  163.74    5.02
   8  -2  11  163.09    4.56
   8  -2  12  499.90    9.15
   8  -2  13   21.47    1.73
   8  -2  14  179.44    4.99
   8  -2  15   77.66    3.24
   8  -2  16    1.89    0.86
   8  -2  17   63.10    3.02
   8  -4 -24   20.17    2.60
   8  -4 -23    3.55    1.49
   8  -4 -22   92.02    4.75
   8  -4 -21    3.14    1.31
   8  -4 -20   38.62    3.08
   8  -4 -19   11.58    1.82
   8   4 -19   10.42    1.17
   8  -4 -18   12.45    1.81
   8   4 -18   14.19    1.30
   8  -4 -17   49.52    2.75
   8  -4 -17   49.61    3.21
   8   4 -17   51.35    2.36
   8  -4 -16   82.20    3.51
   8  -4 -16   80.13    3.98
   8   4 -16   83.65    2.95
   8  -4 -15   17.12    1.73
   8  -4 -15   16.66    1.98
   8   4 -15   13.98    1.28
   8  -4 -14  307.89    7.15
   8   4 -14  305.09    6.15
   8  -4 -14  301.76    7.74
   8  -4 -13   22.74    1.87
   8  -4 -13   19.79    2.03
   8  -4 -12  118.71    4.10
   8  -4 -12  117.65    4.46
   8  -4 -11   62.58    2.91
   8  -4 -11   57.63    3.06
   8  -4 -10   23.15    1.80
   8  -4 -10   21.35    1.93
   8  -4  -9   83.71    3.34
   8  -4  -9   80.94    3.50
   8  -4  -8   15.74    1.53
   8  -4  -8   11.38    1.44
   8  -4  -7   85.11    3.33
   8  -4  -7   81.86    3.43
   8  -4  -6  120.67    3.97
   8   4  -6  116.38    3.40
   8  -4  -5   24.19    1.80
   8   4  -5   26.71    1.62
   8  -4  -4  831.02   13.18
   8   4  -4  837.95   12.46
   8  -4  -3  133.40    4.17
   8   4  -3  134.89    3.78
   8  -4  -2  171.40    4.79
   8   4  -2  168.55    4.33
   8  -4  -1  386.06    7.82
   8   4  -1  388.26    7.34
   8  -4   0  240.24    5.80
   8   4   0  237.05    5.46
   8  -4   1   76.12    3.12
   8   4   1   82.92    3.08
   8  -4   2  363.96    7.54
   8   4   2  367.36    7.34
   8  -4   3   36.29    2.16
   8   4   3   37.27    2.18
   8  -4   4  204.42    5.30
   8   4   4  208.23    5.35
   8   4   5   76.06    3.30
   8  -4   5   71.17    2.97
   8   4   6  122.06    4.11
   8  -4   6  120.90    3.93
   8   4   7  105.43    3.86
   8  -4   7  112.56    3.81
   8  -4   7  104.13    3.32
   8  -4   8   18.00    1.61
   8   4   8   14.21    1.58
   8  -4   8   15.86    1.38
   8  -4   9  261.50    5.67
   8  -4  10  302.93    6.24
   8  -4  11   94.57    3.20
   8  -4  12  100.10    3.34
   8  -4  13    7.91    1.13
   8  -4  14  138.74    4.07
   8  -4  15   87.30    3.25
   8  -4  16    0.37    0.69
   8  -4  17   34.72    2.08
   8  -6 -21   13.29    2.16
   8  -6 -20   13.41    2.04
   8  -6 -19   33.64    3.03
   8  -6 -18    7.37    1.64
   8  -6 -17   61.14    3.75
   8  -6 -16   16.83    2.11
   8   6 -16   16.04    1.17
   8   6 -15   26.67    1.42
   8  -6 -15   25.86    2.42
   8   6 -14  149.36    3.61
   8  -6 -14  147.19    5.56
   8   6 -14  152.76    3.71
   8  -6 -13   37.28    2.76
   8   6 -13   41.61    1.86
   8   6 -12   82.78    2.66
   8  -6 -12   84.65    4.02
   8   6 -11  110.67    3.14
   8  -6 -11  109.28    4.49
   8  -6 -10    3.95    1.27
   8   6 -10    3.75    0.74
   8  -6  -9  111.14    4.36
   8   6  -9  113.89    3.25
   8  -6  -8   37.54    2.56
   8   6  -8   35.00    1.79
   8  -6  -7   92.78    3.89
   8   6  -7   95.39    3.03
   8  -6  -6  179.75    5.43
   8   6  -6  195.13    4.59
   8  -6  -5   47.40    2.69
   8   6  -5   47.25    2.19
   8  -6  -4  155.62    4.95
   8  -6  -4  146.43    4.64
   8   6  -4  145.04    4.02
   8  -6  -3  151.06    4.90
   8   6  -3  144.72    4.08
   8  -6  -3  142.06    4.48
   8  -6  -2   31.83    2.27
   8   6  -2   32.56    1.94
   8   6  -1  237.91    5.63
   8  -6  -1  242.42    6.33
   8   6   0   36.46    2.13
   8  -6   0   37.00    2.40
   8  -6   1   60.46    2.98
   8   6   1   64.35    2.85
   8  -6   2  102.19    3.93
   8   6   2   95.99    3.57
   8  -6   3  193.71    5.58
   8   6   3  185.05    5.18
   8  -6   4  173.40    5.18
   8   6   4  172.07    5.11
   8  -6   5  129.54    4.42
   8   6   5  124.90    4.38
   8  -6   6  106.45    3.99
   8  -6   7  217.43    5.87
   8  -6   8   17.62    1.68
   8  -6   8   17.09    1.39
   8  -6   9   75.64    3.30
   8  -6   9   73.29    2.72
   8  -6  10    5.63    1.18
   8  -6  10    3.68    0.78
   8  -6  11   57.32    2.90
   8  -6  11   58.36    2.39
   8  -6  12  392.07    7.16
   8  -6  13  126.60    3.57
   8  -6  14   43.33    2.03
   8  -8 -18   16.35    2.28
   8  -8 -17   50.63    3.69
   8  -8 -16    9.43    1.91
   8  -8 -15   21.87    2.48
   8  -8 -14   -1.75    1.28
   8  -8 -13   46.13    3.27
   8  -8 -12   28.49    2.61
   8  -8 -11   77.30    4.02
   8   8 -10   91.46    2.71
   8  -8 -10  101.49    4.53
   8   8  -9  170.87    4.00
   8  -8  -9  171.31    5.84
   8   8  -8    6.66    0.90
   8  -8  -8    6.08    1.39
   8  -8  -7   16.31    1.99
   8   8  -7   15.91    1.31
   8   8  -6  125.50    3.67
   8  -8  -6  124.41    4.72
   8  -8  -5    9.12    1.50
   8   8  -5    8.77    1.08
   8   8  -4   30.82    1.92
   8  -8  -4   30.18    2.35
   8  -8  -3  208.07    5.86
   8   8  -3  195.56    5.08
   8  -8  -2   22.89    2.02
   8   8  -2   22.63    1.76
   8   8  -1   49.83    2.55
   8  -8  -1   51.40    2.72
   8   8   0   17.23    1.62
   8  -8   0   19.52    1.75
   8  -8   1   18.65    1.71
   8   8   1   19.62    1.75
   8  -8   2   42.71    2.36
   8  -8   3   17.43    1.57
   8  -8   4  130.71    4.03
   8  -8   5   81.52    3.09
   8  -8   6   67.22    2.72
   8  -8   9  190.37    4.59
   8  -8  10   26.29    1.60
   8 -10 -15    4.33    1.54
   8 -10 -14    2.95    1.41
   8 -10 -13    6.89    1.57
   8 -10 -12   15.84    2.24
   8 -10 -11   21.51    2.43
   8 -10 -10    7.32    1.67
   8 -10  -9   36.67    2.92
   8 -10  -8   17.76    2.14
   8 -10  -7   54.45    3.36
   8 -10  -6   34.78    2.71
   8 -10  -5   19.55    2.08
   8  10  -4    2.83    0.85
   8 -10  -4    4.17    1.32
   8 -10  -3   66.53    3.44
   8  10  -3   66.90    3.01
   8 -10  -2   66.41    3.40
   8  10  -2   61.87    3.00
   8 -10  -1  156.40    5.15
   8 -10   0   28.71    2.24
   8 -10   1   66.96    3.18
   8 -10   2    5.97    1.26
   8 -10   3   14.33    1.54
   8 -10   4    3.08    0.99
   8 -10   5   46.49    2.38
   8 -10   6   16.96    1.49
   8 -10   7   69.14    2.73
   8 -12 -11   22.22    2.65
   8 -12 -10   12.38    2.09
   8 -12  -9   31.17    2.95
   8 -12  -8   25.95    2.61
   8 -12  -7    3.13    1.35
   8 -12  -6    8.93    1.74
   8 -12  -5    1.05    1.11
   8 -12  -4    7.22    1.58
   8 -12  -3   18.31    2.12
   8 -12  -2   27.36    2.42
   8 -12  -1   49.73    3.06
   8 -12   0    9.50    1.57
   8 -12   1   12.80    1.60
   8 -12   2   13.33    1.59
   8 -14  -6   -2.66    1.50
   8 -14  -5    4.88    1.66
   8 -14  -4    5.05    1.53
   9  -1 -26    1.30    1.21
   9  -1 -25    7.57    1.67
   9   1 -24   12.31    1.66
   9  -1 -24   11.74    1.85
   9   1 -23   46.75    2.99
   9  -1 -23   45.90    3.19
   9   1 -22    3.18    1.21
   9  -1 -22    2.46    1.31
   9  -1 -21  103.54    4.55
   9   1 -21  108.47    4.35
   9  -1 -20    3.00    1.28
   9   1 -20    2.46    1.03
   9  -1 -19  122.66    4.88
   9   1 -19  124.18    4.53
   9  -1 -18   28.35    2.35
   9   1 -18   28.11    2.12
   9  -1 -17   20.99    2.05
   9  -1 -17   20.33    1.49
   9   1 -17   22.55    1.90
   9  -1 -16  121.56    4.52
   9   1 -16  113.81    4.14
   9  -1 -16  111.18    3.48
   9  -1 -15  142.46    4.84
   9  -1 -15  130.53    3.81
   9   1 -15  134.30    4.44
   9  -1 -14   44.25    2.15
   9   1 -14   43.21    2.46
   9  -1 -14   47.99    2.77
   9  -1 -13  322.12    7.42
   9  -1 -13  296.13    6.21
   9  -1 -12   75.23    3.33
   9  -1 -12   75.42    2.81
   9  -1 -11  295.76    6.15
   9  -1 -10    1.00    0.58
   9  -1  -9   46.49    2.18
   9  -1  -8   95.90    3.20
   9  -1  -7  389.74    7.36
   9  -1  -6  116.39    3.58
   9  -1  -5  165.17    4.39
   9  -1  -4   12.65    1.31
   9  -1  -3  953.29   14.10
   9  -1  -2   10.08    1.21
   9  -1  -1  377.28    7.33
   9   1   1  226.95    5.39
   9   1   2   64.56    2.79
   9   1   3  608.24   10.41
   9  -1   4  230.13    5.51
   9   1   4  234.50    5.67
   9  -1   5 1258.87   17.63
   9   1   5 1226.54   17.73
   9  -1   6   27.83    1.82
   9   1   6   31.34    2.02
   9  -1   7  586.77   10.19
   9   1   7  594.78   10.52
   9   1   8    4.75    1.02
   9  -1   8    3.80    0.88
   9  -1   9    6.85    1.08
   9   1   9    6.68    1.20
   9  -1  10    9.22    1.21
   9   1  10    9.42    1.32
   9   1  11  484.24    9.56
   9  -1  11  474.09    9.20
   9  -1  12    5.33    1.05
   9  -1  13  214.31    5.77
   9  -1  14   29.43    2.11
   9  -3 -25    0.71    1.24
   9  -3 -24    1.27    1.40
   9  -3 -23   54.90    3.74
   9  -3 -22   -0.84    1.19
   9  -3 -21   96.37    4.68
   9   3 -21   98.63    3.81
   9  -3 -20    9.71    1.67
   9   3 -20    7.69    1.20
   9  -3 -19   44.83    3.07
   9   3 -19   45.67    2.50
   9   3 -18    9.59    1.27
   9  -3 -18    8.33    1.22
   9  -3 -18    8.70    1.59
   9   3 -17    5.25    1.04
   9  -3 -17    5.75    1.05
   9  -3 -17    5.64    1.44
   9  -3 -16   49.58    2.63
   9   3 -16   56.30    2.67
   9  -3 -16   48.38    3.09
   9  -3 -15   64.93    2.99
   9   3 -15   65.32    2.85
   9  -3 -15   69.56    3.58
   9  -3 -14   53.31    2.72
   9  -3 -14   53.01    3.08
   9  -3 -13  233.53    5.93
   9  -3 -13  241.47    6.66
   9  -3 -12    3.00    1.24
   9  -3 -12    3.55    0.91
   9  -3 -11  159.09    4.71
   9  -3 -11  160.12    5.17
   9  -3 -10   60.21    2.79
   9  -3 -10   57.57    3.00
   9  -3  -9   64.42    2.88
   9  -3  -8   78.51    3.18
   9  -3  -7   -0.30    0.64
   9  -3  -6  147.18    4.39
   9  -3  -5  704.49   11.71
   9  -3  -4    2.63    0.97
   9  -3  -3  391.55    7.88
   9   3  -3  380.36    7.39
   9  -3  -2   40.91    2.28
   9   3  -2   39.82    2.16
   9  -3  -1  191.26    5.11
   9   3  -1  190.06    4.93
   9  -3   0  237.73    5.79
   9   3   0  241.32    5.64
   9  -3   1   78.63    3.16
   9   3   1   69.32    2.89
   9  -3   2   72.69    3.06
   9   3   2   75.33    3.05
   9  -3   3  304.49    6.74
   9   3   3  300.57    6.68
   9  -3   4   18.59    1.67
   9   3   4   17.71    1.61
   9  -3   5  195.19    5.22
   9   3   5  191.53    5.27
   9   3   6    8.79    1.33
   9  -3   6    8.27    1.12
   9  -3   7   61.35    2.69
   9   3   7   63.65    3.02
   9   3   8   41.20    2.50
   9  -3   8   37.79    2.13
   9  -3   9    2.57    0.91
   9  -3  10   20.04    1.59
   9  -3  11    0.45    0.67
   9  -3  12   11.76    1.34
   9  -3  13  399.22    8.08
   9  -3  14   90.09    3.51
   9  -3  15  217.88    5.67
   9  -3  16    4.94    1.16
   9  -3  17   21.96    1.86
   9  -5 -22   27.81    2.91
   9  -5 -21   38.19    3.22
   9  -5 -20    4.27    1.58
   9  -5 -19   38.45    3.11
   9  -5 -18   47.04    3.30
   9  -5 -17    2.71    1.34
   9   5 -17    4.82    0.89
   9   5 -16   40.65    2.07
   9  -5 -16   38.73    2.98
   9   5 -15   97.48    3.22
   9  -5 -15  100.03    4.53
   9  -5 -14   52.19    3.29
   9  -5 -13  123.99    4.94
   9  -5 -12   29.23    2.44
   9  -5 -11  153.44    5.32
   9   5 -11  149.25    4.07
   9  -5 -10   37.91    2.62
   9   5 -10   38.19    2.01
   9   5  -9   40.89    2.08
   9  -5  -9   37.39    2.53
   9  -5  -8   82.43    3.68
   9   5  -8   84.51    3.00
   9  -5  -7    6.98    1.22
   9  -5  -7    7.68    1.39
   9   5  -7    6.86    1.00
   9  -5  -6   73.23    3.34
   9   5  -6   71.91    2.81
   9  -5  -5  365.86    8.05
   9   5  -5  355.69    7.06
   9  -5  -4   14.18    1.66
   9   5  -4   11.19    1.27
   9  -5  -3  458.39    9.25
   9   5  -3  443.81    8.32
   9  -5  -2  189.80    5.46
   9   5  -2  184.90    4.90
   9  -5  -1   96.35    3.82
   9   5  -1   96.68    3.46
   9  -5   0  188.76    5.42
   9   5   0  186.66    5.05
   9   5   1    9.00    1.24
   9  -5   1    7.89    1.31
   9  -5   2   88.92    3.67
   9   5   2   81.48    3.33
   9  -5   3  287.32    6.89
   9   5   3  274.68    6.64
   9   5   4   18.72    1.74
   9  -5   4   15.90    1.66
   9   5   5  251.48    6.44
   9  -5   5  248.46    6.30
   9  -5   6   64.20    3.09
   9  -5   7   42.21    2.49
   9  -5   8  149.33    4.78
   9  -5   8  142.62    4.21
   9  -5   9   69.24    3.20
   9  -5   9   68.35    2.85
   9  -5  10    8.33    1.10
   9  -5  11  131.46    3.98
   9  -5  12   58.84    2.63
   9  -5  13  227.55    5.48
   9  -5  14   19.70    1.63
   9  -5  15   60.77    2.69
   9  -7 -19   27.83    2.85
   9  -7 -18   35.60    3.17
   9  -7 -17    9.26    1.80
   9  -7 -16   45.79    3.34
   9  -7 -15   20.50    2.38
   9  -7 -14   29.22    2.76
   9  -7 -13  135.17    5.43
   9  -7 -12   11.93    1.89
   9  -7 -11   53.67    3.36
   9   7 -11   57.34    2.31
   9  -7 -10  150.42    5.49
   9   7 -10  147.96    3.93
   9   7  -9    9.23    1.09
   9  -7  -9   10.45    1.70
   9  -7  -8   92.40    4.16
   9   7  -8   98.65    3.25
   9  -7  -7   40.35    2.75
   9   7  -7   41.93    2.15
   9  -7  -6   94.84    4.08
   9   7  -6   97.42    3.33
   9  -7  -5   48.65    2.92
   9   7  -5   46.04    2.30
   9  -7  -4   56.97    3.07
   9   7  -4   55.96    2.61
   9   7  -3  217.45    5.48
   9  -7  -3  213.96    6.00
   9   7  -2  185.35    5.08
   9  -7  -2  189.05    5.47
   9   7  -1   28.84    2.02
   9  -7  -1   29.76    2.16
   9   7   0  151.24    4.69
   9   7   1   13.22    1.58
   9   7   2   83.14    3.59
   9  -7   9   31.96    2.00
   9  -7  10  320.09    6.66
   9  -7  11   38.16    2.04
   9  -9 -16   90.79    5.02
   9  -9 -15    4.88    1.61
   9  -9 -14   22.43    2.52
   9  -9 -13    8.84    1.68
   9  -9 -12   33.03    2.81
   9  -9 -11    9.46    1.76
   9  -9 -10   50.54    3.40
   9  -9  -9    4.46    1.40
   9  -9  -8   15.72    1.97
   9  -9  -7   93.59    4.35
   9   9  -6  160.05    4.50
   9  -9  -6  162.40    5.68
   9  -9  -5   15.95    1.99
   9   9  -5   15.71    1.50
   9  -9  -4    7.62    1.42
   9   9  -4    9.91    1.26
   9  -9  -3    3.46    1.21
   9   9  -3    6.69    1.13
   9  -9  -2   69.73    3.42
   9   9  -2   73.29    3.24
   9  -9  -1   35.52    2.53
   9  -9   0  176.75    5.45
   9  -9   1   23.27    2.02
   9  -9   2   71.42    3.24
   9  -9   3   59.56    2.95
   9  -9   4   16.76    1.66
   9  -9   5   18.90    1.74
   9  -9   6   74.11    3.06
   9  -9   7   58.21    2.67
   9  -9   8   70.62    2.83
   9  -9   9   14.68    1.39
   9  -9  10   38.19    1.99
   9 -11 -12    2.87    1.32
   9 -11 -11    6.81    1.67
   9 -11 -10   24.31    2.63
   9 -11  -9   31.27    2.91
   9 -11  -8   69.60    4.04
   9 -11  -7   36.99    2.97
   9 -11  -6   20.65    2.25
   9 -11  -5   15.16    2.01
   9 -11  -4    3.98    1.31
   9 -11  -3    1.27    1.13
   9 -11  -2   11.10    1.65
   9 -11  -1   29.44    2.37
   9 -11   0   73.94    3.63
   9 -11   1   42.55    2.76
   9 -11   2   74.07    3.48
   9 -11   3    2.80    1.00
   9 -11   4    1.79    1.01
   9 -11   5    4.96    1.13
   9 -13  -8   17.64    2.47
   9 -13  -7    1.90    1.29
   9 -13  -6    7.58    1.75
   9 -13  -5    9.44    1.85
   9 -13  -4    6.17    1.63
   9 -13  -3    4.19    1.38
   9 -13  -2   14.32    1.98
   9 -13  -1   18.55    2.17
  10   0 -25   -0.46    1.07
  10   0 -24   -0.29    1.08
  10   0 -23   -0.11    1.01
  10   0 -22   13.85    1.83
  10   0 -21    1.64    1.10
  10   0 -20  142.51    5.24
  10   0 -19    0.35    0.93
  10   0 -18  218.95    6.45
  10   0 -17   -1.15    0.94
  10   0 -16  232.86    6.48
  10   0 -15   -0.07    0.88
  10   0 -14  117.59    4.32
  10   0   2   41.42    2.32
  10   0   3   -0.21    0.74
  10   0   4 1439.92   20.24
  10   0   5    0.70    0.76
  10   0   6 1210.56   17.78
  10   0   7    0.68    0.85
  10   0   8  359.61    7.82
  10   0   9    0.01    0.85
  10   0  10   85.51    3.58
  10   0  11    1.78    1.00
  10  -2 -25    1.26    1.17
  10  -2 -24    2.58    1.37
  10  -2 -23   10.81    1.84
  10  -2 -22   41.37    3.19
  10   2 -22   46.72    2.83
  10  -2 -21   13.70    1.93
  10   2 -21   14.20    1.78
  10  -2 -20  132.22    5.38
  10   2 -20  129.19    4.64
  10   2 -19    8.30    1.31
  10  -2 -19    6.33    1.40
  10  -2 -18  105.85    4.64
  10   2 -18  105.91    4.08
  10  -2 -17   10.62    1.29
  10  -2 -17   10.72    1.66
  10   2 -17   11.72    1.54
  10   2 -16   10.94    1.39
  10  -2 -16   12.84    1.78
  10  -2 -16   10.59    1.30
  10  -2 -15   14.19    1.43
  10   2 -15   15.48    1.59
  10  -2 -15   13.42    1.81
  10  -2 -14   17.73    1.93
  10  -2 -14   17.25    1.55
  10  -2 -13   85.73    3.84
  10  -2 -13   79.90    3.23
  10  -2 -12  333.24    7.24
  10  -2 -12  348.92    8.08
  10  -2 -11  109.80    3.80
  10  -2 -10  152.87    4.54
  10  -2  -9   27.61    1.91
  10  -2  -8   53.91    2.61
  10  -2  -7   34.92    2.09
  10  -2  -6   55.43    2.63
  10  -2  -5   81.48    3.22
  10  -2  -4  203.58    5.32
  10  -2  -3  140.81    4.33
  10  -2  -2 1096.75   16.30
  10  -2  -1   11.40    1.43
  10   2  -1   12.18    1.43
  10  -2   0  373.11    7.76
  10   2   0  376.95    7.76
  10  -2   1  198.95    5.33
  10   2   1  193.36    5.22
  10  -2   2   44.90    2.43
  10   2   2   42.70    2.39
  10   2   3  283.78    6.64
  10   2   4  151.30    4.65
  10  -2   5   56.06    2.70
  10   2   5   58.93    2.91
  10  -2   6  409.52    8.21
  10   2   6  389.82    8.36
  10  -2   7   73.38    3.19
  10   2   7   75.08    3.34
  10  -2   8  402.47    8.17
  10   2   8  403.37    8.66
  10  -2   9   42.27    2.43
  10  -2  10   13.73    1.46
  10  -2  11   20.54    1.82
  10  -2  12  118.19    4.20
  10  -2  13    0.68    0.77
  10  -4 -23   25.45    2.78
  10  -4 -22   24.78    2.74
  10  -4 -21    3.85    1.72
  10  -4 -20   51.38    3.54
  10  -4 -19    5.58    1.55
  10   4 -19    5.14    1.12
  10  -4 -18   71.55    4.03
  10   4 -18   69.74    3.04
  10   4 -17   27.76    1.96
  10  -4 -17   28.74    2.63
  10  -4 -16    3.96    1.38
  10   4 -16    2.48    0.86
  10  -4 -15   79.16    4.04
  10  -4 -14   58.65    3.42
  10  -4 -13   40.72    2.85
  10  -4 -12   91.40    4.12
  10  -4 -11    1.93    1.07
  10  -4 -10  150.60    4.89
  10  -4 -10  143.85    5.08
  10  -4  -9   35.29    2.36
  10  -4  -9   33.24    2.41
  10  -4  -8   81.46    3.53
  10  -4  -7  117.06    4.22
  10   4  -7  110.93    3.69
  10  -4  -6   58.00    2.95
  10   4  -6   65.10    2.81
  10  -4  -5   25.94    2.00
  10   4  -5   23.61    1.76
  10  -4  -4  167.74    5.09
  10   4  -4  167.79    4.69
  10  -4  -3   91.16    3.76
  10   4  -3   95.55    3.52
  10  -4  -2  871.10   14.29
  10   4  -2  859.68   13.63
  10  -4  -1   55.51    2.89
  10   4  -1   53.29    2.67
  10  -4   0  130.97    4.49
  10   4   0  131.67    4.25
  10  -4   1  188.85    5.41
  10   4   1  184.45    5.22
  10   4   2    5.49    1.09
  10  -4   2    6.33    1.21
  10  -4   3   56.69    2.85
  10   4   3   57.23    2.86
  10  -4   4   99.09    3.84
  10   4   4   98.80    3.82
  10  -4   5   37.08    2.36
  10   4   5   34.89    2.34
  10  -4   6   77.51    3.36
  10  -4   7   14.61    1.61
  10  -4   7   16.18    1.55
  10  -4   8  215.31    5.54
  10  -4   9  139.39    4.37
  10  -4  10   66.88    2.96
  10  -4  11  144.14    4.49
  10  -4  12   47.20    2.53
  10  -4  13    8.96    1.30
  10  -4  14  115.24    4.07
  10  -4  15    6.49    1.18
  10  -6 -20   23.91    2.68
  10  -6 -19    3.75    1.53
  10  -6 -18   48.18    3.51
  10  -6 -17   22.14    2.43
  10  -6 -16   28.70    2.69
  10  -6 -15   75.81    4.17
  10  -6 -14   12.29    1.91
  10   6 -13   51.69    2.43
  10  -6 -13   48.87    3.31
  10   6 -12   85.83    3.16
  10  -6 -12   79.82    4.15
  10  -6 -11   15.07    1.98
  10   6 -11   13.00    1.34
  10  -6 -10  119.10    4.85
  10   6 -10  127.78    3.90
  10  -6  -9   81.35    3.93
  10   6  -9   86.15    3.18
  10   6  -8   40.35    2.17
  10  -6  -8   42.86    2.89
  10  -6  -7   87.91    3.95
  10   6  -7   84.36    3.19
  10  -6  -6   11.49    1.65
  10   6  -6   13.81    1.39
  10  -6  -5  248.49    6.70
  10   6  -5  245.73    5.92
  10   6  -4  236.89    5.86
  10   6  -3   87.40    3.42
  10   6  -2  295.54    6.82
  10   6  -1   81.37    3.38
  10   6   0  152.99    4.81
  10   6   1   81.02    3.49
  10   6   2   19.55    1.81
  10  -6   8   37.20    2.19
  10  -6   9   87.20    3.37
  10  -6  10   18.81    1.63
  10  -6  11  189.75    5.08
  10  -6  12   23.85    1.79
  10  -6  13   29.24    1.95
  10  -8 -17   59.74    4.04
  10  -8 -16   25.91    2.80
  10  -8 -15   79.17    4.49
  10  -8 -14   37.78    3.18
  10  -8 -13    0.56    1.11
  10  -8 -12   25.84    2.63
  10  -8 -11   18.47    2.25
  10  -8 -10   28.85    2.60
  10  -8  -9   41.41    3.01
  10   8  -8   19.20    1.55
  10  -8  -8   20.00    2.26
  10   8  -7  145.67    4.33
  10  -8  -7  144.23    5.41
  10   8  -6   11.49    1.38
  10  -8  -6   10.70    1.83
  10   8  -5   72.66    3.10
  10  -8  -5   76.07    3.80
  10   8  -4   10.65    1.34
  10  -8  -4    8.72    1.52
  10   8  -3   74.11    3.22
  10  -8  -3   72.23    3.61
  10  -8  -2    4.90    1.24
  10   8  -2    4.61    1.03
  10  -8  -1   25.98    2.14
  10  -8   0   82.88    3.65
  10  -8   1  238.49    6.34
  10  -8   9   58.42    2.73
  10 -10 -13   37.04    3.29
  10 -10 -12    1.26    1.19
  10 -10 -11   10.35    1.89
  10 -10 -10   10.09    1.89
  10 -10  -9   37.55    3.09
  10 -10  -8   30.12    2.77
  10 -10  -7   51.48    3.44
  10 -10  -6   10.86    1.82
  10 -10  -5   25.38    2.41
  10 -10  -4   15.55    1.96
  10 -10  -3   16.09    1.96
  10 -10  -2    2.68    1.18
  10 -10  -1   38.30    2.70
  10 -10   0   26.77    2.35
  10 -10   1   90.02    3.97
  10 -10   2   26.37    2.20
  10 -10   3   13.55    1.64
  10 -10   4    6.38    1.22
  10 -10   5   15.00    1.63
  10 -10   6    2.91    0.97
  10 -10   7   31.71    2.09
  10 -12  -9   15.13    2.25
  10 -12  -8    4.79    1.58
  10 -12  -7   26.99    2.67
  10 -12  -6   14.56    2.14
  10 -12  -5   26.23    2.61
  10 -12  -4    3.55    1.46
  10 -12  -3    0.63    1.02
  10 -12  -2    4.91    1.44
  10 -12  -1    6.70    1.44
  10 -12   0    7.33    1.45
  10 -12   1   30.80    2.42
  10 -12   2   14.13    1.79
  11  -1 -25   31.56    2.98
  11  -1 -24    6.66    1.59
  11   1 -23    3.49    1.39
  11  -1 -23    6.17    1.59
  11  -1 -22    2.66    1.39
  11   1 -22    1.34    1.27
  11  -1 -21   25.37    2.47
  11   1 -21   30.52    2.49
  11  -1 -20    1.15    1.06
  11   1 -20    0.08    0.98
  11  -1 -19  139.05    5.37
  11   1 -19  136.34    5.05
  11   1 -18    2.00    1.01
  11  -1 -18    2.90    1.25
  11  -1 -17  201.50    6.39
  11   1 -17  192.62    5.95
  11  -1 -16    7.22    1.08
  11   1 -16    7.43    1.29
  11  -1 -16    7.13    1.45
  11  -1 -15  138.25    4.30
  11   1 -15  141.87    4.87
  11  -1 -15  145.50    5.20
  11  -1 -14   16.93    1.88
  11  -1 -14   15.55    1.50
  11  -1 -13   11.37    1.31
  11  -1 -12   91.14    3.48
  11  -1 -11  723.43   12.08
  11  -1 -10   11.69    1.37
  11  -1  -9  627.19   10.95
  11  -1  -8   11.19    1.36
  11  -1  -7  143.81    4.40
  11  -1  -6   29.81    2.03
  11  -1  -5    2.90    0.91
  11   1   1  475.65    9.26
  11   1   2   44.99    2.57
  11   1   3   42.76    2.52
  11  -1   4    5.40    1.09
  11   1   4    4.33    0.97
  11  -1   5  336.02    7.53
  11   1   5  332.60    7.57
  11  -1   6   17.40    1.71
  11   1   6   15.85    1.69
  11  -1   7  640.70   11.51
  11   1   7  631.86   11.64
  11  -1   8   25.40    1.97
  11  -1   9  467.66    9.50
  11  -3 -23    6.26    1.60
  11  -3 -22    8.96    1.86
  11  -3 -21   39.22    3.21
  11  -3 -20   12.25    2.00
  11   3 -20    9.95    1.51
  11  -3 -19   78.07    4.24
  11   3 -19   75.23    3.49
  11  -3 -18    7.84    1.64
  11   3 -18    7.23    1.29
  11   3 -17   77.67    3.46
  11  -3 -17   75.60    4.06
  11  -3 -16   10.81    1.72
  11   3 -16   11.68    1.49
  11  -3 -15   19.45    2.13
  11  -3 -14  199.59    6.43
  11  -3 -13  114.30    4.71
  11  -3 -13  106.54    4.14
  11  -3 -12   52.79    2.89
  11  -3 -12   56.51    3.27
  11  -3 -11   44.34    2.59
  11  -3 -10   24.53    1.99
  11  -3  -9  295.44    7.13
  11  -3  -8   53.81    2.86
  11  -3  -7  138.01    4.60
  11  -3  -6   52.22    2.78
  11  -3  -5   13.04    1.53
  11  -3  -4  118.01    4.21
  11   3  -4  119.32    4.08
  11  -3  -3  545.13   10.38
  11   3  -3  563.66   10.25
  11  -3  -2    5.94    1.24
  11   3  -2    6.88    1.25
  11  -3  -1  558.89   10.61
  11   3  -1  570.33   10.47
  11  -3   0   21.04    1.84
  11   3   0   18.49    1.70
  11  -3   1  445.89    9.20
  11   3   1  448.29    9.05
  11  -3   2  131.47    4.52
  11   3   2  129.73    4.42
  11  -3   3    6.91    1.22
  11   3   3    6.83    1.22
  11   3   4  287.94    7.11
  11  -3   6  106.31    3.97
  11  -3   7  499.70    9.78
  11  -3   8   42.19    2.55
  11  -3   9  160.21    4.97
  11  -3  10   18.91    1.74
  11  -3  11   87.79    3.67
  11  -3  12   72.11    3.34
  11  -5 -21   18.40    2.42
  11  -5 -20   19.30    2.42
  11  -5 -19   35.69    3.16
  11  -5 -18    7.95    1.77
  11  -5 -17   77.42    4.31
  11   5 -17   75.91    3.15
  11   5 -16   31.70    2.09
  11  -5 -16   30.16    2.78
  11  -5 -15   21.21    2.32
  11  -5 -14   56.35    3.54
  11  -5 -13    3.73    1.40
  11  -5 -12   48.39    3.27
  11   5 -11   52.35    2.63
  11  -5 -11   48.55    3.26
  11  -5 -10   38.22    2.86
  11   5 -10   37.23    2.22
  11   5  -9  182.89    5.13
  11  -5  -9  183.04    5.97
  11  -5  -8   73.02    3.71
  11   5  -8   81.21    3.29
  11   5  -7   99.74    3.69
  11   5  -6  165.29    4.87
  11   5  -5   11.23    1.36
  11   5  -4   69.39    3.10
  11   5  -3  160.55    4.87
  11   5  -2   33.01    2.24
  11   5  -1  369.35    8.10
  11   5   0  278.19    6.88
  11   5   1  260.39    6.67
  11  -5   8   95.58    3.74
  11  -5   9  167.89    5.07
  11  -5  10  136.02    4.50
  11  -5  11   43.56    2.51
  11  -5  12  132.56    4.46
  11  -5  13    7.11    1.20
  11  -7 -18   10.99    2.00
  11  -7 -17   43.72    3.52
  11  -7 -16   59.07    3.96
  11  -7 -15    5.96    1.63
  11  -7 -14  103.04    5.05
  11  -7 -13   30.62    2.84
  11  -7 -12  107.29    5.03
  11  -7 -11  111.37    4.97
  11   7 -10    2.46    1.00
  11  -7 -10    2.60    1.28
  11  -7  -9   53.76    3.38
  11   7  -9   57.64    2.72
  11  -7  -8   29.15    2.60
  11   7  -8   33.33    2.12
  11   7  -7   11.06    1.29
  11  -7  -7   11.69    1.80
  11  -7  -6   72.45    3.75
  11   7  -6   75.02    3.24
  11  -7  -5   42.44    2.95
  11   7  -5   39.44    2.38
  11   7  -4   32.94    2.20
  11  -7  -4   35.59    2.56
  11   7  -3   22.16    1.88
  11  -7   9   57.62    2.89
  11  -7  10   84.28    3.52
  11  -9 -14   36.08    3.23
  11  -9 -13   10.49    2.00
  11  -9 -12   37.05    3.14
  11  -9 -11   14.43    2.14
  11  -9 -10    5.52    1.52
  11  -9  -9    2.52    1.35
  11  -9  -8   28.93    2.71
  11  -9  -7    8.47    1.63
  11  -9  -6   92.89    4.45
  11  -9  -5   29.21    2.58
  11  -9  -4   96.11    4.41
  11  -9  -3    1.33    1.23
  11  -9  -2   14.53    1.85
  11  -9  -1    8.75    1.57
  11  -9   0    3.46    1.35
  11  -9   1    9.61    1.61
  11  -9   2  129.59    4.75
  11  -9   3   37.69    2.56
  11  -9   4   79.72    3.56
  11  -9   5   37.09    2.44
  11 -11 -10    2.33    1.31
  11 -11  -9    5.05    1.70
  11 -11  -8   19.58    2.39
  11 -11  -7   13.06    2.00
  11 -11  -6   28.78    2.80
  11 -11  -5   21.80    2.36
  11 -11  -4   27.66    2.62
  11 -11  -3   13.82    1.97
  11 -11  -2    2.93    1.26
  11 -11  -1    0.46    1.01
  11 -11   0   10.45    1.67
  11 -11   1    4.28    1.37
  11 -11   2   51.88    3.13
  11 -11   3   19.26    2.00
  11 -11   4   52.50    3.00
  11 -13  -6   20.16    2.69
  11 -13  -5    4.27    1.63
  11 -13  -4   10.08    1.94
  11 -13  -3    9.93    1.87
  11 -13  -2    9.76    1.89
  12   0 -24   82.90    4.43
  12   0 -23    0.80    1.22
  12   0 -22    3.81    1.43
  12   0 -21   -0.18    0.99
  12   0 -20   12.58    1.79
  12   0 -19    0.10    0.99
  12   0 -18  119.59    4.91
  12   0 -17    0.71    1.00
  12   0 -16  294.85    7.86
  12   0 -15    0.13    0.93
  12   0   2  694.86   12.30
  12   0   3    0.67    0.76
  12   0   4  111.65    4.22
  12   0   5   -0.18    0.86
  12  -2 -24   38.07    3.30
  12  -2 -23    6.68    1.62
  12  -2 -22    4.28    1.51
  12   2 -22    6.41    1.49
  12  -2 -21    3.08    1.34
  12   2 -21    3.43    1.14
  12   2 -20    7.85    1.44
  12  -2 -20    5.52    1.41
  12   2 -19    9.64    1.52
  12  -2 -19   10.83    1.87
  12   2 -18   83.62    3.93
  12  -2 -18   82.93    4.31
  12  -2 -17    2.49    1.24
  12   2 -17    0.46    1.01
  12  -2 -16  127.99    5.20
  12   2 -16  124.68    4.68
  12  -2 -15    2.88    1.39
  12  -2 -15    0.80    0.81
  12  -2 -14   75.15    3.39
  12  -2 -14   76.43    3.92
  12  -2 -13   19.28    2.09
  12  -2 -13   17.99    1.72
  12  -2 -12    5.57    1.14
  12  -2 -11   85.81    3.58
  12  -2 -10  593.77   11.03
  12  -2  -9   17.76    1.80
  12  -2  -8  289.96    7.04
  12  -2  -7    8.67    1.33
  12  -2  -6  149.26    4.83
  12  -2  -5   42.84    2.59
  12  -2  -4    5.11    1.14
  12  -2  -3   89.70    3.72
  12  -2  -2  120.78    4.36
  12   2  -2  127.40    4.40
  12  -2  -1   73.62    3.38
  12   2  -1   71.54    3.30
  12   2   0  578.08   10.98
  12   2   1   40.58    2.52
  12   2   2  315.42    7.56
  12  -2   5   20.11    1.81
  12  -2   6  131.32    4.63
  12  -2   7   32.96    2.41
  12  -4 -21   30.32    2.97
  12  -4 -20   12.67    2.02
  12   4 -19   13.26    1.62
  12  -4 -19   13.39    2.00
  12   4 -18   89.00    3.78
  12  -4 -18   87.23    4.64
  12  -4 -17    6.78    1.59
  12   4 -17    5.63    1.31
  12  -4 -16   70.36    4.08
  12  -4 -15   27.99    2.59
  12  -4 -14   28.12    2.60
  12  -4 -13   84.73    4.26
  12  -4 -12   11.18    1.75
  12  -4 -11  124.29    5.00
  12   4  -7   94.20    3.73
  12   4  -6  199.61    5.64
  12   4  -5   73.10    3.38
  12   4  -4   17.88    1.75
  12   4  -3  127.67    4.50
  12   4  -2   20.70    1.88
  12   4  -1   29.09    2.15
  12  -4   7   27.60    2.21
  12  -4   8  136.03    4.70
  12  -6 -18   19.66    2.57
  12  -6 -17    6.57    1.67
  12  -6 -16   54.77    3.82
  12  -6 -15   54.40    3.74
  12  -6 -14   78.82    4.39
  12  -6 -13  133.87    5.65
  12  -6 -12   22.19    2.51
  12  -6 -11   31.64    2.76
  12   6 -11   31.22    2.21
  12   6 -10   43.46    2.52
  12  -6 -10   41.02    3.12
  12  -6  -9   38.78    2.94
  12   6  -9   36.61    2.34
  12  -6  -8   82.68    4.10
  12   6  -8   90.72    3.64
  12  -6  -7   22.94    2.33
  12   6  -7   21.05    1.82
  12   6  -6   49.78    2.72
  12   6  -5   82.04    3.55
  12  -8 -15   11.84    2.20
  12  -8 -14   33.45    3.06
  12  -8 -13   71.03    4.36
  12  -8 -12    4.12    1.66
  12  -8 -11   44.09    3.39
  12  -8 -10   45.95    3.38
  12  -8  -9   31.31    2.83
  12  -8  -8   32.54    2.82
  12  -8  -7   41.58    3.11
  12  -8  -6   30.38    2.70
  12  -8  -5   80.67    4.11
  12  -8  -4   34.58    2.78
  12  -8  -3  117.52    4.86
  12  -8  -2   39.62    2.83
  12 -10 -11   67.31    4.26
  12 -10 -10    2.19    1.46
  12 -10  -9    8.38    1.92
  12 -10  -8    9.78    1.88
  12 -10  -7   25.18    2.71
  12 -10  -6   12.03    2.68
  12 -10  -5   54.35    3.58
  12 -10  -4   23.13    2.41
  12 -10  -3   45.35    3.26
  12 -10  -2   11.53    1.88
  12 -10  -1   51.42    3.32
  12 -10   0    6.23    1.40
  12 -10   1   15.07    1.85
  12 -10   2   11.19    1.73
  12 -10   3   54.98    3.22
  12 -10   4   24.58    2.21
  12 -10   5   52.93    3.04
  12 -10   6   17.89    1.88
  12 -12  -7   11.35    2.05
  12 -12  -6   10.96    1.95
  12 -12  -5   12.06    2.23
  12 -12  -4   21.93    2.57
  12 -12  -3   31.88    2.84
  12 -12  -2    1.29    1.14
  12 -12  -1    1.90    1.17
  12 -12   0    6.59    1.49
  12 -12   1    3.05    1.29
  13  -1 -24    5.44    1.77
  13  -1 -23   65.99    4.15
  13   1 -23   62.85    3.84
  13  -1 -22    0.97    1.28
  13   1 -22    5.43    1.58
  13   1 -21   35.05    2.84
  13  -1 -21   26.56    2.65
  13  -1 -20    8.44    1.75
  13   1 -20   12.33    1.81
  13  -1 -19    7.37    1.72
  13   1 -19    8.48    1.56
  13  -1 -18    4.29    1.50
  13   1 -18    4.78    1.39
  13   1 -17   56.70    3.38
  13  -1 -17   57.62    3.58
  13   1 -16   14.53    1.91
  13  -1 -16   14.36    1.90
  13  -1 -15  229.36    7.03
  13  -3 -21    8.93    1.85
  13   3 -20   11.94    1.72
  13  -3 -20    9.69    1.90
  13  -3 -19   -0.84    1.21
  13   3 -19    3.83    1.21
  13   3 -18    4.24    1.24
  13  -3 -18    7.41    1.68
  13  -3 -17   49.25    3.45
  13   3 -17   48.16    2.93
  13  -3 -16   24.53    2.48
  13  -3 -15   98.77    4.77
  13  -3 -14    7.47    1.70
  13  -3 -13  174.24    6.19
  13  -5 -19   12.08    2.12
  13  -5 -18   25.59    2.77
  13   5 -17   35.90    2.45
  13  -5 -17   37.73    3.20
  13  -5 -16    8.65    1.78
  13  -5 -15   62.66    3.97
  13  -5 -14   32.56    2.90
  13  -5 -13   87.80    4.58
  13  -5 -12  159.70    6.10
  13  -5 -11    6.29    1.66
  13  -5 -10  167.52    6.08
  13  -7 -16    5.73    1.92
  13  -7 -15   23.58    2.76
  13  -7 -14    3.96    1.59
  13  -7 -13   10.24    2.01
  13  -7 -12   62.78    4.01
  13  -7 -11   37.29    3.13
  13  -7 -10  111.65    5.20
  13  -7  -9   42.89    3.29
  13  -7  -8   55.34    3.61
  13  -7  -7   40.28    3.07
  13  -7  -6    4.27    1.27
  13  -9 -12   58.62    4.07
  13  -9 -11   18.81    2.47
  13  -9 -10   73.28    4.45
  13  -9  -9   13.48    2.17
  13  -9  -8   10.96    1.95
  13  -9  -7   14.24    2.14
  13  -9  -6   27.29    2.70
  13  -9  -5   18.09    2.17
  13  -9  -4   54.89    3.57
  13  -9  -3   19.37    2.29
  13  -9  -2   82.99    4.23
  13  -9  -1   21.45    2.22
  13  -9   0   12.73    1.83
  13  -9   1   18.44    2.05
  13 -11  -8    7.19    1.84
  13 -11  -7    1.46    1.40
  13 -11  -6    5.45    1.70
  13 -11  -5   10.07    1.99
  13 -11  -4   35.22    3.08
  13 -11  -3    8.10    1.68
  13 -11  -2   42.62    3.26
  13 -11  -1   11.26    1.86
  13 -11   0    7.39    1.58
  13 -11   1   -0.28    1.06
  13 -11   2    5.00    1.44
  13 -11   3    3.74    1.20
  14   0 -23    0.03    1.15
  14   0 -22   63.41    4.00
  14   0 -21    1.55    1.29
  14   0 -20   38.03    3.10
  14   0 -19    1.73    1.25
  14   0 -18    2.23    1.22
  14   0 -17    1.23    1.15
  14   0 -16   51.07    3.33
  14  -2 -22   99.61    5.21
  14  -2 -21    2.62    1.37
  14   2 -21    0.96    1.24
  14   2 -20   33.94    2.82
  14  -2 -20   34.40    3.09
  14  -2 -19    7.10    1.74
  14   2 -19    5.86    1.58
  14  -2 -18    5.37    1.63
  14   2 -18    3.53    1.29
  14  -2 -17   28.80    2.79
  14   2 -17   29.78    2.54
  14  -2 -16   81.76    4.42
  14  -2 -15   15.34    2.15
  14  -2 -14  182.26    6.44
  14  -4 -19   22.84    2.65
  14  -4 -18    2.60    1.45
  14   4 -18    1.84    1.16
  14  -4 -17   34.07    3.13
  14  -4 -16   19.46    2.42
  14  -4 -15    4.90    1.61
  14  -4 -14   70.80    4.17
  14  -4 -13   25.65    2.65
  14  -4 -12  219.36    7.25
  14  -6 -16   19.81    2.57
  14  -6 -15   18.03    2.46
  14  -6 -14   40.41    3.36
  14  -6 -13   11.32    2.06
  14  -6 -12   31.25    2.91
  14  -6 -11   78.39    4.41
  14  -6 -10    7.88    1.76
  14  -6  -9  178.66    6.53
  14  -8 -13    5.74    1.76
  14  -8 -12   20.49    2.59
  14  -8 -11   43.99    3.49
  14  -8 -10    7.71    1.81
  14  -8  -9   54.78    3.83
  14  -8  -8   15.73    2.20
  14  -8  -7   32.59    3.02
  14  -8  -6   31.63    2.90
  14  -8  -5    8.70    1.67
  14  -8  -4   39.82    3.08
  14 -10  -8   10.78    2.03
  14 -10  -7   18.19    2.43
  14 -10  -6    8.28    1.86
  14 -10  -5    1.47    1.17
  14 -10  -4   10.34    1.88
  14 -10  -3   37.83    3.10
  14 -10  -2   12.23    2.00
  14 -10  -1   32.77    2.93
  14 -10   0   12.59    1.92
  14 -10   1   53.17    3.47
  14 -10   2    9.32    1.82
  14 -10   3   13.35    1.92
  14 -10   4    6.87    1.57
  14 -10   5    8.02    1.56
  14 -10   6   16.64    1.96
  14 -12  -3   11.34    2.18
  14 -12  -2   10.89    2.06
  14 -12  -1   19.65    2.47
  14 -12   0   19.91    2.41
  15   1 -22    3.38    1.37
  15  -1 -21   82.96    4.72
  15   1 -21   80.87    4.40
  15  -1 -20    1.74    1.47
  15   1 -20    0.37    1.12
  15  -1 -19   59.96    4.04
  15   1 -19   61.08    3.85
  15   1 -18   -0.21    1.08
  15  -1 -18    0.54    1.34
  15   1 -17   -0.45    1.04
  15  -1 -17    0.92    1.23
  15  -1 -16    5.41    1.64
  15  -3 -19   86.61    4.91
  15   3 -19   90.15    4.41
  15  -3 -18   41.11    3.39
  15   3 -18   45.90    3.19
  15  -3 -17   11.23    1.95
  15  -3 -16   10.42    1.93
  15  -3 -15   28.47    2.72
  15  -3 -14   27.81    2.75
  15  -5 -16   23.09    2.79
  15  -5 -15   11.03    2.10
  15  -5 -14   16.68    2.26
  15  -5 -13   44.52    3.47
  15  -5 -12   11.91    2.11
  15  -5 -11   89.80    4.71
  15  -7 -13   11.27    2.25
  15  -7 -12    7.66    1.83
  15  -7 -11   32.22    3.07
  15  -7 -10   59.67    4.02
  15  -7  -9   26.04    2.77
  15  -7  -8  113.86    5.35
  15  -7  -7    0.85    1.15
  15  -9  -9   23.27    2.77
  15  -9  -8   54.85    3.96
  15  -9  -7    9.84    2.09
  15  -9  -6   38.99    3.28
  15  -9  -5    6.47    1.73
  15  -9  -4   11.34    1.99
  15  -9  -3   21.48    2.49
  15  -9  -2   30.50    2.76
  15  -9  -1   26.94    2.70
  15 -11  -4    2.65    1.66
  15 -11  -3   -0.64    1.46
  15 -11  -2    7.40    1.71
  15 -11  -1    7.10    1.74
  15 -11   0   13.65    2.09
  15 -11   1   27.37    2.73
  15 -11   2   46.05    3.40
  15 -11   3   26.66    2.67
  16   0 -21    2.83    1.44
  16   0 -20  120.90    5.64
  16   0 -19    1.69    1.32
  16   0 -18   72.65    4.28
  16   0 -17    2.90    1.39
  16   2 -20   61.49    3.92
  16   2 -19   12.81    2.02
  16  -2 -19    9.22    1.98
  16  -2 -18   98.75    5.19
  16   2 -18   93.07    4.70
  16  -2 -17   13.60    2.27
  16  -2 -16   10.49    1.90
  16  -2 -15   12.84    2.01
  16  -4 -16   35.63    3.35
  16  -4 -15   62.21    4.17
  16  -4 -14    4.87    1.75
  16  -4 -13    3.80    1.30
  16  -6 -13   36.41    3.36
  16  -6 -12   28.94    3.08
  16  -6 -11   10.56    2.08
  16  -6 -10   40.47    3.34
  16  -8  -9   34.45    3.30
  16  -8  -8   21.23    2.58
  16  -8  -7  146.02    6.35
  16  -8  -6   19.60    2.56
  16  -8  -5   38.59    3.26
  16 -10  -4   13.52    2.19
  16 -10  -3    8.01    1.98
  16 -10  -2    4.85    1.62
  16 -10  -1   17.26    2.40
  16 -10   0    3.40    1.46
  16 -10   1   38.43    3.22
  16 -10   2   15.69    2.19
  16 -10   3   76.08    4.27
  16 -10   4   13.58    2.06
  17   1 -20    4.32    1.55
  17   1 -19  112.10    5.48
  17  -1 -18   11.44    2.14
  17   1 -18   10.13    1.90
  17  -1 -17  134.79    6.08
  17  -1 -16   26.37    2.81
  17   3 -18    4.31    1.52
  17  -3 -16   16.80    2.45
  17  -3 -15   52.83    3.86
  17  -3 -14    7.24    1.99
  17  -5 -13    4.36    1.77
  17  -5 -12   24.69    2.80
  17  -7  -9   21.71    2.70
  17  -7  -8   21.44    2.59
  17  -9  -4   82.25    4.77
  17  -9  -3   21.17    2.65
  17  -9  -2   12.16    2.19
  18   0 -17    1.52    1.40
  18   2 -19    5.73    1.87
  18   2 -18   47.90    3.64
  18 -10   2   13.36    2.37
   0   0   0    0.00    0.00


TITL pvl729_auto in Cc
REM Cc (#9 in standard setting)
CELL 0.71073  17.596022  11.243887  21.121667  90.0000  91.8302  90.0000
ZERR    8.00   0.000652   0.000499   0.000796   0.0000   0.0033   0.0000
LATT -7
SYMM  x,-y, z+1/2
SFAC C H N O S Cd
UNIT 160.00 160.00 32.00 32.00 8.00 8.00
REM  CrysAlisPro recorded range (K): Min=150.0; max=150.0; aver:150.0
TEMP -123
TREF
HKLF 4
END
_computing_structure_solution     'SHELXT 2018/2 (Sheldrick, 2018)'
;
_shelx_hkl_checksum   66961

